MODEL        1
REMARK 921   NORMALIZED FREE ENERGY PREDICTED BY IDOCK:   -7.13 KCAL/MOL
REMARK 922        TOTAL FREE ENERGY PREDICTED BY IDOCK:  -12.69 KCAL/MOL
REMARK 923 INTER-LIGAND FREE ENERGY PREDICTED BY IDOCK:  -10.05 KCAL/MOL
REMARK 924 INTRA-LIGAND FREE ENERGY PREDICTED BY IDOCK:   -2.63 KCAL/MOL
REMARK 927      BINDING AFFINITY PREDICTED BY RF-SCORE:    0.00 PKD
ROOT
HETATM    1  C   UNL     1     -11.356  14.750  66.010  1.00  0.00    -0.332 C  
HETATM    2  C   UNL     1     -10.233  15.358  65.601  1.00  0.00    -0.403 C  
HETATM    3  C   UNL     1     -12.303  14.253  65.006  1.00  0.00    -0.428 C  
HETATM    4  H   UNL     1     -13.622  12.869  64.794  1.00  0.00     0.000 HD 
HETATM    5  O   UNL     1     -13.008  13.190  65.445  1.00  0.00    -0.617 OA 
ENDROOT
BRANCH   2   6
HETATM    6  C   UNL     1      -9.258  15.846  66.569  1.00  0.00    -0.310 A  
HETATM    7  C   UNL     1      -9.498  15.721  67.939  1.00  0.00    -0.212 A  
HETATM    8  C   UNL     1      -8.512  16.089  68.859  1.00  0.00    -0.232 A  
HETATM    9  C   UNL     1      -8.049  16.384  66.120  1.00  0.00    -0.193 A  
HETATM   10  C   UNL     1      -7.278  16.582  68.414  1.00  0.00    -0.169 A  
HETATM   11  C   UNL     1      -7.064  16.748  67.038  1.00  0.00    -0.238 A  
BRANCH  10  12
HETATM   12  C   UNL     1      -6.152  16.803  69.393  1.00  0.00    -0.211 C  
BRANCH  12  13
HETATM   13  N   UNL     1      -5.401  18.029  69.120  1.00  0.00    -0.191 NA 
HETATM   14  H   UNL     1      -5.283  18.179  68.118  1.00  0.00     0.000 HD 
BRANCH  13  15
HETATM   15  C   UNL     1      -6.018  19.197  69.769  1.00  0.00    -0.255 C  
BRANCH  15  16
HETATM   16  C   UNL     1      -5.999  20.465  68.902  1.00  0.00    -0.363 C  
BRANCH  16  17
HETATM   17  C   UNL     1      -6.854  20.342  67.678  1.00  0.00    -0.331 A  
HETATM   18  C   UNL     1      -6.484  20.575  66.362  1.00  0.00    -0.237 A  
HETATM   19  N   UNL     1      -7.600  20.396  65.581  1.00  0.00    -0.534 NA 
HETATM   20  C   UNL     1      -5.188  20.966  65.750  1.00  0.00    -0.235 C  
HETATM   21  H   UNL     1      -7.624  20.512  64.568  1.00  0.00     0.000 HD 
HETATM   22  C   UNL     1      -8.680  20.040  66.350  1.00  0.00    -0.302 A  
HETATM   23  C   UNL     1     -10.002  19.772  65.977  1.00  0.00    -0.541 A  
HETATM   24  C   UNL     1     -10.903  19.420  66.986  1.00  0.00    -0.540 A  
HETATM   25  C   UNL     1     -10.494  19.339  68.315  1.00  0.00    -0.399 A  
HETATM   26  C   UNL     1      -9.170  19.619  68.671  1.00  0.00    -0.362 A  
HETATM   27  C   UNL     1      -8.242  19.979  67.670  1.00  0.00    -0.347 A  
ENDBRANCH  16  17
ENDBRANCH  15  16
ENDBRANCH  13  15
ENDBRANCH  12  13
ENDBRANCH  10  12
ENDBRANCH   2   6
BRANCH   3  28
HETATM   28  N   UNL     1     -12.464  14.765  63.828  1.00  0.00    -1.063 NA 
HETATM   29  H   UNL     1     -12.554  15.764  63.642  1.00  0.00     0.000 HD 
HETATM   30  O   UNL     1     -12.496  13.769  62.840  1.00  0.00    -1.009 OA 
HETATM   31  H   UNL     1     -12.614  14.145  61.976  1.00  0.00     0.000 HD 
ENDBRANCH   3  28
TORSDOF 7
ENDMDL
MODEL        2
REMARK 921   NORMALIZED FREE ENERGY PREDICTED BY IDOCK:   -6.74 KCAL/MOL
REMARK 922        TOTAL FREE ENERGY PREDICTED BY IDOCK:  -12.13 KCAL/MOL
REMARK 923 INTER-LIGAND FREE ENERGY PREDICTED BY IDOCK:  -10.70 KCAL/MOL
REMARK 924 INTRA-LIGAND FREE ENERGY PREDICTED BY IDOCK:   -1.43 KCAL/MOL
REMARK 927      BINDING AFFINITY PREDICTED BY RF-SCORE:    0.00 PKD
ROOT
HETATM    1  C   UNL     1     -12.228  13.661  65.754  1.00  0.00    -0.503 C  
HETATM    2  C   UNL     1     -11.237  13.513  66.647  1.00  0.00    -0.328 C  
HETATM    3  C   UNL     1     -11.966  14.408  64.519  1.00  0.00    -0.472 C  
HETATM    4  H   UNL     1     -12.569  14.478  62.693  1.00  0.00     0.000 HD 
HETATM    5  O   UNL     1     -12.738  13.993  63.493  1.00  0.00    -0.805 OA 
ENDROOT
BRANCH   2   6
HETATM    6  C   UNL     1     -11.452  12.759  67.876  1.00  0.00    -0.365 A  
HETATM    7  C   UNL     1     -11.872  13.408  69.040  1.00  0.00    -0.378 A  
HETATM    8  C   UNL     1     -12.183  12.665  70.182  1.00  0.00    -0.310 A  
HETATM    9  C   UNL     1     -11.298  11.371  67.871  1.00  0.00    -0.371 A  
HETATM   10  C   UNL     1     -12.079  11.268  70.167  1.00  0.00    -0.448 A  
HETATM   11  C   UNL     1     -11.612  10.629  69.010  1.00  0.00    -0.332 A  
BRANCH  10  12
HETATM   12  C   UNL     1     -12.589  10.456  71.333  1.00  0.00    -0.434 C  
BRANCH  12  13
HETATM   13  N   UNL     1     -13.158   9.173  70.919  1.00  0.00    -0.530 NA 
HETATM   14  H   UNL     1     -12.822   8.896  69.997  1.00  0.00     0.000 HD 
BRANCH  13  15
HETATM   15  C   UNL     1     -12.909   8.123  71.921  1.00  0.00    -0.335 C  
BRANCH  15  16
HETATM   16  C   UNL     1     -12.162   6.903  71.361  1.00  0.00    -0.418 C  
BRANCH  16  17
HETATM   17  C   UNL     1     -10.885   7.272  70.670  1.00  0.00    -0.261 A  
HETATM   18  C   UNL     1      -9.798   7.945  71.206  1.00  0.00    -0.168 A  
HETATM   19  N   UNL     1      -8.879   8.115  70.199  1.00  0.00    -0.144 NA 
HETATM   20  C   UNL     1      -9.528   8.464  72.572  1.00  0.00    -0.360 C  
HETATM   21  H   UNL     1      -7.982   8.588  70.307  1.00  0.00     0.000 HD 
HETATM   22  C   UNL     1      -9.332   7.561  69.028  1.00  0.00    -0.146 A  
HETATM   23  C   UNL     1      -8.733   7.512  67.764  1.00  0.00    -0.123 A  
HETATM   24  C   UNL     1      -9.432   6.866  66.739  1.00  0.00    -0.204 A  
HETATM   25  C   UNL     1     -10.679   6.291  66.974  1.00  0.00    -0.435 A  
HETATM   26  C   UNL     1     -11.266   6.358  68.242  1.00  0.00    -0.276 A  
HETATM   27  C   UNL     1     -10.582   7.007  69.293  1.00  0.00    -0.240 A  
ENDBRANCH  16  17
ENDBRANCH  15  16
ENDBRANCH  13  15
ENDBRANCH  12  13
ENDBRANCH  10  12
ENDBRANCH   2   6
BRANCH   3  28
HETATM   28  N   UNL     1     -11.102  15.364  64.405  1.00  0.00    -0.700 NA 
HETATM   29  H   UNL     1     -10.145  15.321  64.759  1.00  0.00     0.000 HD 
HETATM   30  O   UNL     1     -11.648  16.468  63.734  1.00  0.00    -1.617 OA 
HETATM   31  H   UNL     1     -11.013  17.170  63.650  1.00  0.00     0.000 HD 
ENDBRANCH   3  28
TORSDOF 7
ENDMDL
MODEL        3
REMARK 921   NORMALIZED FREE ENERGY PREDICTED BY IDOCK:   -6.59 KCAL/MOL
REMARK 922        TOTAL FREE ENERGY PREDICTED BY IDOCK:  -11.92 KCAL/MOL
REMARK 923 INTER-LIGAND FREE ENERGY PREDICTED BY IDOCK:  -10.87 KCAL/MOL
REMARK 924 INTRA-LIGAND FREE ENERGY PREDICTED BY IDOCK:   -1.05 KCAL/MOL
REMARK 927      BINDING AFFINITY PREDICTED BY RF-SCORE:    0.00 PKD
ROOT
HETATM    1  C   UNL     1     -12.226  13.684  65.867  1.00  0.00    -0.502 C  
HETATM    2  C   UNL     1     -11.253  13.532  66.779  1.00  0.00    -0.327 C  
HETATM    3  C   UNL     1     -11.940  14.436  64.641  1.00  0.00    -0.464 C  
HETATM    4  H   UNL     1     -12.508  14.513  62.804  1.00  0.00     0.000 HD 
HETATM    5  O   UNL     1     -12.692  14.025  63.599  1.00  0.00    -0.778 OA 
ENDROOT
BRANCH   2   6
HETATM    6  C   UNL     1     -11.492  12.773  68.001  1.00  0.00    -0.364 A  
HETATM    7  C   UNL     1     -11.887  13.425  69.172  1.00  0.00    -0.383 A  
HETATM    8  C   UNL     1     -12.221  12.682  70.307  1.00  0.00    -0.347 A  
HETATM    9  C   UNL     1     -11.387  11.381  67.981  1.00  0.00    -0.372 A  
HETATM   10  C   UNL     1     -12.167  11.282  70.278  1.00  0.00    -0.428 A  
HETATM   11  C   UNL     1     -11.725  10.639  69.113  1.00  0.00    -0.324 A  
BRANCH  10  12
HETATM   12  C   UNL     1     -12.703  10.477  71.436  1.00  0.00    -0.442 C  
BRANCH  12  13
HETATM   13  N   UNL     1     -13.574   9.383  71.006  1.00  0.00    -0.569 NA 
HETATM   14  H   UNL     1     -13.572   9.281  69.991  1.00  0.00     0.000 HD 
BRANCH  13  15
HETATM   15  C   UNL     1     -13.224   8.119  71.674  1.00  0.00    -0.332 C  
BRANCH  15  16
HETATM   16  C   UNL     1     -11.735   8.007  72.038  1.00  0.00    -0.375 C  
BRANCH  16  17
HETATM   17  C   UNL     1     -11.126   6.713  71.594  1.00  0.00    -0.290 A  
HETATM   18  C   UNL     1     -10.709   5.658  72.390  1.00  0.00    -0.237 A  
HETATM   19  N   UNL     1     -10.162   4.706  71.563  1.00  0.00    -0.183 NA 
HETATM   20  C   UNL     1     -10.755   5.445  73.860  1.00  0.00    -0.296 C  
HETATM   21  H   UNL     1      -9.764   3.822  71.880  1.00  0.00     0.000 HD 
HETATM   22  C   UNL     1     -10.224   5.107  70.252  1.00  0.00    -0.271 A  
HETATM   23  C   UNL     1      -9.781   4.463  69.091  1.00  0.00    -0.240 A  
HETATM   24  C   UNL     1      -9.985   5.114  67.870  1.00  0.00    -0.202 A  
HETATM   25  C   UNL     1     -10.608   6.358  67.816  1.00  0.00    -0.331 A  
HETATM   26  C   UNL     1     -11.036   6.991  68.988  1.00  0.00    -0.169 A  
HETATM   27  C   UNL     1     -10.840   6.356  70.233  1.00  0.00    -0.350 A  
ENDBRANCH  16  17
ENDBRANCH  15  16
ENDBRANCH  13  15
ENDBRANCH  12  13
ENDBRANCH  10  12
ENDBRANCH   2   6
BRANCH   3  28
HETATM   28  N   UNL     1     -11.073  15.392  64.547  1.00  0.00    -0.687 NA 
HETATM   29  H   UNL     1     -10.157  15.385  64.999  1.00  0.00     0.000 HD 
HETATM   30  O   UNL     1     -11.551  16.438  63.745  1.00  0.00    -1.605 OA 
HETATM   31  H   UNL     1     -10.914  17.139  63.676  1.00  0.00     0.000 HD 
ENDBRANCH   3  28
TORSDOF 7
ENDMDL
MODEL        4
REMARK 921   NORMALIZED FREE ENERGY PREDICTED BY IDOCK:   -6.48 KCAL/MOL
REMARK 922        TOTAL FREE ENERGY PREDICTED BY IDOCK:  -11.76 KCAL/MOL
REMARK 923 INTER-LIGAND FREE ENERGY PREDICTED BY IDOCK:  -10.64 KCAL/MOL
REMARK 924 INTRA-LIGAND FREE ENERGY PREDICTED BY IDOCK:   -1.12 KCAL/MOL
REMARK 927      BINDING AFFINITY PREDICTED BY RF-SCORE:    0.00 PKD
ROOT
HETATM    1  C   UNL     1     -12.126   8.851  71.087  1.00  0.00    -0.326 C  
HETATM    2  C   UNL     1     -12.998   9.727  71.611  1.00  0.00    -0.517 C  
HETATM    3  C   UNL     1     -12.347   7.416  71.296  1.00  0.00    -0.346 C  
HETATM    4  H   UNL     1     -11.987   5.737  70.429  1.00  0.00     0.000 HD 
HETATM    5  O   UNL     1     -11.845   6.667  70.293  1.00  0.00    -0.395 OA 
ENDROOT
BRANCH   2   6
HETATM    6  C   UNL     1     -12.824  11.160  71.406  1.00  0.00    -0.544 A  
HETATM    7  C   UNL     1     -12.005  11.633  70.379  1.00  0.00    -0.448 A  
HETATM    8  C   UNL     1     -11.930  13.004  70.119  1.00  0.00    -0.374 A  
HETATM    9  C   UNL     1     -13.533  12.062  72.203  1.00  0.00    -0.338 A  
HETATM   10  C   UNL     1     -12.678  13.911  70.882  1.00  0.00    -0.410 A  
HETATM   11  C   UNL     1     -13.462  13.430  71.941  1.00  0.00    -0.526 A  
BRANCH  10  12
HETATM   12  C   UNL     1     -12.743  15.365  70.485  1.00  0.00    -0.405 C  
BRANCH  12  13
HETATM   13  N   UNL     1     -12.294  15.594  69.111  1.00  0.00    -0.587 NA 
HETATM   14  H   UNL     1     -12.974  16.139  68.582  1.00  0.00     0.000 HD 
BRANCH  13  15
HETATM   15  C   UNL     1     -10.960  16.217  69.076  1.00  0.00    -0.325 C  
BRANCH  15  16
HETATM   16  C   UNL     1      -9.976  15.512  68.129  1.00  0.00    -0.217 C  
BRANCH  16  17
HETATM   17  C   UNL     1     -10.472  15.453  66.717  1.00  0.00    -0.299 A  
HETATM   18  C   UNL     1     -10.531  16.489  65.798  1.00  0.00    -0.329 A  
HETATM   19  N   UNL     1     -11.105  15.994  64.653  1.00  0.00    -0.788 NA 
HETATM   20  C   UNL     1     -10.115  17.913  65.881  1.00  0.00    -0.177 C  
HETATM   21  H   UNL     1     -11.282  16.541  63.810  1.00  0.00     0.000 HD 
HETATM   22  C   UNL     1     -11.408  14.663  64.796  1.00  0.00    -0.396 A  
HETATM   23  C   UNL     1     -12.005  13.773  63.896  1.00  0.00    -0.414 A  
HETATM   24  C   UNL     1     -12.188  12.452  64.315  1.00  0.00    -0.538 A  
HETATM   25  C   UNL     1     -11.788  12.040  65.584  1.00  0.00    -0.242 A  
HETATM   26  C   UNL     1     -11.200  12.946  66.473  1.00  0.00    -0.340 A  
HETATM   27  C   UNL     1     -11.007  14.287  66.075  1.00  0.00    -0.312 A  
ENDBRANCH  16  17
ENDBRANCH  15  16
ENDBRANCH  13  15
ENDBRANCH  12  13
ENDBRANCH  10  12
ENDBRANCH   2   6
BRANCH   3  28
HETATM   28  N   UNL     1     -12.948   6.905  72.322  1.00  0.00    -0.531 NA 
HETATM   29  H   UNL     1     -13.754   7.325  72.785  1.00  0.00     0.000 HD 
HETATM   30  O   UNL     1     -12.350   5.698  72.714  1.00  0.00    -0.522 OA 
HETATM   31  H   UNL     1     -12.792   5.323  73.467  1.00  0.00     0.000 HD 
ENDBRANCH   3  28
TORSDOF 7
ENDMDL
MODEL        5
REMARK 921   NORMALIZED FREE ENERGY PREDICTED BY IDOCK:   -6.40 KCAL/MOL
REMARK 922        TOTAL FREE ENERGY PREDICTED BY IDOCK:  -11.65 KCAL/MOL
REMARK 923 INTER-LIGAND FREE ENERGY PREDICTED BY IDOCK:  -10.78 KCAL/MOL
REMARK 924 INTRA-LIGAND FREE ENERGY PREDICTED BY IDOCK:   -0.86 KCAL/MOL
REMARK 927      BINDING AFFINITY PREDICTED BY RF-SCORE:    0.00 PKD
ROOT
HETATM    1  C   UNL     1     -12.184  13.599  65.757  1.00  0.00    -0.503 C  
HETATM    2  C   UNL     1     -11.287  13.599  66.755  1.00  0.00    -0.346 C  
HETATM    3  C   UNL     1     -11.872  14.322  64.519  1.00  0.00    -0.442 C  
HETATM    4  H   UNL     1     -12.275  14.250  62.640  1.00  0.00     0.000 HD 
HETATM    5  O   UNL     1     -12.477  13.782  63.441  1.00  0.00    -0.817 OA 
ENDROOT
BRANCH   2   6
HETATM    6  C   UNL     1     -11.553  12.874  67.992  1.00  0.00    -0.385 A  
HETATM    7  C   UNL     1     -11.912  13.564  69.152  1.00  0.00    -0.378 A  
HETATM    8  C   UNL     1     -12.272  12.858  70.303  1.00  0.00    -0.362 A  
HETATM    9  C   UNL     1     -11.509  11.478  67.998  1.00  0.00    -0.381 A  
HETATM   10  C   UNL     1     -12.279  11.457  70.300  1.00  0.00    -0.433 A  
HETATM   11  C   UNL     1     -11.872  10.773  69.145  1.00  0.00    -0.347 A  
BRANCH  10  12
HETATM   12  C   UNL     1     -12.843  10.698  71.476  1.00  0.00    -0.462 C  
BRANCH  12  13
HETATM   13  N   UNL     1     -13.547   9.480  71.074  1.00  0.00    -0.555 NA 
HETATM   14  H   UNL     1     -13.531   9.356  70.062  1.00  0.00     0.000 HD 
BRANCH  13  15
HETATM   15  C   UNL     1     -13.018   8.295  71.769  1.00  0.00    -0.344 C  
BRANCH  15  16
HETATM   16  C   UNL     1     -11.501   8.346  72.004  1.00  0.00    -0.418 C  
BRANCH  16  17
HETATM   17  C   UNL     1     -10.787   7.155  71.442  1.00  0.00    -0.253 A  
HETATM   18  C   UNL     1     -10.081   7.078  70.252  1.00  0.00    -0.187 A  
HETATM   19  N   UNL     1      -9.644   5.782  70.114  1.00  0.00    -0.161 NA 
HETATM   20  C   UNL     1      -9.778   8.093  69.210  1.00  0.00    -0.170 C  
HETATM   21  H   UNL     1      -9.103   5.434  69.322  1.00  0.00     0.000 HD 
HETATM   22  C   UNL     1     -10.035   5.020  71.186  1.00  0.00    -0.207 A  
HETATM   23  C   UNL     1      -9.820   3.663  71.453  1.00  0.00    -0.219 A  
HETATM   24  C   UNL     1     -10.334   3.147  72.646  1.00  0.00    -0.212 A  
HETATM   25  C   UNL     1     -11.034   3.959  73.536  1.00  0.00    -0.343 A  
HETATM   26  C   UNL     1     -11.246   5.311  73.248  1.00  0.00    -0.359 A  
HETATM   27  C   UNL     1     -10.739   5.856  72.049  1.00  0.00    -0.282 A  
ENDBRANCH  16  17
ENDBRANCH  15  16
ENDBRANCH  13  15
ENDBRANCH  12  13
ENDBRANCH  10  12
ENDBRANCH   2   6
BRANCH   3  28
HETATM   28  N   UNL     1     -11.108  15.364  64.447  1.00  0.00    -0.700 NA 
HETATM   29  H   UNL     1     -10.199  15.444  64.904  1.00  0.00     0.000 HD 
HETATM   30  O   UNL     1     -11.691  16.369  63.661  1.00  0.00    -1.520 OA 
HETATM   31  H   UNL     1     -11.130  17.134  63.609  1.00  0.00     0.000 HD 
ENDBRANCH   3  28
TORSDOF 7
ENDMDL
MODEL        6
REMARK 921   NORMALIZED FREE ENERGY PREDICTED BY IDOCK:   -6.30 KCAL/MOL
REMARK 922        TOTAL FREE ENERGY PREDICTED BY IDOCK:  -11.51 KCAL/MOL
REMARK 923 INTER-LIGAND FREE ENERGY PREDICTED BY IDOCK:  -10.43 KCAL/MOL
REMARK 924 INTRA-LIGAND FREE ENERGY PREDICTED BY IDOCK:   -1.08 KCAL/MOL
REMARK 927      BINDING AFFINITY PREDICTED BY RF-SCORE:    0.00 PKD
ROOT
HETATM    1  C   UNL     1     -12.219  13.564  65.721  1.00  0.00    -0.505 C  
HETATM    2  C   UNL     1     -11.263  13.498  66.660  1.00  0.00    -0.328 C  
HETATM    3  C   UNL     1     -11.964  14.333  64.498  1.00  0.00    -0.462 C  
HETATM    4  H   UNL     1     -12.484  14.354  62.646  1.00  0.00     0.000 HD 
HETATM    5  O   UNL     1     -12.649  13.856  63.438  1.00  0.00    -0.853 OA 
ENDROOT
BRANCH   2   6
HETATM    6  C   UNL     1     -11.472  12.726  67.879  1.00  0.00    -0.365 A  
HETATM    7  C   UNL     1     -11.735  13.373  69.089  1.00  0.00    -0.375 A  
HETATM    8  C   UNL     1     -12.042  12.627  70.229  1.00  0.00    -0.372 A  
HETATM    9  C   UNL     1     -11.471  11.331  67.822  1.00  0.00    -0.350 A  
HETATM   10  C   UNL     1     -12.093  11.228  70.167  1.00  0.00    -0.448 A  
HETATM   11  C   UNL     1     -11.782  10.585  68.959  1.00  0.00    -0.242 A  
BRANCH  10  12
HETATM   12  C   UNL     1     -12.605  10.433  71.343  1.00  0.00    -0.434 C  
BRANCH  12  13
HETATM   13  N   UNL     1     -13.275   9.197  70.938  1.00  0.00    -0.539 NA 
HETATM   14  H   UNL     1     -12.960   8.885  70.019  1.00  0.00     0.000 HD 
BRANCH  13  15
HETATM   15  C   UNL     1     -13.113   8.138  71.949  1.00  0.00    -0.327 C  
BRANCH  15  16
HETATM   16  C   UNL     1     -12.433   6.871  71.409  1.00  0.00    -0.413 C  
BRANCH  16  17
HETATM   17  C   UNL     1     -11.001   7.096  71.032  1.00  0.00    -0.277 A  
HETATM   18  C   UNL     1     -10.429   6.977  69.775  1.00  0.00    -0.219 A  
HETATM   19  N   UNL     1      -9.084   7.221  69.908  1.00  0.00    -0.142 NA 
HETATM   20  C   UNL     1     -11.009   6.642  68.449  1.00  0.00    -0.313 C  
HETATM   21  H   UNL     1      -8.411   7.192  69.142  1.00  0.00     0.000 HD 
HETATM   22  C   UNL     1      -8.768   7.509  71.212  1.00  0.00    -0.125 A  
HETATM   23  C   UNL     1      -7.530   7.806  71.795  1.00  0.00    -0.074 A  
HETATM   24  C   UNL     1      -7.506   8.069  73.168  1.00  0.00    -0.171 A  
HETATM   25  C   UNL     1      -8.675   8.036  73.925  1.00  0.00    -0.308 A  
HETATM   26  C   UNL     1      -9.901   7.728  73.326  1.00  0.00    -0.362 A  
HETATM   27  C   UNL     1      -9.952   7.457  71.942  1.00  0.00    -0.196 A  
ENDBRANCH  16  17
ENDBRANCH  15  16
ENDBRANCH  13  15
ENDBRANCH  12  13
ENDBRANCH  10  12
ENDBRANCH   2   6
BRANCH   3  28
HETATM   28  N   UNL     1     -11.178  15.358  64.423  1.00  0.00    -0.714 NA 
HETATM   29  H   UNL     1     -10.270  15.422  64.884  1.00  0.00     0.000 HD 
HETATM   30  O   UNL     1     -11.734  16.369  63.626  1.00  0.00    -1.520 OA 
HETATM   31  H   UNL     1     -11.157  17.122  63.570  1.00  0.00     0.000 HD 
ENDBRANCH   3  28
TORSDOF 7
ENDMDL
MODEL        7
REMARK 921   NORMALIZED FREE ENERGY PREDICTED BY IDOCK:   -6.30 KCAL/MOL
REMARK 922        TOTAL FREE ENERGY PREDICTED BY IDOCK:  -11.51 KCAL/MOL
REMARK 923 INTER-LIGAND FREE ENERGY PREDICTED BY IDOCK:  -10.43 KCAL/MOL
REMARK 924 INTRA-LIGAND FREE ENERGY PREDICTED BY IDOCK:   -1.08 KCAL/MOL
REMARK 927      BINDING AFFINITY PREDICTED BY RF-SCORE:    0.00 PKD
ROOT
HETATM    1  C   UNL     1     -10.469  14.877  66.756  1.00  0.00    -0.284 C  
HETATM    2  C   UNL     1     -11.615  14.211  66.963  1.00  0.00    -0.404 C  
HETATM    3  C   UNL     1     -10.341  15.717  65.560  1.00  0.00    -0.404 C  
HETATM    4  H   UNL     1      -9.414  17.297  64.971  1.00  0.00     0.000 HD 
HETATM    5  O   UNL     1      -9.497  16.753  65.746  1.00  0.00    -0.507 OA 
ENDROOT
BRANCH   2   6
HETATM    6  C   UNL     1     -11.787  13.383  68.151  1.00  0.00    -0.396 A  
HETATM    7  C   UNL     1     -12.052  13.970  69.390  1.00  0.00    -0.386 A  
HETATM    8  C   UNL     1     -12.326  13.167  70.501  1.00  0.00    -0.380 A  
HETATM    9  C   UNL     1     -11.749  11.991  68.034  1.00  0.00    -0.398 A  
HETATM   10  C   UNL     1     -12.340  11.771  70.379  1.00  0.00    -0.362 A  
HETATM   11  C   UNL     1     -12.026  11.190  69.142  1.00  0.00    -0.413 A  
BRANCH  10  12
HETATM   12  C   UNL     1     -12.815  10.914  71.526  1.00  0.00    -0.454 C  
BRANCH  12  13
HETATM   13  N   UNL     1     -13.305   9.607  71.086  1.00  0.00    -0.525 NA 
HETATM   14  H   UNL     1     -13.101   9.445  70.100  1.00  0.00     0.000 HD 
BRANCH  13  15
HETATM   15  C   UNL     1     -12.780   8.521  71.930  1.00  0.00    -0.360 C  
BRANCH  15  16
HETATM   16  C   UNL     1     -11.266   8.305  71.784  1.00  0.00    -0.346 C  
BRANCH  16  17
HETATM   17  C   UNL     1     -10.928   7.041  71.056  1.00  0.00    -0.279 A  
HETATM   18  C   UNL     1     -10.760   5.775  71.594  1.00  0.00    -0.256 A  
HETATM   19  N   UNL     1     -10.402   4.933  70.569  1.00  0.00    -0.216 NA 
HETATM   20  C   UNL     1     -10.887   5.263  72.983  1.00  0.00    -0.332 C  
HETATM   21  H   UNL     1     -10.205   3.938  70.677  1.00  0.00     0.000 HD 
HETATM   22  C   UNL     1     -10.346   5.614  69.378  1.00  0.00    -0.273 A  
HETATM   23  C   UNL     1     -10.017   5.159  68.096  1.00  0.00    -0.203 A  
HETATM   24  C   UNL     1     -10.050   6.087  67.050  1.00  0.00    -0.220 A  
HETATM   25  C   UNL     1     -10.399   7.416  67.282  1.00  0.00    -0.356 A  
HETATM   26  C   UNL     1     -10.716   7.854  68.572  1.00  0.00    -0.069 A  
HETATM   27  C   UNL     1     -10.688   6.936  69.645  1.00  0.00    -0.276 A  
ENDBRANCH  16  17
ENDBRANCH  15  16
ENDBRANCH  13  15
ENDBRANCH  12  13
ENDBRANCH  10  12
ENDBRANCH   2   6
BRANCH   3  28
HETATM   28  N   UNL     1     -10.956  15.505  64.441  1.00  0.00    -0.726 NA 
HETATM   29  H   UNL     1     -11.076  14.586  64.015  1.00  0.00     0.000 HD 
HETATM   30  O   UNL     1     -11.437  16.702  63.889  1.00  0.00    -1.604 OA 
HETATM   31  H   UNL     1     -11.889  16.546  63.068  1.00  0.00     0.000 HD 
ENDBRANCH   3  28
TORSDOF 7
ENDMDL
MODEL        8
REMARK 921   NORMALIZED FREE ENERGY PREDICTED BY IDOCK:   -6.25 KCAL/MOL
REMARK 922        TOTAL FREE ENERGY PREDICTED BY IDOCK:  -11.43 KCAL/MOL
REMARK 923 INTER-LIGAND FREE ENERGY PREDICTED BY IDOCK:  -10.28 KCAL/MOL
REMARK 924 INTRA-LIGAND FREE ENERGY PREDICTED BY IDOCK:   -1.15 KCAL/MOL
REMARK 927      BINDING AFFINITY PREDICTED BY RF-SCORE:    0.00 PKD
ROOT
HETATM    1  C   UNL     1     -11.890   9.135  70.968  1.00  0.00    -0.354 C  
HETATM    2  C   UNL     1     -12.670  10.079  71.518  1.00  0.00    -0.532 C  
HETATM    3  C   UNL     1     -12.009   7.751  71.439  1.00  0.00    -0.306 C  
HETATM    4  H   UNL     1     -11.770   5.957  70.788  1.00  0.00     0.000 HD 
HETATM    5  O   UNL     1     -11.693   6.853  70.483  1.00  0.00    -0.341 OA 
ENDROOT
BRANCH   2   6
HETATM    6  C   UNL     1     -12.595  11.462  71.062  1.00  0.00    -0.487 A  
HETATM    7  C   UNL     1     -13.067  12.499  71.870  1.00  0.00    -0.473 A  
HETATM    8  C   UNL     1     -12.892  13.828  71.475  1.00  0.00    -0.445 A  
HETATM    9  C   UNL     1     -11.989  11.754  69.837  1.00  0.00    -0.405 A  
HETATM   10  C   UNL     1     -12.240  14.129  70.272  1.00  0.00    -0.416 A  
HETATM   11  C   UNL     1     -11.811  13.080  69.445  1.00  0.00    -0.380 A  
BRANCH  10  12
HETATM   12  C   UNL     1     -11.886  15.557  69.936  1.00  0.00    -0.362 C  
BRANCH  12  13
HETATM   13  N   UNL     1     -12.008  15.846  68.507  1.00  0.00    -0.440 NA 
HETATM   14  H   UNL     1     -12.893  16.308  68.294  1.00  0.00     0.000 HD 
BRANCH  13  15
HETATM   15  C   UNL     1     -10.862  16.627  68.014  1.00  0.00    -0.337 C  
BRANCH  15  16
HETATM   16  C   UNL     1     -10.511  16.343  66.545  1.00  0.00    -0.282 C  
BRANCH  16  17
HETATM   17  C   UNL     1     -10.218  14.897  66.288  1.00  0.00    -0.306 A  
HETATM   18  C   UNL     1      -9.245  14.113  66.886  1.00  0.00    -0.257 A  
HETATM   19  N   UNL     1      -9.301  12.869  66.305  1.00  0.00    -0.408 NA 
HETATM   20  C   UNL     1      -8.246  14.407  67.946  1.00  0.00    -0.157 C  
HETATM   21  H   UNL     1      -8.690  12.088  66.545  1.00  0.00     0.000 HD 
HETATM   22  C   UNL     1     -10.291  12.820  65.356  1.00  0.00    -0.293 A  
HETATM   23  C   UNL     1     -10.688  11.768  64.522  1.00  0.00    -0.369 A  
HETATM   24  C   UNL     1     -11.750  12.002  63.643  1.00  0.00    -0.587 A  
HETATM   25  C   UNL     1     -12.387  13.240  63.602  1.00  0.00    -0.456 A  
HETATM   26  C   UNL     1     -11.970  14.282  64.437  1.00  0.00    -0.476 A  
HETATM   27  C   UNL     1     -10.899  14.072  65.332  1.00  0.00    -0.331 A  
ENDBRANCH  16  17
ENDBRANCH  15  16
ENDBRANCH  13  15
ENDBRANCH  12  13
ENDBRANCH  10  12
ENDBRANCH   2   6
BRANCH   3  28
HETATM   28  N   UNL     1     -12.371   7.407  72.633  1.00  0.00    -0.512 NA 
HETATM   29  H   UNL     1     -13.341   7.285  72.928  1.00  0.00     0.000 HD 
HETATM   30  O   UNL     1     -11.260   7.225  73.470  1.00  0.00    -0.568 OA 
HETATM   31  H   UNL     1     -11.526   6.972  74.346  1.00  0.00     0.000 HD 
ENDBRANCH   3  28
TORSDOF 7
ENDMDL
MODEL        9
REMARK 921   NORMALIZED FREE ENERGY PREDICTED BY IDOCK:   -6.25 KCAL/MOL
REMARK 922        TOTAL FREE ENERGY PREDICTED BY IDOCK:  -11.43 KCAL/MOL
REMARK 923 INTER-LIGAND FREE ENERGY PREDICTED BY IDOCK:   -9.22 KCAL/MOL
REMARK 924 INTRA-LIGAND FREE ENERGY PREDICTED BY IDOCK:   -2.21 KCAL/MOL
REMARK 927      BINDING AFFINITY PREDICTED BY RF-SCORE:    0.00 PKD
ROOT
HETATM    1  C   UNL     1     -12.292  13.560  65.573  1.00  0.00    -0.524 C  
HETATM    2  C   UNL     1     -11.425  13.518  66.596  1.00  0.00    -0.366 C  
HETATM    3  C   UNL     1     -11.940  14.325  64.372  1.00  0.00    -0.456 C  
HETATM    4  H   UNL     1     -12.289  14.324  62.480  1.00  0.00     0.000 HD 
HETATM    5  O   UNL     1     -12.517  13.828  63.258  1.00  0.00    -0.819 OA 
ENDROOT
BRANCH   2   6
HETATM    6  C   UNL     1     -11.730  12.751  67.797  1.00  0.00    -0.412 A  
HETATM    7  C   UNL     1     -11.900  11.366  67.728  1.00  0.00    -0.196 A  
HETATM    8  C   UNL     1     -12.082  10.625  68.898  1.00  0.00    -0.014 A  
HETATM    9  C   UNL     1     -11.789  13.398  69.034  1.00  0.00    -0.378 A  
HETATM   10  C   UNL     1     -12.091  11.261  70.146  1.00  0.00    -0.448 A  
HETATM   11  C   UNL     1     -11.966  12.657  70.202  1.00  0.00    -0.375 A  
BRANCH  10  12
HETATM   12  C   UNL     1     -12.100  10.446  71.415  1.00  0.00    -0.327 C  
BRANCH  12  13
HETATM   13  N   UNL     1     -11.524   9.113  71.232  1.00  0.00    -0.306 NA 
HETATM   14  H   UNL     1     -11.684   8.764  70.287  1.00  0.00     0.000 HD 
BRANCH  13  15
HETATM   15  C   UNL     1     -10.092   9.092  71.577  1.00  0.00    -0.339 C  
BRANCH  15  16
HETATM   16  C   UNL     1      -9.283   8.054  70.784  1.00  0.00    -0.165 C  
BRANCH  16  17
HETATM   17  C   UNL     1      -9.564   8.102  69.313  1.00  0.00    -0.164 A  
HETATM   18  C   UNL     1     -10.275   7.183  68.558  1.00  0.00    -0.175 A  
HETATM   19  N   UNL     1     -10.231   7.599  67.250  1.00  0.00    -0.243 NA 
HETATM   20  C   UNL     1     -10.988   5.934  68.930  1.00  0.00    -0.337 C  
HETATM   21  H   UNL     1     -10.665   7.106  66.469  1.00  0.00     0.000 HD 
HETATM   22  C   UNL     1      -9.524   8.770  67.136  1.00  0.00    -0.162 A  
HETATM   23  C   UNL     1      -9.223   9.534  66.002  1.00  0.00    -0.248 A  
HETATM   24  C   UNL     1      -8.480  10.704  66.186  1.00  0.00    -0.159 A  
HETATM   25  C   UNL     1      -8.056  11.092  67.455  1.00  0.00    -0.122 A  
HETATM   26  C   UNL     1      -8.358  10.310  68.575  1.00  0.00    -0.116 A  
HETATM   27  C   UNL     1      -9.105   9.123  68.415  1.00  0.00    -0.132 A  
ENDBRANCH  16  17
ENDBRANCH  15  16
ENDBRANCH  13  15
ENDBRANCH  12  13
ENDBRANCH  10  12
ENDBRANCH   2   6
BRANCH   3  28
HETATM   28  N   UNL     1     -11.169  15.364  64.360  1.00  0.00    -0.714 NA 
HETATM   29  H   UNL     1     -10.246  15.401  64.793  1.00  0.00     0.000 HD 
HETATM   30  O   UNL     1     -11.766  16.434  63.676  1.00  0.00    -1.520 OA 
HETATM   31  H   UNL     1     -11.200  17.197  63.667  1.00  0.00     0.000 HD 
ENDBRANCH   3  28
TORSDOF 7
ENDMDL
MODEL       10
REMARK 921   NORMALIZED FREE ENERGY PREDICTED BY IDOCK:   -6.23 KCAL/MOL
REMARK 922        TOTAL FREE ENERGY PREDICTED BY IDOCK:  -11.41 KCAL/MOL
REMARK 923 INTER-LIGAND FREE ENERGY PREDICTED BY IDOCK:   -9.77 KCAL/MOL
REMARK 924 INTRA-LIGAND FREE ENERGY PREDICTED BY IDOCK:   -1.64 KCAL/MOL
REMARK 927      BINDING AFFINITY PREDICTED BY RF-SCORE:    0.00 PKD
ROOT
HETATM    1  C   UNL     1     -10.165  17.878  67.737  1.00  0.00    -0.372 C  
HETATM    2  C   UNL     1     -10.471  16.950  66.817  1.00  0.00    -0.260 C  
HETATM    3  C   UNL     1     -10.314  19.296  67.394  1.00  0.00    -0.438 C  
HETATM    4  H   UNL     1     -10.679  20.980  68.250  1.00  0.00     0.000 HD 
HETATM    5  O   UNL     1     -10.584  20.061  68.472  1.00  0.00    -0.326 OA 
ENDROOT
BRANCH   2   6
HETATM    6  C   UNL     1     -10.356  15.530  67.127  1.00  0.00    -0.272 A  
HETATM    7  C   UNL     1     -11.204  14.603  66.517  1.00  0.00    -0.346 A  
HETATM    8  C   UNL     1     -11.017  13.235  66.735  1.00  0.00    -0.302 A  
HETATM    9  C   UNL     1      -9.351  15.091  67.991  1.00  0.00    -0.185 A  
HETATM   10  C   UNL     1      -9.978  12.785  67.560  1.00  0.00    -0.210 A  
HETATM   11  C   UNL     1      -9.161  13.726  68.205  1.00  0.00    -0.204 A  
BRANCH  10  12
HETATM   12  C   UNL     1      -9.660  11.313  67.647  1.00  0.00    -0.171 C  
BRANCH  12  13
HETATM   13  N   UNL     1      -9.218  10.911  68.983  1.00  0.00    -0.324 NA 
HETATM   14  H   UNL     1      -8.841  11.701  69.505  1.00  0.00     0.000 HD 
BRANCH  13  15
HETATM   15  C   UNL     1     -10.294  10.237  69.728  1.00  0.00    -0.246 C  
BRANCH  15  16
HETATM   16  C   UNL     1     -11.694  10.791  69.422  1.00  0.00    -0.378 C  
BRANCH  16  17
HETATM   17  C   UNL     1     -12.361  11.380  70.627  1.00  0.00    -0.466 A  
HETATM   18  C   UNL     1     -12.911  10.702  71.704  1.00  0.00    -0.465 A  
HETATM   19  N   UNL     1     -13.462  11.639  72.545  1.00  0.00    -0.423 NA 
HETATM   20  C   UNL     1     -12.990   9.255  72.030  1.00  0.00    -0.504 C  
HETATM   21  H   UNL     1     -13.945  11.423  73.417  1.00  0.00     0.000 HD 
HETATM   22  C   UNL     1     -13.273  12.905  72.052  1.00  0.00    -0.448 A  
HETATM   23  C   UNL     1     -13.674  14.143  72.570  1.00  0.00    -0.626 A  
HETATM   24  C   UNL     1     -13.333  15.290  71.847  1.00  0.00    -0.524 A  
HETATM   25  C   UNL     1     -12.619  15.200  70.655  1.00  0.00    -0.450 A  
HETATM   26  C   UNL     1     -12.236  13.954  70.147  1.00  0.00    -0.425 A  
HETATM   27  C   UNL     1     -12.570  12.781  70.857  1.00  0.00    -0.342 A  
ENDBRANCH  16  17
ENDBRANCH  15  16
ENDBRANCH  13  15
ENDBRANCH  12  13
ENDBRANCH  10  12
ENDBRANCH   2   6
BRANCH   3  28
HETATM   28  N   UNL     1     -10.199  19.782  66.200  1.00  0.00    -0.485 NA 
HETATM   29  H   UNL     1     -10.874  19.630  65.449  1.00  0.00     0.000 HD 
HETATM   30  O   UNL     1      -9.029  20.544  66.069  1.00  0.00    -0.575 OA 
HETATM   31  H   UNL     1      -8.945  20.900  65.193  1.00  0.00     0.000 HD 
ENDBRANCH   3  28
TORSDOF 7
ENDMDL
MODEL       11
REMARK 921   NORMALIZED FREE ENERGY PREDICTED BY IDOCK:   -6.15 KCAL/MOL
REMARK 922        TOTAL FREE ENERGY PREDICTED BY IDOCK:  -11.30 KCAL/MOL
REMARK 923 INTER-LIGAND FREE ENERGY PREDICTED BY IDOCK:  -10.81 KCAL/MOL
REMARK 924 INTRA-LIGAND FREE ENERGY PREDICTED BY IDOCK:   -0.49 KCAL/MOL
REMARK 927      BINDING AFFINITY PREDICTED BY RF-SCORE:    0.00 PKD
ROOT
HETATM    1  C   UNL     1     -12.125   9.673  71.685  1.00  0.00    -0.481 C  
HETATM    2  C   UNL     1     -12.955  10.482  71.010  1.00  0.00    -0.475 C  
HETATM    3  C   UNL     1     -12.592   8.338  72.075  1.00  0.00    -0.349 C  
HETATM    4  H   UNL     1     -11.887   6.581  72.417  1.00  0.00     0.000 HD 
HETATM    5  O   UNL     1     -11.584   7.446  72.164  1.00  0.00    -0.275 OA 
ENDROOT
BRANCH   2   6
HETATM    6  C   UNL     1     -12.520  11.807  70.587  1.00  0.00    -0.364 A  
HETATM    7  C   UNL     1     -11.772  11.966  69.417  1.00  0.00    -0.401 A  
HETATM    8  C   UNL     1     -11.454  13.247  68.959  1.00  0.00    -0.350 A  
HETATM    9  C   UNL     1     -12.908  12.930  71.322  1.00  0.00    -0.361 A  
HETATM   10  C   UNL     1     -11.883  14.379  69.665  1.00  0.00    -0.372 A  
HETATM   11  C   UNL     1     -12.593  14.208  70.863  1.00  0.00    -0.433 A  
BRANCH  10  12
HETATM   12  C   UNL     1     -11.701  15.755  69.076  1.00  0.00    -0.396 C  
BRANCH  12  13
HETATM   13  N   UNL     1     -11.021  15.728  67.780  1.00  0.00    -0.316 NA 
HETATM   14  H   UNL     1     -11.645  16.015  67.026  1.00  0.00     0.000 HD 
BRANCH  13  15
HETATM   15  C   UNL     1      -9.791  16.537  67.798  1.00  0.00    -0.240 C  
BRANCH  15  16
HETATM   16  C   UNL     1      -9.941  17.868  68.552  1.00  0.00    -0.379 C  
BRANCH  16  17
HETATM   17  C   UNL     1      -9.226  18.999  67.880  1.00  0.00    -0.345 A  
HETATM   18  C   UNL     1      -9.586  19.650  66.711  1.00  0.00    -0.371 A  
HETATM   19  N   UNL     1      -8.613  20.581  66.438  1.00  0.00    -0.543 NA 
HETATM   20  C   UNL     1     -10.751  19.486  65.802  1.00  0.00    -0.490 C  
HETATM   21  H   UNL     1      -8.614  21.202  65.629  1.00  0.00     0.000 HD 
HETATM   22  C   UNL     1      -7.638  20.561  67.404  1.00  0.00    -0.339 A  
HETATM   23  C   UNL     1      -6.468  21.322  67.519  1.00  0.00    -0.391 A  
HETATM   24  C   UNL     1      -5.650  21.091  68.629  1.00  0.00    -0.371 A  
HETATM   25  C   UNL     1      -5.991  20.136  69.584  1.00  0.00    -0.379 A  
HETATM   26  C   UNL     1      -7.158  19.378  69.447  1.00  0.00    -0.309 A  
HETATM   27  C   UNL     1      -8.000  19.591  68.334  1.00  0.00    -0.374 A  
ENDBRANCH  16  17
ENDBRANCH  15  16
ENDBRANCH  13  15
ENDBRANCH  12  13
ENDBRANCH  10  12
ENDBRANCH   2   6
BRANCH   3  28
HETATM   28  N   UNL     1     -13.826   8.031  72.316  1.00  0.00    -0.548 NA 
HETATM   29  H   UNL     1     -14.353   7.322  71.805  1.00  0.00     0.000 HD 
HETATM   30  O   UNL     1     -14.345   8.796  73.371  1.00  0.00    -1.155 OA 
HETATM   31  H   UNL     1     -15.251   8.570  73.548  1.00  0.00     0.000 HD 
ENDBRANCH   3  28
TORSDOF 7
ENDMDL
MODEL       12
REMARK 921   NORMALIZED FREE ENERGY PREDICTED BY IDOCK:   -6.11 KCAL/MOL
REMARK 922        TOTAL FREE ENERGY PREDICTED BY IDOCK:  -11.24 KCAL/MOL
REMARK 923 INTER-LIGAND FREE ENERGY PREDICTED BY IDOCK:   -9.47 KCAL/MOL
REMARK 924 INTRA-LIGAND FREE ENERGY PREDICTED BY IDOCK:   -1.78 KCAL/MOL
REMARK 927      BINDING AFFINITY PREDICTED BY RF-SCORE:    0.00 PKD
ROOT
HETATM    1  C   UNL     1      -9.565   9.003  67.197  1.00  0.00    -0.218 C  
HETATM    2  C   UNL     1     -10.271   9.809  66.390  1.00  0.00    -0.288 C  
HETATM    3  C   UNL     1      -9.536   7.563  66.917  1.00  0.00    -0.187 C  
HETATM    4  H   UNL     1      -8.378   6.047  67.161  1.00  0.00     0.000 HD 
HETATM    5  O   UNL     1      -8.397   6.979  67.342  1.00  0.00    -0.121 OA 
ENDROOT
BRANCH   2   6
HETATM    6  C   UNL     1     -10.307  11.248  66.624  1.00  0.00    -0.279 A  
HETATM    7  C   UNL     1     -11.469  11.978  66.362  1.00  0.00    -0.417 A  
HETATM    8  C   UNL     1     -11.532  13.334  66.691  1.00  0.00    -0.384 A  
HETATM    9  C   UNL     1      -9.193  11.886  67.172  1.00  0.00    -0.183 A  
HETATM   10  C   UNL     1     -10.435  13.969  67.289  1.00  0.00    -0.268 A  
HETATM   11  C   UNL     1      -9.257  13.240  67.505  1.00  0.00    -0.213 A  
BRANCH  10  12
HETATM   12  C   UNL     1     -10.565  15.378  67.812  1.00  0.00    -0.274 C  
BRANCH  12  13
HETATM   13  N   UNL     1      -9.704  15.631  68.968  1.00  0.00    -0.224 NA 
HETATM   14  H   UNL     1      -9.302  16.568  68.935  1.00  0.00     0.000 HD 
BRANCH  13  15
HETATM   15  C   UNL     1     -10.416  15.396  70.235  1.00  0.00    -0.241 C  
BRANCH  15  16
HETATM   16  C   UNL     1     -11.941  15.298  70.075  1.00  0.00    -0.375 C  
BRANCH  16  17
HETATM   17  C   UNL     1     -12.550  14.247  70.950  1.00  0.00    -0.426 A  
HETATM   18  C   UNL     1     -13.358  14.435  72.060  1.00  0.00    -0.384 A  
HETATM   19  N   UNL     1     -13.637  13.196  72.585  1.00  0.00    -0.662 NA 
HETATM   20  C   UNL     1     -13.893  15.665  72.700  1.00  0.00    -0.648 C  
HETATM   21  H   UNL     1     -14.206  13.033  73.415  1.00  0.00     0.000 HD 
HETATM   22  C   UNL     1     -13.045  12.208  71.839  1.00  0.00    -0.369 A  
HETATM   23  C   UNL     1     -13.055  10.819  72.013  1.00  0.00    -0.476 A  
HETATM   24  C   UNL     1     -12.360  10.043  71.081  1.00  0.00    -0.477 A  
HETATM   25  C   UNL     1     -11.683  10.636  70.017  1.00  0.00    -0.405 A  
HETATM   26  C   UNL     1     -11.676  12.026  69.864  1.00  0.00    -0.374 A  
HETATM   27  C   UNL     1     -12.369  12.832  70.794  1.00  0.00    -0.375 A  
ENDBRANCH  16  17
ENDBRANCH  15  16
ENDBRANCH  13  15
ENDBRANCH  12  13
ENDBRANCH  10  12
ENDBRANCH   2   6
BRANCH   3  28
HETATM   28  N   UNL     1     -10.486   6.907  66.334  1.00  0.00    -0.474 NA 
HETATM   29  H   UNL     1     -10.443   6.561  65.375  1.00  0.00     0.000 HD 
HETATM   30  O   UNL     1     -11.584   6.732  67.189  1.00  0.00    -0.725 OA 
HETATM   31  H   UNL     1     -12.282   6.250  66.761  1.00  0.00     0.000 HD 
ENDBRANCH   3  28
TORSDOF 7
ENDMDL
MODEL       13
REMARK 921   NORMALIZED FREE ENERGY PREDICTED BY IDOCK:   -6.07 KCAL/MOL
REMARK 922        TOTAL FREE ENERGY PREDICTED BY IDOCK:  -11.19 KCAL/MOL
REMARK 923 INTER-LIGAND FREE ENERGY PREDICTED BY IDOCK:   -9.73 KCAL/MOL
REMARK 924 INTRA-LIGAND FREE ENERGY PREDICTED BY IDOCK:   -1.46 KCAL/MOL
REMARK 927      BINDING AFFINITY PREDICTED BY RF-SCORE:    0.00 PKD
ROOT
HETATM    1  C   UNL     1     -11.341  13.025  65.007  1.00  0.00    -0.325 C  
HETATM    2  C   UNL     1     -10.111  12.809  65.498  1.00  0.00    -0.278 C  
HETATM    3  C   UNL     1     -11.600  14.256  64.252  1.00  0.00    -0.282 C  
HETATM    4  H   UNL     1     -12.745  14.899  62.847  1.00  0.00     0.000 HD 
HETATM    5  O   UNL     1     -12.577  14.102  63.336  1.00  0.00    -0.818 OA 
ENDROOT
BRANCH   2   6
HETATM    6  C   UNL     1      -9.810  11.588  66.235  1.00  0.00    -0.245 A  
HETATM    7  C   UNL     1     -10.405  10.377  65.871  1.00  0.00    -0.261 A  
HETATM    8  C   UNL     1     -10.028   9.193  66.510  1.00  0.00    -0.359 A  
HETATM    9  C   UNL     1      -8.873  11.619  67.270  1.00  0.00    -0.164 A  
HETATM   10  C   UNL     1      -9.051   9.210  67.514  1.00  0.00    -0.137 A  
HETATM   11  C   UNL     1      -8.494  10.436  67.905  1.00  0.00    -0.114 A  
BRANCH  10  12
HETATM   12  C   UNL     1      -8.512   7.916  68.071  1.00  0.00    -0.123 C  
BRANCH  12  13
HETATM   13  N   UNL     1      -7.772   8.105  69.320  1.00  0.00    -0.102 NA 
HETATM   14  H   UNL     1      -7.587   9.092  69.498  1.00  0.00     0.000 HD 
BRANCH  13  15
HETATM   15  C   UNL     1      -8.461   7.474  70.457  1.00  0.00    -0.133 C  
BRANCH  15  16
HETATM   16  C   UNL     1      -9.877   6.982  70.123  1.00  0.00    -0.179 C  
BRANCH  16  17
HETATM   17  C   UNL     1     -10.922   7.566  71.023  1.00  0.00    -0.266 A  
HETATM   18  C   UNL     1     -11.598   6.933  72.054  1.00  0.00    -0.285 A  
HETATM   19  N   UNL     1     -12.502   7.831  72.569  1.00  0.00    -0.554 NA 
HETATM   20  C   UNL     1     -11.500   5.559  72.609  1.00  0.00    -0.331 C  
HETATM   21  H   UNL     1     -13.145   7.633  73.335  1.00  0.00     0.000 HD 
HETATM   22  C   UNL     1     -12.422   9.033  71.910  1.00  0.00    -0.384 A  
HETATM   23  C   UNL     1     -13.154  10.212  72.094  1.00  0.00    -0.463 A  
HETATM   24  C   UNL     1     -12.850  11.300  71.271  1.00  0.00    -0.491 A  
HETATM   25  C   UNL     1     -11.852  11.210  70.304  1.00  0.00    -0.455 A  
HETATM   26  C   UNL     1     -11.137  10.020  70.127  1.00  0.00    -0.371 A  
HETATM   27  C   UNL     1     -11.427   8.907  70.945  1.00  0.00    -0.339 A  
ENDBRANCH  16  17
ENDBRANCH  15  16
ENDBRANCH  13  15
ENDBRANCH  12  13
ENDBRANCH  10  12
ENDBRANCH   2   6
BRANCH   3  28
HETATM   28  N   UNL     1     -10.976  15.376  64.432  1.00  0.00    -0.661 NA 
HETATM   29  H   UNL     1     -10.109  15.473  64.961  1.00  0.00     0.000 HD 
HETATM   30  O   UNL     1     -11.645  16.438  63.806  1.00  0.00    -1.605 OA 
HETATM   31  H   UNL     1     -11.186  17.260  63.938  1.00  0.00     0.000 HD 
ENDBRANCH   3  28
TORSDOF 7
ENDMDL
MODEL       14
REMARK 921   NORMALIZED FREE ENERGY PREDICTED BY IDOCK:   -6.00 KCAL/MOL
REMARK 922        TOTAL FREE ENERGY PREDICTED BY IDOCK:  -11.08 KCAL/MOL
REMARK 923 INTER-LIGAND FREE ENERGY PREDICTED BY IDOCK:   -8.24 KCAL/MOL
REMARK 924 INTRA-LIGAND FREE ENERGY PREDICTED BY IDOCK:   -2.84 KCAL/MOL
REMARK 927      BINDING AFFINITY PREDICTED BY RF-SCORE:    0.00 PKD
ROOT
HETATM    1  C   UNL     1     -10.114   9.725  65.641  1.00  0.00    -0.282 C  
HETATM    2  C   UNL     1      -9.218   8.749  65.854  1.00  0.00    -0.282 C  
HETATM    3  C   UNL     1      -9.839  10.730  64.609  1.00  0.00    -0.307 C  
HETATM    4  H   UNL     1     -10.789  11.887  63.400  1.00  0.00     0.000 HD 
HETATM    5  O   UNL     1     -10.967  11.236  64.069  1.00  0.00    -0.377 OA 
ENDROOT
BRANCH   2   6
HETATM    6  C   UNL     1      -9.466   7.720  66.857  1.00  0.00    -0.238 A  
HETATM    7  C   UNL     1      -8.398   7.079  67.490  1.00  0.00    -0.119 A  
HETATM    8  C   UNL     1      -8.642   6.175  68.527  1.00  0.00    -0.113 A  
HETATM    9  C   UNL     1     -10.778   7.421  67.229  1.00  0.00    -0.379 A  
HETATM   10  C   UNL     1      -9.954   5.908  68.941  1.00  0.00    -0.201 A  
HETATM   11  C   UNL     1     -11.021   6.521  68.267  1.00  0.00    -0.362 A  
BRANCH  10  12
HETATM   12  C   UNL     1     -10.207   5.079  70.175  1.00  0.00    -0.259 C  
BRANCH  12  13
HETATM   13  N   UNL     1      -9.930   5.811  71.412  1.00  0.00    -0.181 NA 
HETATM   14  H   UNL     1      -9.394   6.660  71.230  1.00  0.00     0.000 HD 
BRANCH  13  15
HETATM   15  C   UNL     1     -11.167   6.104  72.155  1.00  0.00    -0.287 C  
BRANCH  15  16
HETATM   16  C   UNL     1     -11.195   7.511  72.773  1.00  0.00    -0.403 C  
BRANCH  16  17
HETATM   17  C   UNL     1     -11.634   8.562  71.801  1.00  0.00    -0.380 A  
HETATM   18  C   UNL     1     -12.921   9.030  71.586  1.00  0.00    -0.361 A  
HETATM   19  N   UNL     1     -12.863   9.948  70.566  1.00  0.00    -0.558 NA 
HETATM   20  C   UNL     1     -14.218   8.697  72.231  1.00  0.00    -0.497 C  
HETATM   21  H   UNL     1     -13.668  10.449  70.190  1.00  0.00     0.000 HD 
HETATM   22  C   UNL     1     -11.574  10.100  70.121  1.00  0.00    -0.277 A  
HETATM   23  C   UNL     1     -11.062  10.913  69.103  1.00  0.00    -0.301 A  
HETATM   24  C   UNL     1      -9.684  10.870  68.869  1.00  0.00    -0.198 A  
HETATM   25  C   UNL     1      -8.854  10.046  69.626  1.00  0.00    -0.217 A  
HETATM   26  C   UNL     1      -9.385   9.234  70.633  1.00  0.00    -0.329 A  
HETATM   27  C   UNL     1     -10.773   9.257  70.888  1.00  0.00    -0.371 A  
ENDBRANCH  16  17
ENDBRANCH  15  16
ENDBRANCH  13  15
ENDBRANCH  12  13
ENDBRANCH  10  12
ENDBRANCH   2   6
BRANCH   3  28
HETATM   28  N   UNL     1      -8.656  11.108  64.244  1.00  0.00    -0.365 NA 
HETATM   29  H   UNL     1      -7.823  11.040  64.831  1.00  0.00     0.000 HD 
HETATM   30  O   UNL     1      -8.664  11.622  62.939  1.00  0.00    -0.600 OA 
HETATM   31  H   UNL     1      -7.796  11.899  62.672  1.00  0.00     0.000 HD 
ENDBRANCH   3  28
TORSDOF 7
ENDMDL
MODEL       15
REMARK 921   NORMALIZED FREE ENERGY PREDICTED BY IDOCK:   -5.90 KCAL/MOL
REMARK 922        TOTAL FREE ENERGY PREDICTED BY IDOCK:  -10.95 KCAL/MOL
REMARK 923 INTER-LIGAND FREE ENERGY PREDICTED BY IDOCK:   -9.76 KCAL/MOL
REMARK 924 INTRA-LIGAND FREE ENERGY PREDICTED BY IDOCK:   -1.18 KCAL/MOL
REMARK 927      BINDING AFFINITY PREDICTED BY RF-SCORE:    0.00 PKD
ROOT
HETATM    1  C   UNL     1     -11.896   9.062  70.889  1.00  0.00    -0.302 C  
HETATM    2  C   UNL     1     -12.404  10.267  70.588  1.00  0.00    -0.416 C  
HETATM    3  C   UNL     1     -12.395   8.355  72.074  1.00  0.00    -0.361 C  
HETATM    4  H   UNL     1     -12.635   6.557  72.714  1.00  0.00     0.000 HD 
HETATM    5  O   UNL     1     -12.312   7.015  71.946  1.00  0.00    -0.324 OA 
ENDROOT
BRANCH   2   6
HETATM    6  C   UNL     1     -11.949  10.991  69.407  1.00  0.00    -0.408 A  
HETATM    7  C   UNL     1     -11.298  10.316  68.371  1.00  0.00    -0.244 A  
HETATM    8  C   UNL     1     -10.964  10.994  67.196  1.00  0.00    -0.344 A  
HETATM    9  C   UNL     1     -12.222  12.355  69.285  1.00  0.00    -0.088 A  
HETATM   10  C   UNL     1     -11.281  12.350  67.047  1.00  0.00    -0.358 A  
HETATM   11  C   UNL     1     -11.892  13.031  68.110  1.00  0.00    -0.381 A  
BRANCH  10  12
HETATM   12  C   UNL     1     -11.090  13.033  65.715  1.00  0.00    -0.278 C  
BRANCH  12  13
HETATM   13  N   UNL     1     -11.901  14.244  65.581  1.00  0.00    -0.363 NA 
HETATM   14  H   UNL     1     -12.311  14.519  66.474  1.00  0.00     0.000 HD 
BRANCH  13  15
HETATM   15  C   UNL     1     -11.132  15.346  64.980  1.00  0.00    -0.418 C  
BRANCH  15  16
HETATM   16  C   UNL     1      -9.674  15.412  65.460  1.00  0.00    -0.318 C  
BRANCH  16  17
HETATM   17  C   UNL     1      -9.522  16.159  66.750  1.00  0.00    -0.256 A  
HETATM   18  C   UNL     1      -9.066  15.667  67.962  1.00  0.00    -0.183 A  
HETATM   19  N   UNL     1      -9.148  16.687  68.880  1.00  0.00    -0.250 NA 
HETATM   20  C   UNL     1      -8.570  14.326  68.365  1.00  0.00    -0.175 C  
HETATM   21  H   UNL     1      -8.886  16.606  69.862  1.00  0.00     0.000 HD 
HETATM   22  C   UNL     1      -9.630  17.830  68.294  1.00  0.00    -0.312 A  
HETATM   23  C   UNL     1      -9.882  19.090  68.850  1.00  0.00    -0.464 A  
HETATM   24  C   UNL     1     -10.373  20.088  68.002  1.00  0.00    -0.501 A  
HETATM   25  C   UNL     1     -10.601  19.832  66.652  1.00  0.00    -0.578 A  
HETATM   26  C   UNL     1     -10.353  18.564  66.116  1.00  0.00    -0.457 A  
HETATM   27  C   UNL     1      -9.859  17.539  66.952  1.00  0.00    -0.302 A  
ENDBRANCH  16  17
ENDBRANCH  15  16
ENDBRANCH  13  15
ENDBRANCH  12  13
ENDBRANCH  10  12
ENDBRANCH   2   6
BRANCH   3  28
HETATM   28  N   UNL     1     -12.862   8.932  73.134  1.00  0.00    -0.518 NA 
HETATM   29  H   UNL     1     -12.295   9.456  73.802  1.00  0.00     0.000 HD 
HETATM   30  O   UNL     1     -14.248   8.747  73.247  1.00  0.00    -1.164 OA 
HETATM   31  H   UNL     1     -14.591   9.170  74.025  1.00  0.00     0.000 HD 
ENDBRANCH   3  28
TORSDOF 7
ENDMDL
MODEL       16
REMARK 921   NORMALIZED FREE ENERGY PREDICTED BY IDOCK:   -5.88 KCAL/MOL
REMARK 922        TOTAL FREE ENERGY PREDICTED BY IDOCK:  -10.92 KCAL/MOL
REMARK 923 INTER-LIGAND FREE ENERGY PREDICTED BY IDOCK:   -9.12 KCAL/MOL
REMARK 924 INTRA-LIGAND FREE ENERGY PREDICTED BY IDOCK:   -1.80 KCAL/MOL
REMARK 927      BINDING AFFINITY PREDICTED BY RF-SCORE:    0.00 PKD
ROOT
HETATM    1  C   UNL     1     -10.966   8.956  71.626  1.00  0.00    -0.415 C  
HETATM    2  C   UNL     1     -11.411   9.078  70.366  1.00  0.00    -0.242 C  
HETATM    3  C   UNL     1     -11.719   8.120  72.568  1.00  0.00    -0.394 C  
HETATM    4  H   UNL     1     -11.418   7.043  74.133  1.00  0.00     0.000 HD 
HETATM    5  O   UNL     1     -10.930   7.584  73.523  1.00  0.00    -0.339 OA 
ENDROOT
BRANCH   2   6
HETATM    6  C   UNL     1     -10.679   9.882  69.395  1.00  0.00    -0.255 A  
HETATM    7  C   UNL     1     -11.281  10.258  68.191  1.00  0.00    -0.294 A  
HETATM    8  C   UNL     1     -10.615  11.120  67.316  1.00  0.00    -0.279 A  
HETATM    9  C   UNL     1      -9.392  10.332  69.700  1.00  0.00    -0.167 A  
HETATM   10  C   UNL     1      -9.345  11.615  67.639  1.00  0.00    -0.178 A  
HETATM   11  C   UNL     1      -8.729  11.195  68.827  1.00  0.00    -0.130 A  
BRANCH  10  12
HETATM   12  C   UNL     1      -8.708  12.685  66.788  1.00  0.00    -0.134 C  
BRANCH  12  13
HETATM   13  N   UNL     1      -9.578  13.131  65.699  1.00  0.00    -0.480 NA 
HETATM   14  H   UNL     1     -10.441  12.588  65.665  1.00  0.00     0.000 HD 
BRANCH  13  15
HETATM   15  C   UNL     1      -9.854  14.575  65.785  1.00  0.00    -0.314 C  
BRANCH  15  16
HETATM   16  C   UNL     1     -11.262  14.902  66.308  1.00  0.00    -0.331 C  
BRANCH  16  17
HETATM   17  C   UNL     1     -11.240  15.611  67.627  1.00  0.00    -0.274 A  
HETATM   18  C   UNL     1     -10.840  16.914  67.879  1.00  0.00    -0.310 A  
HETATM   19  N   UNL     1     -10.932  17.120  69.234  1.00  0.00    -0.286 NA 
HETATM   20  C   UNL     1     -10.361  17.996  66.981  1.00  0.00    -0.377 C  
HETATM   21  H   UNL     1     -10.691  17.992  69.706  1.00  0.00     0.000 HD 
HETATM   22  C   UNL     1     -11.394  15.994  69.867  1.00  0.00    -0.340 A  
HETATM   23  C   UNL     1     -11.628  15.756  71.227  1.00  0.00    -0.499 A  
HETATM   24  C   UNL     1     -12.113  14.497  71.591  1.00  0.00    -0.379 A  
HETATM   25  C   UNL     1     -12.355  13.516  70.631  1.00  0.00    -0.432 A  
HETATM   26  C   UNL     1     -12.107  13.769  69.278  1.00  0.00    -0.374 A  
HETATM   27  C   UNL     1     -11.614  15.032  68.885  1.00  0.00    -0.349 A  
ENDBRANCH  16  17
ENDBRANCH  15  16
ENDBRANCH  13  15
ENDBRANCH  12  13
ENDBRANCH  10  12
ENDBRANCH   2   6
BRANCH   3  28
HETATM   28  N   UNL     1     -12.994   7.911  72.511  1.00  0.00    -0.533 NA 
HETATM   29  H   UNL     1     -13.424   7.082  72.100  1.00  0.00     0.000 HD 
HETATM   30  O   UNL     1     -13.710   8.971  73.088  1.00  0.00    -1.013 OA 
HETATM   31  H   UNL     1     -14.647   8.817  73.046  1.00  0.00     0.000 HD 
ENDBRANCH   3  28
TORSDOF 7
ENDMDL
MODEL       17
REMARK 921   NORMALIZED FREE ENERGY PREDICTED BY IDOCK:   -5.82 KCAL/MOL
REMARK 922        TOTAL FREE ENERGY PREDICTED BY IDOCK:  -10.84 KCAL/MOL
REMARK 923 INTER-LIGAND FREE ENERGY PREDICTED BY IDOCK:   -9.29 KCAL/MOL
REMARK 924 INTRA-LIGAND FREE ENERGY PREDICTED BY IDOCK:   -1.54 KCAL/MOL
REMARK 927      BINDING AFFINITY PREDICTED BY RF-SCORE:    0.00 PKD
ROOT
HETATM    1  C   UNL     1     -12.251  14.286  70.978  1.00  0.00    -0.428 C  
HETATM    2  C   UNL     1     -12.732  13.056  71.211  1.00  0.00    -0.385 C  
HETATM    3  C   UNL     1     -12.745  15.408  71.785  1.00  0.00    -0.396 C  
HETATM    4  H   UNL     1     -12.150  17.116  72.438  1.00  0.00     0.000 HD 
HETATM    5  O   UNL     1     -11.830  16.390  71.916  1.00  0.00    -0.497 OA 
ENDROOT
BRANCH   2   6
HETATM    6  C   UNL     1     -12.250  11.913  70.445  1.00  0.00    -0.399 A  
HETATM    7  C   UNL     1     -12.011  12.031  69.073  1.00  0.00    -0.321 A  
HETATM    8  C   UNL     1     -11.446  10.966  68.368  1.00  0.00    -0.374 A  
HETATM    9  C   UNL     1     -11.966  10.712  71.100  1.00  0.00    -0.401 A  
HETATM   10  C   UNL     1     -11.111   9.777  69.029  1.00  0.00    -0.143 A  
HETATM   11  C   UNL     1     -11.397   9.651  70.396  1.00  0.00    -0.337 A  
BRANCH  10  12
HETATM   12  C   UNL     1     -10.333   8.702  68.311  1.00  0.00    -0.207 C  
BRANCH  12  13
HETATM   13  N   UNL     1     -10.436   8.809  66.855  1.00  0.00    -0.278 NA 
HETATM   14  H   UNL     1     -10.764   9.732  66.571  1.00  0.00     0.000 HD 
BRANCH  13  15
HETATM   15  C   UNL     1      -9.165   8.464  66.196  1.00  0.00    -0.205 C  
BRANCH  15  16
HETATM   16  C   UNL     1      -8.748   9.461  65.105  1.00  0.00    -0.210 C  
BRANCH  16  17
HETATM   17  C   UNL     1      -9.087  10.878  65.453  1.00  0.00    -0.218 A  
HETATM   18  C   UNL     1      -8.469  11.689  66.391  1.00  0.00    -0.114 A  
HETATM   19  N   UNL     1      -9.146  12.885  66.414  1.00  0.00    -0.424 NA 
HETATM   20  C   UNL     1      -7.309  11.459  67.291  1.00  0.00    -0.130 C  
HETATM   21  H   UNL     1      -8.914  13.671  67.022  1.00  0.00     0.000 HD 
HETATM   22  C   UNL     1     -10.176  12.878  65.508  1.00  0.00    -0.287 A  
HETATM   23  C   UNL     1     -11.118  13.869  65.208  1.00  0.00    -0.318 A  
HETATM   24  C   UNL     1     -12.064  13.587  64.218  1.00  0.00    -0.482 A  
HETATM   25  C   UNL     1     -12.065  12.361  63.556  1.00  0.00    -0.651 A  
HETATM   26  C   UNL     1     -11.122  11.379  63.877  1.00  0.00    -0.410 A  
HETATM   27  C   UNL     1     -10.157  11.639  64.874  1.00  0.00    -0.303 A  
ENDBRANCH  16  17
ENDBRANCH  15  16
ENDBRANCH  13  15
ENDBRANCH  12  13
ENDBRANCH  10  12
ENDBRANCH   2   6
BRANCH   3  28
HETATM   28  N   UNL     1     -13.924  15.470  72.316  1.00  0.00    -0.538 NA 
HETATM   29  H   UNL     1     -14.752  15.012  71.934  1.00  0.00     0.000 HD 
HETATM   30  O   UNL     1     -13.916  16.248  73.483  1.00  0.00    -0.833 OA 
HETATM   31  H   UNL     1     -14.781  16.294  73.873  1.00  0.00     0.000 HD 
ENDBRANCH   3  28
TORSDOF 7
ENDMDL
MODEL       18
REMARK 921   NORMALIZED FREE ENERGY PREDICTED BY IDOCK:   -5.81 KCAL/MOL
REMARK 922        TOTAL FREE ENERGY PREDICTED BY IDOCK:  -10.82 KCAL/MOL
REMARK 923 INTER-LIGAND FREE ENERGY PREDICTED BY IDOCK:   -9.28 KCAL/MOL
REMARK 924 INTRA-LIGAND FREE ENERGY PREDICTED BY IDOCK:   -1.53 KCAL/MOL
REMARK 927      BINDING AFFINITY PREDICTED BY RF-SCORE:    0.00 PKD
ROOT
HETATM    1  C   UNL     1     -10.558   6.340  67.504  1.00  0.00    -0.348 C  
HETATM    2  C   UNL     1     -10.443   7.568  66.977  1.00  0.00    -0.409 C  
HETATM    3  C   UNL     1     -10.315   5.173  66.649  1.00  0.00    -0.281 C  
HETATM    4  H   UNL     1      -9.701   3.355  66.792  1.00  0.00     0.000 HD 
HETATM    5  O   UNL     1      -9.858   4.111  67.346  1.00  0.00    -0.179 OA 
ENDROOT
BRANCH   2   6
HETATM    6  C   UNL     1     -10.656   8.752  67.800  1.00  0.00    -0.256 A  
HETATM    7  C   UNL     1     -10.935   9.986  67.205  1.00  0.00    -0.225 A  
HETATM    8  C   UNL     1     -11.246  11.091  68.001  1.00  0.00    -0.372 A  
HETATM    9  C   UNL     1     -10.644   8.638  69.191  1.00  0.00    -0.193 A  
HETATM   10  C   UNL     1     -11.286  10.971  69.396  1.00  0.00    -0.332 A  
HETATM   11  C   UNL     1     -10.959   9.741  69.986  1.00  0.00    -0.319 A  
BRANCH  10  12
HETATM   12  C   UNL     1     -11.801  12.108  70.242  1.00  0.00    -0.254 C  
BRANCH  12  13
HETATM   13  N   UNL     1     -11.219  13.397  69.867  1.00  0.00    -0.482 NA 
HETATM   14  H   UNL     1     -10.468  13.284  69.187  1.00  0.00     0.000 HD 
BRANCH  13  15
HETATM   15  C   UNL     1     -12.247  14.334  69.383  1.00  0.00    -0.278 C  
BRANCH  15  16
HETATM   16  C   UNL     1     -11.718  15.354  68.363  1.00  0.00    -0.332 C  
BRANCH  16  17
HETATM   17  C   UNL     1     -10.876  14.725  67.296  1.00  0.00    -0.309 A  
HETATM   18  C   UNL     1      -9.495  14.747  67.186  1.00  0.00    -0.227 A  
HETATM   19  N   UNL     1      -9.162  14.092  66.025  1.00  0.00    -0.503 NA 
HETATM   20  C   UNL     1      -8.440  15.334  68.052  1.00  0.00    -0.147 C  
HETATM   21  H   UNL     1      -8.209  13.963  65.685  1.00  0.00     0.000 HD 
HETATM   22  C   UNL     1     -10.286  13.633  65.386  1.00  0.00    -0.313 A  
HETATM   23  C   UNL     1     -10.414  12.930  64.182  1.00  0.00    -0.429 A  
HETATM   24  C   UNL     1     -11.703  12.580  63.769  1.00  0.00    -0.564 A  
HETATM   25  C   UNL     1     -12.818  12.919  64.533  1.00  0.00    -0.273 A  
HETATM   26  C   UNL     1     -12.671  13.630  65.729  1.00  0.00    -0.470 A  
HETATM   27  C   UNL     1     -11.380  13.997  66.166  1.00  0.00    -0.322 A  
ENDBRANCH  16  17
ENDBRANCH  15  16
ENDBRANCH  13  15
ENDBRANCH  12  13
ENDBRANCH  10  12
ENDBRANCH   2   6
BRANCH   3  28
HETATM   28  N   UNL     1     -10.513   5.141  65.371  1.00  0.00    -0.421 NA 
HETATM   29  H   UNL     1      -9.866   5.519  64.678  1.00  0.00     0.000 HD 
HETATM   30  O   UNL     1     -11.733   4.522  65.060  1.00  0.00    -1.044 OA 
HETATM   31  H   UNL     1     -11.878   4.499  64.121  1.00  0.00     0.000 HD 
ENDBRANCH   3  28
TORSDOF 7
ENDMDL
MODEL       19
REMARK 921   NORMALIZED FREE ENERGY PREDICTED BY IDOCK:   -5.80 KCAL/MOL
REMARK 922        TOTAL FREE ENERGY PREDICTED BY IDOCK:  -10.80 KCAL/MOL
REMARK 923 INTER-LIGAND FREE ENERGY PREDICTED BY IDOCK:   -8.59 KCAL/MOL
REMARK 924 INTRA-LIGAND FREE ENERGY PREDICTED BY IDOCK:   -2.21 KCAL/MOL
REMARK 927      BINDING AFFINITY PREDICTED BY RF-SCORE:    0.00 PKD
ROOT
HETATM    1  C   UNL     1     -10.409   8.343  71.331  1.00  0.00    -0.285 C  
HETATM    2  C   UNL     1     -10.840   7.998  70.109  1.00  0.00    -0.242 C  
HETATM    3  C   UNL     1     -11.093   7.796  72.508  1.00  0.00    -0.346 C  
HETATM    4  H   UNL     1     -10.717   7.331  74.337  1.00  0.00     0.000 HD 
HETATM    5  O   UNL     1     -10.274   7.686  73.574  1.00  0.00    -0.334 OA 
ENDROOT
BRANCH   2   6
HETATM    6  C   UNL     1     -10.173   8.505  68.915  1.00  0.00    -0.221 A  
HETATM    7  C   UNL     1     -10.589   8.097  67.645  1.00  0.00    -0.258 A  
HETATM    8  C   UNL     1     -10.020   8.670  66.506  1.00  0.00    -0.353 A  
HETATM    9  C   UNL     1      -9.154   9.452  69.043  1.00  0.00    -0.142 A  
HETATM   10  C   UNL     1      -9.033   9.658  66.627  1.00  0.00    -0.166 A  
HETATM   11  C   UNL     1      -8.589  10.027  67.905  1.00  0.00    -0.121 A  
BRANCH  10  12
HETATM   12  C   UNL     1      -8.554  10.406  65.408  1.00  0.00    -0.174 C  
BRANCH  12  13
HETATM   13  N   UNL     1      -9.092  11.765  65.334  1.00  0.00    -0.418 NA 
HETATM   14  H   UNL     1      -8.362  12.444  65.117  1.00  0.00     0.000 HD 
BRANCH  13  15
HETATM   15  C   UNL     1     -10.209  11.853  64.379  1.00  0.00    -0.297 C  
BRANCH  15  16
HETATM   16  C   UNL     1     -11.591  11.886  65.051  1.00  0.00    -0.277 C  
BRANCH  16  17
HETATM   17  C   UNL     1     -11.685  12.917  66.133  1.00  0.00    -0.451 A  
HETATM   18  C   UNL     1     -11.615  14.294  65.997  1.00  0.00    -0.360 A  
HETATM   19  N   UNL     1     -11.691  14.839  67.256  1.00  0.00    -0.375 NA 
HETATM   20  C   UNL     1     -11.469  15.167  64.803  1.00  0.00    -0.383 C  
HETATM   21  H   UNL     1     -11.655  15.838  67.459  1.00  0.00     0.000 HD 
HETATM   22  C   UNL     1     -11.822  13.856  68.204  1.00  0.00    -0.372 A  
HETATM   23  C   UNL     1     -11.923  13.955  69.597  1.00  0.00    -0.399 A  
HETATM   24  C   UNL     1     -12.057  12.769  70.324  1.00  0.00    -0.373 A  
HETATM   25  C   UNL     1     -12.090  11.533  69.681  1.00  0.00    -0.363 A  
HETATM   26  C   UNL     1     -11.978  11.453  68.289  1.00  0.00    -0.234 A  
HETATM   27  C   UNL     1     -11.840  12.637  67.532  1.00  0.00    -0.396 A  
ENDBRANCH  16  17
ENDBRANCH  15  16
ENDBRANCH  13  15
ENDBRANCH  12  13
ENDBRANCH  10  12
ENDBRANCH   2   6
BRANCH   3  28
HETATM   28  N   UNL     1     -12.341   7.454  72.542  1.00  0.00    -0.521 NA 
HETATM   29  H   UNL     1     -12.697   6.545  72.245  1.00  0.00     0.000 HD 
HETATM   30  O   UNL     1     -13.140   8.493  73.041  1.00  0.00    -0.729 OA 
HETATM   31  H   UNL     1     -14.056   8.242  73.067  1.00  0.00     0.000 HD 
ENDBRANCH   3  28
TORSDOF 7
ENDMDL
MODEL       20
REMARK 921   NORMALIZED FREE ENERGY PREDICTED BY IDOCK:   -5.77 KCAL/MOL
REMARK 922        TOTAL FREE ENERGY PREDICTED BY IDOCK:  -10.77 KCAL/MOL
REMARK 923 INTER-LIGAND FREE ENERGY PREDICTED BY IDOCK:   -8.93 KCAL/MOL
REMARK 924 INTRA-LIGAND FREE ENERGY PREDICTED BY IDOCK:   -1.83 KCAL/MOL
REMARK 927      BINDING AFFINITY PREDICTED BY RF-SCORE:    0.00 PKD
ROOT
HETATM    1  C   UNL     1     -11.469  12.766  65.908  1.00  0.00    -0.399 C  
HETATM    2  C   UNL     1     -10.927  11.548  65.760  1.00  0.00    -0.305 C  
HETATM    3  C   UNL     1     -12.573  13.164  65.028  1.00  0.00    -0.438 C  
HETATM    4  H   UNL     1     -14.117  14.312  65.044  1.00  0.00     0.000 HD 
HETATM    5  O   UNL     1     -13.402  14.054  65.614  1.00  0.00    -0.636 OA 
ENDROOT
BRANCH   2   6
HETATM    6  C   UNL     1      -9.842  11.107  66.629  1.00  0.00    -0.231 A  
HETATM    7  C   UNL     1      -9.220  12.009  67.496  1.00  0.00    -0.180 A  
HETATM    8  C   UNL     1      -8.258  11.558  68.403  1.00  0.00    -0.152 A  
HETATM    9  C   UNL     1      -9.468   9.762  66.639  1.00  0.00    -0.220 A  
HETATM   10  C   UNL     1      -7.914  10.200  68.453  1.00  0.00    -0.102 A  
HETATM   11  C   UNL     1      -8.510   9.310  67.547  1.00  0.00    -0.115 A  
BRANCH  10  12
HETATM   12  C   UNL     1      -7.018   9.684  69.551  1.00  0.00    -0.059 C  
BRANCH  12  13
HETATM   13  N   UNL     1      -7.659   9.724  70.866  1.00  0.00    -0.346 NA 
HETATM   14  H   UNL     1      -8.532  10.250  70.840  1.00  0.00     0.000 HD 
BRANCH  13  15
HETATM   15  C   UNL     1      -7.862   8.371  71.411  1.00  0.00    -0.116 C  
BRANCH  15  16
HETATM   16  C   UNL     1      -9.096   7.657  70.838  1.00  0.00    -0.149 C  
BRANCH  16  17
HETATM   17  C   UNL     1     -10.363   8.034  71.542  1.00  0.00    -0.258 A  
HETATM   18  C   UNL     1     -11.003   7.342  72.558  1.00  0.00    -0.296 A  
HETATM   19  N   UNL     1     -12.157   8.024  72.860  1.00  0.00    -0.628 NA 
HETATM   20  C   UNL     1     -10.655   6.090  73.278  1.00  0.00    -0.276 C  
HETATM   21  H   UNL     1     -12.832   7.737  73.568  1.00  0.00     0.000 HD 
HETATM   22  C   UNL     1     -12.277   9.146  72.078  1.00  0.00    -0.373 A  
HETATM   23  C   UNL     1     -13.288  10.114  72.041  1.00  0.00    -0.492 A  
HETATM   24  C   UNL     1     -13.144  11.169  71.135  1.00  0.00    -0.284 A  
HETATM   25  C   UNL     1     -12.030  11.250  70.302  1.00  0.00    -0.466 A  
HETATM   26  C   UNL     1     -11.034  10.269  70.347  1.00  0.00    -0.365 A  
HETATM   27  C   UNL     1     -11.159   9.192  71.251  1.00  0.00    -0.405 A  
ENDBRANCH  16  17
ENDBRANCH  15  16
ENDBRANCH  13  15
ENDBRANCH  12  13
ENDBRANCH  10  12
ENDBRANCH   2   6
BRANCH   3  28
HETATM   28  N   UNL     1     -12.750  12.728  63.823  1.00  0.00    -0.725 NA 
HETATM   29  H   UNL     1     -13.217  11.851  63.590  1.00  0.00     0.000 HD 
HETATM   30  O   UNL     1     -12.217  13.616  62.877  1.00  0.00    -0.917 OA 
HETATM   31  H   UNL     1     -12.347  13.296  61.992  1.00  0.00     0.000 HD 
ENDBRANCH   3  28
TORSDOF 7
ENDMDL
MODEL       21
REMARK 921   NORMALIZED FREE ENERGY PREDICTED BY IDOCK:   -5.76 KCAL/MOL
REMARK 922        TOTAL FREE ENERGY PREDICTED BY IDOCK:  -10.75 KCAL/MOL
REMARK 923 INTER-LIGAND FREE ENERGY PREDICTED BY IDOCK:   -9.04 KCAL/MOL
REMARK 924 INTRA-LIGAND FREE ENERGY PREDICTED BY IDOCK:   -1.71 KCAL/MOL
REMARK 927      BINDING AFFINITY PREDICTED BY RF-SCORE:    0.00 PKD
ROOT
HETATM    1  C   UNL     1     -12.369  14.638  69.924  1.00  0.00    -0.341 C  
HETATM    2  C   UNL     1     -11.376  14.876  69.053  1.00  0.00    -0.310 C  
HETATM    3  C   UNL     1     -12.664  15.636  70.957  1.00  0.00    -0.460 C  
HETATM    4  H   UNL     1     -14.149  16.265  72.005  1.00  0.00     0.000 HD 
HETATM    5  O   UNL     1     -13.959  15.619  71.335  1.00  0.00    -0.540 OA 
ENDROOT
BRANCH   2   6
HETATM    6  C   UNL     1     -11.067  13.917  67.999  1.00  0.00    -0.279 A  
HETATM    7  C   UNL     1      -9.763  13.444  67.834  1.00  0.00    -0.226 A  
HETATM    8  C   UNL     1      -9.495  12.444  66.896  1.00  0.00    -0.219 A  
HETATM    9  C   UNL     1     -12.094  13.423  67.192  1.00  0.00    -0.367 A  
HETATM   10  C   UNL     1     -10.530  11.907  66.118  1.00  0.00    -0.272 A  
HETATM   11  C   UNL     1     -11.827  12.422  66.258  1.00  0.00    -0.431 A  
BRANCH  10  12
HETATM   12  C   UNL     1     -10.277  10.705  65.243  1.00  0.00    -0.282 C  
BRANCH  12  13
HETATM   13  N   UNL     1      -9.556   9.641  65.942  1.00  0.00    -0.236 NA 
HETATM   14  H   UNL     1      -8.642   9.959  66.264  1.00  0.00     0.000 HD 
BRANCH  13  15
HETATM   15  C   UNL     1     -10.352   9.085  67.048  1.00  0.00    -0.269 C  
BRANCH  15  16
HETATM   16  C   UNL     1      -9.612   9.075  68.395  1.00  0.00    -0.163 C  
BRANCH  16  17
HETATM   17  C   UNL     1     -10.500   8.702  69.542  1.00  0.00    -0.222 A  
HETATM   18  C   UNL     1     -10.674   7.446  70.102  1.00  0.00    -0.242 A  
HETATM   19  N   UNL     1     -11.622   7.562  71.090  1.00  0.00    -0.276 NA 
HETATM   20  C   UNL     1     -10.052   6.131  69.801  1.00  0.00    -0.229 C  
HETATM   21  H   UNL     1     -11.956   6.789  71.666  1.00  0.00     0.000 HD 
HETATM   22  C   UNL     1     -12.058   8.858  71.196  1.00  0.00    -0.277 A  
HETATM   23  C   UNL     1     -13.013   9.420  72.052  1.00  0.00    -0.508 A  
HETATM   24  C   UNL     1     -13.255  10.793  71.942  1.00  0.00    -0.524 A  
HETATM   25  C   UNL     1     -12.565  11.570  71.014  1.00  0.00    -0.457 A  
HETATM   26  C   UNL     1     -11.621  10.990  70.162  1.00  0.00    -0.421 A  
HETATM   27  C   UNL     1     -11.361   9.605  70.251  1.00  0.00    -0.311 A  
ENDBRANCH  16  17
ENDBRANCH  15  16
ENDBRANCH  13  15
ENDBRANCH  12  13
ENDBRANCH  10  12
ENDBRANCH   2   6
BRANCH   3  28
HETATM   28  N   UNL     1     -11.795  16.449  71.466  1.00  0.00    -0.663 NA 
HETATM   29  H   UNL     1     -11.130  16.998  70.919  1.00  0.00     0.000 HD 
HETATM   30  O   UNL     1     -11.883  16.480  72.865  1.00  0.00    -0.519 OA 
HETATM   31  H   UNL     1     -11.245  17.077  73.238  1.00  0.00     0.000 HD 
ENDBRANCH   3  28
TORSDOF 7
ENDMDL
MODEL       22
REMARK 921   NORMALIZED FREE ENERGY PREDICTED BY IDOCK:   -5.74 KCAL/MOL
REMARK 922        TOTAL FREE ENERGY PREDICTED BY IDOCK:  -10.72 KCAL/MOL
REMARK 923 INTER-LIGAND FREE ENERGY PREDICTED BY IDOCK:   -9.10 KCAL/MOL
REMARK 924 INTRA-LIGAND FREE ENERGY PREDICTED BY IDOCK:   -1.63 KCAL/MOL
REMARK 927      BINDING AFFINITY PREDICTED BY RF-SCORE:    0.00 PKD
ROOT
HETATM    1  C   UNL     1     -12.191  14.914  71.365  1.00  0.00    -0.391 C  
HETATM    2  C   UNL     1     -12.737  13.693  71.468  1.00  0.00    -0.420 C  
HETATM    3  C   UNL     1     -12.550  15.939  72.350  1.00  0.00    -0.457 C  
HETATM    4  H   UNL     1     -11.796  17.504  73.178  1.00  0.00     0.000 HD 
HETATM    5  O   UNL     1     -11.563  16.839  72.540  1.00  0.00    -0.345 OA 
ENDROOT
BRANCH   2   6
HETATM    6  C   UNL     1     -12.388  12.641  70.520  1.00  0.00    -0.350 A  
HETATM    7  C   UNL     1     -12.101  12.955  69.189  1.00  0.00    -0.216 A  
HETATM    8  C   UNL     1     -11.661  11.958  68.315  1.00  0.00    -0.390 A  
HETATM    9  C   UNL     1     -12.279  11.321  70.962  1.00  0.00    -0.417 A  
HETATM   10  C   UNL     1     -11.501  10.641  68.765  1.00  0.00    -0.330 A  
HETATM   11  C   UNL     1     -11.836  10.327  70.090  1.00  0.00    -0.343 A  
BRANCH  10  12
HETATM   12  C   UNL     1     -10.851   9.609  67.878  1.00  0.00    -0.215 C  
BRANCH  12  13
HETATM   13  N   UNL     1      -9.775  10.167  67.058  1.00  0.00    -0.174 NA 
HETATM   14  H   UNL     1      -8.871   9.766  67.306  1.00  0.00     0.000 HD 
BRANCH  13  15
HETATM   15  C   UNL     1     -10.055  10.014  65.621  1.00  0.00    -0.251 C  
BRANCH  15  16
HETATM   16  C   UNL     1      -9.578  11.202  64.771  1.00  0.00    -0.279 C  
BRANCH  16  17
HETATM   17  C   UNL     1     -10.366  12.450  65.024  1.00  0.00    -0.319 A  
HETATM   18  C   UNL     1     -11.559  12.832  64.430  1.00  0.00    -0.361 A  
HETATM   19  N   UNL     1     -11.888  14.071  64.921  1.00  0.00    -0.372 NA 
HETATM   20  C   UNL     1     -12.427  12.160  63.428  1.00  0.00    -0.625 C  
HETATM   21  H   UNL     1     -12.716  14.602  64.650  1.00  0.00     0.000 HD 
HETATM   22  C   UNL     1     -10.952  14.499  65.828  1.00  0.00    -0.319 A  
HETATM   23  C   UNL     1     -10.884  15.692  66.558  1.00  0.00    -0.260 A  
HETATM   24  C   UNL     1      -9.803  15.860  67.429  1.00  0.00    -0.234 A  
HETATM   25  C   UNL     1      -8.831  14.871  67.563  1.00  0.00    -0.195 A  
HETATM   26  C   UNL     1      -8.910  13.689  66.818  1.00  0.00    -0.150 A  
HETATM   27  C   UNL     1      -9.991  13.497  65.931  1.00  0.00    -0.295 A  
ENDBRANCH  16  17
ENDBRANCH  15  16
ENDBRANCH  13  15
ENDBRANCH  12  13
ENDBRANCH  10  12
ENDBRANCH   2   6
BRANCH   3  28
HETATM   28  N   UNL     1     -13.682  15.996  72.976  1.00  0.00    -0.595 NA 
HETATM   29  H   UNL     1     -14.589  15.819  72.542  1.00  0.00     0.000 HD 
HETATM   30  O   UNL     1     -13.502  16.330  74.326  1.00  0.00    -0.796 OA 
HETATM   31  H   UNL     1     -14.332  16.372  74.785  1.00  0.00     0.000 HD 
ENDBRANCH   3  28
TORSDOF 7
ENDMDL
MODEL       23
REMARK 921   NORMALIZED FREE ENERGY PREDICTED BY IDOCK:   -5.74 KCAL/MOL
REMARK 922        TOTAL FREE ENERGY PREDICTED BY IDOCK:  -10.71 KCAL/MOL
REMARK 923 INTER-LIGAND FREE ENERGY PREDICTED BY IDOCK:  -10.18 KCAL/MOL
REMARK 924 INTRA-LIGAND FREE ENERGY PREDICTED BY IDOCK:   -0.53 KCAL/MOL
REMARK 927      BINDING AFFINITY PREDICTED BY RF-SCORE:    0.00 PKD
ROOT
HETATM    1  C   UNL     1     -11.191   7.588  72.920  1.00  0.00    -0.396 C  
HETATM    2  C   UNL     1     -11.912   7.899  71.832  1.00  0.00    -0.347 C  
HETATM    3  C   UNL     1     -10.946   6.176  73.230  1.00  0.00    -0.204 C  
HETATM    4  H   UNL     1      -9.629   5.075  74.100  1.00  0.00     0.000 HD 
HETATM    5  O   UNL     1      -9.788   5.990  73.899  1.00  0.00    -0.164 OA 
ENDROOT
BRANCH   2   6
HETATM    6  C   UNL     1     -12.159   9.292  71.478  1.00  0.00    -0.435 A  
HETATM    7  C   UNL     1     -13.083  10.052  72.200  1.00  0.00    -0.482 A  
HETATM    8  C   UNL     1     -13.234  11.413  71.928  1.00  0.00    -0.485 A  
HETATM    9  C   UNL     1     -11.421   9.886  70.452  1.00  0.00    -0.372 A  
HETATM   10  C   UNL     1     -12.460  12.027  70.934  1.00  0.00    -0.384 A  
HETATM   11  C   UNL     1     -11.570  11.246  70.182  1.00  0.00    -0.393 A  
BRANCH  10  12
HETATM   12  C   UNL     1     -12.488  13.526  70.766  1.00  0.00    -0.353 C  
BRANCH  12  13
HETATM   13  N   UNL     1     -11.231  14.057  70.238  1.00  0.00    -0.479 NA 
HETATM   14  H   UNL     1     -10.579  13.308  70.003  1.00  0.00     0.000 HD 
BRANCH  13  15
HETATM   15  C   UNL     1     -11.461  14.950  69.090  1.00  0.00    -0.302 C  
BRANCH  15  16
HETATM   16  C   UNL     1     -10.293  14.980  68.091  1.00  0.00    -0.239 C  
BRANCH  16  17
HETATM   17  C   UNL     1     -10.413  16.091  67.094  1.00  0.00    -0.308 A  
HETATM   18  C   UNL     1     -10.633  15.981  65.730  1.00  0.00    -0.353 A  
HETATM   19  N   UNL     1     -10.614  17.251  65.204  1.00  0.00    -0.638 NA 
HETATM   20  C   UNL     1     -10.849  14.803  64.851  1.00  0.00    -0.433 C  
HETATM   21  H   UNL     1     -10.740  17.471  64.216  1.00  0.00     0.000 HD 
HETATM   22  C   UNL     1     -10.401  18.182  66.189  1.00  0.00    -0.385 A  
HETATM   23  C   UNL     1     -10.298  19.575  66.105  1.00  0.00    -0.614 A  
HETATM   24  C   UNL     1     -10.084  20.283  67.291  1.00  0.00    -0.545 A  
HETATM   25  C   UNL     1      -9.978  19.621  68.512  1.00  0.00    -0.542 A  
HETATM   26  C   UNL     1     -10.075  18.227  68.576  1.00  0.00    -0.419 A  
HETATM   27  C   UNL     1     -10.289  17.489  67.392  1.00  0.00    -0.351 A  
ENDBRANCH  16  17
ENDBRANCH  15  16
ENDBRANCH  13  15
ENDBRANCH  12  13
ENDBRANCH  10  12
ENDBRANCH   2   6
BRANCH   3  28
HETATM   28  N   UNL     1     -11.737   5.203  72.913  1.00  0.00    -0.378 NA 
HETATM   29  H   UNL     1     -12.687   5.325  72.559  1.00  0.00     0.000 HD 
HETATM   30  O   UNL     1     -11.124   3.958  73.118  1.00  0.00    -0.177 OA 
HETATM   31  H   UNL     1     -11.705   3.244  72.885  1.00  0.00     0.000 HD 
ENDBRANCH   3  28
TORSDOF 7
ENDMDL
MODEL       24
REMARK 921   NORMALIZED FREE ENERGY PREDICTED BY IDOCK:   -5.73 KCAL/MOL
REMARK 922        TOTAL FREE ENERGY PREDICTED BY IDOCK:  -10.71 KCAL/MOL
REMARK 923 INTER-LIGAND FREE ENERGY PREDICTED BY IDOCK:   -9.91 KCAL/MOL
REMARK 924 INTRA-LIGAND FREE ENERGY PREDICTED BY IDOCK:   -0.80 KCAL/MOL
REMARK 927      BINDING AFFINITY PREDICTED BY RF-SCORE:    0.00 PKD
ROOT
HETATM    1  C   UNL     1     -10.485  14.649  66.387  1.00  0.00    -0.296 C  
HETATM    2  C   UNL     1     -11.587  13.893  66.507  1.00  0.00    -0.385 C  
HETATM    3  C   UNL     1     -10.435  15.671  65.337  1.00  0.00    -0.411 C  
HETATM    4  H   UNL     1      -9.610  17.374  64.989  1.00  0.00     0.000 HD 
HETATM    5  O   UNL     1      -9.643  16.712  65.669  1.00  0.00    -0.519 OA 
ENDROOT
BRANCH   2   6
HETATM    6  C   UNL     1     -11.684  12.881  67.552  1.00  0.00    -0.422 A  
HETATM    7  C   UNL     1     -11.548  11.526  67.239  1.00  0.00    -0.280 A  
HETATM    8  C   UNL     1     -11.530  10.572  68.259  1.00  0.00    -0.272 A  
HETATM    9  C   UNL     1     -11.850  13.275  68.882  1.00  0.00    -0.367 A  
HETATM   10  C   UNL     1     -11.646  10.964  69.599  1.00  0.00    -0.394 A  
HETATM   11  C   UNL     1     -11.829  12.322  69.900  1.00  0.00    -0.383 A  
BRANCH  10  12
HETATM   12  C   UNL     1     -11.441   9.959  70.705  1.00  0.00    -0.354 C  
BRANCH  12  13
HETATM   13  N   UNL     1     -12.650   9.187  70.995  1.00  0.00    -0.482 NA 
HETATM   14  H   UNL     1     -12.981   8.688  70.169  1.00  0.00     0.000 HD 
BRANCH  13  15
HETATM   15  C   UNL     1     -12.449   8.273  72.131  1.00  0.00    -0.352 C  
BRANCH  15  16
HETATM   16  C   UNL     1     -12.748   6.803  71.799  1.00  0.00    -0.342 C  
BRANCH  16  17
HETATM   17  C   UNL     1     -11.516   6.022  71.461  1.00  0.00    -0.280 A  
HETATM   18  C   UNL     1     -10.913   5.892  70.220  1.00  0.00    -0.320 A  
HETATM   19  N   UNL     1      -9.845   5.040  70.366  1.00  0.00    -0.211 NA 
HETATM   20  C   UNL     1     -11.239   6.473  68.892  1.00  0.00    -0.341 C  
HETATM   21  H   UNL     1      -9.222   4.755  69.610  1.00  0.00     0.000 HD 
HETATM   22  C   UNL     1      -9.729   4.625  71.669  1.00  0.00    -0.172 A  
HETATM   23  C   UNL     1      -8.803   3.757  72.259  1.00  0.00    -0.124 A  
HETATM   24  C   UNL     1      -8.921   3.516  73.631  1.00  0.00    -0.091 A  
HETATM   25  C   UNL     1      -9.927   4.122  74.381  1.00  0.00    -0.206 A  
HETATM   26  C   UNL     1     -10.850   4.980  73.772  1.00  0.00    -0.366 A  
HETATM   27  C   UNL     1     -10.752   5.237  72.387  1.00  0.00    -0.286 A  
ENDBRANCH  16  17
ENDBRANCH  15  16
ENDBRANCH  13  15
ENDBRANCH  12  13
ENDBRANCH  10  12
ENDBRANCH   2   6
BRANCH   3  28
HETATM   28  N   UNL     1     -11.066  15.602  64.209  1.00  0.00    -0.804 NA 
HETATM   29  H   UNL     1     -11.129  14.760  63.636  1.00  0.00     0.000 HD 
HETATM   30  O   UNL     1     -11.653  16.832  63.877  1.00  0.00    -1.451 OA 
HETATM   31  H   UNL     1     -12.117  16.780  63.050  1.00  0.00     0.000 HD 
ENDBRANCH   3  28
TORSDOF 7
ENDMDL
MODEL       25
REMARK 921   NORMALIZED FREE ENERGY PREDICTED BY IDOCK:   -5.72 KCAL/MOL
REMARK 922        TOTAL FREE ENERGY PREDICTED BY IDOCK:  -10.70 KCAL/MOL
REMARK 923 INTER-LIGAND FREE ENERGY PREDICTED BY IDOCK:  -10.03 KCAL/MOL
REMARK 924 INTRA-LIGAND FREE ENERGY PREDICTED BY IDOCK:   -0.66 KCAL/MOL
REMARK 927      BINDING AFFINITY PREDICTED BY RF-SCORE:    0.00 PKD
ROOT
HETATM    1  C   UNL     1     -11.869   9.779  71.590  1.00  0.00    -0.429 C  
HETATM    2  C   UNL     1     -12.566  10.213  70.529  1.00  0.00    -0.289 C  
HETATM    3  C   UNL     1     -12.313   8.565  72.285  1.00  0.00    -0.387 C  
HETATM    4  H   UNL     1     -11.580   7.119  73.320  1.00  0.00     0.000 HD 
HETATM    5  O   UNL     1     -11.292   7.905  72.870  1.00  0.00    -0.406 OA 
ENDROOT
BRANCH   2   6
HETATM    6  C   UNL     1     -12.144  11.403  69.800  1.00  0.00    -0.388 A  
HETATM    7  C   UNL     1     -11.670  11.298  68.490  1.00  0.00    -0.378 A  
HETATM    8  C   UNL     1     -11.372  12.452  67.760  1.00  0.00    -0.356 A  
HETATM    9  C   UNL     1     -12.275  12.660  70.394  1.00  0.00    -0.368 A  
HETATM   10  C   UNL     1     -11.549  13.718  68.332  1.00  0.00    -0.369 A  
HETATM   11  C   UNL     1     -11.981  13.812  69.664  1.00  0.00    -0.399 A  
BRANCH  10  12
HETATM   12  C   UNL     1     -11.407  14.960  67.488  1.00  0.00    -0.342 C  
BRANCH  12  13
HETATM   13  N   UNL     1     -10.620  14.730  66.276  1.00  0.00    -0.297 NA 
HETATM   14  H   UNL     1     -11.206  14.408  65.506  1.00  0.00     0.000 HD 
BRANCH  13  15
HETATM   15  C   UNL     1      -9.845  15.924  65.900  1.00  0.00    -0.351 C  
BRANCH  15  16
HETATM   16  C   UNL     1      -9.307  16.712  67.104  1.00  0.00    -0.236 C  
BRANCH  16  17
HETATM   17  C   UNL     1      -8.823  18.080  66.732  1.00  0.00    -0.274 A  
HETATM   18  C   UNL     1      -9.529  19.271  66.793  1.00  0.00    -0.329 A  
HETATM   19  N   UNL     1      -8.713  20.262  66.302  1.00  0.00    -0.563 NA 
HETATM   20  C   UNL     1     -10.907  19.586  67.252  1.00  0.00    -0.557 C  
HETATM   21  H   UNL     1      -8.977  21.244  66.220  1.00  0.00     0.000 HD 
HETATM   22  C   UNL     1      -7.493  19.750  65.938  1.00  0.00    -0.324 A  
HETATM   23  C   UNL     1      -6.375  20.390  65.388  1.00  0.00    -0.290 A  
HETATM   24  C   UNL     1      -5.247  19.609  65.120  1.00  0.00    -0.185 A  
HETATM   25  C   UNL     1      -5.240  18.243  65.393  1.00  0.00    -0.210 A  
HETATM   26  C   UNL     1      -6.369  17.619  65.934  1.00  0.00    -0.213 A  
HETATM   27  C   UNL     1      -7.521  18.386  66.212  1.00  0.00    -0.294 A  
ENDBRANCH  16  17
ENDBRANCH  15  16
ENDBRANCH  13  15
ENDBRANCH  12  13
ENDBRANCH  10  12
ENDBRANCH   2   6
BRANCH   3  28
HETATM   28  N   UNL     1     -13.540   8.159  72.346  1.00  0.00    -0.557 NA 
HETATM   29  H   UNL     1     -13.934   7.427  71.754  1.00  0.00     0.000 HD 
HETATM   30  O   UNL     1     -14.258   8.852  73.332  1.00  0.00    -1.241 OA 
HETATM   31  H   UNL     1     -15.158   8.553  73.377  1.00  0.00     0.000 HD 
ENDBRANCH   3  28
TORSDOF 7
ENDMDL
MODEL       26
REMARK 921   NORMALIZED FREE ENERGY PREDICTED BY IDOCK:   -5.72 KCAL/MOL
REMARK 922        TOTAL FREE ENERGY PREDICTED BY IDOCK:  -10.69 KCAL/MOL
REMARK 923 INTER-LIGAND FREE ENERGY PREDICTED BY IDOCK:   -9.67 KCAL/MOL
REMARK 924 INTRA-LIGAND FREE ENERGY PREDICTED BY IDOCK:   -1.02 KCAL/MOL
REMARK 927      BINDING AFFINITY PREDICTED BY RF-SCORE:    0.00 PKD
ROOT
HETATM    1  C   UNL     1     -11.617   9.793  71.566  1.00  0.00    -0.424 C  
HETATM    2  C   UNL     1     -12.356  10.097  70.488  1.00  0.00    -0.330 C  
HETATM    3  C   UNL     1     -11.932   8.577  72.325  1.00  0.00    -0.385 C  
HETATM    4  H   UNL     1     -11.051   7.271  73.429  1.00  0.00     0.000 HD 
HETATM    5  O   UNL     1     -10.848   8.058  72.937  1.00  0.00    -0.366 OA 
ENDROOT
BRANCH   2   6
HETATM    6  C   UNL     1     -12.061  11.285  69.697  1.00  0.00    -0.391 A  
HETATM    7  C   UNL     1     -11.708  11.168  68.350  1.00  0.00    -0.349 A  
HETATM    8  C   UNL     1     -11.535  12.314  67.570  1.00  0.00    -0.414 A  
HETATM    9  C   UNL     1     -12.193  12.550  70.274  1.00  0.00    -0.345 A  
HETATM   10  C   UNL     1     -11.717  13.586  68.130  1.00  0.00    -0.396 A  
HETATM   11  C   UNL     1     -12.024  13.694  69.494  1.00  0.00    -0.397 A  
BRANCH  10  12
HETATM   12  C   UNL     1     -11.713  14.811  67.250  1.00  0.00    -0.347 C  
BRANCH  12  13
HETATM   13  N   UNL     1     -10.587  14.830  66.316  1.00  0.00    -0.297 NA 
HETATM   14  H   UNL     1     -10.814  14.342  65.449  1.00  0.00     0.000 HD 
BRANCH  13  15
HETATM   15  C   UNL     1     -10.123  16.203  66.055  1.00  0.00    -0.351 C  
BRANCH  15  16
HETATM   16  C   UNL     1     -10.262  17.139  67.266  1.00  0.00    -0.316 C  
BRANCH  16  17
HETATM   17  C   UNL     1      -8.949  17.437  67.922  1.00  0.00    -0.251 A  
HETATM   18  C   UNL     1      -8.240  16.629  68.797  1.00  0.00    -0.249 A  
HETATM   19  N   UNL     1      -7.124  17.327  69.192  1.00  0.00    -0.234 NA 
HETATM   20  C   UNL     1      -8.502  15.264  69.322  1.00  0.00    -0.238 C  
HETATM   21  H   UNL     1      -6.422  16.978  69.845  1.00  0.00     0.000 HD 
HETATM   22  C   UNL     1      -7.082  18.558  68.588  1.00  0.00    -0.280 A  
HETATM   23  C   UNL     1      -6.141  19.589  68.707  1.00  0.00    -0.279 A  
HETATM   24  C   UNL     1      -6.351  20.749  67.955  1.00  0.00    -0.371 A  
HETATM   25  C   UNL     1      -7.458  20.870  67.118  1.00  0.00    -0.332 A  
HETATM   26  C   UNL     1      -8.392  19.834  67.019  1.00  0.00    -0.349 A  
HETATM   27  C   UNL     1      -8.204  18.653  67.769  1.00  0.00    -0.273 A  
ENDBRANCH  16  17
ENDBRANCH  15  16
ENDBRANCH  13  15
ENDBRANCH  12  13
ENDBRANCH  10  12
ENDBRANCH   2   6
BRANCH   3  28
HETATM   28  N   UNL     1     -13.109   8.048  72.413  1.00  0.00    -0.545 NA 
HETATM   29  H   UNL     1     -13.400   7.204  71.918  1.00  0.00     0.000 HD 
HETATM   30  O   UNL     1     -13.935   8.783  73.277  1.00  0.00    -1.160 OA 
HETATM   31  H   UNL     1     -14.799   8.394  73.342  1.00  0.00     0.000 HD 
ENDBRANCH   3  28
TORSDOF 7
ENDMDL
MODEL       27
REMARK 921   NORMALIZED FREE ENERGY PREDICTED BY IDOCK:   -5.71 KCAL/MOL
REMARK 922        TOTAL FREE ENERGY PREDICTED BY IDOCK:  -10.68 KCAL/MOL
REMARK 923 INTER-LIGAND FREE ENERGY PREDICTED BY IDOCK:   -9.19 KCAL/MOL
REMARK 924 INTRA-LIGAND FREE ENERGY PREDICTED BY IDOCK:   -1.48 KCAL/MOL
REMARK 927      BINDING AFFINITY PREDICTED BY RF-SCORE:    0.00 PKD
ROOT
HETATM    1  C   UNL     1     -11.939   8.588  70.841  1.00  0.00    -0.204 C  
HETATM    2  C   UNL     1     -12.772   9.521  71.327  1.00  0.00    -0.416 C  
HETATM    3  C   UNL     1     -12.217   7.174  71.115  1.00  0.00    -0.365 C  
HETATM    4  H   UNL     1     -11.930   5.445  70.323  1.00  0.00     0.000 HD 
HETATM    5  O   UNL     1     -11.751   6.361  70.145  1.00  0.00    -0.422 OA 
ENDROOT
BRANCH   2   6
HETATM    6  C   UNL     1     -12.541  10.936  71.058  1.00  0.00    -0.517 A  
HETATM    7  C   UNL     1     -11.807  11.331  69.936  1.00  0.00    -0.436 A  
HETATM    8  C   UNL     1     -11.684  12.688  69.625  1.00  0.00    -0.373 A  
HETATM    9  C   UNL     1     -13.111  11.900  71.892  1.00  0.00    -0.474 A  
HETATM   10  C   UNL     1     -12.296  13.658  70.429  1.00  0.00    -0.415 A  
HETATM   11  C   UNL     1     -12.991  13.254  71.578  1.00  0.00    -0.426 A  
BRANCH  10  12
HETATM   12  C   UNL     1     -12.321  15.102  69.992  1.00  0.00    -0.315 C  
BRANCH  12  13
HETATM   13  N   UNL     1     -12.198  15.253  68.542  1.00  0.00    -0.560 NA 
HETATM   14  H   UNL     1     -13.059  15.614  68.130  1.00  0.00     0.000 HD 
BRANCH  13  15
HETATM   15  C   UNL     1     -11.039  16.087  68.182  1.00  0.00    -0.344 C  
BRANCH  15  16
HETATM   16  C   UNL     1     -10.615  15.950  66.711  1.00  0.00    -0.309 C  
BRANCH  16  17
HETATM   17  C   UNL     1     -10.498  14.522  66.273  1.00  0.00    -0.303 A  
HETATM   18  C   UNL     1     -11.223  13.881  65.281  1.00  0.00    -0.313 A  
HETATM   19  N   UNL     1     -10.823  12.566  65.261  1.00  0.00    -0.279 NA 
HETATM   20  C   UNL     1     -12.271  14.366  64.347  1.00  0.00    -0.481 C  
HETATM   21  H   UNL     1     -11.198  11.855  64.633  1.00  0.00     0.000 HD 
HETATM   22  C   UNL     1      -9.850  12.340  66.202  1.00  0.00    -0.243 A  
HETATM   23  C   UNL     1      -9.174  11.159  66.532  1.00  0.00    -0.194 A  
HETATM   24  C   UNL     1      -8.211  11.224  67.544  1.00  0.00    -0.124 A  
HETATM   25  C   UNL     1      -7.938  12.424  68.197  1.00  0.00    -0.153 A  
HETATM   26  C   UNL     1      -8.631  13.591  67.860  1.00  0.00    -0.182 A  
HETATM   27  C   UNL     1      -9.609  13.551  66.844  1.00  0.00    -0.258 A  
ENDBRANCH  16  17
ENDBRANCH  15  16
ENDBRANCH  13  15
ENDBRANCH  12  13
ENDBRANCH  10  12
ENDBRANCH   2   6
BRANCH   3  28
HETATM   28  N   UNL     1     -12.835   6.735  72.164  1.00  0.00    -0.556 NA 
HETATM   29  H   UNL     1     -13.707   7.124  72.524  1.00  0.00     0.000 HD 
HETATM   30  O   UNL     1     -12.151   5.655  72.742  1.00  0.00    -0.532 OA 
HETATM   31  H   UNL     1     -12.605   5.332  73.512  1.00  0.00     0.000 HD 
ENDBRANCH   3  28
TORSDOF 7
ENDMDL
MODEL       28
REMARK 921   NORMALIZED FREE ENERGY PREDICTED BY IDOCK:   -5.65 KCAL/MOL
REMARK 922        TOTAL FREE ENERGY PREDICTED BY IDOCK:  -10.59 KCAL/MOL
REMARK 923 INTER-LIGAND FREE ENERGY PREDICTED BY IDOCK:   -9.83 KCAL/MOL
REMARK 924 INTRA-LIGAND FREE ENERGY PREDICTED BY IDOCK:   -0.76 KCAL/MOL
REMARK 927      BINDING AFFINITY PREDICTED BY RF-SCORE:    0.00 PKD
ROOT
HETATM    1  C   UNL     1     -11.802   8.336  71.187  1.00  0.00    -0.302 C  
HETATM    2  C   UNL     1     -12.802   9.159  71.538  1.00  0.00    -0.412 C  
HETATM    3  C   UNL     1     -11.965   6.892  71.386  1.00  0.00    -0.349 C  
HETATM    4  H   UNL     1     -11.360   5.231  70.627  1.00  0.00     0.000 HD 
HETATM    5  O   UNL     1     -11.255   6.167  70.497  1.00  0.00    -0.320 OA 
ENDROOT
BRANCH   2   6
HETATM    6  C   UNL     1     -12.686  10.598  71.336  1.00  0.00    -0.545 A  
HETATM    7  C   UNL     1     -11.922  11.105  70.282  1.00  0.00    -0.460 A  
HETATM    8  C   UNL     1     -11.905  12.478  70.028  1.00  0.00    -0.363 A  
HETATM    9  C   UNL     1     -13.396  11.471  72.164  1.00  0.00    -0.284 A  
HETATM   10  C   UNL     1     -12.655  13.355  70.823  1.00  0.00    -0.369 A  
HETATM   11  C   UNL     1     -13.382  12.842  71.907  1.00  0.00    -0.530 A  
BRANCH  10  12
HETATM   12  C   UNL     1     -12.784  14.808  70.437  1.00  0.00    -0.316 C  
BRANCH  12  13
HETATM   13  N   UNL     1     -11.752  15.647  71.048  1.00  0.00    -0.363 NA 
HETATM   14  H   UNL     1     -11.279  15.161  71.810  1.00  0.00     0.000 HD 
BRANCH  13  15
HETATM   15  C   UNL     1     -10.792  16.137  70.045  1.00  0.00    -0.349 C  
BRANCH  15  16
HETATM   16  C   UNL     1     -11.361  16.181  68.618  1.00  0.00    -0.365 C  
BRANCH  16  17
HETATM   17  C   UNL     1     -10.367  16.675  67.613  1.00  0.00    -0.305 A  
HETATM   18  C   UNL     1      -9.616  15.920  66.725  1.00  0.00    -0.236 A  
HETATM   19  N   UNL     1      -8.799  16.783  66.036  1.00  0.00    -0.502 NA 
HETATM   20  C   UNL     1      -9.570  14.459  66.458  1.00  0.00    -0.310 C  
HETATM   21  H   UNL     1      -8.129  16.501  65.321  1.00  0.00     0.000 HD 
HETATM   22  C   UNL     1      -9.007  18.078  66.441  1.00  0.00    -0.230 A  
HETATM   23  C   UNL     1      -8.394  19.263  66.019  1.00  0.00    -0.192 A  
HETATM   24  C   UNL     1      -8.816  20.458  66.609  1.00  0.00    -0.270 A  
HETATM   25  C   UNL     1      -9.814  20.464  67.581  1.00  0.00    -0.538 A  
HETATM   26  C   UNL     1     -10.409  19.268  67.997  1.00  0.00    -0.506 A  
HETATM   27  C   UNL     1      -9.998  18.048  67.418  1.00  0.00    -0.328 A  
ENDBRANCH  16  17
ENDBRANCH  15  16
ENDBRANCH  13  15
ENDBRANCH  12  13
ENDBRANCH  10  12
ENDBRANCH   2   6
BRANCH   3  28
HETATM   28  N   UNL     1     -12.698   6.353  72.306  1.00  0.00    -0.540 NA 
HETATM   29  H   UNL     1     -13.670   6.605  72.489  1.00  0.00     0.000 HD 
HETATM   30  O   UNL     1     -11.986   5.378  73.020  1.00  0.00    -0.548 OA 
HETATM   31  H   UNL     1     -12.524   4.983  73.695  1.00  0.00     0.000 HD 
ENDBRANCH   3  28
TORSDOF 7
ENDMDL
MODEL       29
REMARK 921   NORMALIZED FREE ENERGY PREDICTED BY IDOCK:   -5.65 KCAL/MOL
REMARK 922        TOTAL FREE ENERGY PREDICTED BY IDOCK:  -10.59 KCAL/MOL
REMARK 923 INTER-LIGAND FREE ENERGY PREDICTED BY IDOCK:   -9.54 KCAL/MOL
REMARK 924 INTRA-LIGAND FREE ENERGY PREDICTED BY IDOCK:   -1.05 KCAL/MOL
REMARK 927      BINDING AFFINITY PREDICTED BY RF-SCORE:    0.00 PKD
ROOT
HETATM    1  C   UNL     1     -11.183   7.544  71.600  1.00  0.00    -0.275 C  
HETATM    2  C   UNL     1     -12.243   8.348  71.775  1.00  0.00    -0.377 C  
HETATM    3  C   UNL     1     -11.309   6.120  71.926  1.00  0.00    -0.296 C  
HETATM    4  H   UNL     1     -10.571   4.425  71.393  1.00  0.00     0.000 HD 
HETATM    5  O   UNL     1     -10.490   5.348  71.182  1.00  0.00    -0.227 OA 
ENDROOT
BRANCH   2   6
HETATM    6  C   UNL     1     -12.163   9.765  71.443  1.00  0.00    -0.486 A  
HETATM    7  C   UNL     1     -11.283  10.211  70.454  1.00  0.00    -0.402 A  
HETATM    8  C   UNL     1     -11.291  11.553  70.064  1.00  0.00    -0.222 A  
HETATM    9  C   UNL     1     -13.018  10.672  72.074  1.00  0.00    -0.466 A  
HETATM   10  C   UNL     1     -12.182  12.458  70.657  1.00  0.00    -0.368 A  
HETATM   11  C   UNL     1     -13.029  12.010  71.681  1.00  0.00    -0.439 A  
BRANCH  10  12
HETATM   12  C   UNL     1     -12.320  13.857  70.110  1.00  0.00    -0.334 C  
BRANCH  12  13
HETATM   13  N   UNL     1     -11.033  14.540  69.980  1.00  0.00    -0.451 NA 
HETATM   14  H   UNL     1     -10.299  14.056  70.497  1.00  0.00     0.000 HD 
BRANCH  13  15
HETATM   15  C   UNL     1     -10.661  14.729  68.568  1.00  0.00    -0.247 C  
BRANCH  15  16
HETATM   16  C   UNL     1     -11.719  14.215  67.579  1.00  0.00    -0.418 C  
BRANCH  16  17
HETATM   17  C   UNL     1     -11.128  13.778  66.274  1.00  0.00    -0.302 A  
HETATM   18  C   UNL     1     -10.902  14.553  65.148  1.00  0.00    -0.395 A  
HETATM   19  N   UNL     1     -10.401  13.728  64.170  1.00  0.00    -0.667 NA 
HETATM   20  C   UNL     1     -11.119  15.998  64.878  1.00  0.00    -0.381 C  
HETATM   21  H   UNL     1     -10.150  14.029  63.229  1.00  0.00     0.000 HD 
HETATM   22  C   UNL     1     -10.282  12.442  64.635  1.00  0.00    -0.287 A  
HETATM   23  C   UNL     1      -9.831  11.287  63.984  1.00  0.00    -0.334 A  
HETATM   24  C   UNL     1      -9.811  10.096  64.715  1.00  0.00    -0.382 A  
HETATM   25  C   UNL     1     -10.225  10.064  66.045  1.00  0.00    -0.277 A  
HETATM   26  C   UNL     1     -10.682  11.226  66.676  1.00  0.00    -0.321 A  
HETATM   27  C   UNL     1     -10.714  12.441  65.958  1.00  0.00    -0.294 A  
ENDBRANCH  16  17
ENDBRANCH  15  16
ENDBRANCH  13  15
ENDBRANCH  12  13
ENDBRANCH  10  12
ENDBRANCH   2   6
BRANCH   3  28
HETATM   28  N   UNL     1     -12.105   5.636  72.824  1.00  0.00    -0.514 NA 
HETATM   29  H   UNL     1     -13.118   5.766  72.825  1.00  0.00     0.000 HD 
HETATM   30  O   UNL     1     -11.399   4.911  73.795  1.00  0.00    -0.374 OA 
HETATM   31  H   UNL     1     -11.984   4.557  74.454  1.00  0.00     0.000 HD 
ENDBRANCH   3  28
TORSDOF 7
ENDMDL
MODEL       30
REMARK 921   NORMALIZED FREE ENERGY PREDICTED BY IDOCK:   -5.63 KCAL/MOL
REMARK 922        TOTAL FREE ENERGY PREDICTED BY IDOCK:  -10.56 KCAL/MOL
REMARK 923 INTER-LIGAND FREE ENERGY PREDICTED BY IDOCK:   -9.09 KCAL/MOL
REMARK 924 INTRA-LIGAND FREE ENERGY PREDICTED BY IDOCK:   -1.47 KCAL/MOL
REMARK 927      BINDING AFFINITY PREDICTED BY RF-SCORE:    0.00 PKD
ROOT
HETATM    1  C   UNL     1     -12.126  14.824  70.796  1.00  0.00    -0.374 C  
HETATM    2  C   UNL     1     -12.579  13.562  70.748  1.00  0.00    -0.382 C  
HETATM    3  C   UNL     1     -12.587  15.705  71.875  1.00  0.00    -0.438 C  
HETATM    4  H   UNL     1     -11.976  17.220  72.891  1.00  0.00     0.000 HD 
HETATM    5  O   UNL     1     -11.677  16.649  72.192  1.00  0.00    -0.444 OA 
ENDROOT
BRANCH   2   6
HETATM    6  C   UNL     1     -12.128  12.650  69.705  1.00  0.00    -0.277 A  
HETATM    7  C   UNL     1     -11.865  13.123  68.417  1.00  0.00    -0.386 A  
HETATM    8  C   UNL     1     -11.328  12.267  67.453  1.00  0.00    -0.389 A  
HETATM    9  C   UNL     1     -11.896  11.308  70.013  1.00  0.00    -0.448 A  
HETATM   10  C   UNL     1     -11.045  10.932  67.770  1.00  0.00    -0.371 A  
HETATM   11  C   UNL     1     -11.356  10.453  69.052  1.00  0.00    -0.279 A  
BRANCH  10  12
HETATM   12  C   UNL     1     -10.297  10.060  66.792  1.00  0.00    -0.217 C  
BRANCH  12  13
HETATM   13  N   UNL     1      -8.904   9.841  67.185  1.00  0.00    -0.132 NA 
HETATM   14  H   UNL     1      -8.748  10.091  68.161  1.00  0.00     0.000 HD 
BRANCH  13  15
HETATM   15  C   UNL     1      -8.475   8.461  66.907  1.00  0.00    -0.117 C  
BRANCH  15  16
HETATM   16  C   UNL     1      -8.265   7.615  68.173  1.00  0.00    -0.124 C  
BRANCH  16  17
HETATM   17  C   UNL     1      -9.553   7.224  68.829  1.00  0.00    -0.142 A  
HETATM   18  C   UNL     1     -10.602   6.509  68.272  1.00  0.00    -0.249 A  
HETATM   19  N   UNL     1     -11.598   6.433  69.215  1.00  0.00    -0.607 NA 
HETATM   20  C   UNL     1     -10.782   5.894  66.931  1.00  0.00    -0.395 C  
HETATM   21  H   UNL     1     -12.495   5.969  69.075  1.00  0.00     0.000 HD 
HETATM   22  C   UNL     1     -11.220   7.065  70.373  1.00  0.00    -0.299 A  
HETATM   23  C   UNL     1     -11.918   7.239  71.574  1.00  0.00    -0.349 A  
HETATM   24  C   UNL     1     -11.275   7.929  72.605  1.00  0.00    -0.459 A  
HETATM   25  C   UNL     1      -9.984   8.425  72.439  1.00  0.00    -0.380 A  
HETATM   26  C   UNL     1      -9.305   8.250  71.228  1.00  0.00    -0.218 A  
HETATM   27  C   UNL     1      -9.934   7.558  70.171  1.00  0.00    -0.192 A  
ENDBRANCH  16  17
ENDBRANCH  15  16
ENDBRANCH  13  15
ENDBRANCH  12  13
ENDBRANCH  10  12
ENDBRANCH   2   6
BRANCH   3  28
HETATM   28  N   UNL     1     -13.735  15.609  72.465  1.00  0.00    -0.551 NA 
HETATM   29  H   UNL     1     -14.572  15.213  72.036  1.00  0.00     0.000 HD 
HETATM   30  O   UNL     1     -13.681  16.119  73.770  1.00  0.00    -0.868 OA 
HETATM   31  H   UNL     1     -14.523  16.048  74.204  1.00  0.00     0.000 HD 
ENDBRANCH   3  28
TORSDOF 7
ENDMDL
MODEL       31
REMARK 921   NORMALIZED FREE ENERGY PREDICTED BY IDOCK:   -5.62 KCAL/MOL
REMARK 922        TOTAL FREE ENERGY PREDICTED BY IDOCK:  -10.55 KCAL/MOL
REMARK 923 INTER-LIGAND FREE ENERGY PREDICTED BY IDOCK:   -8.25 KCAL/MOL
REMARK 924 INTRA-LIGAND FREE ENERGY PREDICTED BY IDOCK:   -2.29 KCAL/MOL
REMARK 927      BINDING AFFINITY PREDICTED BY RF-SCORE:    0.00 PKD
ROOT
HETATM    1  C   UNL     1     -12.076  14.401  69.622  1.00  0.00    -0.381 C  
HETATM    2  C   UNL     1     -11.862  15.123  68.511  1.00  0.00    -0.307 C  
HETATM    3  C   UNL     1     -12.234  15.098  70.903  1.00  0.00    -0.342 C  
HETATM    4  H   UNL     1     -13.116  14.866  72.597  1.00  0.00     0.000 HD 
HETATM    5  O   UNL     1     -13.013  14.415  71.767  1.00  0.00    -0.315 OA 
ENDROOT
BRANCH   2   6
HETATM    6  C   UNL     1     -11.721  14.468  67.216  1.00  0.00    -0.429 A  
HETATM    7  C   UNL     1     -11.093  15.126  66.156  1.00  0.00    -0.311 A  
HETATM    8  C   UNL     1     -10.863  14.453  64.953  1.00  0.00    -0.430 A  
HETATM    9  C   UNL     1     -12.160  13.152  67.056  1.00  0.00    -0.366 A  
HETATM   10  C   UNL     1     -11.255  13.116  64.803  1.00  0.00    -0.347 A  
HETATM   11  C   UNL     1     -11.927  12.479  65.857  1.00  0.00    -0.472 A  
BRANCH  10  12
HETATM   12  C   UNL     1     -10.843  12.336  63.580  1.00  0.00    -0.454 C  
BRANCH  12  13
HETATM   13  N   UNL     1      -9.423  11.981  63.590  1.00  0.00    -0.558 NA 
HETATM   14  H   UNL     1      -8.851  12.744  63.952  1.00  0.00     0.000 HD 
BRANCH  13  15
HETATM   15  C   UNL     1      -9.184  10.731  64.330  1.00  0.00    -0.218 C  
BRANCH  15  16
HETATM   16  C   UNL     1      -8.108  10.858  65.420  1.00  0.00     0.015 C  
BRANCH  16  17
HETATM   17  C   UNL     1      -8.689  11.057  66.786  1.00  0.00    -0.152 A  
HETATM   18  C   UNL     1      -8.626  12.196  67.574  1.00  0.00    -0.171 A  
HETATM   19  N   UNL     1      -9.243  11.909  68.767  1.00  0.00    -0.395 NA 
HETATM   20  C   UNL     1      -8.030  13.536  67.334  1.00  0.00    -0.165 C  
HETATM   21  H   UNL     1      -9.337  12.563  69.544  1.00  0.00     0.000 HD 
HETATM   22  C   UNL     1      -9.718  10.621  68.771  1.00  0.00    -0.189 A  
HETATM   23  C   UNL     1     -10.396   9.914  69.772  1.00  0.00    -0.278 A  
HETATM   24  C   UNL     1     -10.772   8.596  69.494  1.00  0.00    -0.189 A  
HETATM   25  C   UNL     1     -10.482   8.013  68.263  1.00  0.00    -0.210 A  
HETATM   26  C   UNL     1      -9.796   8.732  67.279  1.00  0.00    -0.260 A  
HETATM   27  C   UNL     1      -9.403  10.063  67.536  1.00  0.00    -0.162 A  
ENDBRANCH  16  17
ENDBRANCH  15  16
ENDBRANCH  13  15
ENDBRANCH  12  13
ENDBRANCH  10  12
ENDBRANCH   2   6
BRANCH   3  28
HETATM   28  N   UNL     1     -11.693  16.237  71.194  1.00  0.00    -0.611 NA 
HETATM   29  H   UNL     1     -11.122  16.785  70.550  1.00  0.00     0.000 HD 
HETATM   30  O   UNL     1     -11.992  16.622  72.510  1.00  0.00    -0.554 OA 
HETATM   31  H   UNL     1     -11.595  17.458  72.723  1.00  0.00     0.000 HD 
ENDBRANCH   3  28
TORSDOF 7
ENDMDL
MODEL       32
REMARK 921   NORMALIZED FREE ENERGY PREDICTED BY IDOCK:   -5.59 KCAL/MOL
REMARK 922        TOTAL FREE ENERGY PREDICTED BY IDOCK:  -10.51 KCAL/MOL
REMARK 923 INTER-LIGAND FREE ENERGY PREDICTED BY IDOCK:   -7.92 KCAL/MOL
REMARK 924 INTRA-LIGAND FREE ENERGY PREDICTED BY IDOCK:   -2.58 KCAL/MOL
REMARK 927      BINDING AFFINITY PREDICTED BY RF-SCORE:    0.00 PKD
ROOT
HETATM    1  C   UNL     1     -12.214  14.440  69.184  1.00  0.00    -0.255 C  
HETATM    2  C   UNL     1     -11.816  15.147  68.116  1.00  0.00    -0.252 C  
HETATM    3  C   UNL     1     -12.473  15.141  70.446  1.00  0.00    -0.368 C  
HETATM    4  H   UNL     1     -13.565  14.970  72.021  1.00  0.00     0.000 HD 
HETATM    5  O   UNL     1     -13.398  14.516  71.203  1.00  0.00    -0.356 OA 
ENDROOT
BRANCH   2   6
HETATM    6  C   UNL     1     -11.570  14.488  66.839  1.00  0.00    -0.399 A  
HETATM    7  C   UNL     1     -10.298  14.516  66.263  1.00  0.00    -0.300 A  
HETATM    8  C   UNL     1     -10.042  13.791  65.096  1.00  0.00    -0.314 A  
HETATM    9  C   UNL     1     -12.598  13.772  66.222  1.00  0.00    -0.372 A  
HETATM   10  C   UNL     1     -11.056  13.029  64.500  1.00  0.00    -0.378 A  
HETATM   11  C   UNL     1     -12.342  13.045  65.059  1.00  0.00    -0.526 A  
BRANCH  10  12
HETATM   12  C   UNL     1     -10.735  12.103  63.353  1.00  0.00    -0.409 C  
BRANCH  12  13
HETATM   13  N   UNL     1      -9.297  11.886  63.190  1.00  0.00    -0.665 NA 
HETATM   14  H   UNL     1      -8.780  12.172  64.022  1.00  0.00     0.000 HD 
BRANCH  13  15
HETATM   15  C   UNL     1      -8.999  10.491  62.824  1.00  0.00    -0.267 C  
BRANCH  15  16
HETATM   16  C   UNL     1      -9.033   9.522  64.016  1.00  0.00    -0.228 C  
BRANCH  16  17
HETATM   17  C   UNL     1      -8.571  10.155  65.292  1.00  0.00    -0.169 A  
HETATM   18  C   UNL     1      -7.285  10.549  65.623  1.00  0.00    -0.124 A  
HETATM   19  N   UNL     1      -7.316  11.026  66.911  1.00  0.00    -0.126 NA 
HETATM   20  C   UNL     1      -6.010  10.515  64.860  1.00  0.00    -0.087 C  
HETATM   21  H   UNL     1      -6.504  11.378  67.419  1.00  0.00     0.000 HD 
HETATM   22  C   UNL     1      -8.588  10.966  67.421  1.00  0.00    -0.127 A  
HETATM   23  C   UNL     1      -9.071  11.332  68.683  1.00  0.00    -0.153 A  
HETATM   24  C   UNL     1     -10.437  11.165  68.928  1.00  0.00    -0.233 A  
HETATM   25  C   UNL     1     -11.284  10.653  67.948  1.00  0.00    -0.376 A  
HETATM   26  C   UNL     1     -10.782  10.283  66.696  1.00  0.00    -0.183 A  
HETATM   27  C   UNL     1      -9.406  10.440  66.424  1.00  0.00    -0.197 A  
ENDBRANCH  16  17
ENDBRANCH  15  16
ENDBRANCH  13  15
ENDBRANCH  12  13
ENDBRANCH  10  12
ENDBRANCH   2   6
BRANCH   3  28
HETATM   28  N   UNL     1     -11.888  16.235  70.814  1.00  0.00    -0.527 NA 
HETATM   29  H   UNL     1     -11.494  16.923  70.171  1.00  0.00     0.000 HD 
HETATM   30  O   UNL     1     -11.864  16.356  72.212  1.00  0.00    -0.534 OA 
HETATM   31  H   UNL     1     -11.435  17.159  72.482  1.00  0.00     0.000 HD 
ENDBRANCH   3  28
TORSDOF 7
ENDMDL
MODEL       33
REMARK 921   NORMALIZED FREE ENERGY PREDICTED BY IDOCK:   -5.59 KCAL/MOL
REMARK 922        TOTAL FREE ENERGY PREDICTED BY IDOCK:  -10.50 KCAL/MOL
REMARK 923 INTER-LIGAND FREE ENERGY PREDICTED BY IDOCK:   -9.38 KCAL/MOL
REMARK 924 INTRA-LIGAND FREE ENERGY PREDICTED BY IDOCK:   -1.12 KCAL/MOL
REMARK 927      BINDING AFFINITY PREDICTED BY RF-SCORE:    0.00 PKD
ROOT
HETATM    1  C   UNL     1     -12.245  13.694  65.573  1.00  0.00    -0.476 C  
HETATM    2  C   UNL     1     -11.253  13.441  66.441  1.00  0.00    -0.323 C  
HETATM    3  C   UNL     1     -11.957  14.497  64.380  1.00  0.00    -0.449 C  
HETATM    4  H   UNL     1     -12.577  14.705  62.570  1.00  0.00     0.000 HD 
HETATM    5  O   UNL     1     -12.763  14.185  63.344  1.00  0.00    -0.767 OA 
ENDROOT
BRANCH   2   6
HETATM    6  C   UNL     1     -11.495  12.629  67.628  1.00  0.00    -0.390 A  
HETATM    7  C   UNL     1     -11.367  11.239  67.572  1.00  0.00    -0.360 A  
HETATM    8  C   UNL     1     -11.491  10.478  68.737  1.00  0.00    -0.291 A  
HETATM    9  C   UNL     1     -11.793  13.252  68.842  1.00  0.00    -0.367 A  
HETATM   10  C   UNL     1     -11.740  11.101  69.967  1.00  0.00    -0.438 A  
HETATM   11  C   UNL     1     -11.913  12.492  70.006  1.00  0.00    -0.372 A  
BRANCH  10  12
HETATM   12  C   UNL     1     -11.689  10.304  71.247  1.00  0.00    -0.291 C  
BRANCH  12  13
HETATM   13  N   UNL     1     -12.478   9.073  71.175  1.00  0.00    -0.429 NA 
HETATM   14  H   UNL     1     -12.660   8.803  70.209  1.00  0.00     0.000 HD 
BRANCH  13  15
HETATM   15  C   UNL     1     -11.844   7.980  71.930  1.00  0.00    -0.307 C  
BRANCH  15  16
HETATM   16  C   UNL     1     -11.369   6.816  71.046  1.00  0.00    -0.356 C  
BRANCH  16  17
HETATM   17  C   UNL     1     -10.220   7.191  70.162  1.00  0.00    -0.204 A  
HETATM   18  C   UNL     1     -10.107   6.996  68.794  1.00  0.00    -0.170 A  
HETATM   19  N   UNL     1      -8.864   7.441  68.414  1.00  0.00    -0.123 NA 
HETATM   20  C   UNL     1     -11.042   6.419  67.794  1.00  0.00    -0.376 C  
HETATM   21  H   UNL     1      -8.504   7.411  67.460  1.00  0.00     0.000 HD 
HETATM   22  C   UNL     1      -8.173   7.932  69.492  1.00  0.00    -0.130 A  
HETATM   23  C   UNL     1      -6.883   8.471  69.566  1.00  0.00    -0.044 A  
HETATM   24  C   UNL     1      -6.431   8.906  70.816  1.00  0.00    -0.052 A  
HETATM   25  C   UNL     1      -7.241   8.805  71.945  1.00  0.00    -0.051 A  
HETATM   26  C   UNL     1      -8.524   8.255  71.854  1.00  0.00    -0.214 A  
HETATM   27  C   UNL     1      -9.002   7.807  70.604  1.00  0.00    -0.145 A  
ENDBRANCH  16  17
ENDBRANCH  15  16
ENDBRANCH  13  15
ENDBRANCH  12  13
ENDBRANCH  10  12
ENDBRANCH   2   6
BRANCH   3  28
HETATM   28  N   UNL     1     -11.043  15.410  64.308  1.00  0.00    -0.675 NA 
HETATM   29  H   UNL     1     -10.059  15.258  64.534  1.00  0.00     0.000 HD 
HETATM   30  O   UNL     1     -11.577  16.634  63.880  1.00  0.00    -1.582 OA 
HETATM   31  H   UNL     1     -10.906  17.304  63.828  1.00  0.00     0.000 HD 
ENDBRANCH   3  28
TORSDOF 7
ENDMDL
MODEL       34
REMARK 921   NORMALIZED FREE ENERGY PREDICTED BY IDOCK:   -5.58 KCAL/MOL
REMARK 922        TOTAL FREE ENERGY PREDICTED BY IDOCK:  -10.50 KCAL/MOL
REMARK 923 INTER-LIGAND FREE ENERGY PREDICTED BY IDOCK:   -8.29 KCAL/MOL
REMARK 924 INTRA-LIGAND FREE ENERGY PREDICTED BY IDOCK:   -2.21 KCAL/MOL
REMARK 927      BINDING AFFINITY PREDICTED BY RF-SCORE:    0.00 PKD
ROOT
HETATM    1  C   UNL     1     -11.148  11.231  67.142  1.00  0.00    -0.364 C  
HETATM    2  C   UNL     1     -11.736  11.631  68.280  1.00  0.00    -0.374 C  
HETATM    3  C   UNL     1     -11.288  12.060  65.940  1.00  0.00    -0.337 C  
HETATM    4  H   UNL     1     -10.328  12.473  64.325  1.00  0.00     0.000 HD 
HETATM    5  O   UNL     1     -10.237  11.937  65.105  1.00  0.00    -0.259 OA 
ENDROOT
BRANCH   2   6
HETATM    6  C   UNL     1     -11.602  10.845  69.501  1.00  0.00    -0.384 A  
HETATM    7  C   UNL     1     -12.706  10.632  70.330  1.00  0.00    -0.340 A  
HETATM    8  C   UNL     1     -12.596   9.788  71.438  1.00  0.00    -0.482 A  
HETATM    9  C   UNL     1     -10.376  10.249  69.808  1.00  0.00    -0.287 A  
HETATM   10  C   UNL     1     -11.383   9.147  71.723  1.00  0.00    -0.451 A  
HETATM   11  C   UNL     1     -10.268   9.403  70.912  1.00  0.00    -0.373 A  
BRANCH  10  12
HETATM   12  C   UNL     1     -11.315   8.096  72.803  1.00  0.00    -0.336 C  
BRANCH  12  13
HETATM   13  N   UNL     1     -11.756   6.781  72.338  1.00  0.00    -0.424 NA 
HETATM   14  H   UNL     1     -11.946   6.784  71.335  1.00  0.00     0.000 HD 
BRANCH  13  15
HETATM   15  C   UNL     1     -10.792   5.728  72.699  1.00  0.00    -0.254 C  
BRANCH  15  16
HETATM   16  C   UNL     1     -10.257   4.943  71.491  1.00  0.00    -0.264 C  
BRANCH  16  17
HETATM   17  C   UNL     1      -9.399   5.777  70.591  1.00  0.00    -0.186 A  
HETATM   18  C   UNL     1      -8.099   6.202  70.818  1.00  0.00    -0.124 A  
HETATM   19  N   UNL     1      -7.729   6.989  69.754  1.00  0.00    -0.106 NA 
HETATM   20  C   UNL     1      -7.159   5.961  71.943  1.00  0.00    -0.083 C  
HETATM   21  H   UNL     1      -6.822   7.446  69.658  1.00  0.00     0.000 HD 
HETATM   22  C   UNL     1      -8.746   7.075  68.836  1.00  0.00    -0.131 A  
HETATM   23  C   UNL     1      -8.808   7.771  67.623  1.00  0.00    -0.128 A  
HETATM   24  C   UNL     1      -9.987   7.672  66.878  1.00  0.00    -0.325 A  
HETATM   25  C   UNL     1     -11.059   6.906  67.330  1.00  0.00    -0.322 A  
HETATM   26  C   UNL     1     -10.982   6.226  68.550  1.00  0.00    -0.421 A  
HETATM   27  C   UNL     1      -9.803   6.311  69.322  1.00  0.00    -0.167 A  
ENDBRANCH  16  17
ENDBRANCH  15  16
ENDBRANCH  13  15
ENDBRANCH  12  13
ENDBRANCH  10  12
ENDBRANCH   2   6
BRANCH   3  28
HETATM   28  N   UNL     1     -12.300  12.827  65.688  1.00  0.00    -0.594 NA 
HETATM   29  H   UNL     1     -12.556  13.643  66.244  1.00  0.00     0.000 HD 
HETATM   30  O   UNL     1     -12.998  12.392  64.551  1.00  0.00    -0.770 OA 
HETATM   31  H   UNL     1     -13.740  12.955  64.366  1.00  0.00     0.000 HD 
ENDBRANCH   3  28
TORSDOF 7
ENDMDL
MODEL       35
REMARK 921   NORMALIZED FREE ENERGY PREDICTED BY IDOCK:   -5.58 KCAL/MOL
REMARK 922        TOTAL FREE ENERGY PREDICTED BY IDOCK:  -10.49 KCAL/MOL
REMARK 923 INTER-LIGAND FREE ENERGY PREDICTED BY IDOCK:   -9.23 KCAL/MOL
REMARK 924 INTRA-LIGAND FREE ENERGY PREDICTED BY IDOCK:   -1.26 KCAL/MOL
REMARK 927      BINDING AFFINITY PREDICTED BY RF-SCORE:    0.00 PKD
ROOT
HETATM    1  C   UNL     1     -12.664  14.307  70.971  1.00  0.00    -0.430 C  
HETATM    2  C   UNL     1     -12.201  15.401  70.348  1.00  0.00    -0.430 C  
HETATM    3  C   UNL     1     -13.081  14.410  72.374  1.00  0.00    -0.415 C  
HETATM    4  H   UNL     1     -14.311  13.584  73.600  1.00  0.00     0.000 HD 
HETATM    5  O   UNL     1     -14.042  13.518  72.691  1.00  0.00    -0.762 OA 
ENDROOT
BRANCH   2   6
HETATM    6  C   UNL     1     -11.798  15.344  68.948  1.00  0.00    -0.350 A  
HETATM    7  C   UNL     1     -10.907  16.288  68.429  1.00  0.00    -0.334 A  
HETATM    8  C   UNL     1     -10.439  16.162  67.119  1.00  0.00    -0.305 A  
HETATM    9  C   UNL     1     -12.256  14.302  68.139  1.00  0.00    -0.164 A  
HETATM   10  C   UNL     1     -10.856  15.090  66.318  1.00  0.00    -0.333 A  
HETATM   11  C   UNL     1     -11.786  14.174  66.832  1.00  0.00    -0.437 A  
BRANCH  10  12
HETATM   12  C   UNL     1     -10.212  14.850  64.975  1.00  0.00    -0.330 C  
BRANCH  12  13
HETATM   13  N   UNL     1      -9.861  13.445  64.762  1.00  0.00    -0.605 NA 
HETATM   14  H   UNL     1      -9.906  12.913  65.631  1.00  0.00     0.000 HD 
BRANCH  13  15
HETATM   15  C   UNL     1     -10.694  12.834  63.713  1.00  0.00    -0.361 C  
BRANCH  15  16
HETATM   16  C   UNL     1     -11.076  11.374  64.004  1.00  0.00    -0.400 C  
BRANCH  16  17
HETATM   17  C   UNL     1     -10.082  10.678  64.881  1.00  0.00    -0.402 A  
HETATM   18  C   UNL     1      -8.871  10.119  64.507  1.00  0.00    -0.204 A  
HETATM   19  N   UNL     1      -8.319   9.540  65.624  1.00  0.00    -0.122 NA 
HETATM   20  C   UNL     1      -8.170  10.053  63.198  1.00  0.00    -0.159 C  
HETATM   21  H   UNL     1      -7.428   9.044  65.640  1.00  0.00     0.000 HD 
HETATM   22  C   UNL     1      -9.131   9.720  66.716  1.00  0.00    -0.146 A  
HETATM   23  C   UNL     1      -8.968   9.293  68.039  1.00  0.00    -0.128 A  
HETATM   24  C   UNL     1      -9.967   9.631  68.957  1.00  0.00    -0.189 A  
HETATM   25  C   UNL     1     -11.082  10.367  68.564  1.00  0.00    -0.318 A  
HETATM   26  C   UNL     1     -11.232  10.777  67.235  1.00  0.00    -0.272 A  
HETATM   27  C   UNL     1     -10.238  10.446  66.289  1.00  0.00    -0.286 A  
ENDBRANCH  16  17
ENDBRANCH  15  16
ENDBRANCH  13  15
ENDBRANCH  12  13
ENDBRANCH  10  12
ENDBRANCH   2   6
BRANCH   3  28
HETATM   28  N   UNL     1     -12.592  15.250  73.228  1.00  0.00    -0.447 NA 
HETATM   29  H   UNL     1     -11.614  15.270  73.521  1.00  0.00     0.000 HD 
HETATM   30  O   UNL     1     -13.578  16.129  73.700  1.00  0.00    -0.899 OA 
HETATM   31  H   UNL     1     -13.218  16.746  74.327  1.00  0.00     0.000 HD 
ENDBRANCH   3  28
TORSDOF 7
ENDMDL
MODEL       36
REMARK 921   NORMALIZED FREE ENERGY PREDICTED BY IDOCK:   -5.54 KCAL/MOL
REMARK 922        TOTAL FREE ENERGY PREDICTED BY IDOCK:  -10.43 KCAL/MOL
REMARK 923 INTER-LIGAND FREE ENERGY PREDICTED BY IDOCK:   -7.57 KCAL/MOL
REMARK 924 INTRA-LIGAND FREE ENERGY PREDICTED BY IDOCK:   -2.86 KCAL/MOL
REMARK 927      BINDING AFFINITY PREDICTED BY RF-SCORE:    0.00 PKD
ROOT
HETATM    1  C   UNL     1     -11.756   9.862  71.209  1.00  0.00    -0.472 C  
HETATM    2  C   UNL     1     -11.177   8.666  71.392  1.00  0.00    -0.345 C  
HETATM    3  C   UNL     1     -13.069  10.117  71.813  1.00  0.00    -0.463 C  
HETATM    4  H   UNL     1     -14.109  11.587  72.489  1.00  0.00     0.000 HD 
HETATM    5  O   UNL     1     -13.259  11.422  72.098  1.00  0.00    -0.490 OA 
ENDROOT
BRANCH   2   6
HETATM    6  C   UNL     1      -9.864   8.382  70.825  1.00  0.00    -0.215 A  
HETATM    7  C   UNL     1      -9.491   7.069  70.527  1.00  0.00    -0.166 A  
HETATM    8  C   UNL     1      -8.277   6.816  69.882  1.00  0.00    -0.127 A  
HETATM    9  C   UNL     1      -9.001   9.437  70.520  1.00  0.00    -0.303 A  
HETATM   10  C   UNL     1      -7.429   7.874  69.528  1.00  0.00    -0.093 A  
HETATM   11  C   UNL     1      -7.791   9.185  69.873  1.00  0.00    -0.091 A  
BRANCH  10  12
HETATM   12  C   UNL     1      -6.214   7.619  68.671  1.00  0.00    -0.035 C  
BRANCH  12  13
HETATM   13  N   UNL     1      -6.358   8.154  67.317  1.00  0.00    -0.055 NA 
HETATM   14  H   UNL     1      -5.450   8.337  66.890  1.00  0.00     0.000 HD 
BRANCH  13  15
HETATM   15  C   UNL     1      -7.181   7.272  66.472  1.00  0.00    -0.079 C  
BRANCH  15  16
HETATM   16  C   UNL     1      -8.219   8.025  65.626  1.00  0.00    -0.135 C  
BRANCH  16  17
HETATM   17  C   UNL     1      -9.303   8.644  66.455  1.00  0.00    -0.271 A  
HETATM   18  C   UNL     1     -10.390   8.009  67.035  1.00  0.00    -0.344 A  
HETATM   19  N   UNL     1     -11.151   8.973  67.651  1.00  0.00    -0.430 NA 
HETATM   20  C   UNL     1     -10.808   6.584  67.063  1.00  0.00    -0.465 C  
HETATM   21  H   UNL     1     -12.020   8.792  68.154  1.00  0.00     0.000 HD 
HETATM   22  C   UNL     1     -10.581  10.212  67.500  1.00  0.00    -0.273 A  
HETATM   23  C   UNL     1     -11.016  11.465  67.952  1.00  0.00    -0.295 A  
HETATM   24  C   UNL     1     -10.219  12.574  67.653  1.00  0.00    -0.220 A  
HETATM   25  C   UNL     1      -9.035  12.433  66.933  1.00  0.00    -0.212 A  
HETATM   26  C   UNL     1      -8.622  11.175  66.482  1.00  0.00    -0.169 A  
HETATM   27  C   UNL     1      -9.410  10.040  66.769  1.00  0.00    -0.193 A  
ENDBRANCH  16  17
ENDBRANCH  15  16
ENDBRANCH  13  15
ENDBRANCH  12  13
ENDBRANCH  10  12
ENDBRANCH   2   6
BRANCH   3  28
HETATM   28  N   UNL     1     -13.959   9.209  72.050  1.00  0.00    -0.395 NA 
HETATM   29  H   UNL     1     -14.469   8.699  71.328  1.00  0.00     0.000 HD 
HETATM   30  O   UNL     1     -14.134   9.014  73.428  1.00  0.00    -1.231 OA 
HETATM   31  H   UNL     1     -14.788   8.348  73.602  1.00  0.00     0.000 HD 
ENDBRANCH   3  28
TORSDOF 7
ENDMDL
MODEL       37
REMARK 921   NORMALIZED FREE ENERGY PREDICTED BY IDOCK:   -5.53 KCAL/MOL
REMARK 922        TOTAL FREE ENERGY PREDICTED BY IDOCK:  -10.43 KCAL/MOL
REMARK 923 INTER-LIGAND FREE ENERGY PREDICTED BY IDOCK:   -9.34 KCAL/MOL
REMARK 924 INTRA-LIGAND FREE ENERGY PREDICTED BY IDOCK:   -1.09 KCAL/MOL
REMARK 927      BINDING AFFINITY PREDICTED BY RF-SCORE:    0.00 PKD
ROOT
HETATM    1  C   UNL     1     -12.387  13.570  65.699  1.00  0.00    -0.522 C  
HETATM    2  C   UNL     1     -11.517  13.524  66.720  1.00  0.00    -0.374 C  
HETATM    3  C   UNL     1     -12.030  14.326  64.494  1.00  0.00    -0.462 C  
HETATM    4  H   UNL     1     -12.384  14.321  62.603  1.00  0.00     0.000 HD 
HETATM    5  O   UNL     1     -12.615  13.830  63.384  1.00  0.00    -0.842 OA 
ENDROOT
BRANCH   2   6
HETATM    6  C   UNL     1     -11.827  12.765  67.926  1.00  0.00    -0.392 A  
HETATM    7  C   UNL     1     -11.873  11.370  67.891  1.00  0.00    -0.239 A  
HETATM    8  C   UNL     1     -12.061  10.646  69.071  1.00  0.00    -0.084 A  
HETATM    9  C   UNL     1     -12.015  13.438  69.136  1.00  0.00    -0.363 A  
HETATM   10  C   UNL     1     -12.199  11.313  70.296  1.00  0.00    -0.428 A  
HETATM   11  C   UNL     1     -12.198  12.715  70.315  1.00  0.00    -0.347 A  
BRANCH  10  12
HETATM   12  C   UNL     1     -12.215  10.533  71.587  1.00  0.00    -0.195 C  
BRANCH  12  13
HETATM   13  N   UNL     1     -13.055   9.337  71.513  1.00  0.00    -0.352 NA 
HETATM   14  H   UNL     1     -13.466   9.227  70.586  1.00  0.00     0.000 HD 
BRANCH  13  15
HETATM   15  C   UNL     1     -12.315   8.131  71.920  1.00  0.00    -0.332 C  
BRANCH  15  16
HETATM   16  C   UNL     1     -10.829   8.389  72.211  1.00  0.00    -0.422 C  
BRANCH  16  17
HETATM   17  C   UNL     1      -9.922   7.752  71.204  1.00  0.00    -0.194 A  
HETATM   18  C   UNL     1      -9.100   8.387  70.285  1.00  0.00    -0.148 A  
HETATM   19  N   UNL     1      -8.495   7.413  69.529  1.00  0.00    -0.132 NA 
HETATM   20  C   UNL     1      -8.827   9.824  70.026  1.00  0.00    -0.245 C  
HETATM   21  H   UNL     1      -7.841   7.593  68.766  1.00  0.00     0.000 HD 
HETATM   22  C   UNL     1      -8.889   6.164  69.939  1.00  0.00    -0.140 A  
HETATM   23  C   UNL     1      -8.534   4.901  69.449  1.00  0.00    -0.092 A  
HETATM   24  C   UNL     1      -9.092   3.782  70.074  1.00  0.00    -0.193 A  
HETATM   25  C   UNL     1      -9.969   3.924  71.147  1.00  0.00    -0.169 A  
HETATM   26  C   UNL     1     -10.320   5.194  71.616  1.00  0.00    -0.274 A  
HETATM   27  C   UNL     1      -9.771   6.340  71.001  1.00  0.00    -0.196 A  
ENDBRANCH  16  17
ENDBRANCH  15  16
ENDBRANCH  13  15
ENDBRANCH  12  13
ENDBRANCH  10  12
ENDBRANCH   2   6
BRANCH   3  28
HETATM   28  N   UNL     1     -11.249  15.358  64.475  1.00  0.00    -0.685 NA 
HETATM   29  H   UNL     1     -10.387  15.437  65.015  1.00  0.00     0.000 HD 
HETATM   30  O   UNL     1     -11.740  16.353  63.618  1.00  0.00    -1.520 OA 
HETATM   31  H   UNL     1     -11.166  17.110  63.604  1.00  0.00     0.000 HD 
ENDBRANCH   3  28
TORSDOF 7
ENDMDL
MODEL       38
REMARK 921   NORMALIZED FREE ENERGY PREDICTED BY IDOCK:   -5.52 KCAL/MOL
REMARK 922        TOTAL FREE ENERGY PREDICTED BY IDOCK:  -10.40 KCAL/MOL
REMARK 923 INTER-LIGAND FREE ENERGY PREDICTED BY IDOCK:   -8.35 KCAL/MOL
REMARK 924 INTRA-LIGAND FREE ENERGY PREDICTED BY IDOCK:   -2.05 KCAL/MOL
REMARK 927      BINDING AFFINITY PREDICTED BY RF-SCORE:    0.00 PKD
ROOT
HETATM    1  C   UNL     1     -12.639  13.929  71.055  1.00  0.00    -0.444 C  
HETATM    2  C   UNL     1     -12.116  14.848  70.229  1.00  0.00    -0.379 C  
HETATM    3  C   UNL     1     -13.229  14.367  72.325  1.00  0.00    -0.406 C  
HETATM    4  H   UNL     1     -14.592  13.828  73.570  1.00  0.00     0.000 HD 
HETATM    5  O   UNL     1     -14.211  13.545  72.747  1.00  0.00    -0.692 OA 
ENDROOT
BRANCH   2   6
HETATM    6  C   UNL     1     -11.540  14.454  68.949  1.00  0.00    -0.340 A  
HETATM    7  C   UNL     1     -10.156  14.330  68.804  1.00  0.00    -0.217 A  
HETATM    8  C   UNL     1      -9.618  13.846  67.609  1.00  0.00    -0.215 A  
HETATM    9  C   UNL     1     -12.382  14.136  67.881  1.00  0.00    -0.020 A  
HETATM   10  C   UNL     1     -10.460  13.478  66.551  1.00  0.00    -0.284 A  
HETATM   11  C   UNL     1     -11.845  13.649  66.689  1.00  0.00    -0.447 A  
BRANCH  10  12
HETATM   12  C   UNL     1      -9.895  12.784  65.337  1.00  0.00    -0.128 C  
BRANCH  12  13
HETATM   13  N   UNL     1      -8.731  11.955  65.652  1.00  0.00    -0.383 NA 
HETATM   14  H   UNL     1      -8.484  12.020  66.640  1.00  0.00     0.000 HD 
BRANCH  13  15
HETATM   15  C   UNL     1      -8.935  10.557  65.240  1.00  0.00    -0.189 C  
BRANCH  15  16
HETATM   16  C   UNL     1     -10.274   9.966  65.708  1.00  0.00    -0.251 C  
BRANCH  16  17
HETATM   17  C   UNL     1     -10.138   9.130  66.944  1.00  0.00    -0.328 A  
HETATM   18  C   UNL     1      -9.586   7.863  67.050  1.00  0.00    -0.192 A  
HETATM   19  N   UNL     1      -9.725   7.460  68.356  1.00  0.00    -0.151 NA 
HETATM   20  C   UNL     1      -8.947   6.972  66.048  1.00  0.00    -0.135 C  
HETATM   21  H   UNL     1      -9.414   6.559  68.721  1.00  0.00     0.000 HD 
HETATM   22  C   UNL     1     -10.338   8.434  69.103  1.00  0.00    -0.220 A  
HETATM   23  C   UNL     1     -10.685   8.444  70.460  1.00  0.00    -0.247 A  
HETATM   24  C   UNL     1     -11.305   9.592  70.962  1.00  0.00    -0.444 A  
HETATM   25  C   UNL     1     -11.566  10.685  70.138  1.00  0.00    -0.414 A  
HETATM   26  C   UNL     1     -11.221  10.652  68.783  1.00  0.00    -0.337 A  
HETATM   27  C   UNL     1     -10.596   9.504  68.251  1.00  0.00    -0.260 A  
ENDBRANCH  16  17
ENDBRANCH  15  16
ENDBRANCH  13  15
ENDBRANCH  12  13
ENDBRANCH  10  12
ENDBRANCH   2   6
BRANCH   3  28
HETATM   28  N   UNL     1     -12.861  15.418  72.984  1.00  0.00    -0.413 NA 
HETATM   29  H   UNL     1     -11.892  15.644  73.214  1.00  0.00     0.000 HD 
HETATM   30  O   UNL     1     -13.964  16.207  73.343  1.00  0.00    -0.817 OA 
HETATM   31  H   UNL     1     -13.693  16.978  73.827  1.00  0.00     0.000 HD 
ENDBRANCH   3  28
TORSDOF 7
ENDMDL
MODEL       39
REMARK 921   NORMALIZED FREE ENERGY PREDICTED BY IDOCK:   -5.48 KCAL/MOL
REMARK 922        TOTAL FREE ENERGY PREDICTED BY IDOCK:  -10.35 KCAL/MOL
REMARK 923 INTER-LIGAND FREE ENERGY PREDICTED BY IDOCK:   -7.75 KCAL/MOL
REMARK 924 INTRA-LIGAND FREE ENERGY PREDICTED BY IDOCK:   -2.60 KCAL/MOL
REMARK 927      BINDING AFFINITY PREDICTED BY RF-SCORE:    0.00 PKD
ROOT
HETATM    1  C   UNL     1     -10.863  11.280  66.957  1.00  0.00    -0.332 C  
HETATM    2  C   UNL     1     -10.195  10.137  67.175  1.00  0.00    -0.278 C  
HETATM    3  C   UNL     1     -11.275  11.612  65.589  1.00  0.00    -0.214 C  
HETATM    4  H   UNL     1     -12.658  12.587  64.672  1.00  0.00     0.000 HD 
HETATM    5  O   UNL     1     -12.391  12.371  65.558  1.00  0.00    -0.621 OA 
ENDROOT
BRANCH   2   6
HETATM    6  C   UNL     1      -9.787   9.762  68.523  1.00  0.00    -0.169 A  
HETATM    7  C   UNL     1     -10.624  10.016  69.612  1.00  0.00    -0.278 A  
HETATM    8  C   UNL     1     -10.277   9.555  70.884  1.00  0.00    -0.356 A  
HETATM    9  C   UNL     1      -8.579   9.087  68.717  1.00  0.00    -0.132 A  
HETATM   10  C   UNL     1      -9.091   8.833  71.077  1.00  0.00    -0.272 A  
HETATM   11  C   UNL     1      -8.234   8.623  69.986  1.00  0.00    -0.122 A  
BRANCH  10  12
HETATM   12  C   UNL     1      -8.808   8.178  72.406  1.00  0.00    -0.197 C  
BRANCH  12  13
HETATM   13  N   UNL     1     -10.024   7.925  73.180  1.00  0.00    -0.297 NA 
HETATM   14  H   UNL     1     -10.862   8.136  72.638  1.00  0.00     0.000 HD 
BRANCH  13  15
HETATM   15  C   UNL     1     -10.055   6.550  73.705  1.00  0.00    -0.277 C  
BRANCH  15  16
HETATM   16  C   UNL     1     -11.122   5.664  73.046  1.00  0.00    -0.327 C  
BRANCH  16  17
HETATM   17  C   UNL     1     -11.395   6.046  71.623  1.00  0.00    -0.313 A  
HETATM   18  C   UNL     1     -12.487   6.743  71.131  1.00  0.00    -0.298 A  
HETATM   19  N   UNL     1     -12.350   6.816  69.765  1.00  0.00    -0.206 NA 
HETATM   20  C   UNL     1     -13.667   7.344  71.805  1.00  0.00    -0.417 C  
HETATM   21  H   UNL     1     -13.016   7.268  69.139  1.00  0.00     0.000 HD 
HETATM   22  C   UNL     1     -11.193   6.199  69.360  1.00  0.00    -0.396 A  
HETATM   23  C   UNL     1     -10.667   6.028  68.074  1.00  0.00    -0.359 A  
HETATM   24  C   UNL     1      -9.447   5.354  67.956  1.00  0.00    -0.138 A  
HETATM   25  C   UNL     1      -8.783   4.873  69.082  1.00  0.00    -0.106 A  
HETATM   26  C   UNL     1      -9.329   5.045  70.358  1.00  0.00    -0.216 A  
HETATM   27  C   UNL     1     -10.560   5.719  70.503  1.00  0.00    -0.359 A  
ENDBRANCH  16  17
ENDBRANCH  15  16
ENDBRANCH  13  15
ENDBRANCH  12  13
ENDBRANCH  10  12
ENDBRANCH   2   6
BRANCH   3  28
HETATM   28  N   UNL     1     -10.653  11.235  64.519  1.00  0.00    -0.331 NA 
HETATM   29  H   UNL     1      -9.681  10.923  64.498  1.00  0.00     0.000 HD 
HETATM   30  O   UNL     1     -11.484  11.311  63.392  1.00  0.00    -0.741 OA 
HETATM   31  H   UNL     1     -11.027  11.034  62.607  1.00  0.00     0.000 HD 
ENDBRANCH   3  28
TORSDOF 7
ENDMDL
MODEL       40
REMARK 921   NORMALIZED FREE ENERGY PREDICTED BY IDOCK:   -5.46 KCAL/MOL
REMARK 922        TOTAL FREE ENERGY PREDICTED BY IDOCK:  -10.33 KCAL/MOL
REMARK 923 INTER-LIGAND FREE ENERGY PREDICTED BY IDOCK:   -8.69 KCAL/MOL
REMARK 924 INTRA-LIGAND FREE ENERGY PREDICTED BY IDOCK:   -1.64 KCAL/MOL
REMARK 927      BINDING AFFINITY PREDICTED BY RF-SCORE:    0.00 PKD
ROOT
HETATM    1  C   UNL     1     -11.562  12.270  65.364  1.00  0.00    -0.412 C  
HETATM    2  C   UNL     1     -10.733  11.514  64.629  1.00  0.00    -0.379 C  
HETATM    3  C   UNL     1     -12.148  13.474  64.764  1.00  0.00    -0.404 C  
HETATM    4  H   UNL     1     -13.729  14.560  64.906  1.00  0.00     0.000 HD 
HETATM    5  O   UNL     1     -13.350  13.781  65.294  1.00  0.00    -0.710 OA 
ENDROOT
BRANCH   2   6
HETATM    6  C   UNL     1     -10.147  10.300  65.183  1.00  0.00    -0.355 A  
HETATM    7  C   UNL     1      -8.934   9.811  64.692  1.00  0.00    -0.270 A  
HETATM    8  C   UNL     1      -8.325   8.712  65.302  1.00  0.00    -0.177 A  
HETATM    9  C   UNL     1     -10.773   9.658  66.255  1.00  0.00     0.086 A  
HETATM   10  C   UNL     1      -8.922   8.094  66.409  1.00  0.00    -0.207 A  
HETATM   11  C   UNL     1     -10.163   8.562  66.865  1.00  0.00    -0.375 A  
BRANCH  10  12
HETATM   12  C   UNL     1      -8.178   7.031  67.178  1.00  0.00    -0.118 C  
BRANCH  12  13
HETATM   13  N   UNL     1      -8.557   6.990  68.591  1.00  0.00    -0.121 NA 
HETATM   14  H   UNL     1      -8.825   6.049  68.879  1.00  0.00     0.000 HD 
BRANCH  13  15
HETATM   15  C   UNL     1      -7.493   7.534  69.452  1.00  0.00    -0.087 C  
BRANCH  15  16
HETATM   16  C   UNL     1      -8.021   8.276  70.689  1.00  0.00    -0.094 C  
BRANCH  16  17
HETATM   17  C   UNL     1      -9.078   9.283  70.353  1.00  0.00    -0.288 A  
HETATM   18  C   UNL     1      -8.971  10.366  69.496  1.00  0.00    -0.106 A  
HETATM   19  N   UNL     1     -10.164  11.047  69.536  1.00  0.00    -0.440 NA 
HETATM   20  C   UNL     1      -7.855  10.849  68.641  1.00  0.00    -0.126 C  
HETATM   21  H   UNL     1     -10.366  11.895  69.008  1.00  0.00     0.000 HD 
HETATM   22  C   UNL     1     -11.047  10.428  70.385  1.00  0.00    -0.296 A  
HETATM   23  C   UNL     1     -12.357  10.778  70.733  1.00  0.00    -0.480 A  
HETATM   24  C   UNL     1     -13.034   9.947  71.631  1.00  0.00    -0.536 A  
HETATM   25  C   UNL     1     -12.422   8.811  72.157  1.00  0.00    -0.460 A  
HETATM   26  C   UNL     1     -11.109   8.482  71.804  1.00  0.00    -0.378 A  
HETATM   27  C   UNL     1     -10.404   9.307  70.902  1.00  0.00    -0.367 A  
ENDBRANCH  16  17
ENDBRANCH  15  16
ENDBRANCH  13  15
ENDBRANCH  12  13
ENDBRANCH  10  12
ENDBRANCH   2   6
BRANCH   3  28
HETATM   28  N   UNL     1     -11.591  14.179  63.833  1.00  0.00    -0.620 NA 
HETATM   29  H   UNL     1     -10.986  13.797  63.104  1.00  0.00     0.000 HD 
HETATM   30  O   UNL     1     -11.925  15.536  63.952  1.00  0.00    -0.974 OA 
HETATM   31  H   UNL     1     -11.515  16.054  63.268  1.00  0.00     0.000 HD 
ENDBRANCH   3  28
TORSDOF 7
ENDMDL
MODEL       41
REMARK 921   NORMALIZED FREE ENERGY PREDICTED BY IDOCK:   -5.46 KCAL/MOL
REMARK 922        TOTAL FREE ENERGY PREDICTED BY IDOCK:  -10.33 KCAL/MOL
REMARK 923 INTER-LIGAND FREE ENERGY PREDICTED BY IDOCK:   -7.64 KCAL/MOL
REMARK 924 INTRA-LIGAND FREE ENERGY PREDICTED BY IDOCK:   -2.69 KCAL/MOL
REMARK 927      BINDING AFFINITY PREDICTED BY RF-SCORE:    0.00 PKD
ROOT
HETATM    1  C   UNL     1     -10.635   9.801  67.509  1.00  0.00    -0.335 C  
HETATM    2  C   UNL     1      -9.906   8.712  67.223  1.00  0.00    -0.256 C  
HETATM    3  C   UNL     1     -10.613  10.936  66.581  1.00  0.00    -0.249 C  
HETATM    4  H   UNL     1     -11.745  12.383  66.009  1.00  0.00     0.000 HD 
HETATM    5  O   UNL     1     -11.759  11.647  66.610  1.00  0.00    -0.523 OA 
ENDROOT
BRANCH   2   6
HETATM    6  C   UNL     1      -9.919   7.555  68.111  1.00  0.00    -0.198 A  
HETATM    7  C   UNL     1      -8.720   6.981  68.542  1.00  0.00    -0.122 A  
HETATM    8  C   UNL     1      -8.739   5.944  69.478  1.00  0.00    -0.116 A  
HETATM    9  C   UNL     1     -11.137   7.059  68.581  1.00  0.00    -0.076 A  
HETATM   10  C   UNL     1      -9.955   5.476  69.993  1.00  0.00    -0.285 A  
HETATM   11  C   UNL     1     -11.155   6.026  69.519  1.00  0.00    -0.468 A  
BRANCH  10  12
HETATM   12  C   UNL     1      -9.967   4.490  71.135  1.00  0.00    -0.187 C  
BRANCH  12  13
HETATM   13  N   UNL     1      -9.398   5.045  72.364  1.00  0.00    -0.136 NA 
HETATM   14  H   UNL     1      -8.697   5.759  72.161  1.00  0.00     0.000 HD 
BRANCH  13  15
HETATM   15  C   UNL     1     -10.446   5.560  73.261  1.00  0.00    -0.225 C  
BRANCH  15  16
HETATM   16  C   UNL     1     -10.164   6.975  73.789  1.00  0.00    -0.401 C  
BRANCH  16  17
HETATM   17  C   UNL     1     -10.152   8.007  72.703  1.00  0.00    -0.370 A  
HETATM   18  C   UNL     1      -9.047   8.568  72.083  1.00  0.00    -0.249 A  
HETATM   19  N   UNL     1      -9.505   9.508  71.192  1.00  0.00    -0.318 NA 
HETATM   20  C   UNL     1      -7.590   8.328  72.246  1.00  0.00    -0.160 C  
HETATM   21  H   UNL     1      -8.908  10.086  70.600  1.00  0.00     0.000 HD 
HETATM   22  C   UNL     1     -10.876   9.563  71.206  1.00  0.00    -0.343 A  
HETATM   23  C   UNL     1     -11.753  10.374  70.475  1.00  0.00    -0.434 A  
HETATM   24  C   UNL     1     -13.124  10.206  70.691  1.00  0.00    -0.274 A  
HETATM   25  C   UNL     1     -13.597   9.264  71.601  1.00  0.00    -0.448 A  
HETATM   26  C   UNL     1     -12.705   8.469  72.329  1.00  0.00    -0.420 A  
HETATM   27  C   UNL     1     -11.316   8.620  72.131  1.00  0.00    -0.434 A  
ENDBRANCH  16  17
ENDBRANCH  15  16
ENDBRANCH  13  15
ENDBRANCH  12  13
ENDBRANCH  10  12
ENDBRANCH   2   6
BRANCH   3  28
HETATM   28  N   UNL     1      -9.616  11.242  65.815  1.00  0.00    -0.219 NA 
HETATM   29  H   UNL     1      -8.768  10.682  65.722  1.00  0.00     0.000 HD 
HETATM   30  O   UNL     1      -9.851  12.442  65.128  1.00  0.00    -0.387 OA 
HETATM   31  H   UNL     1      -9.119  12.667  64.565  1.00  0.00     0.000 HD 
ENDBRANCH   3  28
TORSDOF 7
ENDMDL
MODEL       42
REMARK 921   NORMALIZED FREE ENERGY PREDICTED BY IDOCK:   -5.46 KCAL/MOL
REMARK 922        TOTAL FREE ENERGY PREDICTED BY IDOCK:  -10.32 KCAL/MOL
REMARK 923 INTER-LIGAND FREE ENERGY PREDICTED BY IDOCK:   -9.39 KCAL/MOL
REMARK 924 INTRA-LIGAND FREE ENERGY PREDICTED BY IDOCK:   -0.93 KCAL/MOL
REMARK 927      BINDING AFFINITY PREDICTED BY RF-SCORE:    0.00 PKD
ROOT
HETATM    1  C   UNL     1     -11.160   7.873  72.937  1.00  0.00    -0.442 C  
HETATM    2  C   UNL     1     -11.668   8.088  71.714  1.00  0.00    -0.335 C  
HETATM    3  C   UNL     1     -10.898   6.495  73.367  1.00  0.00    -0.222 C  
HETATM    4  H   UNL     1      -9.717   5.526  74.536  1.00  0.00     0.000 HD 
HETATM    5  O   UNL     1      -9.887   6.418  74.257  1.00  0.00    -0.235 OA 
ENDROOT
BRANCH   2   6
HETATM    6  C   UNL     1     -11.924   9.444  71.244  1.00  0.00    -0.430 A  
HETATM    7  C   UNL     1     -12.875  10.246  71.879  1.00  0.00    -0.528 A  
HETATM    8  C   UNL     1     -13.035  11.579  71.494  1.00  0.00    -0.485 A  
HETATM    9  C   UNL     1     -11.166   9.964  70.192  1.00  0.00    -0.347 A  
HETATM   10  C   UNL     1     -12.243  12.122  70.473  1.00  0.00    -0.392 A  
HETATM   11  C   UNL     1     -11.324  11.296  69.810  1.00  0.00    -0.348 A  
BRANCH  10  12
HETATM   12  C   UNL     1     -12.285  13.602  70.185  1.00  0.00    -0.342 C  
BRANCH  12  13
HETATM   13  N   UNL     1     -10.952  14.180  70.014  1.00  0.00    -0.463 NA 
HETATM   14  H   UNL     1     -10.496  13.825  69.173  1.00  0.00     0.000 HD 
BRANCH  13  15
HETATM   15  C   UNL     1     -10.995  15.652  70.021  1.00  0.00    -0.327 C  
BRANCH  15  16
HETATM   16  C   UNL     1     -11.369  16.263  68.662  1.00  0.00    -0.333 C  
BRANCH  16  17
HETATM   17  C   UNL     1     -10.648  15.618  67.518  1.00  0.00    -0.297 A  
HETATM   18  C   UNL     1      -9.319  15.776  67.161  1.00  0.00    -0.213 A  
HETATM   19  N   UNL     1      -9.108  15.042  66.018  1.00  0.00    -0.486 NA 
HETATM   20  C   UNL     1      -8.213  16.559  67.771  1.00  0.00    -0.173 C  
HETATM   21  H   UNL     1      -8.217  14.981  65.525  1.00  0.00     0.000 HD 
HETATM   22  C   UNL     1     -10.258  14.401  65.633  1.00  0.00    -0.350 A  
HETATM   23  C   UNL     1     -10.500  13.567  64.535  1.00  0.00    -0.426 A  
HETATM   24  C   UNL     1     -11.787  13.039  64.391  1.00  0.00    -0.443 A  
HETATM   25  C   UNL     1     -12.790  13.337  65.311  1.00  0.00    -0.368 A  
HETATM   26  C   UNL     1     -12.532  14.180  66.397  1.00  0.00    -0.353 A  
HETATM   27  C   UNL     1     -11.241  14.727  66.563  1.00  0.00    -0.342 A  
ENDBRANCH  16  17
ENDBRANCH  15  16
ENDBRANCH  13  15
ENDBRANCH  12  13
ENDBRANCH  10  12
ENDBRANCH   2   6
BRANCH   3  28
HETATM   28  N   UNL     1     -11.551   5.458  72.955  1.00  0.00    -0.511 NA 
HETATM   29  H   UNL     1     -12.429   5.499  72.435  1.00  0.00     0.000 HD 
HETATM   30  O   UNL     1     -10.900   4.269  73.315  1.00  0.00    -0.201 OA 
HETATM   31  H   UNL     1     -11.380   3.507  73.012  1.00  0.00     0.000 HD 
ENDBRANCH   3  28
TORSDOF 7
ENDMDL
MODEL       43
REMARK 921   NORMALIZED FREE ENERGY PREDICTED BY IDOCK:   -5.44 KCAL/MOL
REMARK 922        TOTAL FREE ENERGY PREDICTED BY IDOCK:  -10.29 KCAL/MOL
REMARK 923 INTER-LIGAND FREE ENERGY PREDICTED BY IDOCK:   -8.37 KCAL/MOL
REMARK 924 INTRA-LIGAND FREE ENERGY PREDICTED BY IDOCK:   -1.92 KCAL/MOL
REMARK 927      BINDING AFFINITY PREDICTED BY RF-SCORE:    0.00 PKD
ROOT
HETATM    1  C   UNL     1     -11.927  10.104  70.939  1.00  0.00    -0.461 C  
HETATM    2  C   UNL     1     -11.289   8.924  70.916  1.00  0.00    -0.336 C  
HETATM    3  C   UNL     1     -13.155  10.233  71.732  1.00  0.00    -0.465 C  
HETATM    4  H   UNL     1     -14.143  11.576  72.692  1.00  0.00     0.000 HD 
HETATM    5  O   UNL     1     -13.348  11.492  72.178  1.00  0.00    -0.477 OA 
ENDROOT
BRANCH   2   6
HETATM    6  C   UNL     1     -10.055   8.762  70.156  1.00  0.00    -0.203 A  
HETATM    7  C   UNL     1      -9.808   7.580  69.454  1.00  0.00    -0.166 A  
HETATM    8  C   UNL     1      -8.677   7.474  68.640  1.00  0.00    -0.128 A  
HETATM    9  C   UNL     1      -9.147   9.820  70.081  1.00  0.00    -0.240 A  
HETATM   10  C   UNL     1      -7.788   8.550  68.519  1.00  0.00    -0.108 A  
HETATM   11  C   UNL     1      -8.020   9.715  69.265  1.00  0.00    -0.104 A  
BRANCH  10  12
HETATM   12  C   UNL     1      -6.674   8.505  67.503  1.00  0.00    -0.063 C  
BRANCH  12  13
HETATM   13  N   UNL     1      -7.119   8.005  66.202  1.00  0.00    -0.062 NA 
HETATM   14  H   UNL     1      -7.823   7.274  66.304  1.00  0.00     0.000 HD 
BRANCH  13  15
HETATM   15  C   UNL     1      -7.599   9.097  65.338  1.00  0.00    -0.097 C  
BRANCH  15  16
HETATM   16  C   UNL     1      -9.124   9.104  65.145  1.00  0.00    -0.234 C  
BRANCH  16  17
HETATM   17  C   UNL     1      -9.666  10.471  64.863  1.00  0.00    -0.360 A  
HETATM   18  C   UNL     1      -9.545  11.203  63.692  1.00  0.00    -0.288 A  
HETATM   19  N   UNL     1     -10.145  12.421  63.901  1.00  0.00    -0.555 NA 
HETATM   20  C   UNL     1      -8.908  10.888  62.387  1.00  0.00    -0.358 C  
HETATM   21  H   UNL     1     -10.198  13.168  63.208  1.00  0.00     0.000 HD 
HETATM   22  C   UNL     1     -10.664  12.496  65.168  1.00  0.00    -0.292 A  
HETATM   23  C   UNL     1     -11.343  13.542  65.804  1.00  0.00    -0.318 A  
HETATM   24  C   UNL     1     -11.772  13.335  67.118  1.00  0.00    -0.425 A  
HETATM   25  C   UNL     1     -11.530  12.127  67.769  1.00  0.00    -0.398 A  
HETATM   26  C   UNL     1     -10.842  11.096  67.121  1.00  0.00    -0.326 A  
HETATM   27  C   UNL     1     -10.397  11.281  65.794  1.00  0.00    -0.310 A  
ENDBRANCH  16  17
ENDBRANCH  15  16
ENDBRANCH  13  15
ENDBRANCH  12  13
ENDBRANCH  10  12
ENDBRANCH   2   6
BRANCH   3  28
HETATM   28  N   UNL     1     -13.975   9.265  71.984  1.00  0.00    -0.362 NA 
HETATM   29  H   UNL     1     -14.548   8.797  71.281  1.00  0.00     0.000 HD 
HETATM   30  O   UNL     1     -13.976   8.940  73.349  1.00  0.00    -1.236 OA 
HETATM   31  H   UNL     1     -14.579   8.229  73.534  1.00  0.00     0.000 HD 
ENDBRANCH   3  28
TORSDOF 7
ENDMDL
MODEL       44
REMARK 921   NORMALIZED FREE ENERGY PREDICTED BY IDOCK:   -5.44 KCAL/MOL
REMARK 922        TOTAL FREE ENERGY PREDICTED BY IDOCK:  -10.29 KCAL/MOL
REMARK 923 INTER-LIGAND FREE ENERGY PREDICTED BY IDOCK:   -7.59 KCAL/MOL
REMARK 924 INTRA-LIGAND FREE ENERGY PREDICTED BY IDOCK:   -2.70 KCAL/MOL
REMARK 927      BINDING AFFINITY PREDICTED BY RF-SCORE:    0.00 PKD
ROOT
HETATM    1  C   UNL     1     -10.956  10.284  68.277  1.00  0.00    -0.315 C  
HETATM    2  C   UNL     1     -11.275  10.700  69.512  1.00  0.00    -0.331 C  
HETATM    3  C   UNL     1     -11.133  11.203  67.148  1.00  0.00    -0.287 C  
HETATM    4  H   UNL     1     -10.380  11.553  65.412  1.00  0.00     0.000 HD 
HETATM    5  O   UNL     1     -10.265  10.958  66.144  1.00  0.00    -0.235 OA 
ENDROOT
BRANCH   2   6
HETATM    6  C   UNL     1     -11.093   9.822  70.662  1.00  0.00    -0.398 A  
HETATM    7  C   UNL     1     -12.198   9.235  71.284  1.00  0.00    -0.410 A  
HETATM    8  C   UNL     1     -12.010   8.310  72.314  1.00  0.00    -0.448 A  
HETATM    9  C   UNL     1      -9.803   9.518  71.102  1.00  0.00    -0.177 A  
HETATM   10  C   UNL     1     -10.716   7.962  72.726  1.00  0.00    -0.435 A  
HETATM   11  C   UNL     1      -9.616   8.591  72.127  1.00  0.00    -0.382 A  
BRANCH  10  12
HETATM   12  C   UNL     1     -10.509   6.832  73.704  1.00  0.00    -0.347 C  
BRANCH  12  13
HETATM   13  N   UNL     1     -11.277   5.636  73.353  1.00  0.00    -0.472 NA 
HETATM   14  H   UNL     1     -11.652   5.698  72.407  1.00  0.00     0.000 HD 
BRANCH  13  15
HETATM   15  C   UNL     1     -10.483   4.410  73.539  1.00  0.00    -0.202 C  
BRANCH  15  16
HETATM   16  C   UNL     1     -10.147   3.690  72.224  1.00  0.00    -0.225 C  
BRANCH  16  17
HETATM   17  C   UNL     1      -9.264   4.503  71.328  1.00  0.00    -0.195 A  
HETATM   18  C   UNL     1      -7.882   4.604  71.369  1.00  0.00    -0.087 A  
HETATM   19  N   UNL     1      -7.504   5.502  70.400  1.00  0.00    -0.077 NA 
HETATM   20  C   UNL     1      -6.865   3.956  72.237  1.00  0.00    -0.044 C  
HETATM   21  H   UNL     1      -6.541   5.779  70.210  1.00  0.00     0.000 HD 
HETATM   22  C   UNL     1      -8.599   5.975  69.722  1.00  0.00    -0.130 A  
HETATM   23  C   UNL     1      -8.680   6.902  68.676  1.00  0.00    -0.122 A  
HETATM   24  C   UNL     1      -9.948   7.195  68.165  1.00  0.00    -0.172 A  
HETATM   25  C   UNL     1     -11.088   6.583  68.681  1.00  0.00    -0.348 A  
HETATM   26  C   UNL     1     -10.989   5.666  69.733  1.00  0.00    -0.301 A  
HETATM   27  C   UNL     1      -9.720   5.355  70.268  1.00  0.00    -0.254 A  
ENDBRANCH  16  17
ENDBRANCH  15  16
ENDBRANCH  13  15
ENDBRANCH  12  13
ENDBRANCH  10  12
ENDBRANCH   2   6
BRANCH   3  28
HETATM   28  N   UNL     1     -12.016  12.147  67.098  1.00  0.00    -0.584 NA 
HETATM   29  H   UNL     1     -12.365  12.654  67.912  1.00  0.00     0.000 HD 
HETATM   30  O   UNL     1     -12.434  12.385  65.780  1.00  0.00    -0.615 OA 
HETATM   31  H   UNL     1     -13.083  13.078  65.743  1.00  0.00     0.000 HD 
ENDBRANCH   3  28
TORSDOF 7
ENDMDL
MODEL       45
REMARK 921   NORMALIZED FREE ENERGY PREDICTED BY IDOCK:   -5.42 KCAL/MOL
REMARK 922        TOTAL FREE ENERGY PREDICTED BY IDOCK:  -10.28 KCAL/MOL
REMARK 923 INTER-LIGAND FREE ENERGY PREDICTED BY IDOCK:   -7.86 KCAL/MOL
REMARK 924 INTRA-LIGAND FREE ENERGY PREDICTED BY IDOCK:   -2.41 KCAL/MOL
REMARK 927      BINDING AFFINITY PREDICTED BY RF-SCORE:    0.00 PKD
ROOT
HETATM    1  C   UNL     1     -11.976  11.314  69.692  1.00  0.00    -0.423 C  
HETATM    2  C   UNL     1     -10.865  11.530  68.973  1.00  0.00    -0.258 C  
HETATM    3  C   UNL     1     -11.943  10.321  70.772  1.00  0.00    -0.360 C  
HETATM    4  H   UNL     1     -12.793   9.964  72.460  1.00  0.00     0.000 HD 
HETATM    5  O   UNL     1     -12.815  10.608  71.761  1.00  0.00    -0.437 OA 
ENDROOT
BRANCH   2   6
HETATM    6  C   UNL     1     -10.853  12.524  67.906  1.00  0.00    -0.251 A  
HETATM    7  C   UNL     1     -12.025  13.196  67.552  1.00  0.00    -0.367 A  
HETATM    8  C   UNL     1     -11.984  14.224  66.607  1.00  0.00    -0.454 A  
HETATM    9  C   UNL     1      -9.648  12.849  67.278  1.00  0.00    -0.220 A  
HETATM   10  C   UNL     1     -10.769  14.590  66.011  1.00  0.00    -0.306 A  
HETATM   11  C   UNL     1      -9.606  13.878  66.337  1.00  0.00    -0.292 A  
BRANCH  10  12
HETATM   12  C   UNL     1     -10.692  15.815  65.134  1.00  0.00    -0.435 C  
BRANCH  12  13
HETATM   13  N   UNL     1      -9.716  16.792  65.617  1.00  0.00    -0.553 NA 
HETATM   14  H   UNL     1      -9.242  17.259  64.844  1.00  0.00     0.000 HD 
BRANCH  13  15
HETATM   15  C   UNL     1     -10.332  17.763  66.536  1.00  0.00    -0.345 C  
BRANCH  15  16
HETATM   16  C   UNL     1      -9.474  18.070  67.773  1.00  0.00    -0.264 C  
BRANCH  16  17
HETATM   17  C   UNL     1      -9.075  16.836  68.522  1.00  0.00    -0.241 A  
HETATM   18  C   UNL     1      -9.869  16.053  69.344  1.00  0.00    -0.254 A  
HETATM   19  N   UNL     1      -9.074  15.060  69.864  1.00  0.00    -0.427 NA 
HETATM   20  C   UNL     1     -11.306  16.140  69.711  1.00  0.00    -0.323 C  
HETATM   21  H   UNL     1      -9.394  14.340  70.512  1.00  0.00     0.000 HD 
HETATM   22  C   UNL     1      -7.790  15.169  69.392  1.00  0.00    -0.208 A  
HETATM   23  C   UNL     1      -6.661  14.387  69.664  1.00  0.00    -0.147 A  
HETATM   24  C   UNL     1      -5.465  14.730  69.027  1.00  0.00    -0.093 A  
HETATM   25  C   UNL     1      -5.404  15.813  68.152  1.00  0.00    -0.118 A  
HETATM   26  C   UNL     1      -6.540  16.589  67.900  1.00  0.00    -0.155 A  
HETATM   27  C   UNL     1      -7.759  16.264  68.533  1.00  0.00    -0.189 A  
ENDBRANCH  16  17
ENDBRANCH  15  16
ENDBRANCH  13  15
ENDBRANCH  12  13
ENDBRANCH  10  12
ENDBRANCH   2   6
BRANCH   3  28
HETATM   28  N   UNL     1     -11.176   9.280  70.792  1.00  0.00    -0.268 NA 
HETATM   29  H   UNL     1     -10.212   9.281  71.127  1.00  0.00     0.000 HD 
HETATM   30  O   UNL     1     -11.839   8.148  70.294  1.00  0.00    -0.474 OA 
HETATM   31  H   UNL     1     -11.276   7.384  70.309  1.00  0.00     0.000 HD 
ENDBRANCH   3  28
TORSDOF 7
ENDMDL
MODEL       46
REMARK 921   NORMALIZED FREE ENERGY PREDICTED BY IDOCK:   -5.41 KCAL/MOL
REMARK 922        TOTAL FREE ENERGY PREDICTED BY IDOCK:  -10.25 KCAL/MOL
REMARK 923 INTER-LIGAND FREE ENERGY PREDICTED BY IDOCK:   -8.74 KCAL/MOL
REMARK 924 INTRA-LIGAND FREE ENERGY PREDICTED BY IDOCK:   -1.51 KCAL/MOL
REMARK 927      BINDING AFFINITY PREDICTED BY RF-SCORE:    0.00 PKD
ROOT
HETATM    1  C   UNL     1     -10.855  13.088  66.041  1.00  0.00    -0.290 C  
HETATM    2  C   UNL     1     -11.315  11.836  66.185  1.00  0.00    -0.342 C  
HETATM    3  C   UNL     1     -11.171  13.825  64.813  1.00  0.00    -0.366 C  
HETATM    4  H   UNL     1     -11.423  15.637  64.215  1.00  0.00     0.000 HD 
HETATM    5  O   UNL     1     -11.219  15.159  65.011  1.00  0.00    -0.376 OA 
ENDROOT
BRANCH   2   6
HETATM    6  C   UNL     1     -11.040  11.079  67.401  1.00  0.00    -0.370 A  
HETATM    7  C   UNL     1      -9.938  10.223  67.466  1.00  0.00    -0.226 A  
HETATM    8  C   UNL     1      -9.617   9.587  68.667  1.00  0.00    -0.151 A  
HETATM    9  C   UNL     1     -11.847  11.261  68.526  1.00  0.00    -0.355 A  
HETATM   10  C   UNL     1     -10.393   9.804  69.813  1.00  0.00    -0.274 A  
HETATM   11  C   UNL     1     -11.524  10.629  69.726  1.00  0.00    -0.375 A  
BRANCH  10  12
HETATM   12  C   UNL     1      -9.941   9.268  71.149  1.00  0.00    -0.286 C  
BRANCH  12  13
HETATM   13  N   UNL     1     -11.060   8.980  72.047  1.00  0.00    -0.355 NA 
HETATM   14  H   UNL     1     -11.957   9.153  71.593  1.00  0.00     0.000 HD 
BRANCH  13  15
HETATM   15  C   UNL     1     -10.984   7.610  72.583  1.00  0.00    -0.351 C  
BRANCH  15  16
HETATM   16  C   UNL     1     -11.799   6.588  71.777  1.00  0.00    -0.384 C  
BRANCH  16  17
HETATM   17  C   UNL     1     -10.937   5.661  70.977  1.00  0.00    -0.247 A  
HETATM   18  C   UNL     1     -10.155   4.618  71.446  1.00  0.00    -0.178 A  
HETATM   19  N   UNL     1      -9.494   4.078  70.369  1.00  0.00    -0.165 NA 
HETATM   20  C   UNL     1      -9.944   4.072  72.812  1.00  0.00    -0.206 C  
HETATM   21  H   UNL     1      -8.839   3.298  70.421  1.00  0.00     0.000 HD 
HETATM   22  C   UNL     1      -9.836   4.732  69.212  1.00  0.00    -0.199 A  
HETATM   23  C   UNL     1      -9.400   4.525  67.898  1.00  0.00    -0.178 A  
HETATM   24  C   UNL     1      -9.930   5.350  66.901  1.00  0.00    -0.209 A  
HETATM   25  C   UNL     1     -10.860   6.340  67.209  1.00  0.00    -0.457 A  
HETATM   26  C   UNL     1     -11.277   6.539  68.530  1.00  0.00    -0.287 A  
HETATM   27  C   UNL     1     -10.754   5.721  69.555  1.00  0.00    -0.408 A  
ENDBRANCH  16  17
ENDBRANCH  15  16
ENDBRANCH  13  15
ENDBRANCH  12  13
ENDBRANCH  10  12
ENDBRANCH   2   6
BRANCH   3  28
HETATM   28  N   UNL     1     -11.380  13.279  63.659  1.00  0.00    -0.605 NA 
HETATM   29  H   UNL     1     -10.819  12.520  63.271  1.00  0.00     0.000 HD 
HETATM   30  O   UNL     1     -12.477  13.865  63.009  1.00  0.00    -1.099 OA 
HETATM   31  H   UNL     1     -12.630  13.463  62.161  1.00  0.00     0.000 HD 
ENDBRANCH   3  28
TORSDOF 7
ENDMDL
MODEL       47
REMARK 921   NORMALIZED FREE ENERGY PREDICTED BY IDOCK:   -5.40 KCAL/MOL
REMARK 922        TOTAL FREE ENERGY PREDICTED BY IDOCK:  -10.25 KCAL/MOL
REMARK 923 INTER-LIGAND FREE ENERGY PREDICTED BY IDOCK:   -7.58 KCAL/MOL
REMARK 924 INTRA-LIGAND FREE ENERGY PREDICTED BY IDOCK:   -2.66 KCAL/MOL
REMARK 927      BINDING AFFINITY PREDICTED BY RF-SCORE:    0.00 PKD
ROOT
HETATM    1  C   UNL     1      -6.850  18.357  68.921  1.00  0.00    -0.278 C  
HETATM    2  C   UNL     1      -8.091  18.711  68.555  1.00  0.00    -0.370 C  
HETATM    3  C   UNL     1      -6.208  19.061  70.036  1.00  0.00    -0.151 C  
HETATM    4  H   UNL     1      -4.901  18.744  71.412  1.00  0.00     0.000 HD 
HETATM    5  O   UNL     1      -5.317  18.287  70.689  1.00  0.00    -0.245 OA 
ENDROOT
BRANCH   2   6
HETATM    6  C   UNL     1      -8.770  18.020  67.465  1.00  0.00    -0.248 A  
HETATM    7  C   UNL     1      -8.237  16.843  66.933  1.00  0.00    -0.245 A  
HETATM    8  C   UNL     1      -8.948  16.128  65.967  1.00  0.00    -0.334 A  
HETATM    9  C   UNL     1      -9.993  18.505  66.996  1.00  0.00    -0.365 A  
HETATM   10  C   UNL     1     -10.199  16.581  65.528  1.00  0.00    -0.261 A  
HETATM   11  C   UNL     1     -10.705  17.788  66.033  1.00  0.00    -0.119 A  
BRANCH  10  12
HETATM   12  C   UNL     1     -11.047  15.718  64.627  1.00  0.00    -0.361 C  
BRANCH  12  13
HETATM   13  N   UNL     1     -10.632  14.315  64.639  1.00  0.00    -0.576 NA 
HETATM   14  H   UNL     1      -9.883  14.153  65.312  1.00  0.00     0.000 HD 
BRANCH  13  15
HETATM   15  C   UNL     1     -11.773  13.415  64.878  1.00  0.00    -0.351 C  
BRANCH  15  16
HETATM   16  C   UNL     1     -11.544  12.423  66.028  1.00  0.00    -0.455 C  
BRANCH  16  17
HETATM   17  C   UNL     1     -10.627  12.961  67.084  1.00  0.00    -0.246 A  
HETATM   18  C   UNL     1      -9.367  12.497  67.425  1.00  0.00    -0.187 A  
HETATM   19  N   UNL     1      -8.920  13.253  68.482  1.00  0.00    -0.347 NA 
HETATM   20  C   UNL     1      -8.530  11.401  66.873  1.00  0.00    -0.157 C  
HETATM   21  H   UNL     1      -8.021  13.126  68.947  1.00  0.00     0.000 HD 
HETATM   22  C   UNL     1      -9.848  14.202  68.828  1.00  0.00    -0.167 A  
HETATM   23  C   UNL     1      -9.815  15.169  69.840  1.00  0.00    -0.072 A  
HETATM   24  C   UNL     1     -10.915  16.023  69.959  1.00  0.00    -0.365 A  
HETATM   25  C   UNL     1     -12.004  15.913  69.098  1.00  0.00    -0.268 A  
HETATM   26  C   UNL     1     -12.024  14.935  68.097  1.00  0.00    -0.234 A  
HETATM   27  C   UNL     1     -10.926  14.059  67.958  1.00  0.00    -0.266 A  
ENDBRANCH  16  17
ENDBRANCH  15  16
ENDBRANCH  13  15
ENDBRANCH  12  13
ENDBRANCH  10  12
ENDBRANCH   2   6
BRANCH   3  28
HETATM   28  N   UNL     1      -6.451  20.288  70.370  1.00  0.00    -0.400 NA 
HETATM   29  H   UNL     1      -7.367  20.733  70.302  1.00  0.00     0.000 HD 
HETATM   30  O   UNL     1      -5.293  20.927  70.837  1.00  0.00    -0.515 OA 
HETATM   31  H   UNL     1      -5.471  21.828  71.082  1.00  0.00     0.000 HD 
ENDBRANCH   3  28
TORSDOF 7
ENDMDL
MODEL       48
REMARK 921   NORMALIZED FREE ENERGY PREDICTED BY IDOCK:   -5.40 KCAL/MOL
REMARK 922        TOTAL FREE ENERGY PREDICTED BY IDOCK:  -10.23 KCAL/MOL
REMARK 923 INTER-LIGAND FREE ENERGY PREDICTED BY IDOCK:   -9.30 KCAL/MOL
REMARK 924 INTRA-LIGAND FREE ENERGY PREDICTED BY IDOCK:   -0.93 KCAL/MOL
REMARK 927      BINDING AFFINITY PREDICTED BY RF-SCORE:    0.00 PKD
ROOT
HETATM    1  C   UNL     1     -10.628   6.681  67.911  1.00  0.00    -0.305 C  
HETATM    2  C   UNL     1     -10.231   7.833  67.350  1.00  0.00    -0.320 C  
HETATM    3  C   UNL     1     -10.263   5.414  67.269  1.00  0.00    -0.214 C  
HETATM    4  H   UNL     1      -9.915   3.581  67.738  1.00  0.00     0.000 HD 
HETATM    5  O   UNL     1     -10.151   4.402  68.154  1.00  0.00    -0.051 OA 
ENDROOT
BRANCH   2   6
HETATM    6  C   UNL     1     -10.556   9.112  67.970  1.00  0.00    -0.253 A  
HETATM    7  C   UNL     1     -10.866  10.222  67.180  1.00  0.00    -0.278 A  
HETATM    8  C   UNL     1     -11.283  11.413  67.780  1.00  0.00    -0.346 A  
HETATM    9  C   UNL     1     -10.619   9.209  69.361  1.00  0.00    -0.232 A  
HETATM   10  C   UNL     1     -11.398  11.501  69.174  1.00  0.00    -0.351 A  
HETATM   11  C   UNL     1     -11.040  10.396  69.960  1.00  0.00    -0.379 A  
BRANCH  10  12
HETATM   12  C   UNL     1     -12.023  12.718  69.809  1.00  0.00    -0.292 C  
BRANCH  12  13
HETATM   13  N   UNL     1     -11.913  13.911  68.968  1.00  0.00    -0.353 NA 
HETATM   14  H   UNL     1     -12.813  14.381  68.868  1.00  0.00     0.000 HD 
BRANCH  13  15
HETATM   15  C   UNL     1     -10.878  14.831  69.469  1.00  0.00    -0.250 C  
BRANCH  15  16
HETATM   16  C   UNL     1      -9.698  15.014  68.503  1.00  0.00    -0.217 C  
BRANCH  16  17
HETATM   17  C   UNL     1     -10.000  15.971  67.392  1.00  0.00    -0.241 A  
HETATM   18  C   UNL     1     -10.236  15.673  66.059  1.00  0.00    -0.335 A  
HETATM   19  N   UNL     1     -10.411  16.862  65.393  1.00  0.00    -0.642 NA 
HETATM   20  C   UNL     1     -10.302  14.381  65.329  1.00  0.00    -0.427 C  
HETATM   21  H   UNL     1     -10.593  16.945  64.393  1.00  0.00     0.000 HD 
HETATM   22  C   UNL     1     -10.310  17.923  66.258  1.00  0.00    -0.364 A  
HETATM   23  C   UNL     1     -10.410  19.298  66.013  1.00  0.00    -0.556 A  
HETATM   24  C   UNL     1     -10.269  20.163  67.102  1.00  0.00    -0.554 A  
HETATM   25  C   UNL     1     -10.040  19.670  68.384  1.00  0.00    -0.557 A  
HETATM   26  C   UNL     1      -9.934  18.293  68.609  1.00  0.00    -0.410 A  
HETATM   27  C   UNL     1     -10.070  17.399  67.525  1.00  0.00    -0.322 A  
ENDBRANCH  16  17
ENDBRANCH  15  16
ENDBRANCH  13  15
ENDBRANCH  12  13
ENDBRANCH  10  12
ENDBRANCH   2   6
BRANCH   3  28
HETATM   28  N   UNL     1     -10.069   5.260  65.999  1.00  0.00    -0.348 NA 
HETATM   29  H   UNL     1      -9.345   5.741  65.464  1.00  0.00     0.000 HD 
HETATM   30  O   UNL     1     -10.983   4.348  65.451  1.00  0.00    -0.704 OA 
HETATM   31  H   UNL     1     -10.841   4.235  64.518  1.00  0.00     0.000 HD 
ENDBRANCH   3  28
TORSDOF 7
ENDMDL
MODEL       49
REMARK 921   NORMALIZED FREE ENERGY PREDICTED BY IDOCK:   -5.38 KCAL/MOL
REMARK 922        TOTAL FREE ENERGY PREDICTED BY IDOCK:  -10.21 KCAL/MOL
REMARK 923 INTER-LIGAND FREE ENERGY PREDICTED BY IDOCK:  -10.27 KCAL/MOL
REMARK 924 INTRA-LIGAND FREE ENERGY PREDICTED BY IDOCK:    0.05 KCAL/MOL
REMARK 927      BINDING AFFINITY PREDICTED BY RF-SCORE:    0.00 PKD
ROOT
HETATM    1  C   UNL     1     -10.525  14.679  65.314  1.00  0.00    -0.420 C  
HETATM    2  C   UNL     1     -11.375  13.654  65.157  1.00  0.00    -0.319 C  
HETATM    3  C   UNL     1     -10.919  16.010  64.838  1.00  0.00    -0.384 C  
HETATM    4  H   UNL     1     -10.598  17.864  65.240  1.00  0.00     0.000 HD 
HETATM    5  O   UNL     1     -10.343  17.002  65.548  1.00  0.00    -0.585 OA 
ENDROOT
BRANCH   2   6
HETATM    6  C   UNL     1     -11.028  12.321  65.636  1.00  0.00    -0.338 A  
HETATM    7  C   UNL     1     -10.211  11.485  64.870  1.00  0.00    -0.324 A  
HETATM    8  C   UNL     1      -9.793  10.255  65.384  1.00  0.00    -0.362 A  
HETATM    9  C   UNL     1     -11.463  11.905  66.896  1.00  0.00    -0.390 A  
HETATM   10  C   UNL     1     -10.184   9.853  66.668  1.00  0.00    -0.293 A  
HETATM   11  C   UNL     1     -11.042  10.678  67.410  1.00  0.00    -0.341 A  
BRANCH  10  12
HETATM   12  C   UNL     1      -9.586   8.618  67.294  1.00  0.00    -0.167 C  
BRANCH  12  13
HETATM   13  N   UNL     1      -8.220   8.835  67.773  1.00  0.00    -0.110 NA 
HETATM   14  H   UNL     1      -7.943   9.812  67.679  1.00  0.00     0.000 HD 
BRANCH  13  15
HETATM   15  C   UNL     1      -8.050   8.359  69.156  1.00  0.00    -0.119 C  
BRANCH  15  16
HETATM   16  C   UNL     1      -8.462   9.391  70.217  1.00  0.00    -0.237 C  
BRANCH  16  17
HETATM   17  C   UNL     1      -9.451   8.847  71.201  1.00  0.00    -0.335 A  
HETATM   18  C   UNL     1      -9.255   7.831  72.123  1.00  0.00    -0.149 A  
HETATM   19  N   UNL     1     -10.447   7.627  72.775  1.00  0.00    -0.280 NA 
HETATM   20  C   UNL     1      -8.062   7.009  72.455  1.00  0.00    -0.107 C  
HETATM   21  H   UNL     1     -10.598   6.929  73.503  1.00  0.00     0.000 HD 
HETATM   22  C   UNL     1     -11.408   8.491  72.313  1.00  0.00    -0.371 A  
HETATM   23  C   UNL     1     -12.751   8.627  72.682  1.00  0.00    -0.268 A  
HETATM   24  C   UNL     1     -13.505   9.612  72.039  1.00  0.00    -0.514 A  
HETATM   25  C   UNL     1     -12.935  10.430  71.065  1.00  0.00    -0.490 A  
HETATM   26  C   UNL     1     -11.593  10.274  70.703  1.00  0.00    -0.435 A  
HETATM   27  C   UNL     1     -10.811   9.284  71.336  1.00  0.00    -0.434 A  
ENDBRANCH  16  17
ENDBRANCH  15  16
ENDBRANCH  13  15
ENDBRANCH  12  13
ENDBRANCH  10  12
ENDBRANCH   2   6
BRANCH   3  28
HETATM   28  N   UNL     1     -11.722  16.230  63.848  1.00  0.00    -1.518 NA 
HETATM   29  H   UNL     1     -11.680  17.051  63.243  1.00  0.00     0.000 HD 
HETATM   30  O   UNL     1     -12.659  15.195  63.712  1.00  0.00    -0.982 OA 
HETATM   31  H   UNL     1     -13.249  15.357  62.985  1.00  0.00     0.000 HD 
ENDBRANCH   3  28
TORSDOF 7
ENDMDL
MODEL       50
REMARK 921   NORMALIZED FREE ENERGY PREDICTED BY IDOCK:   -5.36 KCAL/MOL
REMARK 922        TOTAL FREE ENERGY PREDICTED BY IDOCK:  -10.18 KCAL/MOL
REMARK 923 INTER-LIGAND FREE ENERGY PREDICTED BY IDOCK:   -9.01 KCAL/MOL
REMARK 924 INTRA-LIGAND FREE ENERGY PREDICTED BY IDOCK:   -1.17 KCAL/MOL
REMARK 927      BINDING AFFINITY PREDICTED BY RF-SCORE:    0.00 PKD
ROOT
HETATM    1  C   UNL     1     -12.146   9.943  70.805  1.00  0.00    -0.396 C  
HETATM    2  C   UNL     1     -11.033   9.195  70.763  1.00  0.00    -0.332 C  
HETATM    3  C   UNL     1     -12.970   9.928  72.018  1.00  0.00    -0.423 C  
HETATM    4  H   UNL     1     -14.174  11.074  72.986  1.00  0.00     0.000 HD 
HETATM    5  O   UNL     1     -13.640  11.085  72.200  1.00  0.00    -0.283 OA 
ENDROOT
BRANCH   2   6
HETATM    6  C   UNL     1     -10.177   9.200  69.583  1.00  0.00    -0.211 A  
HETATM    7  C   UNL     1     -10.342   8.236  68.586  1.00  0.00    -0.225 A  
HETATM    8  C   UNL     1      -9.594   8.313  67.408  1.00  0.00    -0.205 A  
HETATM    9  C   UNL     1      -9.231  10.215  69.421  1.00  0.00    -0.229 A  
HETATM   10  C   UNL     1      -8.679   9.357  67.217  1.00  0.00    -0.133 A  
HETATM   11  C   UNL     1      -8.488  10.294  68.243  1.00  0.00    -0.121 A  
BRANCH  10  12
HETATM   12  C   UNL     1      -8.011   9.546  65.878  1.00  0.00    -0.111 C  
BRANCH  12  13
HETATM   13  N   UNL     1      -8.302  10.851  65.283  1.00  0.00    -0.345 NA 
HETATM   14  H   UNL     1      -7.614  11.099  64.572  1.00  0.00     0.000 HD 
BRANCH  13  15
HETATM   15  C   UNL     1      -9.673  10.907  64.747  1.00  0.00    -0.271 C  
BRANCH  15  16
HETATM   16  C   UNL     1     -10.669  11.613  65.680  1.00  0.00    -0.330 C  
BRANCH  16  17
HETATM   17  C   UNL     1     -10.785  13.080  65.401  1.00  0.00    -0.309 A  
HETATM   18  C   UNL     1     -11.516  13.694  64.397  1.00  0.00    -0.386 A  
HETATM   19  N   UNL     1     -11.285  15.046  64.484  1.00  0.00    -0.640 NA 
HETATM   20  C   UNL     1     -12.408  13.147  63.342  1.00  0.00    -0.443 C  
HETATM   21  H   UNL     1     -11.689  15.745  63.861  1.00  0.00     0.000 HD 
HETATM   22  C   UNL     1     -10.436  15.327  65.525  1.00  0.00    -0.374 A  
HETATM   23  C   UNL     1      -9.929  16.555  65.967  1.00  0.00    -0.359 A  
HETATM   24  C   UNL     1      -9.076  16.544  67.075  1.00  0.00    -0.228 A  
HETATM   25  C   UNL     1      -8.746  15.351  67.714  1.00  0.00    -0.167 A  
HETATM   26  C   UNL     1      -9.255  14.133  67.252  1.00  0.00    -0.222 A  
HETATM   27  C   UNL     1     -10.117  14.117  66.134  1.00  0.00    -0.324 A  
ENDBRANCH  16  17
ENDBRANCH  15  16
ENDBRANCH  13  15
ENDBRANCH  12  13
ENDBRANCH  10  12
ENDBRANCH   2   6
BRANCH   3  28
HETATM   28  N   UNL     1     -13.062   8.927  72.833  1.00  0.00    -0.749 NA 
HETATM   29  H   UNL     1     -12.308   8.264  73.019  1.00  0.00     0.000 HD 
HETATM   30  O   UNL     1     -14.330   8.871  73.430  1.00  0.00    -1.192 OA 
HETATM   31  H   UNL     1     -14.397   8.136  74.029  1.00  0.00     0.000 HD 
ENDBRANCH   3  28
TORSDOF 7
ENDMDL
MODEL       51
REMARK 921   NORMALIZED FREE ENERGY PREDICTED BY IDOCK:   -5.35 KCAL/MOL
REMARK 922        TOTAL FREE ENERGY PREDICTED BY IDOCK:  -10.17 KCAL/MOL
REMARK 923 INTER-LIGAND FREE ENERGY PREDICTED BY IDOCK:   -8.95 KCAL/MOL
REMARK 924 INTRA-LIGAND FREE ENERGY PREDICTED BY IDOCK:   -1.21 KCAL/MOL
REMARK 927      BINDING AFFINITY PREDICTED BY RF-SCORE:    0.00 PKD
ROOT
HETATM    1  C   UNL     1     -10.566  13.427  66.250  1.00  0.00    -0.292 C  
HETATM    2  C   UNL     1     -10.673  12.307  65.519  1.00  0.00    -0.314 C  
HETATM    3  C   UNL     1     -10.900  14.714  65.631  1.00  0.00    -0.331 C  
HETATM    4  H   UNL     1     -11.563  16.450  66.129  1.00  0.00     0.000 HD 
HETATM    5  O   UNL     1     -11.347  15.616  66.530  1.00  0.00    -0.128 OA 
ENDROOT
BRANCH   2   6
HETATM    6  C   UNL     1     -10.370  11.006  66.104  1.00  0.00    -0.306 A  
HETATM    7  C   UNL     1     -10.996  10.600  67.286  1.00  0.00    -0.348 A  
HETATM    8  C   UNL     1     -10.785   9.310  67.781  1.00  0.00    -0.270 A  
HETATM    9  C   UNL     1      -9.498  10.138  65.445  1.00  0.00    -0.296 A  
HETATM   10  C   UNL     1      -9.950   8.417  67.096  1.00  0.00    -0.304 A  
HETATM   11  C   UNL     1      -9.290   8.849  65.937  1.00  0.00    -0.301 A  
BRANCH  10  12
HETATM   12  C   UNL     1      -9.869   6.973  67.525  1.00  0.00    -0.148 C  
BRANCH  12  13
HETATM   13  N   UNL     1     -10.980   6.580  68.393  1.00  0.00    -0.417 NA 
HETATM   14  H   UNL     1     -11.798   6.303  67.850  1.00  0.00     0.000 HD 
BRANCH  13  15
HETATM   15  C   UNL     1     -10.580   5.526  69.340  1.00  0.00    -0.279 C  
BRANCH  15  16
HETATM   16  C   UNL     1     -10.047   6.068  70.675  1.00  0.00    -0.246 C  
BRANCH  16  17
HETATM   17  C   UNL     1     -10.557   7.441  70.988  1.00  0.00    -0.234 A  
HETATM   18  C   UNL     1      -9.837   8.625  71.008  1.00  0.00    -0.210 A  
HETATM   19  N   UNL     1     -10.694   9.625  71.400  1.00  0.00    -0.276 NA 
HETATM   20  C   UNL     1      -8.413   8.926  70.710  1.00  0.00    -0.216 C  
HETATM   21  H   UNL     1     -10.432  10.604  71.512  1.00  0.00     0.000 HD 
HETATM   22  C   UNL     1     -11.953   9.126  71.622  1.00  0.00    -0.367 A  
HETATM   23  C   UNL     1     -13.120   9.777  72.039  1.00  0.00    -0.546 A  
HETATM   24  C   UNL     1     -14.279   9.008  72.177  1.00  0.00    -0.409 A  
HETATM   25  C   UNL     1     -14.269   7.641  71.906  1.00  0.00    -0.492 A  
HETATM   26  C   UNL     1     -13.091   7.006  71.499  1.00  0.00    -0.395 A  
HETATM   27  C   UNL     1     -11.907   7.760  71.355  1.00  0.00    -0.324 A  
ENDBRANCH  16  17
ENDBRANCH  15  16
ENDBRANCH  13  15
ENDBRANCH  12  13
ENDBRANCH  10  12
ENDBRANCH   2   6
BRANCH   3  28
HETATM   28  N   UNL     1     -10.784  14.978  64.370  1.00  0.00    -0.530 NA 
HETATM   29  H   UNL     1      -9.928  14.844  63.830  1.00  0.00     0.000 HD 
HETATM   30  O   UNL     1     -11.984  15.473  63.839  1.00  0.00    -0.974 OA 
HETATM   31  H   UNL     1     -11.898  15.667  62.913  1.00  0.00     0.000 HD 
ENDBRANCH   3  28
TORSDOF 7
ENDMDL
MODEL       52
REMARK 921   NORMALIZED FREE ENERGY PREDICTED BY IDOCK:   -5.35 KCAL/MOL
REMARK 922        TOTAL FREE ENERGY PREDICTED BY IDOCK:  -10.17 KCAL/MOL
REMARK 923 INTER-LIGAND FREE ENERGY PREDICTED BY IDOCK:   -7.64 KCAL/MOL
REMARK 924 INTRA-LIGAND FREE ENERGY PREDICTED BY IDOCK:   -2.53 KCAL/MOL
REMARK 927      BINDING AFFINITY PREDICTED BY RF-SCORE:    0.00 PKD
ROOT
HETATM    1  C   UNL     1      -9.959   9.809  66.447  1.00  0.00    -0.314 C  
HETATM    2  C   UNL     1     -11.157  10.366  66.216  1.00  0.00     0.215 C  
HETATM    3  C   UNL     1      -9.897   8.417  66.906  1.00  0.00    -0.245 C  
HETATM    4  H   UNL     1      -8.720   6.897  66.823  1.00  0.00     0.000 HD 
HETATM    5  O   UNL     1      -8.760   7.799  66.525  1.00  0.00    -0.134 OA 
ENDROOT
BRANCH   2   6
HETATM    6  C   UNL     1     -11.258  11.739  65.738  1.00  0.00    -0.337 A  
HETATM    7  C   UNL     1     -12.213  12.606  66.275  1.00  0.00    -0.225 A  
HETATM    8  C   UNL     1     -12.231  13.950  65.892  1.00  0.00    -0.497 A  
HETATM    9  C   UNL     1     -10.352  12.207  64.783  1.00  0.00    -0.320 A  
HETATM   10  C   UNL     1     -11.293  14.437  64.973  1.00  0.00    -0.373 A  
HETATM   11  C   UNL     1     -10.368  13.549  64.404  1.00  0.00    -0.306 A  
BRANCH  10  12
HETATM   12  C   UNL     1     -11.193  15.918  64.701  1.00  0.00    -0.351 C  
BRANCH  12  13
HETATM   13  N   UNL     1     -10.580  16.653  65.808  1.00  0.00    -0.345 NA 
HETATM   14  H   UNL     1     -11.172  16.640  66.639  1.00  0.00     0.000 HD 
BRANCH  13  15
HETATM   15  C   UNL     1      -9.226  16.155  66.104  1.00  0.00    -0.347 C  
BRANCH  15  16
HETATM   16  C   UNL     1      -8.919  16.063  67.606  1.00  0.00    -0.193 C  
BRANCH  16  17
HETATM   17  C   UNL     1      -9.461  14.816  68.234  1.00  0.00    -0.207 A  
HETATM   18  C   UNL     1      -8.978  13.523  68.098  1.00  0.00    -0.187 A  
HETATM   19  N   UNL     1      -9.817  12.693  68.801  1.00  0.00    -0.421 NA 
HETATM   20  C   UNL     1      -7.812  12.972  67.361  1.00  0.00    -0.166 C  
HETATM   21  H   UNL     1      -9.708  11.681  68.869  1.00  0.00     0.000 HD 
HETATM   22  C   UNL     1     -10.821  13.410  69.401  1.00  0.00     0.043 A  
HETATM   23  C   UNL     1     -11.889  12.975  70.196  1.00  0.00    -0.324 A  
HETATM   24  C   UNL     1     -12.770  13.943  70.686  1.00  0.00    -0.351 A  
HETATM   25  C   UNL     1     -12.587  15.292  70.392  1.00  0.00    -0.421 A  
HETATM   26  C   UNL     1     -11.520  15.708  69.589  1.00  0.00    -0.345 A  
HETATM   27  C   UNL     1     -10.618  14.749  69.080  1.00  0.00    -0.248 A  
ENDBRANCH  16  17
ENDBRANCH  15  16
ENDBRANCH  13  15
ENDBRANCH  12  13
ENDBRANCH  10  12
ENDBRANCH   2   6
BRANCH   3  28
HETATM   28  N   UNL     1     -10.816   7.830  67.603  1.00  0.00    -0.506 NA 
HETATM   29  H   UNL     1     -11.094   8.113  68.544  1.00  0.00     0.000 HD 
HETATM   30  O   UNL     1     -11.381   6.756  66.901  1.00  0.00    -0.731 OA 
HETATM   31  H   UNL     1     -12.055   6.325  67.413  1.00  0.00     0.000 HD 
ENDBRANCH   3  28
TORSDOF 7
ENDMDL
MODEL       53
REMARK 921   NORMALIZED FREE ENERGY PREDICTED BY IDOCK:   -5.34 KCAL/MOL
REMARK 922        TOTAL FREE ENERGY PREDICTED BY IDOCK:  -10.15 KCAL/MOL
REMARK 923 INTER-LIGAND FREE ENERGY PREDICTED BY IDOCK:   -7.09 KCAL/MOL
REMARK 924 INTRA-LIGAND FREE ENERGY PREDICTED BY IDOCK:   -3.06 KCAL/MOL
REMARK 927      BINDING AFFINITY PREDICTED BY RF-SCORE:    0.00 PKD
ROOT
HETATM    1  C   UNL     1     -10.097   5.234  71.193  1.00  0.00    -0.284 C  
HETATM    2  C   UNL     1     -10.891   5.804  70.274  1.00  0.00    -0.373 C  
HETATM    3  C   UNL     1     -10.687   4.771  72.454  1.00  0.00    -0.149 C  
HETATM    4  H   UNL     1     -10.394   3.432  73.804  1.00  0.00     0.000 HD 
HETATM    5  O   UNL     1     -10.011   3.732  72.987  1.00  0.00    -0.129 OA 
ENDROOT
BRANCH   2   6
HETATM    6  C   UNL     1     -10.345   6.259  69.000  1.00  0.00    -0.251 A  
HETATM    7  C   UNL     1     -11.180   6.825  68.035  1.00  0.00    -0.159 A  
HETATM    8  C   UNL     1     -10.635   7.358  66.864  1.00  0.00    -0.375 A  
HETATM    9  C   UNL     1      -8.969   6.184  68.773  1.00  0.00    -0.123 A  
HETATM   10  C   UNL     1      -9.250   7.332  66.652  1.00  0.00    -0.193 A  
HETATM   11  C   UNL     1      -8.424   6.720  67.606  1.00  0.00    -0.122 A  
BRANCH  10  12
HETATM   12  C   UNL     1      -8.647   8.070  65.482  1.00  0.00    -0.135 C  
BRANCH  12  13
HETATM   13  N   UNL     1      -8.952   9.501  65.501  1.00  0.00    -0.179 NA 
HETATM   14  H   UNL     1      -9.895   9.676  65.850  1.00  0.00     0.000 HD 
BRANCH  13  15
HETATM   15  C   UNL     1      -7.946  10.259  66.262  1.00  0.00    -0.124 C  
BRANCH  15  16
HETATM   16  C   UNL     1      -8.530  11.450  67.038  1.00  0.00    -0.159 C  
BRANCH  16  17
HETATM   17  C   UNL     1      -9.789  11.102  67.771  1.00  0.00    -0.186 A  
HETATM   18  C   UNL     1     -11.089  11.438  67.425  1.00  0.00    -0.289 A  
HETATM   19  N   UNL     1     -11.916  10.961  68.412  1.00  0.00    -0.779 NA 
HETATM   20  C   UNL     1     -11.646  12.178  66.263  1.00  0.00    -0.424 C  
HETATM   21  H   UNL     1     -12.930  11.072  68.423  1.00  0.00     0.000 HD 
HETATM   22  C   UNL     1     -11.193  10.313  69.382  1.00  0.00    -0.239 A  
HETATM   23  C   UNL     1     -11.621   9.691  70.561  1.00  0.00    -0.341 A  
HETATM   24  C   UNL     1     -10.649   9.095  71.371  1.00  0.00    -0.412 A  
HETATM   25  C   UNL     1      -9.304   9.123  71.013  1.00  0.00    -0.333 A  
HETATM   26  C   UNL     1      -8.893   9.758  69.836  1.00  0.00    -0.248 A  
HETATM   27  C   UNL     1      -9.855  10.368  69.002  1.00  0.00    -0.222 A  
ENDBRANCH  16  17
ENDBRANCH  15  16
ENDBRANCH  13  15
ENDBRANCH  12  13
ENDBRANCH  10  12
ENDBRANCH   2   6
BRANCH   3  28
HETATM   28  N   UNL     1     -11.735   5.288  73.011  1.00  0.00    -0.504 NA 
HETATM   29  H   UNL     1     -12.642   4.824  73.072  1.00  0.00     0.000 HD 
HETATM   30  O   UNL     1     -11.463   6.566  73.520  1.00  0.00    -0.361 OA 
HETATM   31  H   UNL     1     -12.232   6.945  73.929  1.00  0.00     0.000 HD 
ENDBRANCH   3  28
TORSDOF 7
ENDMDL
MODEL       54
REMARK 921   NORMALIZED FREE ENERGY PREDICTED BY IDOCK:   -5.33 KCAL/MOL
REMARK 922        TOTAL FREE ENERGY PREDICTED BY IDOCK:  -10.14 KCAL/MOL
REMARK 923 INTER-LIGAND FREE ENERGY PREDICTED BY IDOCK:   -7.76 KCAL/MOL
REMARK 924 INTRA-LIGAND FREE ENERGY PREDICTED BY IDOCK:   -2.39 KCAL/MOL
REMARK 927      BINDING AFFINITY PREDICTED BY RF-SCORE:    0.00 PKD
ROOT
HETATM    1  C   UNL     1     -10.347   7.883  67.800  1.00  0.00    -0.289 C  
HETATM    2  C   UNL     1      -9.701   8.527  66.816  1.00  0.00    -0.303 C  
HETATM    3  C   UNL     1     -10.964   6.583  67.514  1.00  0.00    -0.359 C  
HETATM    4  H   UNL     1     -11.420   4.948  68.419  1.00  0.00     0.000 HD 
HETATM    5  O   UNL     1     -11.019   5.789  68.604  1.00  0.00    -0.258 OA 
ENDROOT
BRANCH   2   6
HETATM    6  C   UNL     1      -9.056   9.810  67.066  1.00  0.00    -0.157 A  
HETATM    7  C   UNL     1      -8.942  10.756  66.044  1.00  0.00    -0.196 A  
HETATM    8  C   UNL     1      -8.424  12.024  66.318  1.00  0.00     0.086 A  
HETATM    9  C   UNL     1      -8.608  10.119  68.352  1.00  0.00    -0.119 A  
HETATM   10  C   UNL     1      -8.019  12.357  67.618  1.00  0.00    -0.164 A  
HETATM   11  C   UNL     1      -8.094  11.386  68.627  1.00  0.00    -0.141 A  
BRANCH  10  12
HETATM   12  C   UNL     1      -7.636  13.777  67.953  1.00  0.00    -0.156 C  
BRANCH  12  13
HETATM   13  N   UNL     1      -8.694  14.736  67.632  1.00  0.00    -0.170 NA 
HETATM   14  H   UNL     1      -9.299  14.389  66.889  1.00  0.00     0.000 HD 
BRANCH  13  15
HETATM   15  C   UNL     1      -9.468  15.107  68.828  1.00  0.00    -0.209 C  
BRANCH  15  16
HETATM   16  C   UNL     1     -10.989  15.087  68.607  1.00  0.00    -0.261 C  
BRANCH  16  17
HETATM   17  C   UNL     1     -11.443  13.905  67.807  1.00  0.00    -0.354 A  
HETATM   18  C   UNL     1     -11.678  12.618  68.262  1.00  0.00    -0.342 A  
HETATM   19  N   UNL     1     -12.023  11.851  67.175  1.00  0.00    -0.603 NA 
HETATM   20  C   UNL     1     -11.602  12.015  69.618  1.00  0.00    -0.371 C  
HETATM   21  H   UNL     1     -12.243  10.856  67.213  1.00  0.00     0.000 HD 
HETATM   22  C   UNL     1     -12.031  12.608  66.030  1.00  0.00    -0.417 A  
HETATM   23  C   UNL     1     -12.312  12.239  64.709  1.00  0.00    -0.416 A  
HETATM   24  C   UNL     1     -12.250  13.236  63.730  1.00  0.00    -0.508 A  
HETATM   25  C   UNL     1     -11.922  14.548  64.063  1.00  0.00    -0.238 A  
HETATM   26  C   UNL     1     -11.636  14.896  65.387  1.00  0.00    -0.280 A  
HETATM   27  C   UNL     1     -11.689  13.907  66.394  1.00  0.00    -0.403 A  
ENDBRANCH  16  17
ENDBRANCH  15  16
ENDBRANCH  13  15
ENDBRANCH  12  13
ENDBRANCH  10  12
ENDBRANCH   2   6
BRANCH   3  28
HETATM   28  N   UNL     1     -11.416   6.220  66.357  1.00  0.00    -0.445 NA 
HETATM   29  H   UNL     1     -11.943   6.827  65.728  1.00  0.00     0.000 HD 
HETATM   30  O   UNL     1     -11.087   4.885  66.078  1.00  0.00    -0.685 OA 
HETATM   31  H   UNL     1     -11.419   4.619  65.228  1.00  0.00     0.000 HD 
ENDBRANCH   3  28
TORSDOF 7
ENDMDL
MODEL       55
REMARK 921   NORMALIZED FREE ENERGY PREDICTED BY IDOCK:   -5.32 KCAL/MOL
REMARK 922        TOTAL FREE ENERGY PREDICTED BY IDOCK:  -10.12 KCAL/MOL
REMARK 923 INTER-LIGAND FREE ENERGY PREDICTED BY IDOCK:   -7.40 KCAL/MOL
REMARK 924 INTRA-LIGAND FREE ENERGY PREDICTED BY IDOCK:   -2.72 KCAL/MOL
REMARK 927      BINDING AFFINITY PREDICTED BY RF-SCORE:    0.00 PKD
ROOT
HETATM    1  C   UNL     1     -11.820   9.869  71.391  1.00  0.00    -0.476 C  
HETATM    2  C   UNL     1     -11.069  10.352  70.390  1.00  0.00    -0.371 C  
HETATM    3  C   UNL     1     -13.039  10.589  71.778  1.00  0.00    -0.464 C  
HETATM    4  H   UNL     1     -14.767  10.236  72.546  1.00  0.00     0.000 HD 
HETATM    5  O   UNL     1     -13.978   9.770  72.295  1.00  0.00    -0.270 OA 
ENDROOT
BRANCH   2   6
HETATM    6  C   UNL     1      -9.863   9.654  69.963  1.00  0.00    -0.286 A  
HETATM    7  C   UNL     1      -9.099   8.933  70.885  1.00  0.00    -0.283 A  
HETATM    8  C   UNL     1      -8.008   8.176  70.450  1.00  0.00    -0.099 A  
HETATM    9  C   UNL     1      -9.505   9.655  68.613  1.00  0.00    -0.147 A  
HETATM   10  C   UNL     1      -7.675   8.132  69.089  1.00  0.00    -0.098 A  
HETATM   11  C   UNL     1      -8.418   8.896  68.178  1.00  0.00    -0.129 A  
BRANCH  10  12
HETATM   12  C   UNL     1      -6.619   7.174  68.597  1.00  0.00    -0.041 C  
BRANCH  12  13
HETATM   13  N   UNL     1      -6.971   5.774  68.839  1.00  0.00    -0.065 NA 
HETATM   14  H   UNL     1      -7.385   5.648  69.763  1.00  0.00     0.000 HD 
BRANCH  13  15
HETATM   15  C   UNL     1      -7.848   5.247  67.781  1.00  0.00    -0.092 C  
BRANCH  15  16
HETATM   16  C   UNL     1      -9.014   4.400  68.313  1.00  0.00    -0.149 C  
BRANCH  16  17
HETATM   17  C   UNL     1     -10.077   5.226  68.971  1.00  0.00    -0.272 A  
HETATM   18  C   UNL     1     -10.921   6.149  68.374  1.00  0.00    -0.305 A  
HETATM   19  N   UNL     1     -11.692   6.707  69.365  1.00  0.00    -0.648 NA 
HETATM   20  C   UNL     1     -11.077   6.582  66.961  1.00  0.00    -0.411 C  
HETATM   21  H   UNL     1     -12.398   7.427  69.214  1.00  0.00     0.000 HD 
HETATM   22  C   UNL     1     -11.382   6.163  70.586  1.00  0.00    -0.298 A  
HETATM   23  C   UNL     1     -11.907   6.439  71.855  1.00  0.00    -0.380 A  
HETATM   24  C   UNL     1     -11.400   5.715  72.938  1.00  0.00    -0.325 A  
HETATM   25  C   UNL     1     -10.409   4.753  72.757  1.00  0.00    -0.244 A  
HETATM   26  C   UNL     1      -9.891   4.497  71.483  1.00  0.00    -0.260 A  
HETATM   27  C   UNL     1     -10.384   5.216  70.373  1.00  0.00    -0.326 A  
ENDBRANCH  16  17
ENDBRANCH  15  16
ENDBRANCH  13  15
ENDBRANCH  12  13
ENDBRANCH  10  12
ENDBRANCH   2   6
BRANCH   3  28
HETATM   28  N   UNL     1     -13.213  11.865  71.650  1.00  0.00    -0.362 NA 
HETATM   29  H   UNL     1     -12.988  12.395  70.807  1.00  0.00     0.000 HD 
HETATM   30  O   UNL     1     -13.751  12.425  72.818  1.00  0.00    -0.604 OA 
HETATM   31  H   UNL     1     -13.879  13.362  72.723  1.00  0.00     0.000 HD 
ENDBRANCH   3  28
TORSDOF 7
ENDMDL
MODEL       56
REMARK 921   NORMALIZED FREE ENERGY PREDICTED BY IDOCK:   -5.31 KCAL/MOL
REMARK 922        TOTAL FREE ENERGY PREDICTED BY IDOCK:  -10.11 KCAL/MOL
REMARK 923 INTER-LIGAND FREE ENERGY PREDICTED BY IDOCK:   -9.53 KCAL/MOL
REMARK 924 INTRA-LIGAND FREE ENERGY PREDICTED BY IDOCK:   -0.58 KCAL/MOL
REMARK 927      BINDING AFFINITY PREDICTED BY RF-SCORE:    0.00 PKD
ROOT
HETATM    1  C   UNL     1     -10.156   4.957  66.711  1.00  0.00    -0.269 C  
HETATM    2  C   UNL     1     -10.906   6.059  66.861  1.00  0.00    -0.396 C  
HETATM    3  C   UNL     1     -10.228   4.213  65.449  1.00  0.00    -0.177 C  
HETATM    4  H   UNL     1      -9.127   3.082  64.349  1.00  0.00     0.000 HD 
HETATM    5  O   UNL     1      -9.079   3.565  65.167  1.00  0.00    -0.130 OA 
ENDROOT
BRANCH   2   6
HETATM    6  C   UNL     1     -10.845   6.837  68.093  1.00  0.00    -0.296 A  
HETATM    7  C   UNL     1     -10.402   8.161  68.071  1.00  0.00    -0.267 A  
HETATM    8  C   UNL     1     -10.451   8.934  69.234  1.00  0.00    -0.234 A  
HETATM    9  C   UNL     1     -11.293   6.272  69.289  1.00  0.00    -0.411 A  
HETATM   10  C   UNL     1     -10.947   8.389  70.426  1.00  0.00    -0.249 A  
HETATM   11  C   UNL     1     -11.346   7.045  70.449  1.00  0.00    -0.354 A  
BRANCH  10  12
HETATM   12  C   UNL     1     -11.173   9.272  71.628  1.00  0.00    -0.379 C  
BRANCH  12  13
HETATM   13  N   UNL     1     -12.590   9.547  71.867  1.00  0.00    -0.386 NA 
HETATM   14  H   UNL     1     -12.787   9.655  72.862  1.00  0.00     0.000 HD 
BRANCH  13  15
HETATM   15  C   UNL     1     -13.052  10.714  71.097  1.00  0.00    -0.322 C  
BRANCH  15  16
HETATM   16  C   UNL     1     -12.916  12.044  71.855  1.00  0.00    -0.428 C  
BRANCH  16  17
HETATM   17  C   UNL     1     -12.764  13.220  70.940  1.00  0.00    -0.332 A  
HETATM   18  C   UNL     1     -13.316  14.482  71.087  1.00  0.00    -0.354 A  
HETATM   19  N   UNL     1     -12.959  15.221  69.986  1.00  0.00    -0.646 NA 
HETATM   20  C   UNL     1     -14.164  15.075  72.153  1.00  0.00    -0.636 C  
HETATM   21  H   UNL     1     -13.235  16.190  69.822  1.00  0.00     0.000 HD 
HETATM   22  C   UNL     1     -12.179  14.480  69.134  1.00  0.00    -0.199 A  
HETATM   23  C   UNL     1     -11.609  14.825  67.903  1.00  0.00    -0.373 A  
HETATM   24  C   UNL     1     -10.843  13.857  67.248  1.00  0.00    -0.292 A  
HETATM   25  C   UNL     1     -10.657  12.593  67.804  1.00  0.00    -0.233 A  
HETATM   26  C   UNL     1     -11.242  12.263  69.031  1.00  0.00    -0.319 A  
HETATM   27  C   UNL     1     -12.022  13.223  69.711  1.00  0.00    -0.391 A  
ENDBRANCH  16  17
ENDBRANCH  15  16
ENDBRANCH  13  15
ENDBRANCH  12  13
ENDBRANCH  10  12
ENDBRANCH   2   6
BRANCH   3  28
HETATM   28  N   UNL     1     -11.268   4.166  64.680  1.00  0.00    -0.886 NA 
HETATM   29  H   UNL     1     -11.957   4.915  64.597  1.00  0.00     0.000 HD 
HETATM   30  O   UNL     1     -11.327   2.955  63.975  1.00  0.00    -0.574 OA 
HETATM   31  H   UNL     1     -12.090   2.921  63.411  1.00  0.00     0.000 HD 
ENDBRANCH   3  28
TORSDOF 7
ENDMDL
MODEL       57
REMARK 921   NORMALIZED FREE ENERGY PREDICTED BY IDOCK:   -5.30 KCAL/MOL
REMARK 922        TOTAL FREE ENERGY PREDICTED BY IDOCK:  -10.10 KCAL/MOL
REMARK 923 INTER-LIGAND FREE ENERGY PREDICTED BY IDOCK:   -7.32 KCAL/MOL
REMARK 924 INTRA-LIGAND FREE ENERGY PREDICTED BY IDOCK:   -2.78 KCAL/MOL
REMARK 927      BINDING AFFINITY PREDICTED BY RF-SCORE:    0.00 PKD
ROOT
HETATM    1  C   UNL     1     -11.693  12.644  65.232  1.00  0.00    -0.417 C  
HETATM    2  C   UNL     1     -11.051  11.827  64.383  1.00  0.00    -0.396 C  
HETATM    3  C   UNL     1     -12.497  13.745  64.689  1.00  0.00    -0.315 C  
HETATM    4  H   UNL     1     -14.044  14.793  65.147  1.00  0.00     0.000 HD 
HETATM    5  O   UNL     1     -13.523  14.079  65.498  1.00  0.00    -0.677 OA 
ENDROOT
BRANCH   2   6
HETATM    6  C   UNL     1     -10.260  10.709  64.883  1.00  0.00    -0.395 A  
HETATM    7  C   UNL     1     -10.698   9.970  65.984  1.00  0.00     0.078 A  
HETATM    8  C   UNL     1      -9.992   8.834  66.389  1.00  0.00    -0.346 A  
HETATM    9  C   UNL     1      -9.090  10.338  64.216  1.00  0.00    -0.278 A  
HETATM   10  C   UNL     1      -8.846   8.427  65.694  1.00  0.00    -0.196 A  
HETATM   11  C   UNL     1      -8.388   9.202  64.618  1.00  0.00    -0.179 A  
BRANCH  10  12
HETATM   12  C   UNL     1      -8.194   7.104  66.012  1.00  0.00    -0.129 C  
BRANCH  12  13
HETATM   13  N   UNL     1      -8.150   6.830  67.449  1.00  0.00    -0.117 NA 
HETATM   14  H   UNL     1      -8.355   5.850  67.648  1.00  0.00     0.000 HD 
BRANCH  13  15
HETATM   15  C   UNL     1      -6.866   7.241  68.040  1.00  0.00    -0.070 C  
BRANCH  15  16
HETATM   16  C   UNL     1      -7.007   7.902  69.419  1.00  0.00    -0.059 C  
BRANCH  16  17
HETATM   17  C   UNL     1      -7.916   9.092  69.402  1.00  0.00    -0.097 A  
HETATM   18  C   UNL     1      -9.085   9.274  70.124  1.00  0.00    -0.222 A  
HETATM   19  N   UNL     1      -9.618  10.484  69.752  1.00  0.00    -0.423 NA 
HETATM   20  C   UNL     1      -9.774   8.421  71.127  1.00  0.00    -0.236 C  
HETATM   21  H   UNL     1     -10.487  10.873  70.119  1.00  0.00     0.000 HD 
HETATM   22  C   UNL     1      -8.821  11.100  68.820  1.00  0.00    -0.125 A  
HETATM   23  C   UNL     1      -8.984  12.327  68.165  1.00  0.00    -0.192 A  
HETATM   24  C   UNL     1      -7.995  12.713  67.255  1.00  0.00    -0.166 A  
HETATM   25  C   UNL     1      -6.889  11.902  67.011  1.00  0.00    -0.122 A  
HETATM   26  C   UNL     1      -6.749  10.674  67.667  1.00  0.00    -0.072 A  
HETATM   27  C   UNL     1      -7.734  10.262  68.590  1.00  0.00    -0.094 A  
ENDBRANCH  16  17
ENDBRANCH  15  16
ENDBRANCH  13  15
ENDBRANCH  12  13
ENDBRANCH  10  12
ENDBRANCH   2   6
BRANCH   3  28
HETATM   28  N   UNL     1     -12.263  14.344  63.566  1.00  0.00    -1.066 NA 
HETATM   29  H   UNL     1     -12.308  13.892  62.652  1.00  0.00     0.000 HD 
HETATM   30  O   UNL     1     -11.942  15.694  63.766  1.00  0.00    -1.007 OA 
HETATM   31  H   UNL     1     -11.771  16.134  62.942  1.00  0.00     0.000 HD 
ENDBRANCH   3  28
TORSDOF 7
ENDMDL
MODEL       58
REMARK 921   NORMALIZED FREE ENERGY PREDICTED BY IDOCK:   -5.29 KCAL/MOL
REMARK 922        TOTAL FREE ENERGY PREDICTED BY IDOCK:  -10.09 KCAL/MOL
REMARK 923 INTER-LIGAND FREE ENERGY PREDICTED BY IDOCK:   -9.48 KCAL/MOL
REMARK 924 INTRA-LIGAND FREE ENERGY PREDICTED BY IDOCK:   -0.61 KCAL/MOL
REMARK 927      BINDING AFFINITY PREDICTED BY RF-SCORE:    0.00 PKD
ROOT
HETATM    1  C   UNL     1     -11.097  14.533  65.140  1.00  0.00    -0.374 C  
HETATM    2  C   UNL     1     -10.050  13.853  65.632  1.00  0.00    -0.332 C  
HETATM    3  C   UNL     1     -10.975  15.981  64.939  1.00  0.00    -0.384 C  
HETATM    4  H   UNL     1     -11.681  17.367  63.808  1.00  0.00     0.000 HD 
HETATM    5  O   UNL     1     -11.760  16.429  63.938  1.00  0.00    -1.085 OA 
ENDROOT
BRANCH   2   6
HETATM    6  C   UNL     1     -10.126  12.410  65.826  1.00  0.00    -0.273 A  
HETATM    7  C   UNL     1      -9.557  11.540  64.892  1.00  0.00    -0.212 A  
HETATM    8  C   UNL     1      -9.537  10.165  65.139  1.00  0.00    -0.354 A  
HETATM    9  C   UNL     1     -10.715  11.899  66.984  1.00  0.00    -0.280 A  
HETATM   10  C   UNL     1     -10.081   9.650  66.324  1.00  0.00    -0.322 A  
HETATM   11  C   UNL     1     -10.691  10.527  67.233  1.00  0.00    -0.333 A  
BRANCH  10  12
HETATM   12  C   UNL     1      -9.894   8.195  66.676  1.00  0.00    -0.261 C  
BRANCH  12  13
HETATM   13  N   UNL     1     -11.151   7.536  67.032  1.00  0.00    -0.489 NA 
HETATM   14  H   UNL     1     -11.528   7.002  66.249  1.00  0.00     0.000 HD 
BRANCH  13  15
HETATM   15  C   UNL     1     -11.000   6.697  68.233  1.00  0.00    -0.244 C  
BRANCH  15  16
HETATM   16  C   UNL     1     -10.652   7.493  69.500  1.00  0.00    -0.239 C  
BRANCH  16  17
HETATM   17  C   UNL     1     -11.110   6.816  70.754  1.00  0.00    -0.323 A  
HETATM   18  C   UNL     1     -12.045   7.273  71.669  1.00  0.00    -0.325 A  
HETATM   19  N   UNL     1     -12.108   6.357  72.691  1.00  0.00    -0.516 NA 
HETATM   20  C   UNL     1     -12.888   8.497  71.698  1.00  0.00    -0.366 C  
HETATM   21  H   UNL     1     -12.710   6.442  73.510  1.00  0.00     0.000 HD 
HETATM   22  C   UNL     1     -11.250   5.311  72.459  1.00  0.00    -0.210 A  
HETATM   23  C   UNL     1     -10.985   4.174  73.233  1.00  0.00    -0.324 A  
HETATM   24  C   UNL     1     -10.054   3.256  72.739  1.00  0.00    -0.230 A  
HETATM   25  C   UNL     1      -9.415   3.468  71.520  1.00  0.00    -0.222 A  
HETATM   26  C   UNL     1      -9.685   4.615  70.765  1.00  0.00    -0.269 A  
HETATM   27  C   UNL     1     -10.620   5.558  71.242  1.00  0.00    -0.304 A  
ENDBRANCH  16  17
ENDBRANCH  15  16
ENDBRANCH  13  15
ENDBRANCH  12  13
ENDBRANCH  10  12
ENDBRANCH   2   6
BRANCH   3  28
HETATM   28  N   UNL     1     -10.210  16.759  65.635  1.00  0.00    -0.577 NA 
HETATM   29  H   UNL     1      -9.413  16.441  66.186  1.00  0.00     0.000 HD 
HETATM   30  O   UNL     1     -10.619  18.097  65.534  1.00  0.00    -0.638 OA 
HETATM   31  H   UNL     1     -10.057  18.669  66.045  1.00  0.00     0.000 HD 
ENDBRANCH   3  28
TORSDOF 7
ENDMDL
MODEL       59
REMARK 921   NORMALIZED FREE ENERGY PREDICTED BY IDOCK:   -5.28 KCAL/MOL
REMARK 922        TOTAL FREE ENERGY PREDICTED BY IDOCK:  -10.07 KCAL/MOL
REMARK 923 INTER-LIGAND FREE ENERGY PREDICTED BY IDOCK:   -9.04 KCAL/MOL
REMARK 924 INTRA-LIGAND FREE ENERGY PREDICTED BY IDOCK:   -1.04 KCAL/MOL
REMARK 927      BINDING AFFINITY PREDICTED BY RF-SCORE:    0.00 PKD
ROOT
HETATM    1  C   UNL     1      -9.963   8.426  72.181  1.00  0.00    -0.376 C  
HETATM    2  C   UNL     1     -11.088   8.689  71.499  1.00  0.00    -0.358 C  
HETATM    3  C   UNL     1      -9.967   7.345  73.172  1.00  0.00    -0.268 C  
HETATM    4  H   UNL     1      -8.753   6.080  73.965  1.00  0.00     0.000 HD 
HETATM    5  O   UNL     1      -8.751   6.780  73.323  1.00  0.00    -0.122 OA 
ENDROOT
BRANCH   2   6
HETATM    6  C   UNL     1     -11.117   9.741  70.491  1.00  0.00    -0.384 A  
HETATM    7  C   UNL     1     -10.115   9.819  69.520  1.00  0.00    -0.233 A  
HETATM    8  C   UNL     1     -10.209  10.761  68.493  1.00  0.00    -0.192 A  
HETATM    9  C   UNL     1     -12.188  10.637  70.459  1.00  0.00    -0.449 A  
HETATM   10  C   UNL     1     -11.307  11.629  68.426  1.00  0.00    -0.339 A  
HETATM   11  C   UNL     1     -12.283  11.575  69.431  1.00  0.00    -0.273 A  
BRANCH  10  12
HETATM   12  C   UNL     1     -11.502  12.515  67.221  1.00  0.00    -0.353 C  
BRANCH  12  13
HETATM   13  N   UNL     1     -10.259  12.745  66.483  1.00  0.00    -0.248 NA 
HETATM   14  H   UNL     1     -10.300  12.341  65.547  1.00  0.00     0.000 HD 
BRANCH  13  15
HETATM   15  C   UNL     1      -9.913  14.175  66.438  1.00  0.00    -0.293 C  
BRANCH  15  16
HETATM   16  C   UNL     1     -11.107  15.105  66.700  1.00  0.00    -0.308 C  
BRANCH  16  17
HETATM   17  C   UNL     1     -10.778  16.221  67.642  1.00  0.00    -0.311 A  
HETATM   18  C   UNL     1     -10.734  16.173  69.027  1.00  0.00    -0.287 A  
HETATM   19  N   UNL     1     -10.445  17.439  69.476  1.00  0.00    -0.299 NA 
HETATM   20  C   UNL     1     -10.950  15.061  69.988  1.00  0.00    -0.268 C  
HETATM   21  H   UNL     1     -10.360  17.700  70.459  1.00  0.00     0.000 HD 
HETATM   22  C   UNL     1     -10.286  18.304  68.423  1.00  0.00    -0.380 A  
HETATM   23  C   UNL     1      -9.998  19.674  68.418  1.00  0.00    -0.543 A  
HETATM   24  C   UNL     1      -9.883  20.309  67.178  1.00  0.00    -0.606 A  
HETATM   25  C   UNL     1     -10.050  19.599  65.991  1.00  0.00    -0.553 A  
HETATM   26  C   UNL     1     -10.347  18.232  66.016  1.00  0.00    -0.377 A  
HETATM   27  C   UNL     1     -10.470  17.569  67.256  1.00  0.00    -0.327 A  
ENDBRANCH  16  17
ENDBRANCH  15  16
ENDBRANCH  13  15
ENDBRANCH  12  13
ENDBRANCH  10  12
ENDBRANCH   2   6
BRANCH   3  28
HETATM   28  N   UNL     1     -11.006   6.963  73.842  1.00  0.00    -0.444 NA 
HETATM   29  H   UNL     1     -11.576   7.579  74.423  1.00  0.00     0.000 HD 
HETATM   30  O   UNL     1     -11.250   5.592  73.666  1.00  0.00    -0.446 OA 
HETATM   31  H   UNL     1     -12.013   5.312  74.157  1.00  0.00     0.000 HD 
ENDBRANCH   3  28
TORSDOF 7
ENDMDL
MODEL       60
REMARK 921   NORMALIZED FREE ENERGY PREDICTED BY IDOCK:   -5.27 KCAL/MOL
REMARK 922        TOTAL FREE ENERGY PREDICTED BY IDOCK:  -10.06 KCAL/MOL
REMARK 923 INTER-LIGAND FREE ENERGY PREDICTED BY IDOCK:   -8.52 KCAL/MOL
REMARK 924 INTRA-LIGAND FREE ENERGY PREDICTED BY IDOCK:   -1.55 KCAL/MOL
REMARK 927      BINDING AFFINITY PREDICTED BY RF-SCORE:    0.00 PKD
ROOT
HETATM    1  C   UNL     1     -10.566  14.955  69.500  1.00  0.00    -0.242 C  
HETATM    2  C   UNL     1     -11.732  14.818  70.150  1.00  0.00    -0.352 C  
HETATM    3  C   UNL     1     -10.115  16.300  69.125  1.00  0.00    -0.264 C  
HETATM    4  H   UNL     1      -8.479  17.264  68.821  1.00  0.00     0.000 HD 
HETATM    5  O   UNL     1      -8.771  16.394  69.065  1.00  0.00    -0.248 OA 
ENDROOT
BRANCH   2   6
HETATM    6  C   UNL     1     -12.203  13.500  70.558  1.00  0.00    -0.433 A  
HETATM    7  C   UNL     1     -11.803  12.358  69.860  1.00  0.00    -0.376 A  
HETATM    8  C   UNL     1     -12.168  11.091  70.323  1.00  0.00    -0.447 A  
HETATM    9  C   UNL     1     -13.009  13.375  71.692  1.00  0.00    -0.445 A  
HETATM   10  C   UNL     1     -12.934  10.957  71.488  1.00  0.00    -0.556 A  
HETATM   11  C   UNL     1     -13.370  12.110  72.156  1.00  0.00    -0.438 A  
BRANCH  10  12
HETATM   12  C   UNL     1     -13.170   9.593  72.089  1.00  0.00    -0.444 C  
BRANCH  12  13
HETATM   13  N   UNL     1     -13.455   8.575  71.077  1.00  0.00    -0.524 NA 
HETATM   14  H   UNL     1     -13.029   8.810  70.181  1.00  0.00     0.000 HD 
BRANCH  13  15
HETATM   15  C   UNL     1     -13.049   7.234  71.531  1.00  0.00    -0.384 C  
BRANCH  15  16
HETATM   16  C   UNL     1     -11.788   6.703  70.831  1.00  0.00    -0.434 C  
BRANCH  16  17
HETATM   17  C   UNL     1     -10.616   7.625  70.971  1.00  0.00    -0.226 A  
HETATM   18  C   UNL     1      -9.948   7.971  72.135  1.00  0.00    -0.225 A  
HETATM   19  N   UNL     1      -8.977   8.884  71.800  1.00  0.00    -0.353 NA 
HETATM   20  C   UNL     1     -10.130   7.546  73.547  1.00  0.00    -0.378 C  
HETATM   21  H   UNL     1      -8.336   9.319  72.463  1.00  0.00     0.000 HD 
HETATM   22  C   UNL     1      -8.987   9.130  70.450  1.00  0.00    -0.229 A  
HETATM   23  C   UNL     1      -8.188   9.987  69.684  1.00  0.00    -0.185 A  
HETATM   24  C   UNL     1      -8.419  10.031  68.306  1.00  0.00    -0.111 A  
HETATM   25  C   UNL     1      -9.409   9.247  67.719  1.00  0.00    -0.145 A  
HETATM   26  C   UNL     1     -10.204   8.403  68.502  1.00  0.00    -0.228 A  
HETATM   27  C   UNL     1      -9.992   8.342  69.896  1.00  0.00    -0.190 A  
ENDBRANCH  16  17
ENDBRANCH  15  16
ENDBRANCH  13  15
ENDBRANCH  12  13
ENDBRANCH  10  12
ENDBRANCH   2   6
BRANCH   3  28
HETATM   28  N   UNL     1     -10.901  17.297  68.871  1.00  0.00    -0.298 NA 
HETATM   29  H   UNL     1     -11.840  17.403  69.258  1.00  0.00     0.000 HD 
HETATM   30  O   UNL     1     -10.296  18.212  67.997  1.00  0.00    -0.363 OA 
HETATM   31  H   UNL     1     -10.873  18.944  67.811  1.00  0.00     0.000 HD 
ENDBRANCH   3  28
TORSDOF 7
ENDMDL
MODEL       61
REMARK 921   NORMALIZED FREE ENERGY PREDICTED BY IDOCK:   -5.27 KCAL/MOL
REMARK 922        TOTAL FREE ENERGY PREDICTED BY IDOCK:  -10.06 KCAL/MOL
REMARK 923 INTER-LIGAND FREE ENERGY PREDICTED BY IDOCK:   -9.45 KCAL/MOL
REMARK 924 INTRA-LIGAND FREE ENERGY PREDICTED BY IDOCK:   -0.61 KCAL/MOL
REMARK 927      BINDING AFFINITY PREDICTED BY RF-SCORE:    0.00 PKD
ROOT
HETATM    1  C   UNL     1     -12.502   9.216  71.209  1.00  0.00    -0.366 C  
HETATM    2  C   UNL     1     -13.178  10.304  70.813  1.00  0.00    -0.283 C  
HETATM    3  C   UNL     1     -13.245   8.078  71.762  1.00  0.00    -0.341 C  
HETATM    4  H   UNL     1     -13.100   6.165  71.907  1.00  0.00     0.000 HD 
HETATM    5  O   UNL     1     -12.619   6.902  71.548  1.00  0.00    -0.365 OA 
ENDROOT
BRANCH   2   6
HETATM    6  C   UNL     1     -12.477  11.447  70.239  1.00  0.00    -0.312 A  
HETATM    7  C   UNL     1     -11.783  11.318  69.033  1.00  0.00    -0.410 A  
HETATM    8  C   UNL     1     -11.208  12.441  68.434  1.00  0.00    -0.316 A  
HETATM    9  C   UNL     1     -12.555  12.692  70.868  1.00  0.00    -0.338 A  
HETATM   10  C   UNL     1     -11.325  13.702  69.034  1.00  0.00    -0.333 A  
HETATM   11  C   UNL     1     -11.984  13.814  70.267  1.00  0.00    -0.397 A  
BRANCH  10  12
HETATM   12  C   UNL     1     -10.868  14.938  68.299  1.00  0.00    -0.257 C  
BRANCH  12  13
HETATM   13  N   UNL     1      -9.754  14.672  67.389  1.00  0.00    -0.217 NA 
HETATM   14  H   UNL     1      -9.759  15.313  66.595  1.00  0.00     0.000 HD 
BRANCH  13  15
HETATM   15  C   UNL     1      -8.462  14.698  68.094  1.00  0.00    -0.156 C  
BRANCH  15  16
HETATM   16  C   UNL     1      -8.394  15.748  69.214  1.00  0.00    -0.249 C  
BRANCH  16  17
HETATM   17  C   UNL     1      -7.878  17.071  68.738  1.00  0.00    -0.253 A  
HETATM   18  C   UNL     1      -6.577  17.543  68.799  1.00  0.00    -0.216 A  
HETATM   19  N   UNL     1      -6.576  18.823  68.300  1.00  0.00    -0.221 NA 
HETATM   20  C   UNL     1      -5.319  16.924  69.293  1.00  0.00    -0.136 C  
HETATM   21  H   UNL     1      -5.751  19.419  68.233  1.00  0.00     0.000 HD 
HETATM   22  C   UNL     1      -7.837  19.191  67.904  1.00  0.00    -0.285 A  
HETATM   23  C   UNL     1      -8.294  20.395  67.354  1.00  0.00    -0.380 A  
HETATM   24  C   UNL     1      -9.651  20.489  67.034  1.00  0.00    -0.540 A  
HETATM   25  C   UNL     1     -10.516  19.419  67.255  1.00  0.00    -0.579 A  
HETATM   26  C   UNL     1     -10.043  18.226  67.814  1.00  0.00    -0.369 A  
HETATM   27  C   UNL     1      -8.677  18.108  68.148  1.00  0.00    -0.285 A  
ENDBRANCH  16  17
ENDBRANCH  15  16
ENDBRANCH  13  15
ENDBRANCH  12  13
ENDBRANCH  10  12
ENDBRANCH   2   6
BRANCH   3  28
HETATM   28  N   UNL     1     -14.372   8.170  72.391  1.00  0.00    -0.654 NA 
HETATM   29  H   UNL     1     -15.237   7.720  72.090  1.00  0.00     0.000 HD 
HETATM   30  O   UNL     1     -14.252   8.966  73.539  1.00  0.00    -1.194 OA 
HETATM   31  H   UNL     1     -15.080   9.033  74.000  1.00  0.00     0.000 HD 
ENDBRANCH   3  28
TORSDOF 7
ENDMDL
MODEL       62
REMARK 921   NORMALIZED FREE ENERGY PREDICTED BY IDOCK:   -5.26 KCAL/MOL
REMARK 922        TOTAL FREE ENERGY PREDICTED BY IDOCK:  -10.04 KCAL/MOL
REMARK 923 INTER-LIGAND FREE ENERGY PREDICTED BY IDOCK:   -6.95 KCAL/MOL
REMARK 924 INTRA-LIGAND FREE ENERGY PREDICTED BY IDOCK:   -3.09 KCAL/MOL
REMARK 927      BINDING AFFINITY PREDICTED BY RF-SCORE:    0.00 PKD
ROOT
HETATM    1  C   UNL     1      -7.098  13.546  68.866  1.00  0.00    -0.093 C  
HETATM    2  C   UNL     1      -8.273  14.137  69.128  1.00  0.00     0.161 C  
HETATM    3  C   UNL     1      -6.235  13.150  69.985  1.00  0.00    -0.073 C  
HETATM    4  H   UNL     1      -4.900  11.832  70.409  1.00  0.00     0.000 HD 
HETATM    5  O   UNL     1      -5.459  12.088  69.685  1.00  0.00    -0.068 OA 
ENDROOT
BRANCH   2   6
HETATM    6  C   UNL     1      -9.168  14.525  68.044  1.00  0.00    -0.190 A  
HETATM    7  C   UNL     1      -8.695  14.605  66.732  1.00  0.00    -0.233 A  
HETATM    8  C   UNL     1      -9.581  14.869  65.685  1.00  0.00    -0.258 A  
HETATM    9  C   UNL     1     -10.519  14.757  68.313  1.00  0.00    -0.241 A  
HETATM   10  C   UNL     1     -10.946  15.052  65.941  1.00  0.00    -0.343 A  
HETATM   11  C   UNL     1     -11.404  15.017  67.266  1.00  0.00    -0.337 A  
BRANCH  10  12
HETATM   12  C   UNL     1     -11.927  15.152  64.799  1.00  0.00    -0.250 C  
BRANCH  12  13
HETATM   13  N   UNL     1     -12.684  13.916  64.598  1.00  0.00    -0.673 NA 
HETATM   14  H   UNL     1     -13.680  14.104  64.480  1.00  0.00     0.000 HD 
BRANCH  13  15
HETATM   15  C   UNL     1     -12.149  13.130  63.473  1.00  0.00    -0.514 C  
BRANCH  15  16
HETATM   16  C   UNL     1     -11.942  11.644  63.805  1.00  0.00    -0.357 C  
BRANCH  16  17
HETATM   17  C   UNL     1     -10.652  11.384  64.519  1.00  0.00    -0.390 A  
HETATM   18  C   UNL     1      -9.403  11.171  63.958  1.00  0.00    -0.170 A  
HETATM   19  N   UNL     1      -8.525  10.917  64.984  1.00  0.00    -0.359 NA 
HETATM   20  C   UNL     1      -8.937  11.166  62.547  1.00  0.00    -0.347 C  
HETATM   21  H   UNL     1      -7.533  10.716  64.862  1.00  0.00     0.000 HD 
HETATM   22  C   UNL     1      -9.166  10.973  66.196  1.00  0.00    -0.190 A  
HETATM   23  C   UNL     1      -8.667  10.771  67.489  1.00  0.00    -0.125 A  
HETATM   24  C   UNL     1      -9.561  10.900  68.557  1.00  0.00    -0.187 A  
HETATM   25  C   UNL     1     -10.899  11.219  68.337  1.00  0.00    -0.248 A  
HETATM   26  C   UNL     1     -11.381  11.408  67.038  1.00  0.00    -0.309 A  
HETATM   27  C   UNL     1     -10.499  11.281  65.943  1.00  0.00    -0.314 A  
ENDBRANCH  16  17
ENDBRANCH  15  16
ENDBRANCH  13  15
ENDBRANCH  12  13
ENDBRANCH  10  12
ENDBRANCH   2   6
BRANCH   3  28
HETATM   28  N   UNL     1      -6.203  13.741  71.135  1.00  0.00    -0.525 NA 
HETATM   29  H   UNL     1      -6.513  14.700  71.299  1.00  0.00     0.000 HD 
HETATM   30  O   UNL     1      -5.687  12.896  72.129  1.00  0.00    -0.321 OA 
HETATM   31  H   UNL     1      -5.664  13.330  72.973  1.00  0.00     0.000 HD 
ENDBRANCH   3  28
TORSDOF 7
ENDMDL
MODEL       63
REMARK 921   NORMALIZED FREE ENERGY PREDICTED BY IDOCK:   -5.25 KCAL/MOL
REMARK 922        TOTAL FREE ENERGY PREDICTED BY IDOCK:  -10.03 KCAL/MOL
REMARK 923 INTER-LIGAND FREE ENERGY PREDICTED BY IDOCK:   -6.98 KCAL/MOL
REMARK 924 INTRA-LIGAND FREE ENERGY PREDICTED BY IDOCK:   -3.05 KCAL/MOL
REMARK 927      BINDING AFFINITY PREDICTED BY RF-SCORE:    0.00 PKD
ROOT
HETATM    1  C   UNL     1     -11.445  11.227  64.494  1.00  0.00     0.005 C  
HETATM    2  C   UNL     1     -10.114  11.081  64.411  1.00  0.00    -0.393 C  
HETATM    3  C   UNL     1     -12.118  12.152  63.576  1.00  0.00    -0.550 C  
HETATM    4  H   UNL     1     -13.827  12.385  62.723  1.00  0.00     0.000 HD 
HETATM    5  O   UNL     1     -13.390  11.785  63.318  1.00  0.00    -0.510 OA 
ENDROOT
BRANCH   2   6
HETATM    6  C   UNL     1      -9.411  10.155  65.292  1.00  0.00    -0.306 A  
HETATM    7  C   UNL     1     -10.099   9.108  65.911  1.00  0.00    -0.118 A  
HETATM    8  C   UNL     1      -9.401   8.161  66.664  1.00  0.00    -0.250 A  
HETATM    9  C   UNL     1      -8.032  10.281  65.467  1.00  0.00    -0.151 A  
HETATM   10  C   UNL     1      -8.009   8.252  66.802  1.00  0.00    -0.099 A  
HETATM   11  C   UNL     1      -7.334   9.333  66.216  1.00  0.00    -0.092 A  
BRANCH  10  12
HETATM   12  C   UNL     1      -7.236   7.134  67.455  1.00  0.00    -0.090 C  
BRANCH  12  13
HETATM   13  N   UNL     1      -7.548   6.990  68.877  1.00  0.00    -0.102 NA 
HETATM   14  H   UNL     1      -7.200   6.106  69.248  1.00  0.00     0.000 HD 
BRANCH  13  15
HETATM   15  C   UNL     1      -7.051   8.134  69.659  1.00  0.00    -0.057 C  
BRANCH  15  16
HETATM   16  C   UNL     1      -7.972   8.531  70.823  1.00  0.00    -0.111 C  
BRANCH  16  17
HETATM   17  C   UNL     1      -9.341   8.931  70.369  1.00  0.00    -0.223 A  
HETATM   18  C   UNL     1     -10.532   8.252  70.574  1.00  0.00    -0.210 A  
HETATM   19  N   UNL     1     -11.525   8.955  69.935  1.00  0.00    -0.443 NA 
HETATM   20  C   UNL     1     -10.844   6.993  71.300  1.00  0.00    -0.260 C  
HETATM   21  H   UNL     1     -12.507   8.680  69.911  1.00  0.00     0.000 HD 
HETATM   22  C   UNL     1     -11.015  10.078  69.333  1.00  0.00    -0.244 A  
HETATM   23  C   UNL     1     -11.658  11.064  68.575  1.00  0.00    -0.380 A  
HETATM   24  C   UNL     1     -10.878  12.116  68.084  1.00  0.00    -0.256 A  
HETATM   25  C   UNL     1      -9.511  12.177  68.344  1.00  0.00    -0.179 A  
HETATM   26  C   UNL     1      -8.885  11.177  69.096  1.00  0.00     0.058 A  
HETATM   27  C   UNL     1      -9.650  10.104  69.601  1.00  0.00    -0.237 A  
ENDBRANCH  16  17
ENDBRANCH  15  16
ENDBRANCH  13  15
ENDBRANCH  12  13
ENDBRANCH  10  12
ENDBRANCH   2   6
BRANCH   3  28
HETATM   28  N   UNL     1     -11.573  13.207  63.062  1.00  0.00    -0.663 NA 
HETATM   29  H   UNL     1     -10.659  13.221  62.608  1.00  0.00     0.000 HD 
HETATM   30  O   UNL     1     -12.400  14.331  63.210  1.00  0.00    -1.118 OA 
HETATM   31  H   UNL     1     -12.000  15.105  62.833  1.00  0.00     0.000 HD 
ENDBRANCH   3  28
TORSDOF 7
ENDMDL
MODEL       64
REMARK 921   NORMALIZED FREE ENERGY PREDICTED BY IDOCK:   -5.24 KCAL/MOL
REMARK 922        TOTAL FREE ENERGY PREDICTED BY IDOCK:  -10.01 KCAL/MOL
REMARK 923 INTER-LIGAND FREE ENERGY PREDICTED BY IDOCK:   -9.17 KCAL/MOL
REMARK 924 INTRA-LIGAND FREE ENERGY PREDICTED BY IDOCK:   -0.84 KCAL/MOL
REMARK 927      BINDING AFFINITY PREDICTED BY RF-SCORE:    0.00 PKD
ROOT
HETATM    1  C   UNL     1     -11.645   9.672  71.559  1.00  0.00    -0.451 C  
HETATM    2  C   UNL     1     -12.427  10.056  70.539  1.00  0.00    -0.254 C  
HETATM    3  C   UNL     1     -11.966   8.432  72.275  1.00  0.00    -0.389 C  
HETATM    4  H   UNL     1     -11.081   7.041  73.265  1.00  0.00     0.000 HD 
HETATM    5  O   UNL     1     -10.872   7.844  72.801  1.00  0.00    -0.333 OA 
ENDROOT
BRANCH   2   6
HETATM    6  C   UNL     1     -12.128  11.270  69.790  1.00  0.00    -0.394 A  
HETATM    7  C   UNL     1     -11.869  11.210  68.418  1.00  0.00    -0.302 A  
HETATM    8  C   UNL     1     -11.692  12.387  67.687  1.00  0.00    -0.412 A  
HETATM    9  C   UNL     1     -12.164  12.508  70.437  1.00  0.00    -0.368 A  
HETATM   10  C   UNL     1     -11.777  13.634  68.321  1.00  0.00    -0.398 A  
HETATM   11  C   UNL     1     -11.992  13.683  69.706  1.00  0.00    -0.404 A  
BRANCH  10  12
HETATM   12  C   UNL     1     -11.773  14.903  67.505  1.00  0.00    -0.308 C  
BRANCH  12  13
HETATM   13  N   UNL     1     -10.778  14.878  66.432  1.00  0.00    -0.309 NA 
HETATM   14  H   UNL     1     -11.129  14.390  65.608  1.00  0.00     0.000 HD 
BRANCH  13  15
HETATM   15  C   UNL     1     -10.312  16.234  66.096  1.00  0.00    -0.341 C  
BRANCH  15  16
HETATM   16  C   UNL     1     -10.456  17.238  67.250  1.00  0.00    -0.319 C  
BRANCH  16  17
HETATM   17  C   UNL     1      -9.154  17.871  67.633  1.00  0.00    -0.250 A  
HETATM   18  C   UNL     1      -8.689  19.128  67.281  1.00  0.00    -0.286 A  
HETATM   19  N   UNL     1      -7.427  19.266  67.807  1.00  0.00    -0.252 NA 
HETATM   20  C   UNL     1      -9.300  20.224  66.484  1.00  0.00    -0.426 C  
HETATM   21  H   UNL     1      -6.840  20.092  67.696  1.00  0.00     0.000 HD 
HETATM   22  C   UNL     1      -7.065  18.139  68.502  1.00  0.00    -0.257 A  
HETATM   23  C   UNL     1      -5.878  17.844  69.182  1.00  0.00    -0.213 A  
HETATM   24  C   UNL     1      -5.786  16.601  69.817  1.00  0.00    -0.196 A  
HETATM   25  C   UNL     1      -6.841  15.694  69.773  1.00  0.00    -0.134 A  
HETATM   26  C   UNL     1      -8.017  16.003  69.080  1.00  0.00    -0.224 A  
HETATM   27  C   UNL     1      -8.133  17.250  68.428  1.00  0.00    -0.259 A  
ENDBRANCH  16  17
ENDBRANCH  15  16
ENDBRANCH  13  15
ENDBRANCH  12  13
ENDBRANCH  10  12
ENDBRANCH   2   6
BRANCH   3  28
HETATM   28  N   UNL     1     -13.157   7.943  72.403  1.00  0.00    -0.528 NA 
HETATM   29  H   UNL     1     -13.483   7.093  71.941  1.00  0.00     0.000 HD 
HETATM   30  O   UNL     1     -13.943   8.731  73.257  1.00  0.00    -1.160 OA 
HETATM   31  H   UNL     1     -14.817   8.371  73.350  1.00  0.00     0.000 HD 
ENDBRANCH   3  28
TORSDOF 7
ENDMDL
MODEL       65
REMARK 921   NORMALIZED FREE ENERGY PREDICTED BY IDOCK:   -5.23 KCAL/MOL
REMARK 922        TOTAL FREE ENERGY PREDICTED BY IDOCK:  -10.00 KCAL/MOL
REMARK 923 INTER-LIGAND FREE ENERGY PREDICTED BY IDOCK:   -9.65 KCAL/MOL
REMARK 924 INTRA-LIGAND FREE ENERGY PREDICTED BY IDOCK:   -0.34 KCAL/MOL
REMARK 927      BINDING AFFINITY PREDICTED BY RF-SCORE:    0.00 PKD
ROOT
HETATM    1  C   UNL     1     -12.350  13.602  65.770  1.00  0.00    -0.524 C  
HETATM    2  C   UNL     1     -11.449  13.481  66.756  1.00  0.00    -0.374 C  
HETATM    3  C   UNL     1     -12.045  14.474  64.630  1.00  0.00    -0.473 C  
HETATM    4  H   UNL     1     -12.457  14.636  62.758  1.00  0.00     0.000 HD 
HETATM    5  O   UNL     1     -12.654  14.070  63.496  1.00  0.00    -0.842 OA 
ENDROOT
BRANCH   2   6
HETATM    6  C   UNL     1     -11.706  12.607  67.894  1.00  0.00    -0.412 A  
HETATM    7  C   UNL     1     -11.471  11.234  67.799  1.00  0.00    -0.350 A  
HETATM    8  C   UNL     1     -11.614  10.420  68.925  1.00  0.00    -0.208 A  
HETATM    9  C   UNL     1     -12.130  13.158  69.106  1.00  0.00    -0.261 A  
HETATM   10  C   UNL     1     -11.990  10.974  70.156  1.00  0.00    -0.443 A  
HETATM   11  C   UNL     1     -12.269  12.346  70.231  1.00  0.00    -0.345 A  
BRANCH  10  12
HETATM   12  C   UNL     1     -11.963  10.132  71.408  1.00  0.00    -0.358 C  
BRANCH  12  13
HETATM   13  N   UNL     1     -11.414   8.795  71.176  1.00  0.00    -0.273 NA 
HETATM   14  H   UNL     1     -11.098   8.684  70.213  1.00  0.00     0.000 HD 
BRANCH  13  15
HETATM   15  C   UNL     1     -10.342   8.478  72.134  1.00  0.00    -0.339 C  
BRANCH  15  16
HETATM   16  C   UNL     1     -10.799   7.580  73.294  1.00  0.00    -0.409 C  
BRANCH  16  17
HETATM   17  C   UNL     1      -9.784   6.541  73.658  1.00  0.00    -0.210 A  
HETATM   18  C   UNL     1      -8.453   6.739  73.990  1.00  0.00    -0.136 A  
HETATM   19  N   UNL     1      -7.888   5.504  74.193  1.00  0.00    -0.099 NA 
HETATM   20  C   UNL     1      -7.639   7.975  74.127  1.00  0.00    -0.237 C  
HETATM   21  H   UNL     1      -6.911   5.346  74.442  1.00  0.00     0.000 HD 
HETATM   22  C   UNL     1      -8.817   4.509  74.015  1.00  0.00    -0.103 A  
HETATM   23  C   UNL     1      -8.678   3.119  74.110  1.00  0.00    -0.079 A  
HETATM   24  C   UNL     1      -9.814   2.337  73.881  1.00  0.00    -0.133 A  
HETATM   25  C   UNL     1     -11.038   2.924  73.570  1.00  0.00    -0.316 A  
HETATM   26  C   UNL     1     -11.156   4.314  73.471  1.00  0.00    -0.377 A  
HETATM   27  C   UNL     1     -10.023   5.126  73.695  1.00  0.00    -0.191 A  
ENDBRANCH  16  17
ENDBRANCH  15  16
ENDBRANCH  13  15
ENDBRANCH  12  13
ENDBRANCH  10  12
ENDBRANCH   2   6
BRANCH   3  28
HETATM   28  N   UNL     1     -11.285  15.520  64.685  1.00  0.00    -0.647 NA 
HETATM   29  H   UNL     1     -10.557  15.666  65.385  1.00  0.00     0.000 HD 
HETATM   30  O   UNL     1     -11.590  16.426  63.659  1.00  0.00    -1.514 OA 
HETATM   31  H   UNL     1     -11.032  17.194  63.700  1.00  0.00     0.000 HD 
ENDBRANCH   3  28
TORSDOF 7
ENDMDL
MODEL       66
REMARK 921   NORMALIZED FREE ENERGY PREDICTED BY IDOCK:   -5.22 KCAL/MOL
REMARK 922        TOTAL FREE ENERGY PREDICTED BY IDOCK:   -9.99 KCAL/MOL
REMARK 923 INTER-LIGAND FREE ENERGY PREDICTED BY IDOCK:   -8.44 KCAL/MOL
REMARK 924 INTRA-LIGAND FREE ENERGY PREDICTED BY IDOCK:   -1.54 KCAL/MOL
REMARK 927      BINDING AFFINITY PREDICTED BY RF-SCORE:    0.00 PKD
ROOT
HETATM    1  C   UNL     1     -11.403  12.572  64.686  1.00  0.00    -0.363 C  
HETATM    2  C   UNL     1     -10.921  11.861  63.655  1.00  0.00    -0.511 C  
HETATM    3  C   UNL     1     -12.305  13.696  64.415  1.00  0.00    -0.338 C  
HETATM    4  H   UNL     1     -13.752  14.648  65.254  1.00  0.00     0.000 HD 
HETATM    5  O   UNL     1     -13.167  13.919  65.429  1.00  0.00    -0.750 OA 
ENDROOT
BRANCH   2   6
HETATM    6  C   UNL     1     -10.038  10.724  63.885  1.00  0.00    -0.397 A  
HETATM    7  C   UNL     1      -9.299  10.179  62.832  1.00  0.00    -0.320 A  
HETATM    8  C   UNL     1      -8.373   9.163  63.081  1.00  0.00    -0.193 A  
HETATM    9  C   UNL     1      -9.884  10.219  65.178  1.00  0.00    -0.389 A  
HETATM   10  C   UNL     1      -8.177   8.686  64.384  1.00  0.00    -0.163 A  
HETATM   11  C   UNL     1      -8.957   9.207  65.427  1.00  0.00    -0.255 A  
BRANCH  10  12
HETATM   12  C   UNL     1      -7.052   7.726  64.681  1.00  0.00    -0.068 C  
BRANCH  12  13
HETATM   13  N   UNL     1      -6.939   7.414  66.106  1.00  0.00    -0.064 NA 
HETATM   14  H   UNL     1      -7.545   8.012  66.668  1.00  0.00     0.000 HD 
BRANCH  13  15
HETATM   15  C   UNL     1      -7.195   5.988  66.369  1.00  0.00    -0.076 C  
BRANCH  15  16
HETATM   16  C   UNL     1      -7.824   5.720  67.745  1.00  0.00    -0.098 C  
BRANCH  16  17
HETATM   17  C   UNL     1      -9.084   6.499  67.968  1.00  0.00    -0.114 A  
HETATM   18  C   UNL     1     -10.312   6.312  67.353  1.00  0.00    -0.211 A  
HETATM   19  N   UNL     1     -11.161   7.287  67.819  1.00  0.00    -0.522 NA 
HETATM   20  C   UNL     1     -10.781   5.317  66.354  1.00  0.00    -0.290 C  
HETATM   21  H   UNL     1     -12.132   7.398  67.529  1.00  0.00     0.000 HD 
HETATM   22  C   UNL     1     -10.523   8.092  68.729  1.00  0.00    -0.174 A  
HETATM   23  C   UNL     1     -10.997   9.202  69.438  1.00  0.00    -0.108 A  
HETATM   24  C   UNL     1     -10.114   9.836  70.318  1.00  0.00    -0.323 A  
HETATM   25  C   UNL     1      -8.810   9.376  70.480  1.00  0.00    -0.287 A  
HETATM   26  C   UNL     1      -8.350   8.270  69.755  1.00  0.00    -0.123 A  
HETATM   27  C   UNL     1      -9.222   7.614  68.860  1.00  0.00    -0.139 A  
ENDBRANCH  16  17
ENDBRANCH  15  16
ENDBRANCH  13  15
ENDBRANCH  12  13
ENDBRANCH  10  12
ENDBRANCH   2   6
BRANCH   3  28
HETATM   28  N   UNL     1     -12.292  14.409  63.335  1.00  0.00    -1.088 NA 
HETATM   29  H   UNL     1     -12.291  14.022  62.391  1.00  0.00     0.000 HD 
HETATM   30  O   UNL     1     -12.279  15.780  63.630  1.00  0.00    -1.081 OA 
HETATM   31  H   UNL     1     -12.269  16.303  62.837  1.00  0.00     0.000 HD 
ENDBRANCH   3  28
TORSDOF 7
ENDMDL
MODEL       67
REMARK 921   NORMALIZED FREE ENERGY PREDICTED BY IDOCK:   -5.21 KCAL/MOL
REMARK 922        TOTAL FREE ENERGY PREDICTED BY IDOCK:   -9.97 KCAL/MOL
REMARK 923 INTER-LIGAND FREE ENERGY PREDICTED BY IDOCK:   -7.96 KCAL/MOL
REMARK 924 INTRA-LIGAND FREE ENERGY PREDICTED BY IDOCK:   -2.00 KCAL/MOL
REMARK 927      BINDING AFFINITY PREDICTED BY RF-SCORE:    0.00 PKD
ROOT
HETATM    1  C   UNL     1      -9.956  18.025  67.794  1.00  0.00    -0.329 C  
HETATM    2  C   UNL     1     -10.443  16.995  67.085  1.00  0.00    -0.291 C  
HETATM    3  C   UNL     1     -10.440  19.379  67.505  1.00  0.00    -0.462 C  
HETATM    4  H   UNL     1     -10.705  21.062  68.400  1.00  0.00     0.000 HD 
HETATM    5  O   UNL     1     -10.391  20.184  68.587  1.00  0.00    -0.407 OA 
ENDROOT
BRANCH   2   6
HETATM    6  C   UNL     1     -10.002  15.632  67.357  1.00  0.00    -0.232 A  
HETATM    7  C   UNL     1      -8.911  15.092  66.671  1.00  0.00    -0.319 A  
HETATM    8  C   UNL     1      -8.426  13.828  67.014  1.00  0.00    -0.150 A  
HETATM    9  C   UNL     1     -10.635  14.887  68.354  1.00  0.00    -0.244 A  
HETATM   10  C   UNL     1      -9.025  13.096  68.048  1.00  0.00    -0.195 A  
HETATM   11  C   UNL     1     -10.148  13.626  68.699  1.00  0.00    -0.182 A  
BRANCH  10  12
HETATM   12  C   UNL     1      -8.390  11.819  68.542  1.00  0.00    -0.131 C  
BRANCH  12  13
HETATM   13  N   UNL     1      -9.341  10.949  69.235  1.00  0.00    -0.406 NA 
HETATM   14  H   UNL     1     -10.296  11.298  69.151  1.00  0.00     0.000 HD 
BRANCH  13  15
HETATM   15  C   UNL     1      -9.235   9.555  68.772  1.00  0.00    -0.140 C  
BRANCH  15  16
HETATM   16  C   UNL     1     -10.365   9.135  67.820  1.00  0.00    -0.302 C  
BRANCH  16  17
HETATM   17  C   UNL     1     -10.094   9.514  66.397  1.00  0.00    -0.328 A  
HETATM   18  C   UNL     1      -9.287   8.852  65.485  1.00  0.00    -0.145 A  
HETATM   19  N   UNL     1      -9.288   9.585  64.323  1.00  0.00    -0.421 NA 
HETATM   20  C   UNL     1      -8.493   7.601  65.589  1.00  0.00    -0.152 C  
HETATM   21  H   UNL     1      -8.769   9.338  63.480  1.00  0.00     0.000 HD 
HETATM   22  C   UNL     1     -10.085  10.695  64.449  1.00  0.00    -0.349 A  
HETATM   23  C   UNL     1     -10.365  11.713  63.529  1.00  0.00    -0.488 A  
HETATM   24  C   UNL     1     -11.231  12.733  63.933  1.00  0.00    -0.491 A  
HETATM   25  C   UNL     1     -11.793  12.733  65.207  1.00  0.00    -0.442 A  
HETATM   26  C   UNL     1     -11.494  11.713  66.117  1.00  0.00    -0.198 A  
HETATM   27  C   UNL     1     -10.621  10.673  65.733  1.00  0.00    -0.168 A  
ENDBRANCH  16  17
ENDBRANCH  15  16
ENDBRANCH  13  15
ENDBRANCH  12  13
ENDBRANCH  10  12
ENDBRANCH   2   6
BRANCH   3  28
HETATM   28  N   UNL     1     -10.865  19.780  66.351  1.00  0.00    -0.388 NA 
HETATM   29  H   UNL     1     -11.819  19.649  66.012  1.00  0.00     0.000 HD 
HETATM   30  O   UNL     1      -9.847  20.416  65.625  1.00  0.00    -0.604 OA 
HETATM   31  H   UNL     1     -10.160  20.710  64.777  1.00  0.00     0.000 HD 
ENDBRANCH   3  28
TORSDOF 7
ENDMDL
MODEL       68
REMARK 921   NORMALIZED FREE ENERGY PREDICTED BY IDOCK:   -5.20 KCAL/MOL
REMARK 922        TOTAL FREE ENERGY PREDICTED BY IDOCK:   -9.96 KCAL/MOL
REMARK 923 INTER-LIGAND FREE ENERGY PREDICTED BY IDOCK:   -9.49 KCAL/MOL
REMARK 924 INTRA-LIGAND FREE ENERGY PREDICTED BY IDOCK:   -0.47 KCAL/MOL
REMARK 927      BINDING AFFINITY PREDICTED BY RF-SCORE:    0.00 PKD
ROOT
HETATM    1  C   UNL     1     -12.116   8.708  71.011  1.00  0.00    -0.247 C  
HETATM    2  C   UNL     1     -12.961   9.606  71.539  1.00  0.00    -0.486 C  
HETATM    3  C   UNL     1     -12.372   7.279  71.224  1.00  0.00    -0.366 C  
HETATM    4  H   UNL     1     -12.061   5.590  70.357  1.00  0.00     0.000 HD 
HETATM    5  O   UNL     1     -11.895   6.516  70.219  1.00  0.00    -0.413 OA 
ENDROOT
BRANCH   2   6
HETATM    6  C   UNL     1     -12.752  11.034  71.331  1.00  0.00    -0.534 A  
HETATM    7  C   UNL     1     -11.981  11.487  70.258  1.00  0.00    -0.455 A  
HETATM    8  C   UNL     1     -11.876  12.856  70.002  1.00  0.00    -0.356 A  
HETATM    9  C   UNL     1     -13.379  11.954  72.175  1.00  0.00    -0.361 A  
HETATM   10  C   UNL     1     -12.544  13.783  70.814  1.00  0.00    -0.410 A  
HETATM   11  C   UNL     1     -13.277  13.321  71.916  1.00  0.00    -0.523 A  
BRANCH  10  12
HETATM   12  C   UNL     1     -12.583  15.241  70.429  1.00  0.00    -0.375 C  
BRANCH  12  13
HETATM   13  N   UNL     1     -12.234  15.462  69.026  1.00  0.00    -0.610 NA 
HETATM   14  H   UNL     1     -13.056  15.693  68.468  1.00  0.00     0.000 HD 
BRANCH  13  15
HETATM   15  C   UNL     1     -11.184  16.486  68.885  1.00  0.00    -0.257 C  
BRANCH  15  16
HETATM   16  C   UNL     1     -10.602  16.579  67.466  1.00  0.00    -0.313 C  
BRANCH  16  17
HETATM   17  C   UNL     1      -9.587  17.670  67.326  1.00  0.00    -0.271 A  
HETATM   18  C   UNL     1      -9.686  18.825  66.567  1.00  0.00    -0.354 A  
HETATM   19  N   UNL     1      -8.500  19.507  66.692  1.00  0.00    -0.310 NA 
HETATM   20  C   UNL     1     -10.779  19.361  65.714  1.00  0.00    -0.458 C  
HETATM   21  H   UNL     1      -8.288  20.392  66.232  1.00  0.00     0.000 HD 
HETATM   22  C   UNL     1      -7.638  18.835  67.522  1.00  0.00    -0.229 A  
HETATM   23  C   UNL     1      -6.334  19.155  67.918  1.00  0.00    -0.230 A  
HETATM   24  C   UNL     1      -5.686  18.276  68.791  1.00  0.00    -0.192 A  
HETATM   25  C   UNL     1      -6.321  17.124  69.249  1.00  0.00    -0.231 A  
HETATM   26  C   UNL     1      -7.621  16.815  68.835  1.00  0.00    -0.239 A  
HETATM   27  C   UNL     1      -8.295  17.685  67.952  1.00  0.00    -0.235 A  
ENDBRANCH  16  17
ENDBRANCH  15  16
ENDBRANCH  13  15
ENDBRANCH  12  13
ENDBRANCH  10  12
ENDBRANCH   2   6
BRANCH   3  28
HETATM   28  N   UNL     1     -12.981   6.785  72.253  1.00  0.00    -0.536 NA 
HETATM   29  H   UNL     1     -12.519   6.525  73.125  1.00  0.00     0.000 HD 
HETATM   30  O   UNL     1     -14.357   6.652  72.016  1.00  0.00    -0.498 OA 
HETATM   31  H   UNL     1     -14.804   6.289  72.772  1.00  0.00     0.000 HD 
ENDBRANCH   3  28
TORSDOF 7
ENDMDL
MODEL       69
REMARK 921   NORMALIZED FREE ENERGY PREDICTED BY IDOCK:   -5.17 KCAL/MOL
REMARK 922        TOTAL FREE ENERGY PREDICTED BY IDOCK:   -9.91 KCAL/MOL
REMARK 923 INTER-LIGAND FREE ENERGY PREDICTED BY IDOCK:   -8.11 KCAL/MOL
REMARK 924 INTRA-LIGAND FREE ENERGY PREDICTED BY IDOCK:   -1.80 KCAL/MOL
REMARK 927      BINDING AFFINITY PREDICTED BY RF-SCORE:    0.00 PKD
ROOT
HETATM    1  C   UNL     1     -12.452  13.650  70.721  1.00  0.00    -0.432 C  
HETATM    2  C   UNL     1     -13.201  12.760  71.390  1.00  0.00    -0.240 C  
HETATM    3  C   UNL     1     -12.861  15.059  70.711  1.00  0.00    -0.392 C  
HETATM    4  H   UNL     1     -12.077  16.811  70.573  1.00  0.00     0.000 HD 
HETATM    5  O   UNL     1     -11.812  15.898  70.580  1.00  0.00    -0.353 OA 
ENDROOT
BRANCH   2   6
HETATM    6  C   UNL     1     -12.816  11.355  71.441  1.00  0.00    -0.502 A  
HETATM    7  C   UNL     1     -13.651  10.414  72.048  1.00  0.00    -0.257 A  
HETATM    8  C   UNL     1     -13.330   9.056  71.995  1.00  0.00    -0.494 A  
HETATM    9  C   UNL     1     -11.634  10.940  70.822  1.00  0.00    -0.249 A  
HETATM   10  C   UNL     1     -12.172   8.628  71.332  1.00  0.00    -0.348 A  
HETATM   11  C   UNL     1     -11.315   9.583  70.766  1.00  0.00    -0.387 A  
BRANCH  10  12
HETATM   12  C   UNL     1     -11.922   7.156  71.115  1.00  0.00    -0.342 C  
BRANCH  12  13
HETATM   13  N   UNL     1     -11.977   6.778  69.702  1.00  0.00    -0.605 NA 
HETATM   14  H   UNL     1     -12.251   7.566  69.115  1.00  0.00     0.000 HD 
BRANCH  13  15
HETATM   15  C   UNL     1     -10.706   6.187  69.251  1.00  0.00    -0.318 C  
BRANCH  15  16
HETATM   16  C   UNL     1     -10.199   6.763  67.920  1.00  0.00    -0.207 C  
BRANCH  16  17
HETATM   17  C   UNL     1      -9.387   8.009  68.099  1.00  0.00    -0.145 A  
HETATM   18  C   UNL     1      -8.105   8.115  68.614  1.00  0.00    -0.124 A  
HETATM   19  N   UNL     1      -7.781   9.450  68.645  1.00  0.00    -0.083 NA 
HETATM   20  C   UNL     1      -7.142   7.092  69.098  1.00  0.00    -0.083 C  
HETATM   21  H   UNL     1      -6.895   9.824  68.987  1.00  0.00     0.000 HD 
HETATM   22  C   UNL     1      -8.810  10.212  68.153  1.00  0.00    -0.126 A  
HETATM   23  C   UNL     1      -8.916  11.601  68.012  1.00  0.00    -0.176 A  
HETATM   24  C   UNL     1     -10.097  12.110  67.465  1.00  0.00    -0.204 A  
HETATM   25  C   UNL     1     -11.131  11.260  67.075  1.00  0.00    -0.356 A  
HETATM   26  C   UNL     1     -11.011   9.875  67.233  1.00  0.00    -0.187 A  
HETATM   27  C   UNL     1      -9.829   9.337  67.785  1.00  0.00    -0.210 A  
ENDBRANCH  16  17
ENDBRANCH  15  16
ENDBRANCH  13  15
ENDBRANCH  12  13
ENDBRANCH  10  12
ENDBRANCH   2   6
BRANCH   3  28
HETATM   28  N   UNL     1     -14.083  15.473  70.811  1.00  0.00    -0.829 NA 
HETATM   29  H   UNL     1     -14.730  15.553  70.026  1.00  0.00     0.000 HD 
HETATM   30  O   UNL     1     -14.404  15.798  72.137  1.00  0.00    -0.462 OA 
HETATM   31  H   UNL     1     -15.301  16.101  72.210  1.00  0.00     0.000 HD 
ENDBRANCH   3  28
TORSDOF 7
ENDMDL
MODEL       70
REMARK 921   NORMALIZED FREE ENERGY PREDICTED BY IDOCK:   -5.17 KCAL/MOL
REMARK 922        TOTAL FREE ENERGY PREDICTED BY IDOCK:   -9.91 KCAL/MOL
REMARK 923 INTER-LIGAND FREE ENERGY PREDICTED BY IDOCK:   -8.46 KCAL/MOL
REMARK 924 INTRA-LIGAND FREE ENERGY PREDICTED BY IDOCK:   -1.45 KCAL/MOL
REMARK 927      BINDING AFFINITY PREDICTED BY RF-SCORE:    0.00 PKD
ROOT
HETATM    1  C   UNL     1      -9.658   6.439  66.879  1.00  0.00    -0.179 C  
HETATM    2  C   UNL     1      -9.748   7.430  65.979  1.00  0.00     0.145 C  
HETATM    3  C   UNL     1     -10.254   5.136  66.564  1.00  0.00    -0.264 C  
HETATM    4  H   UNL     1     -10.003   3.273  66.974  1.00  0.00     0.000 HD 
HETATM    5  O   UNL     1      -9.617   4.117  67.178  1.00  0.00    -0.181 OA 
ENDROOT
BRANCH   2   6
HETATM    6  C   UNL     1      -9.150   8.733  66.247  1.00  0.00    -0.240 A  
HETATM    7  C   UNL     1      -9.506   9.845  65.480  1.00  0.00    -0.313 A  
HETATM    8  C   UNL     1      -9.014  11.109  65.812  1.00  0.00    -0.207 A  
HETATM    9  C   UNL     1      -8.266   8.880  67.318  1.00  0.00    -0.104 A  
HETATM   10  C   UNL     1      -8.166  11.272  66.916  1.00  0.00    -0.153 A  
HETATM   11  C   UNL     1      -7.778  10.143  67.651  1.00  0.00    -0.091 A  
BRANCH  10  12
HETATM   12  C   UNL     1      -7.786  12.655  67.384  1.00  0.00    -0.161 C  
BRANCH  12  13
HETATM   13  N   UNL     1      -8.497  13.053  68.599  1.00  0.00    -0.352 NA 
HETATM   14  H   UNL     1      -7.859  13.430  69.299  1.00  0.00     0.000 HD 
BRANCH  13  15
HETATM   15  C   UNL     1      -9.588  13.997  68.302  1.00  0.00    -0.224 C  
BRANCH  15  16
HETATM   16  C   UNL     1     -10.936  13.313  68.027  1.00  0.00    -0.266 C  
BRANCH  16  17
HETATM   17  C   UNL     1     -11.600  12.818  69.276  1.00  0.00    -0.372 A  
HETATM   18  C   UNL     1     -11.713  11.507  69.711  1.00  0.00    -0.353 A  
HETATM   19  N   UNL     1     -12.447  11.518  70.872  1.00  0.00    -0.389 NA 
HETATM   20  C   UNL     1     -11.214  10.228  69.144  1.00  0.00    -0.268 C  
HETATM   21  H   UNL     1     -12.694  10.687  71.410  1.00  0.00     0.000 HD 
HETATM   22  C   UNL     1     -12.802  12.800  71.211  1.00  0.00    -0.262 A  
HETATM   23  C   UNL     1     -13.551  13.270  72.296  1.00  0.00    -0.703 A  
HETATM   24  C   UNL     1     -13.754  14.650  72.395  1.00  0.00    -0.575 A  
HETATM   25  C   UNL     1     -13.226  15.522  71.446  1.00  0.00    -0.587 A  
HETATM   26  C   UNL     1     -12.488  15.033  70.363  1.00  0.00    -0.407 A  
HETATM   27  C   UNL     1     -12.271  13.643  70.239  1.00  0.00    -0.423 A  
ENDBRANCH  16  17
ENDBRANCH  15  16
ENDBRANCH  13  15
ENDBRANCH  12  13
ENDBRANCH  10  12
ENDBRANCH   2   6
BRANCH   3  28
HETATM   28  N   UNL     1     -11.278   4.961  65.792  1.00  0.00    -0.893 NA 
HETATM   29  H   UNL     1     -12.196   5.378  65.950  1.00  0.00     0.000 HD 
HETATM   30  O   UNL     1     -10.964   4.124  64.711  1.00  0.00    -0.636 OA 
HETATM   31  H   UNL     1     -11.715   3.996  64.145  1.00  0.00     0.000 HD 
ENDBRANCH   3  28
TORSDOF 7
ENDMDL
MODEL       71
REMARK 921   NORMALIZED FREE ENERGY PREDICTED BY IDOCK:   -5.12 KCAL/MOL
REMARK 922        TOTAL FREE ENERGY PREDICTED BY IDOCK:   -9.85 KCAL/MOL
REMARK 923 INTER-LIGAND FREE ENERGY PREDICTED BY IDOCK:   -7.50 KCAL/MOL
REMARK 924 INTRA-LIGAND FREE ENERGY PREDICTED BY IDOCK:   -2.35 KCAL/MOL
REMARK 927      BINDING AFFINITY PREDICTED BY RF-SCORE:    0.00 PKD
ROOT
HETATM    1  C   UNL     1     -10.683  10.867  66.059  1.00  0.00    -0.208 C  
HETATM    2  C   UNL     1      -9.874   9.843  65.745  1.00  0.00    -0.356 C  
HETATM    3  C   UNL     1     -10.880  11.943  65.082  1.00  0.00    -0.300 C  
HETATM    4  H   UNL     1     -12.215  13.231  64.571  1.00  0.00     0.000 HD 
HETATM    5  O   UNL     1     -12.087  12.533  65.204  1.00  0.00    -0.417 OA 
ENDROOT
BRANCH   2   6
HETATM    6  C   UNL     1      -9.669   8.744  66.681  1.00  0.00    -0.309 A  
HETATM    7  C   UNL     1     -10.750   8.200  67.380  1.00  0.00    -0.247 A  
HETATM    8  C   UNL     1     -10.564   7.077  68.190  1.00  0.00    -0.250 A  
HETATM    9  C   UNL     1      -8.394   8.193  66.831  1.00  0.00    -0.115 A  
HETATM   10  C   UNL     1      -9.298   6.488  68.305  1.00  0.00    -0.118 A  
HETATM   11  C   UNL     1      -8.210   7.070  67.637  1.00  0.00    -0.117 A  
BRANCH  10  12
HETATM   12  C   UNL     1      -9.134   5.173  69.027  1.00  0.00    -0.106 C  
BRANCH  12  13
HETATM   13  N   UNL     1      -9.263   5.308  70.478  1.00  0.00    -0.142 NA 
HETATM   14  H   UNL     1      -9.315   4.397  70.934  1.00  0.00     0.000 HD 
BRANCH  13  15
HETATM   15  C   UNL     1      -8.180   6.132  71.043  1.00  0.00    -0.123 C  
BRANCH  15  16
HETATM   16  C   UNL     1      -8.673   7.206  72.024  1.00  0.00    -0.130 C  
BRANCH  16  17
HETATM   17  C   UNL     1      -9.267   8.395  71.333  1.00  0.00    -0.242 A  
HETATM   18  C   UNL     1      -8.606   9.349  70.576  1.00  0.00    -0.223 A  
HETATM   19  N   UNL     1      -9.535  10.284  70.186  1.00  0.00    -0.357 NA 
HETATM   20  C   UNL     1      -7.180   9.492  70.185  1.00  0.00    -0.114 C  
HETATM   21  H   UNL     1      -9.326  11.108  69.623  1.00  0.00     0.000 HD 
HETATM   22  C   UNL     1     -10.781   9.955  70.656  1.00  0.00    -0.303 A  
HETATM   23  C   UNL     1     -12.004  10.622  70.508  1.00  0.00    -0.446 A  
HETATM   24  C   UNL     1     -13.133  10.045  71.098  1.00  0.00    -0.472 A  
HETATM   25  C   UNL     1     -13.040   8.848  71.805  1.00  0.00    -0.423 A  
HETATM   26  C   UNL     1     -11.808   8.201  71.949  1.00  0.00    -0.366 A  
HETATM   27  C   UNL     1     -10.653   8.765  71.366  1.00  0.00    -0.349 A  
ENDBRANCH  16  17
ENDBRANCH  15  16
ENDBRANCH  13  15
ENDBRANCH  12  13
ENDBRANCH  10  12
ENDBRANCH   2   6
BRANCH   3  28
HETATM   28  N   UNL     1     -10.008  12.304  64.197  1.00  0.00    -0.520 NA 
HETATM   29  H   UNL     1      -9.449  11.656  63.641  1.00  0.00     0.000 HD 
HETATM   30  O   UNL     1      -9.928  13.702  64.101  1.00  0.00    -0.746 OA 
HETATM   31  H   UNL     1      -9.288  13.967  63.451  1.00  0.00     0.000 HD 
ENDBRANCH   3  28
TORSDOF 7
ENDMDL
MODEL       72
REMARK 921   NORMALIZED FREE ENERGY PREDICTED BY IDOCK:   -5.11 KCAL/MOL
REMARK 922        TOTAL FREE ENERGY PREDICTED BY IDOCK:   -9.83 KCAL/MOL
REMARK 923 INTER-LIGAND FREE ENERGY PREDICTED BY IDOCK:   -6.93 KCAL/MOL
REMARK 924 INTRA-LIGAND FREE ENERGY PREDICTED BY IDOCK:   -2.90 KCAL/MOL
REMARK 927      BINDING AFFINITY PREDICTED BY RF-SCORE:    0.00 PKD
ROOT
HETATM    1  C   UNL     1     -11.902   8.214  70.642  1.00  0.00    -0.093 C  
HETATM    2  C   UNL     1     -11.465   6.948  70.709  1.00  0.00    -0.381 C  
HETATM    3  C   UNL     1     -12.370   8.872  71.867  1.00  0.00    -0.376 C  
HETATM    4  H   UNL     1     -12.497  10.635  72.626  1.00  0.00     0.000 HD 
HETATM    5  O   UNL     1     -12.193  10.209  71.833  1.00  0.00    -0.332 OA 
ENDROOT
BRANCH   2   6
HETATM    6  C   UNL     1     -10.972   6.267  69.518  1.00  0.00    -0.445 A  
HETATM    7  C   UNL     1     -11.353   6.703  68.246  1.00  0.00    -0.094 A  
HETATM    8  C   UNL     1     -10.791   6.118  67.109  1.00  0.00    -0.442 A  
HETATM    9  C   UNL     1     -10.064   5.215  69.649  1.00  0.00    -0.332 A  
HETATM   10  C   UNL     1      -9.841   5.096  67.234  1.00  0.00    -0.191 A  
HETATM   11  C   UNL     1      -9.500   4.633  68.514  1.00  0.00    -0.206 A  
BRANCH  10  12
HETATM   12  C   UNL     1      -9.100   4.595  66.020  1.00  0.00    -0.131 C  
BRANCH  12  13
HETATM   13  N   UNL     1      -8.957   5.619  64.985  1.00  0.00    -0.355 NA 
HETATM   14  H   UNL     1      -9.691   6.325  65.054  1.00  0.00     0.000 HD 
BRANCH  13  15
HETATM   15  C   UNL     1      -7.618   6.232  65.011  1.00  0.00    -0.090 C  
BRANCH  15  16
HETATM   16  C   UNL     1      -7.631   7.749  64.769  1.00  0.00    -0.108 C  
BRANCH  16  17
HETATM   17  C   UNL     1      -8.288   8.508  65.880  1.00  0.00    -0.142 A  
HETATM   18  C   UNL     1      -9.220   9.528  65.771  1.00  0.00    -0.211 A  
HETATM   19  N   UNL     1      -9.502   9.968  67.042  1.00  0.00    -0.160 NA 
HETATM   20  C   UNL     1      -9.872  10.154  64.592  1.00  0.00    -0.361 C  
HETATM   21  H   UNL     1     -10.152  10.722  67.264  1.00  0.00     0.000 HD 
HETATM   22  C   UNL     1      -8.791   9.253  67.973  1.00  0.00    -0.128 A  
HETATM   23  C   UNL     1      -8.763   9.369  69.368  1.00  0.00    -0.157 A  
HETATM   24  C   UNL     1      -7.938   8.489  70.076  1.00  0.00    -0.109 A  
HETATM   25  C   UNL     1      -7.175   7.532  69.411  1.00  0.00    -0.082 A  
HETATM   26  C   UNL     1      -7.209   7.437  68.016  1.00  0.00    -0.090 A  
HETATM   27  C   UNL     1      -8.032   8.316  67.279  1.00  0.00    -0.105 A  
ENDBRANCH  16  17
ENDBRANCH  15  16
ENDBRANCH  13  15
ENDBRANCH  12  13
ENDBRANCH  10  12
ENDBRANCH   2   6
BRANCH   3  28
HETATM   28  N   UNL     1     -12.900   8.259  72.876  1.00  0.00    -0.627 NA 
HETATM   29  H   UNL     1     -12.472   7.467  73.358  1.00  0.00     0.000 HD 
HETATM   30  O   UNL     1     -14.137   8.822  73.222  1.00  0.00    -1.180 OA 
HETATM   31  H   UNL     1     -14.526   8.372  73.963  1.00  0.00     0.000 HD 
ENDBRANCH   3  28
TORSDOF 7
ENDMDL
MODEL       73
REMARK 921   NORMALIZED FREE ENERGY PREDICTED BY IDOCK:   -5.10 KCAL/MOL
REMARK 922        TOTAL FREE ENERGY PREDICTED BY IDOCK:   -9.81 KCAL/MOL
REMARK 923 INTER-LIGAND FREE ENERGY PREDICTED BY IDOCK:   -8.79 KCAL/MOL
REMARK 924 INTRA-LIGAND FREE ENERGY PREDICTED BY IDOCK:   -1.02 KCAL/MOL
REMARK 927      BINDING AFFINITY PREDICTED BY RF-SCORE:    0.00 PKD
ROOT
HETATM    1  C   UNL     1     -10.056   6.069  72.270  1.00  0.00    -0.205 C  
HETATM    2  C   UNL     1     -11.203   6.683  71.945  1.00  0.00    -0.302 C  
HETATM    3  C   UNL     1     -10.111   4.803  73.009  1.00  0.00    -0.160 C  
HETATM    4  H   UNL     1      -9.087   3.189  73.227  1.00  0.00     0.000 HD 
HETATM    5  O   UNL     1      -9.052   4.009  72.748  1.00  0.00    -0.104 OA 
ENDROOT
BRANCH   2   6
HETATM    6  C   UNL     1     -11.190   7.932  71.193  1.00  0.00    -0.284 A  
HETATM    7  C   UNL     1     -10.482   8.027  69.992  1.00  0.00    -0.228 A  
HETATM    8  C   UNL     1     -10.564   9.189  69.221  1.00  0.00    -0.229 A  
HETATM    9  C   UNL     1     -11.941   9.019  71.645  1.00  0.00    -0.426 A  
HETATM   10  C   UNL     1     -11.357  10.265  69.644  1.00  0.00    -0.315 A  
HETATM   11  C   UNL     1     -12.026  10.178  70.874  1.00  0.00    -0.461 A  
BRANCH  10  12
HETATM   12  C   UNL     1     -11.593  11.440  68.729  1.00  0.00    -0.313 C  
BRANCH  12  13
HETATM   13  N   UNL     1     -10.365  12.180  68.434  1.00  0.00    -0.225 NA 
HETATM   14  H   UNL     1      -9.642  11.567  68.055  1.00  0.00     0.000 HD 
BRANCH  13  15
HETATM   15  C   UNL     1     -10.623  13.323  67.542  1.00  0.00    -0.246 C  
BRANCH  15  16
HETATM   16  C   UNL     1     -11.905  14.095  67.888  1.00  0.00    -0.405 C  
BRANCH  16  17
HETATM   17  C   UNL     1     -11.723  15.037  69.038  1.00  0.00    -0.351 A  
HETATM   18  C   UNL     1     -11.048  16.247  69.040  1.00  0.00    -0.331 A  
HETATM   19  N   UNL     1     -11.086  16.740  70.322  1.00  0.00    -0.385 NA 
HETATM   20  C   UNL     1     -10.350  16.996  67.963  1.00  0.00    -0.341 C  
HETATM   21  H   UNL     1     -10.659  17.618  70.619  1.00  0.00     0.000 HD 
HETATM   22  C   UNL     1     -11.778  15.892  71.149  1.00  0.00    -0.442 A  
HETATM   23  C   UNL     1     -12.051  15.992  72.518  1.00  0.00    -0.635 A  
HETATM   24  C   UNL     1     -12.797  14.967  73.108  1.00  0.00    -0.619 A  
HETATM   25  C   UNL     1     -13.252  13.886  72.355  1.00  0.00    -0.587 A  
HETATM   26  C   UNL     1     -12.961  13.799  70.989  1.00  0.00    -0.324 A  
HETATM   27  C   UNL     1     -12.208  14.820  70.371  1.00  0.00    -0.395 A  
ENDBRANCH  16  17
ENDBRANCH  15  16
ENDBRANCH  13  15
ENDBRANCH  12  13
ENDBRANCH  10  12
ENDBRANCH   2   6
BRANCH   3  28
HETATM   28  N   UNL     1     -11.056   4.467  73.826  1.00  0.00    -0.271 NA 
HETATM   29  H   UNL     1     -11.431   5.076  74.554  1.00  0.00     0.000 HD 
HETATM   30  O   UNL     1     -11.501   3.159  73.581  1.00  0.00    -0.208 OA 
HETATM   31  H   UNL     1     -12.195   2.913  74.181  1.00  0.00     0.000 HD 
ENDBRANCH   3  28
TORSDOF 7
ENDMDL
MODEL       74
REMARK 921   NORMALIZED FREE ENERGY PREDICTED BY IDOCK:   -5.07 KCAL/MOL
REMARK 922        TOTAL FREE ENERGY PREDICTED BY IDOCK:   -9.78 KCAL/MOL
REMARK 923 INTER-LIGAND FREE ENERGY PREDICTED BY IDOCK:   -9.05 KCAL/MOL
REMARK 924 INTRA-LIGAND FREE ENERGY PREDICTED BY IDOCK:   -0.73 KCAL/MOL
REMARK 927      BINDING AFFINITY PREDICTED BY RF-SCORE:    0.00 PKD
ROOT
HETATM    1  C   UNL     1     -11.615   8.137  71.314  1.00  0.00    -0.305 C  
HETATM    2  C   UNL     1     -11.874   9.087  70.404  1.00  0.00    -0.018 C  
HETATM    3  C   UNL     1     -12.735   7.418  71.932  1.00  0.00    -0.278 C  
HETATM    4  H   UNL     1     -13.125   5.702  72.708  1.00  0.00     0.000 HD 
HETATM    5  O   UNL     1     -12.400   6.167  72.308  1.00  0.00    -0.271 OA 
ENDROOT
BRANCH   2   6
HETATM    6  C   UNL     1     -10.786   9.808  69.753  1.00  0.00    -0.285 A  
HETATM    7  C   UNL     1     -11.055  10.718  68.728  1.00  0.00    -0.312 A  
HETATM    8  C   UNL     1     -10.021  11.485  68.185  1.00  0.00    -0.197 A  
HETATM    9  C   UNL     1      -9.475   9.633  70.202  1.00  0.00    -0.298 A  
HETATM   10  C   UNL     1      -8.712  11.352  68.666  1.00  0.00    -0.121 A  
HETATM   11  C   UNL     1      -8.444  10.402  69.663  1.00  0.00    -0.068 A  
BRANCH  10  12
HETATM   12  C   UNL     1      -7.635  12.306  68.213  1.00  0.00    -0.133 C  
BRANCH  12  13
HETATM   13  N   UNL     1      -7.826  13.659  68.738  1.00  0.00    -0.284 NA 
HETATM   14  H   UNL     1      -6.984  14.001  69.202  1.00  0.00     0.000 HD 
BRANCH  13  15
HETATM   15  C   UNL     1      -8.276  14.588  67.688  1.00  0.00    -0.177 C  
BRANCH  15  16
HETATM   16  C   UNL     1      -9.728  15.060  67.865  1.00  0.00    -0.212 C  
BRANCH  16  17
HETATM   17  C   UNL     1     -10.117  16.121  66.882  1.00  0.00    -0.273 A  
HETATM   18  C   UNL     1     -10.529  15.947  65.570  1.00  0.00    -0.404 A  
HETATM   19  N   UNL     1     -10.726  17.195  65.030  1.00  0.00    -0.681 NA 
HETATM   20  C   UNL     1     -10.747  14.726  64.752  1.00  0.00    -0.380 C  
HETATM   21  H   UNL     1     -11.024  17.371  64.071  1.00  0.00     0.000 HD 
HETATM   22  C   UNL     1     -10.467  18.173  65.958  1.00  0.00    -0.335 A  
HETATM   23  C   UNL     1     -10.529  19.566  65.839  1.00  0.00    -0.585 A  
HETATM   24  C   UNL     1     -10.214  20.329  66.967  1.00  0.00    -0.503 A  
HETATM   25  C   UNL     1      -9.853  19.718  68.167  1.00  0.00    -0.536 A  
HETATM   26  C   UNL     1      -9.788  18.324  68.264  1.00  0.00    -0.366 A  
HETATM   27  C   UNL     1     -10.099  17.533  67.138  1.00  0.00    -0.321 A  
ENDBRANCH  16  17
ENDBRANCH  15  16
ENDBRANCH  13  15
ENDBRANCH  12  13
ENDBRANCH  10  12
ENDBRANCH   2   6
BRANCH   3  28
HETATM   28  N   UNL     1     -13.918   7.912  72.110  1.00  0.00    -0.550 NA 
HETATM   29  H   UNL     1     -14.725   7.698  71.523  1.00  0.00     0.000 HD 
HETATM   30  O   UNL     1     -13.949   8.778  73.213  1.00  0.00    -1.160 OA 
HETATM   31  H   UNL     1     -14.818   9.140  73.343  1.00  0.00     0.000 HD 
ENDBRANCH   3  28
TORSDOF 7
ENDMDL
MODEL       75
REMARK 921   NORMALIZED FREE ENERGY PREDICTED BY IDOCK:   -5.04 KCAL/MOL
REMARK 922        TOTAL FREE ENERGY PREDICTED BY IDOCK:   -9.73 KCAL/MOL
REMARK 923 INTER-LIGAND FREE ENERGY PREDICTED BY IDOCK:   -8.63 KCAL/MOL
REMARK 924 INTRA-LIGAND FREE ENERGY PREDICTED BY IDOCK:   -1.10 KCAL/MOL
REMARK 927      BINDING AFFINITY PREDICTED BY RF-SCORE:    0.00 PKD
ROOT
HETATM    1  C   UNL     1     -11.422  12.868  65.197  1.00  0.00    -0.348 C  
HETATM    2  C   UNL     1     -10.295  12.372  64.664  1.00  0.00    -0.332 C  
HETATM    3  C   UNL     1     -11.881  14.197  64.778  1.00  0.00    -0.417 C  
HETATM    4  H   UNL     1     -13.519  15.189  64.590  1.00  0.00     0.000 HD 
HETATM    5  O   UNL     1     -13.221  14.328  64.861  1.00  0.00    -0.550 OA 
ENDROOT
BRANCH   2   6
HETATM    6  C   UNL     1      -9.818  11.046  65.040  1.00  0.00    -0.321 A  
HETATM    7  C   UNL     1     -10.356  10.388  66.149  1.00  0.00    -0.269 A  
HETATM    8  C   UNL     1      -9.974   9.076  66.437  1.00  0.00    -0.370 A  
HETATM    9  C   UNL     1      -8.863  10.406  64.247  1.00  0.00    -0.224 A  
HETATM   10  C   UNL     1      -9.054   8.410  65.616  1.00  0.00    -0.155 A  
HETATM   11  C   UNL     1      -8.484   9.094  64.532  1.00  0.00    -0.195 A  
BRANCH  10  12
HETATM   12  C   UNL     1      -8.783   6.939  65.816  1.00  0.00    -0.106 C  
BRANCH  12  13
HETATM   13  N   UNL     1     -10.008   6.164  66.022  1.00  0.00    -0.393 NA 
HETATM   14  H   UNL     1     -10.295   5.686  65.167  1.00  0.00     0.000 HD 
BRANCH  13  15
HETATM   15  C   UNL     1      -9.869   5.222  67.144  1.00  0.00    -0.164 C  
BRANCH  15  16
HETATM   16  C   UNL     1      -8.976   5.745  68.280  1.00  0.00    -0.115 C  
BRANCH  16  17
HETATM   17  C   UNL     1      -9.671   5.754  69.607  1.00  0.00    -0.208 A  
HETATM   18  C   UNL     1      -9.866   4.684  70.466  1.00  0.00    -0.231 A  
HETATM   19  N   UNL     1     -10.600   5.139  71.535  1.00  0.00    -0.187 NA 
HETATM   20  C   UNL     1      -9.447   3.260  70.388  1.00  0.00    -0.235 C  
HETATM   21  H   UNL     1     -10.899   4.562  72.321  1.00  0.00     0.000 HD 
HETATM   22  C   UNL     1     -10.875   6.477  71.401  1.00  0.00    -0.245 A  
HETATM   23  C   UNL     1     -11.595   7.336  72.239  1.00  0.00    -0.315 A  
HETATM   24  C   UNL     1     -11.711   8.674  71.850  1.00  0.00    -0.422 A  
HETATM   25  C   UNL     1     -11.129   9.131  70.670  1.00  0.00    -0.320 A  
HETATM   26  C   UNL     1     -10.421   8.255  69.840  1.00  0.00    -0.223 A  
HETATM   27  C   UNL     1     -10.291   6.899  70.210  1.00  0.00    -0.218 A  
ENDBRANCH  16  17
ENDBRANCH  15  16
ENDBRANCH  13  15
ENDBRANCH  12  13
ENDBRANCH  10  12
ENDBRANCH   2   6
BRANCH   3  28
HETATM   28  N   UNL     1     -11.106  15.152  64.376  1.00  0.00    -0.671 NA 
HETATM   29  H   UNL     1     -10.086  15.107  64.382  1.00  0.00     0.000 HD 
HETATM   30  O   UNL     1     -11.847  16.257  63.932  1.00  0.00    -1.400 OA 
HETATM   31  H   UNL     1     -11.277  16.958  63.636  1.00  0.00     0.000 HD 
ENDBRANCH   3  28
TORSDOF 7
ENDMDL
MODEL       76
REMARK 921   NORMALIZED FREE ENERGY PREDICTED BY IDOCK:   -5.01 KCAL/MOL
REMARK 922        TOTAL FREE ENERGY PREDICTED BY IDOCK:   -9.69 KCAL/MOL
REMARK 923 INTER-LIGAND FREE ENERGY PREDICTED BY IDOCK:   -7.10 KCAL/MOL
REMARK 924 INTRA-LIGAND FREE ENERGY PREDICTED BY IDOCK:   -2.59 KCAL/MOL
REMARK 927      BINDING AFFINITY PREDICTED BY RF-SCORE:    0.00 PKD
ROOT
HETATM    1  C   UNL     1     -11.942   8.235  70.630  1.00  0.00    -0.028 C  
HETATM    2  C   UNL     1     -11.394   7.016  70.752  1.00  0.00    -0.339 C  
HETATM    3  C   UNL     1     -12.334   8.963  71.842  1.00  0.00    -0.376 C  
HETATM    4  H   UNL     1     -12.532  10.772  72.465  1.00  0.00     0.000 HD 
HETATM    5  O   UNL     1     -12.277  10.301  71.680  1.00  0.00    -0.372 OA 
ENDROOT
BRANCH   2   6
HETATM    6  C   UNL     1     -10.971   6.271  69.572  1.00  0.00    -0.445 A  
HETATM    7  C   UNL     1     -11.394   6.663  68.299  1.00  0.00    -0.094 A  
HETATM    8  C   UNL     1     -10.898   6.013  67.167  1.00  0.00    -0.414 A  
HETATM    9  C   UNL     1     -10.088   5.199  69.712  1.00  0.00    -0.336 A  
HETATM   10  C   UNL     1      -9.972   4.969  67.298  1.00  0.00    -0.220 A  
HETATM   11  C   UNL     1      -9.589   4.552  68.581  1.00  0.00    -0.222 A  
BRANCH  10  12
HETATM   12  C   UNL     1      -9.298   4.394  66.077  1.00  0.00    -0.160 C  
BRANCH  12  13
HETATM   13  N   UNL     1      -9.392   5.277  64.913  1.00  0.00    -0.360 NA 
HETATM   14  H   UNL     1     -10.069   6.024  65.066  1.00  0.00     0.000 HD 
BRANCH  13  15
HETATM   15  C   UNL     1      -8.074   5.815  64.535  1.00  0.00    -0.132 C  
BRANCH  15  16
HETATM   16  C   UNL     1      -7.976   7.343  64.657  1.00  0.00    -0.127 C  
BRANCH  16  17
HETATM   17  C   UNL     1      -7.944   7.810  66.080  1.00  0.00    -0.108 A  
HETATM   18  C   UNL     1      -7.085   7.398  67.086  1.00  0.00    -0.084 A  
HETATM   19  N   UNL     1      -7.455   8.047  68.239  1.00  0.00    -0.098 NA 
HETATM   20  C   UNL     1      -5.950   6.439  67.090  1.00  0.00    -0.021 C  
HETATM   21  H   UNL     1      -7.000   7.927  69.144  1.00  0.00     0.000 HD 
HETATM   22  C   UNL     1      -8.520   8.880  68.006  1.00  0.00    -0.126 A  
HETATM   23  C   UNL     1      -9.220   9.715  68.886  1.00  0.00    -0.147 A  
HETATM   24  C   UNL     1     -10.276  10.469  68.365  1.00  0.00    -0.192 A  
HETATM   25  C   UNL     1     -10.615  10.389  67.016  1.00  0.00    -0.305 A  
HETATM   26  C   UNL     1      -9.911   9.543  66.154  1.00  0.00    -0.343 A  
HETATM   27  C   UNL     1      -8.842   8.770  66.657  1.00  0.00    -0.153 A  
ENDBRANCH  16  17
ENDBRANCH  15  16
ENDBRANCH  13  15
ENDBRANCH  12  13
ENDBRANCH  10  12
ENDBRANCH   2   6
BRANCH   3  28
HETATM   28  N   UNL     1     -12.701   8.405  72.950  1.00  0.00    -0.667 NA 
HETATM   29  H   UNL     1     -12.177   7.669  73.426  1.00  0.00     0.000 HD 
HETATM   30  O   UNL     1     -13.911   8.941  73.415  1.00  0.00    -1.236 OA 
HETATM   31  H   UNL     1     -14.180   8.531  74.229  1.00  0.00     0.000 HD 
ENDBRANCH   3  28
TORSDOF 7
ENDMDL
MODEL       77
REMARK 921   NORMALIZED FREE ENERGY PREDICTED BY IDOCK:   -4.99 KCAL/MOL
REMARK 922        TOTAL FREE ENERGY PREDICTED BY IDOCK:   -9.66 KCAL/MOL
REMARK 923 INTER-LIGAND FREE ENERGY PREDICTED BY IDOCK:   -7.88 KCAL/MOL
REMARK 924 INTRA-LIGAND FREE ENERGY PREDICTED BY IDOCK:   -1.78 KCAL/MOL
REMARK 927      BINDING AFFINITY PREDICTED BY RF-SCORE:    0.00 PKD
ROOT
HETATM    1  C   UNL     1     -10.750  13.434  64.630  1.00  0.00    -0.425 C  
HETATM    2  C   UNL     1     -11.324  14.641  64.752  1.00  0.00    -0.398 C  
HETATM    3  C   UNL     1     -11.215  12.528  63.574  1.00  0.00    -0.462 C  
HETATM    4  H   UNL     1     -10.548  11.103  62.468  1.00  0.00     0.000 HD 
HETATM    5  O   UNL     1     -10.246  11.690  63.151  1.00  0.00    -0.385 OA 
ENDROOT
BRANCH   2   6
HETATM    6  C   UNL     1     -10.874  15.577  65.775  1.00  0.00    -0.337 A  
HETATM    7  C   UNL     1     -10.334  16.814  65.413  1.00  0.00    -0.169 A  
HETATM    8  C   UNL     1     -10.008  17.749  66.398  1.00  0.00    -0.345 A  
HETATM    9  C   UNL     1     -11.045  15.260  67.124  1.00  0.00    -0.323 A  
HETATM   10  C   UNL     1     -10.224  17.457  67.752  1.00  0.00    -0.345 A  
HETATM   11  C   UNL     1     -10.724  16.196  68.107  1.00  0.00    -0.315 A  
BRANCH  10  12
HETATM   12  C   UNL     1     -10.049  18.530  68.798  1.00  0.00    -0.356 C  
BRANCH  12  13
HETATM   13  N   UNL     1      -9.253  19.660  68.317  1.00  0.00    -0.346 NA 
HETATM   14  H   UNL     1      -9.739  20.546  68.458  1.00  0.00     0.000 HD 
BRANCH  13  15
HETATM   15  C   UNL     1      -7.914  19.679  68.930  1.00  0.00    -0.250 C  
BRANCH  15  16
HETATM   16  C   UNL     1      -6.880  18.831  68.174  1.00  0.00    -0.254 C  
BRANCH  16  17
HETATM   17  C   UNL     1      -6.368  17.681  68.985  1.00  0.00    -0.223 A  
HETATM   18  C   UNL     1      -5.647  17.736  70.168  1.00  0.00    -0.242 A  
HETATM   19  N   UNL     1      -5.341  16.446  70.527  1.00  0.00    -0.189 NA 
HETATM   20  C   UNL     1      -5.195  18.880  71.002  1.00  0.00    -0.283 C  
HETATM   21  H   UNL     1      -4.806  16.186  71.355  1.00  0.00     0.000 HD 
HETATM   22  C   UNL     1      -5.854  15.554  69.619  1.00  0.00    -0.128 A  
HETATM   23  C   UNL     1      -5.776  14.157  69.585  1.00  0.00    -0.101 A  
HETATM   24  C   UNL     1      -6.409  13.496  68.528  1.00  0.00    -0.088 A  
HETATM   25  C   UNL     1      -7.094  14.208  67.546  1.00  0.00    -0.184 A  
HETATM   26  C   UNL     1      -7.155  15.605  67.591  1.00  0.00    -0.192 A  
HETATM   27  C   UNL     1      -6.521  16.295  68.647  1.00  0.00    -0.126 A  
ENDBRANCH  16  17
ENDBRANCH  15  16
ENDBRANCH  13  15
ENDBRANCH  12  13
ENDBRANCH  10  12
ENDBRANCH   2   6
BRANCH   3  28
HETATM   28  N   UNL     1     -12.416  12.514  63.091  1.00  0.00    -0.769 NA 
HETATM   29  H   UNL     1     -12.673  12.889  62.177  1.00  0.00     0.000 HD 
HETATM   30  O   UNL     1     -13.318  11.919  63.985  1.00  0.00    -0.646 OA 
HETATM   31  H   UNL     1     -14.199  11.909  63.630  1.00  0.00     0.000 HD 
ENDBRANCH   3  28
TORSDOF 7
ENDMDL
MODEL       78
REMARK 921   NORMALIZED FREE ENERGY PREDICTED BY IDOCK:   -4.98 KCAL/MOL
REMARK 922        TOTAL FREE ENERGY PREDICTED BY IDOCK:   -9.65 KCAL/MOL
REMARK 923 INTER-LIGAND FREE ENERGY PREDICTED BY IDOCK:   -8.17 KCAL/MOL
REMARK 924 INTRA-LIGAND FREE ENERGY PREDICTED BY IDOCK:   -1.48 KCAL/MOL
REMARK 927      BINDING AFFINITY PREDICTED BY RF-SCORE:    0.00 PKD
ROOT
HETATM    1  C   UNL     1     -10.466  13.950  66.165  1.00  0.00    -0.297 C  
HETATM    2  C   UNL     1     -10.707  12.889  65.380  1.00  0.00    -0.307 C  
HETATM    3  C   UNL     1     -10.673  15.298  65.624  1.00  0.00    -0.365 C  
HETATM    4  H   UNL     1     -11.136  17.064  66.230  1.00  0.00     0.000 HD 
HETATM    5  O   UNL     1     -11.002  16.191  66.580  1.00  0.00    -0.211 OA 
ENDROOT
BRANCH   2   6
HETATM    6  C   UNL     1     -10.533  11.534  65.888  1.00  0.00    -0.303 A  
HETATM    7  C   UNL     1     -11.078  11.165  67.120  1.00  0.00    -0.352 A  
HETATM    8  C   UNL     1     -11.002   9.838  67.549  1.00  0.00    -0.205 A  
HETATM    9  C   UNL     1      -9.870  10.584  65.107  1.00  0.00    -0.359 A  
HETATM   10  C   UNL     1     -10.384   8.869  66.747  1.00  0.00    -0.317 A  
HETATM   11  C   UNL     1      -9.798   9.258  65.534  1.00  0.00    -0.155 A  
BRANCH  10  12
HETATM   12  C   UNL     1     -10.465   7.409  67.121  1.00  0.00    -0.333 C  
BRANCH  12  13
HETATM   13  N   UNL     1     -11.278   7.179  68.316  1.00  0.00    -0.482 NA 
HETATM   14  H   UNL     1     -12.273   7.163  68.092  1.00  0.00     0.000 HD 
BRANCH  13  15
HETATM   15  C   UNL     1     -10.867   5.954  69.022  1.00  0.00    -0.313 C  
BRANCH  15  16
HETATM   16  C   UNL     1     -10.252   6.218  70.405  1.00  0.00    -0.248 C  
BRANCH  16  17
HETATM   17  C   UNL     1      -9.767   7.626  70.564  1.00  0.00    -0.182 A  
HETATM   18  C   UNL     1     -10.390   8.663  71.240  1.00  0.00    -0.239 A  
HETATM   19  N   UNL     1      -9.617   9.787  71.078  1.00  0.00    -0.298 NA 
HETATM   20  C   UNL     1     -11.654   8.721  72.020  1.00  0.00    -0.436 C  
HETATM   21  H   UNL     1      -9.840  10.705  71.462  1.00  0.00     0.000 HD 
HETATM   22  C   UNL     1      -8.503   9.506  70.328  1.00  0.00    -0.207 A  
HETATM   23  C   UNL     1      -7.461  10.345  69.913  1.00  0.00    -0.134 A  
HETATM   24  C   UNL     1      -6.435   9.777  69.151  1.00  0.00    -0.044 A  
HETATM   25  C   UNL     1      -6.453   8.424  68.819  1.00  0.00    -0.053 A  
HETATM   26  C   UNL     1      -7.507   7.604  69.234  1.00  0.00    -0.094 A  
HETATM   27  C   UNL     1      -8.556   8.154  70.003  1.00  0.00    -0.129 A  
ENDBRANCH  16  17
ENDBRANCH  15  16
ENDBRANCH  13  15
ENDBRANCH  12  13
ENDBRANCH  10  12
ENDBRANCH   2   6
BRANCH   3  28
HETATM   28  N   UNL     1     -10.556  15.617  64.375  1.00  0.00    -0.615 NA 
HETATM   29  H   UNL     1      -9.839  15.246  63.751  1.00  0.00     0.000 HD 
HETATM   30  O   UNL     1     -11.542  16.538  63.990  1.00  0.00    -1.490 OA 
HETATM   31  H   UNL     1     -11.455  16.772  63.073  1.00  0.00     0.000 HD 
ENDBRANCH   3  28
TORSDOF 7
ENDMDL
MODEL       79
REMARK 921   NORMALIZED FREE ENERGY PREDICTED BY IDOCK:   -4.97 KCAL/MOL
REMARK 922        TOTAL FREE ENERGY PREDICTED BY IDOCK:   -9.63 KCAL/MOL
REMARK 923 INTER-LIGAND FREE ENERGY PREDICTED BY IDOCK:   -8.03 KCAL/MOL
REMARK 924 INTRA-LIGAND FREE ENERGY PREDICTED BY IDOCK:   -1.60 KCAL/MOL
REMARK 927      BINDING AFFINITY PREDICTED BY RF-SCORE:    0.00 PKD
ROOT
HETATM    1  C   UNL     1     -11.211   7.783  70.331  1.00  0.00    -0.246 C  
HETATM    2  C   UNL     1     -11.637   8.549  71.348  1.00  0.00    -0.344 C  
HETATM    3  C   UNL     1     -10.879   6.378  70.590  1.00  0.00    -0.276 C  
HETATM    4  H   UNL     1     -10.852   4.687  69.673  1.00  0.00     0.000 HD 
HETATM    5  O   UNL     1     -11.068   5.597  69.506  1.00  0.00    -0.310 OA 
ENDROOT
BRANCH   2   6
HETATM    6  C   UNL     1     -11.997   9.944  71.126  1.00  0.00    -0.473 A  
HETATM    7  C   UNL     1     -12.980  10.554  71.909  1.00  0.00    -0.553 A  
HETATM    8  C   UNL     1     -13.242  11.919  71.766  1.00  0.00    -0.426 A  
HETATM    9  C   UNL     1     -11.308  10.692  70.168  1.00  0.00    -0.402 A  
HETATM   10  C   UNL     1     -12.519  12.685  70.842  1.00  0.00    -0.368 A  
HETATM   11  C   UNL     1     -11.566  12.055  70.028  1.00  0.00    -0.275 A  
BRANCH  10  12
HETATM   12  C   UNL     1     -12.669  14.186  70.818  1.00  0.00    -0.344 C  
BRANCH  12  13
HETATM   13  N   UNL     1     -12.675  14.730  69.459  1.00  0.00    -0.570 NA 
HETATM   14  H   UNL     1     -13.571  15.162  69.234  1.00  0.00     0.000 HD 
BRANCH  13  15
HETATM   15  C   UNL     1     -11.558  15.665  69.246  1.00  0.00    -0.366 C  
BRANCH  15  16
HETATM   16  C   UNL     1     -11.115  15.770  67.779  1.00  0.00    -0.313 C  
BRANCH  16  17
HETATM   17  C   UNL     1     -10.798  14.439  67.172  1.00  0.00    -0.292 A  
HETATM   18  C   UNL     1     -11.545  13.735  66.241  1.00  0.00    -0.350 A  
HETATM   19  N   UNL     1     -10.905  12.541  66.013  1.00  0.00    -0.270 NA 
HETATM   20  C   UNL     1     -12.817  14.056  65.542  1.00  0.00    -0.453 C  
HETATM   21  H   UNL     1     -11.237  11.816  65.376  1.00  0.00     0.000 HD 
HETATM   22  C   UNL     1      -9.756  12.455  66.759  1.00  0.00    -0.223 A  
HETATM   23  C   UNL     1      -8.813  11.424  66.846  1.00  0.00    -0.173 A  
HETATM   24  C   UNL     1      -7.719  11.615  67.695  1.00  0.00    -0.133 A  
HETATM   25  C   UNL     1      -7.577  12.792  68.427  1.00  0.00    -0.133 A  
HETATM   26  C   UNL     1      -8.534  13.808  68.334  1.00  0.00    -0.154 A  
HETATM   27  C   UNL     1      -9.649  13.638  67.485  1.00  0.00    -0.220 A  
ENDBRANCH  16  17
ENDBRANCH  15  16
ENDBRANCH  13  15
ENDBRANCH  12  13
ENDBRANCH  10  12
ENDBRANCH   2   6
BRANCH   3  28
HETATM   28  N   UNL     1     -10.448   5.919  71.720  1.00  0.00    -0.219 NA 
HETATM   29  H   UNL     1     -11.001   5.885  72.577  1.00  0.00     0.000 HD 
HETATM   30  O   UNL     1      -9.121   5.473  71.617  1.00  0.00    -0.141 OA 
HETATM   31  H   UNL     1      -8.805   5.136  72.447  1.00  0.00     0.000 HD 
ENDBRANCH   3  28
TORSDOF 7
ENDMDL
MODEL       80
REMARK 921   NORMALIZED FREE ENERGY PREDICTED BY IDOCK:   -4.96 KCAL/MOL
REMARK 922        TOTAL FREE ENERGY PREDICTED BY IDOCK:   -9.62 KCAL/MOL
REMARK 923 INTER-LIGAND FREE ENERGY PREDICTED BY IDOCK:   -8.62 KCAL/MOL
REMARK 924 INTRA-LIGAND FREE ENERGY PREDICTED BY IDOCK:   -1.00 KCAL/MOL
REMARK 927      BINDING AFFINITY PREDICTED BY RF-SCORE:    0.00 PKD
ROOT
HETATM    1  C   UNL     1      -9.610   4.820  65.398  1.00  0.00    -0.152 C  
HETATM    2  C   UNL     1     -10.619   5.040  66.255  1.00  0.00    -0.332 C  
HETATM    3  C   UNL     1      -9.752   3.768  64.386  1.00  0.00    -0.180 C  
HETATM    4  H   UNL     1      -9.129   3.346  62.615  1.00  0.00     0.000 HD 
HETATM    5  O   UNL     1      -9.037   4.027  63.271  1.00  0.00    -0.111 OA 
ENDROOT
BRANCH   2   6
HETATM    6  C   UNL     1     -10.524   6.090  67.261  1.00  0.00    -0.319 A  
HETATM    7  C   UNL     1     -10.278   7.412  66.883  1.00  0.00    -0.346 A  
HETATM    8  C   UNL     1     -10.297   8.429  67.841  1.00  0.00    -0.279 A  
HETATM    9  C   UNL     1     -10.743   5.780  68.605  1.00  0.00    -0.303 A  
HETATM   10  C   UNL     1     -10.567   8.132  69.183  1.00  0.00    -0.179 A  
HETATM   11  C   UNL     1     -10.767   6.796  69.561  1.00  0.00    -0.294 A  
BRANCH  10  12
HETATM   12  C   UNL     1     -10.772   9.245  70.181  1.00  0.00    -0.235 C  
BRANCH  12  13
HETATM   13  N   UNL     1     -12.175   9.646  70.297  1.00  0.00    -0.472 NA 
HETATM   14  H   UNL     1     -12.562   9.389  71.205  1.00  0.00     0.000 HD 
BRANCH  13  15
HETATM   15  C   UNL     1     -12.351  11.082  70.024  1.00  0.00    -0.305 C  
BRANCH  15  16
HETATM   16  C   UNL     1     -11.132  11.735  69.354  1.00  0.00    -0.245 C  
BRANCH  16  17
HETATM   17  C   UNL     1     -11.506  12.861  68.441  1.00  0.00    -0.347 A  
HETATM   18  C   UNL     1     -11.891  14.144  68.796  1.00  0.00    -0.349 A  
HETATM   19  N   UNL     1     -12.195  14.821  67.639  1.00  0.00    -0.535 NA 
HETATM   20  C   UNL     1     -12.022  14.811  70.118  1.00  0.00    -0.367 C  
HETATM   21  H   UNL     1     -12.517  15.788  67.600  1.00  0.00     0.000 HD 
HETATM   22  C   UNL     1     -12.003  14.018  66.543  1.00  0.00    -0.444 A  
HETATM   23  C   UNL     1     -12.197  14.289  65.183  1.00  0.00    -0.422 A  
HETATM   24  C   UNL     1     -11.911  13.270  64.271  1.00  0.00    -0.469 A  
HETATM   25  C   UNL     1     -11.448  12.029  64.704  1.00  0.00    -0.371 A  
HETATM   26  C   UNL     1     -11.269  11.773  66.068  1.00  0.00    -0.352 A  
HETATM   27  C   UNL     1     -11.554  12.786  67.009  1.00  0.00    -0.422 A  
ENDBRANCH  16  17
ENDBRANCH  15  16
ENDBRANCH  13  15
ENDBRANCH  12  13
ENDBRANCH  10  12
ENDBRANCH   2   6
BRANCH   3  28
HETATM   28  N   UNL     1     -10.473   2.703  64.526  1.00  0.00    -0.316 NA 
HETATM   29  H   UNL     1     -10.446   2.093  65.344  1.00  0.00     0.000 HD 
HETATM   30  O   UNL     1     -11.296   2.494  63.409  1.00  0.00    -0.476 OA 
HETATM   31  H   UNL     1     -11.825   1.712  63.513  1.00  0.00     0.000 HD 
ENDBRANCH   3  28
TORSDOF 7
ENDMDL
MODEL       81
REMARK 921   NORMALIZED FREE ENERGY PREDICTED BY IDOCK:   -4.95 KCAL/MOL
REMARK 922        TOTAL FREE ENERGY PREDICTED BY IDOCK:   -9.61 KCAL/MOL
REMARK 923 INTER-LIGAND FREE ENERGY PREDICTED BY IDOCK:   -8.91 KCAL/MOL
REMARK 924 INTRA-LIGAND FREE ENERGY PREDICTED BY IDOCK:   -0.70 KCAL/MOL
REMARK 927      BINDING AFFINITY PREDICTED BY RF-SCORE:    0.00 PKD
ROOT
HETATM    1  C   UNL     1      -9.902   9.223  67.087  1.00  0.00    -0.251 C  
HETATM    2  C   UNL     1     -10.501   9.846  66.061  1.00  0.00    -0.112 C  
HETATM    3  C   UNL     1      -9.689   7.774  67.013  1.00  0.00    -0.197 C  
HETATM    4  H   UNL     1      -8.473   6.436  67.672  1.00  0.00     0.000 HD 
HETATM    5  O   UNL     1      -8.611   7.375  67.720  1.00  0.00    -0.120 OA 
ENDROOT
BRANCH   2   6
HETATM    6  C   UNL     1     -10.711  11.289  66.088  1.00  0.00    -0.307 A  
HETATM    7  C   UNL     1     -11.215  11.908  67.235  1.00  0.00    -0.376 A  
HETATM    8  C   UNL     1     -11.310  13.300  67.293  1.00  0.00    -0.347 A  
HETATM    9  C   UNL     1     -10.346  12.061  64.983  1.00  0.00    -0.318 A  
HETATM   10  C   UNL     1     -10.898  14.084  66.207  1.00  0.00    -0.291 A  
HETATM   11  C   UNL     1     -10.438  13.452  65.043  1.00  0.00    -0.378 A  
BRANCH  10  12
HETATM   12  C   UNL     1     -10.826  15.585  66.338  1.00  0.00    -0.277 C  
BRANCH  12  13
HETATM   13  N   UNL     1     -11.019  16.040  67.716  1.00  0.00    -0.326 NA 
HETATM   14  H   UNL     1     -11.331  15.280  68.320  1.00  0.00     0.000 HD 
BRANCH  13  15
HETATM   15  C   UNL     1      -9.807  16.686  68.247  1.00  0.00    -0.253 C  
BRANCH  15  16
HETATM   16  C   UNL     1     -10.023  18.150  68.664  1.00  0.00    -0.409 C  
BRANCH  16  17
HETATM   17  C   UNL     1      -9.226  19.111  67.837  1.00  0.00    -0.358 A  
HETATM   18  C   UNL     1      -9.548  19.622  66.589  1.00  0.00    -0.380 A  
HETATM   19  N   UNL     1      -8.504  20.419  66.186  1.00  0.00    -0.558 NA 
HETATM   20  C   UNL     1     -10.735  19.431  65.716  1.00  0.00    -0.458 C  
HETATM   21  H   UNL     1      -8.466  20.919  65.298  1.00  0.00     0.000 HD 
HETATM   22  C   UNL     1      -7.520  20.452  67.142  1.00  0.00    -0.314 A  
HETATM   23  C   UNL     1      -6.290  21.120  67.146  1.00  0.00    -0.413 A  
HETATM   24  C   UNL     1      -5.478  20.978  68.275  1.00  0.00    -0.376 A  
HETATM   25  C   UNL     1      -5.883  20.197  69.356  1.00  0.00    -0.343 A  
HETATM   26  C   UNL     1      -7.112  19.529  69.330  1.00  0.00    -0.372 A  
HETATM   27  C   UNL     1      -7.949  19.656  68.200  1.00  0.00    -0.353 A  
ENDBRANCH  16  17
ENDBRANCH  15  16
ENDBRANCH  13  15
ENDBRANCH  12  13
ENDBRANCH  10  12
ENDBRANCH   2   6
BRANCH   3  28
HETATM   28  N   UNL     1     -10.439   6.951  66.354  1.00  0.00    -0.474 NA 
HETATM   29  H   UNL     1     -10.163   6.487  65.488  1.00  0.00     0.000 HD 
HETATM   30  O   UNL     1     -11.681   6.778  66.982  1.00  0.00    -0.546 OA 
HETATM   31  H   UNL     1     -12.232   6.174  66.498  1.00  0.00     0.000 HD 
ENDBRANCH   3  28
TORSDOF 7
ENDMDL
MODEL       82
REMARK 921   NORMALIZED FREE ENERGY PREDICTED BY IDOCK:   -4.95 KCAL/MOL
REMARK 922        TOTAL FREE ENERGY PREDICTED BY IDOCK:   -9.60 KCAL/MOL
REMARK 923 INTER-LIGAND FREE ENERGY PREDICTED BY IDOCK:   -8.49 KCAL/MOL
REMARK 924 INTRA-LIGAND FREE ENERGY PREDICTED BY IDOCK:   -1.11 KCAL/MOL
REMARK 927      BINDING AFFINITY PREDICTED BY RF-SCORE:    0.00 PKD
ROOT
HETATM    1  C   UNL     1     -10.549   8.453  70.455  1.00  0.00    -0.236 C  
HETATM    2  C   UNL     1     -11.142   9.654  70.532  1.00  0.00    -0.369 C  
HETATM    3  C   UNL     1     -10.556   7.580  71.634  1.00  0.00    -0.205 C  
HETATM    4  H   UNL     1     -10.521   5.706  72.070  1.00  0.00     0.000 HD 
HETATM    5  O   UNL     1     -10.517   6.272  71.306  1.00  0.00    -0.206 OA 
ENDROOT
BRANCH   2   6
HETATM    6  C   UNL     1     -11.174  10.541  69.375  1.00  0.00    -0.327 A  
HETATM    7  C   UNL     1     -10.750  10.087  68.123  1.00  0.00    -0.282 A  
HETATM    8  C   UNL     1     -10.887  10.905  66.999  1.00  0.00    -0.323 A  
HETATM    9  C   UNL     1     -11.692  11.831  69.508  1.00  0.00    -0.408 A  
HETATM   10  C   UNL     1     -11.453  12.181  67.117  1.00  0.00    -0.413 A  
HETATM   11  C   UNL     1     -11.833  12.646  68.385  1.00  0.00    -0.347 A  
BRANCH  10  12
HETATM   12  C   UNL     1     -11.772  12.988  65.883  1.00  0.00    -0.394 C  
BRANCH  12  13
HETATM   13  N   UNL     1     -10.588  13.257  65.066  1.00  0.00    -0.328 NA 
HETATM   14  H   UNL     1     -10.652  12.803  64.154  1.00  0.00     0.000 HD 
BRANCH  13  15
HETATM   15  C   UNL     1     -10.342  14.703  64.930  1.00  0.00    -0.350 C  
BRANCH  15  16
HETATM   16  C   UNL     1     -10.959  15.540  66.061  1.00  0.00    -0.251 C  
BRANCH  16  17
HETATM   17  C   UNL     1      -9.930  16.270  66.869  1.00  0.00    -0.263 A  
HETATM   18  C   UNL     1      -9.042  15.734  67.788  1.00  0.00    -0.188 A  
HETATM   19  N   UNL     1      -8.327  16.776  68.329  1.00  0.00    -0.205 NA 
HETATM   20  C   UNL     1      -8.795  14.338  68.232  1.00  0.00    -0.185 C  
HETATM   21  H   UNL     1      -7.605  16.675  69.042  1.00  0.00     0.000 HD 
HETATM   22  C   UNL     1      -8.716  17.970  67.777  1.00  0.00    -0.251 A  
HETATM   23  C   UNL     1      -8.267  19.271  68.036  1.00  0.00    -0.346 A  
HETATM   24  C   UNL     1      -8.847  20.314  67.308  1.00  0.00    -0.454 A  
HETATM   25  C   UNL     1      -9.835  20.064  66.358  1.00  0.00    -0.578 A  
HETATM   26  C   UNL     1     -10.277  18.758  66.119  1.00  0.00    -0.462 A  
HETATM   27  C   UNL     1      -9.709  17.688  66.843  1.00  0.00    -0.292 A  
ENDBRANCH  16  17
ENDBRANCH  15  16
ENDBRANCH  13  15
ENDBRANCH  12  13
ENDBRANCH  10  12
ENDBRANCH   2   6
BRANCH   3  28
HETATM   28  N   UNL     1     -10.590   7.996  72.859  1.00  0.00    -0.356 NA 
HETATM   29  H   UNL     1     -10.012   8.753  73.226  1.00  0.00     0.000 HD 
HETATM   30  O   UNL     1     -11.523   7.273  73.617  1.00  0.00    -0.473 OA 
HETATM   31  H   UNL     1     -11.548   7.579  74.516  1.00  0.00     0.000 HD 
ENDBRANCH   3  28
TORSDOF 7
ENDMDL
MODEL       83
REMARK 921   NORMALIZED FREE ENERGY PREDICTED BY IDOCK:   -4.93 KCAL/MOL
REMARK 922        TOTAL FREE ENERGY PREDICTED BY IDOCK:   -9.58 KCAL/MOL
REMARK 923 INTER-LIGAND FREE ENERGY PREDICTED BY IDOCK:   -8.11 KCAL/MOL
REMARK 924 INTRA-LIGAND FREE ENERGY PREDICTED BY IDOCK:   -1.47 KCAL/MOL
REMARK 927      BINDING AFFINITY PREDICTED BY RF-SCORE:    0.00 PKD
ROOT
HETATM    1  C   UNL     1      -9.320   6.661  66.545  1.00  0.00    -0.191 C  
HETATM    2  C   UNL     1     -10.010   7.811  66.550  1.00  0.00    -0.244 C  
HETATM    3  C   UNL     1      -9.949   5.456  65.994  1.00  0.00    -0.084 C  
HETATM    4  H   UNL     1      -9.454   3.811  65.127  1.00  0.00     0.000 HD 
HETATM    5  O   UNL     1      -9.047   4.592  65.484  1.00  0.00    -0.135 OA 
ENDROOT
BRANCH   2   6
HETATM    6  C   UNL     1      -9.411   9.035  67.070  1.00  0.00    -0.212 A  
HETATM    7  C   UNL     1      -8.031   9.115  67.274  1.00  0.00    -0.102 A  
HETATM    8  C   UNL     1      -7.452  10.325  67.666  1.00  0.00    -0.089 A  
HETATM    9  C   UNL     1     -10.216  10.152  67.305  1.00  0.00    -0.273 A  
HETATM   10  C   UNL     1      -8.247  11.463  67.855  1.00  0.00    -0.132 A  
HETATM   11  C   UNL     1      -9.637  11.360  67.693  1.00  0.00    -0.176 A  
BRANCH  10  12
HETATM   12  C   UNL     1      -7.605  12.807  68.095  1.00  0.00    -0.134 C  
BRANCH  12  13
HETATM   13  N   UNL     1      -8.345  13.619  69.062  1.00  0.00    -0.340 NA 
HETATM   14  H   UNL     1      -8.191  13.294  70.017  1.00  0.00     0.000 HD 
BRANCH  13  15
HETATM   15  C   UNL     1      -8.026  15.049  68.923  1.00  0.00    -0.169 C  
BRANCH  15  16
HETATM   16  C   UNL     1      -8.766  15.734  67.763  1.00  0.00    -0.173 C  
BRANCH  16  17
HETATM   17  C   UNL     1     -10.163  15.224  67.586  1.00  0.00    -0.242 A  
HETATM   18  C   UNL     1     -11.216  15.316  68.481  1.00  0.00    -0.303 A  
HETATM   19  N   UNL     1     -12.290  14.663  67.926  1.00  0.00    -0.588 NA 
HETATM   20  C   UNL     1     -11.325  15.942  69.824  1.00  0.00    -0.347 C  
HETATM   21  H   UNL     1     -13.203  14.564  68.371  1.00  0.00     0.000 HD 
HETATM   22  C   UNL     1     -11.968  14.164  66.689  1.00  0.00    -0.444 A  
HETATM   23  C   UNL     1     -12.745  13.430  65.784  1.00  0.00    -0.383 A  
HETATM   24  C   UNL     1     -12.150  13.052  64.576  1.00  0.00    -0.468 A  
HETATM   25  C   UNL     1     -10.832  13.397  64.288  1.00  0.00    -0.383 A  
HETATM   26  C   UNL     1     -10.068  14.122  65.209  1.00  0.00    -0.364 A  
HETATM   27  C   UNL     1     -10.645  14.513  66.436  1.00  0.00    -0.302 A  
ENDBRANCH  16  17
ENDBRANCH  15  16
ENDBRANCH  13  15
ENDBRANCH  12  13
ENDBRANCH  10  12
ENDBRANCH   2   6
BRANCH   3  28
HETATM   28  N   UNL     1     -11.222   5.225  65.991  1.00  0.00    -0.772 NA 
HETATM   29  H   UNL     1     -11.864   5.528  66.724  1.00  0.00     0.000 HD 
HETATM   30  O   UNL     1     -11.607   4.505  64.850  1.00  0.00    -1.064 OA 
HETATM   31  H   UNL     1     -12.542   4.336  64.848  1.00  0.00     0.000 HD 
ENDBRANCH   3  28
TORSDOF 7
ENDMDL
MODEL       84
REMARK 921   NORMALIZED FREE ENERGY PREDICTED BY IDOCK:   -4.92 KCAL/MOL
REMARK 922        TOTAL FREE ENERGY PREDICTED BY IDOCK:   -9.56 KCAL/MOL
REMARK 923 INTER-LIGAND FREE ENERGY PREDICTED BY IDOCK:   -8.68 KCAL/MOL
REMARK 924 INTRA-LIGAND FREE ENERGY PREDICTED BY IDOCK:   -0.88 KCAL/MOL
REMARK 927      BINDING AFFINITY PREDICTED BY RF-SCORE:    0.00 PKD
ROOT
HETATM    1  C   UNL     1     -11.550   7.722  71.314  1.00  0.00    -0.301 C  
HETATM    2  C   UNL     1     -10.868   8.841  71.601  1.00  0.00    -0.399 C  
HETATM    3  C   UNL     1     -11.774   6.734  72.376  1.00  0.00    -0.217 C  
HETATM    4  H   UNL     1     -13.053   5.386  72.875  1.00  0.00     0.000 HD 
HETATM    5  O   UNL     1     -12.907   6.026  72.187  1.00  0.00    -0.006 OA 
ENDROOT
BRANCH   2   6
HETATM    6  C   UNL     1     -10.643   9.856  70.578  1.00  0.00    -0.359 A  
HETATM    7  C   UNL     1      -9.475   9.840  69.812  1.00  0.00    -0.253 A  
HETATM    8  C   UNL     1      -9.316  10.746  68.761  1.00  0.00    -0.186 A  
HETATM    9  C   UNL     1     -11.630  10.810  70.322  1.00  0.00    -0.427 A  
HETATM   10  C   UNL     1     -10.324  11.673  68.466  1.00  0.00    -0.224 A  
HETATM   11  C   UNL     1     -11.473  11.712  69.270  1.00  0.00    -0.364 A  
BRANCH  10  12
HETATM   12  C   UNL     1     -10.235  12.523  67.223  1.00  0.00    -0.216 C  
BRANCH  12  13
HETATM   13  N   UNL     1      -9.126  13.476  67.271  1.00  0.00    -0.216 NA 
HETATM   14  H   UNL     1      -8.860  13.787  66.336  1.00  0.00     0.000 HD 
BRANCH  13  15
HETATM   15  C   UNL     1      -9.432  14.617  68.150  1.00  0.00    -0.212 C  
BRANCH  15  16
HETATM   16  C   UNL     1     -10.813  15.240  67.892  1.00  0.00    -0.288 C  
BRANCH  16  17
HETATM   17  C   UNL     1     -10.763  16.379  66.921  1.00  0.00    -0.202 A  
HETATM   18  C   UNL     1     -11.008  16.339  65.558  1.00  0.00    -0.149 A  
HETATM   19  N   UNL     1     -10.792  17.601  65.060  1.00  0.00    -0.733 NA 
HETATM   20  C   UNL     1     -11.414  15.230  64.655  1.00  0.00    -0.356 C  
HETATM   21  H   UNL     1     -10.889  17.863  64.079  1.00  0.00     0.000 HD 
HETATM   22  C   UNL     1     -10.427  18.463  66.064  1.00  0.00    -0.374 A  
HETATM   23  C   UNL     1     -10.105  19.824  66.010  1.00  0.00    -0.574 A  
HETATM   24  C   UNL     1      -9.772  20.461  67.210  1.00  0.00    -0.602 A  
HETATM   25  C   UNL     1      -9.763  19.761  68.414  1.00  0.00    -0.480 A  
HETATM   26  C   UNL     1     -10.079  18.398  68.447  1.00  0.00    -0.418 A  
HETATM   27  C   UNL     1     -10.416  17.733  67.249  1.00  0.00    -0.356 A  
ENDBRANCH  16  17
ENDBRANCH  15  16
ENDBRANCH  13  15
ENDBRANCH  12  13
ENDBRANCH  10  12
ENDBRANCH   2   6
BRANCH   3  28
HETATM   28  N   UNL     1     -10.987   6.545  73.384  1.00  0.00    -0.473 NA 
HETATM   29  H   UNL     1     -10.477   7.287  73.865  1.00  0.00     0.000 HD 
HETATM   30  O   UNL     1     -10.924   5.188  73.734  1.00  0.00    -0.294 OA 
HETATM   31  H   UNL     1     -10.345   5.049  74.475  1.00  0.00     0.000 HD 
ENDBRANCH   3  28
TORSDOF 7
ENDMDL
MODEL       85
REMARK 921   NORMALIZED FREE ENERGY PREDICTED BY IDOCK:   -4.88 KCAL/MOL
REMARK 922        TOTAL FREE ENERGY PREDICTED BY IDOCK:   -9.51 KCAL/MOL
REMARK 923 INTER-LIGAND FREE ENERGY PREDICTED BY IDOCK:   -8.07 KCAL/MOL
REMARK 924 INTRA-LIGAND FREE ENERGY PREDICTED BY IDOCK:   -1.45 KCAL/MOL
REMARK 927      BINDING AFFINITY PREDICTED BY RF-SCORE:    0.00 PKD
ROOT
HETATM    1  C   UNL     1     -10.718   7.464  68.982  1.00  0.00    -0.164 C  
HETATM    2  C   UNL     1     -10.935   8.059  70.164  1.00  0.00    -0.226 C  
HETATM    3  C   UNL     1     -10.264   6.069  68.961  1.00  0.00    -0.193 C  
HETATM    4  H   UNL     1     -10.364   4.513  67.834  1.00  0.00     0.000 HD 
HETATM    5  O   UNL     1     -10.658   5.416  67.848  1.00  0.00    -0.176 OA 
ENDROOT
BRANCH   2   6
HETATM    6  C   UNL     1     -11.407   9.438  70.225  1.00  0.00    -0.261 A  
HETATM    7  C   UNL     1     -12.147   9.884  71.323  1.00  0.00    -0.485 A  
HETATM    8  C   UNL     1     -12.500  11.231  71.428  1.00  0.00    -0.392 A  
HETATM    9  C   UNL     1     -11.062  10.332  69.209  1.00  0.00    -0.293 A  
HETATM   10  C   UNL     1     -12.113  12.144  70.437  1.00  0.00    -0.395 A  
HETATM   11  C   UNL     1     -11.411  11.678  69.316  1.00  0.00    -0.364 A  
BRANCH  10  12
HETATM   12  C   UNL     1     -12.331  13.623  70.640  1.00  0.00    -0.368 C  
BRANCH  12  13
HETATM   13  N   UNL     1     -12.561  14.335  69.382  1.00  0.00    -0.495 NA 
HETATM   14  H   UNL     1     -13.555  14.495  69.220  1.00  0.00     0.000 HD 
BRANCH  13  15
HETATM   15  C   UNL     1     -11.797  15.593  69.327  1.00  0.00    -0.363 C  
BRANCH  15  16
HETATM   16  C   UNL     1     -11.259  15.925  67.926  1.00  0.00    -0.297 C  
BRANCH  16  17
HETATM   17  C   UNL     1     -10.603  14.753  67.265  1.00  0.00    -0.273 A  
HETATM   18  C   UNL     1      -9.309  14.293  67.452  1.00  0.00    -0.203 A  
HETATM   19  N   UNL     1      -9.119  13.232  66.599  1.00  0.00    -0.386 NA 
HETATM   20  C   UNL     1      -8.212  14.752  68.342  1.00  0.00    -0.154 C  
HETATM   21  H   UNL     1      -8.252  12.702  66.516  1.00  0.00     0.000 HD 
HETATM   22  C   UNL     1     -10.257  12.982  65.874  1.00  0.00    -0.292 A  
HETATM   23  C   UNL     1     -10.507  12.014  64.894  1.00  0.00    -0.325 A  
HETATM   24  C   UNL     1     -11.781  11.985  64.319  1.00  0.00    -0.425 A  
HETATM   25  C   UNL     1     -12.765  12.890  64.712  1.00  0.00    -0.442 A  
HETATM   26  C   UNL     1     -12.494  13.857  65.686  1.00  0.00    -0.538 A  
HETATM   27  C   UNL     1     -11.215  13.907  66.280  1.00  0.00    -0.310 A  
ENDBRANCH  16  17
ENDBRANCH  15  16
ENDBRANCH  13  15
ENDBRANCH  12  13
ENDBRANCH  10  12
ENDBRANCH   2   6
BRANCH   3  28
HETATM   28  N   UNL     1      -9.560   5.509  69.891  1.00  0.00    -0.155 NA 
HETATM   29  H   UNL     1      -9.921   5.253  70.811  1.00  0.00     0.000 HD 
HETATM   30  O   UNL     1      -8.238   5.298  69.473  1.00  0.00    -0.092 OA 
HETATM   31  H   UNL     1      -7.722   4.886  70.156  1.00  0.00     0.000 HD 
ENDBRANCH   3  28
TORSDOF 7
ENDMDL
MODEL       86
REMARK 921   NORMALIZED FREE ENERGY PREDICTED BY IDOCK:   -4.88 KCAL/MOL
REMARK 922        TOTAL FREE ENERGY PREDICTED BY IDOCK:   -9.51 KCAL/MOL
REMARK 923 INTER-LIGAND FREE ENERGY PREDICTED BY IDOCK:   -8.57 KCAL/MOL
REMARK 924 INTRA-LIGAND FREE ENERGY PREDICTED BY IDOCK:   -0.94 KCAL/MOL
REMARK 927      BINDING AFFINITY PREDICTED BY RF-SCORE:    0.00 PKD
ROOT
HETATM    1  C   UNL     1     -10.600   7.928  68.414  1.00  0.00    -0.154 C  
HETATM    2  C   UNL     1     -10.546   9.258  68.585  1.00  0.00    -0.219 C  
HETATM    3  C   UNL     1     -10.510   7.055  69.590  1.00  0.00    -0.223 C  
HETATM    4  H   UNL     1     -11.102   5.321  70.175  1.00  0.00     0.000 HD 
HETATM    5  O   UNL     1     -11.161   5.887  69.413  1.00  0.00    -0.363 OA 
ENDROOT
BRANCH   2   6
HETATM    6  C   UNL     1     -10.653  10.158  67.443  1.00  0.00    -0.329 A  
HETATM    7  C   UNL     1     -11.558  11.223  67.464  1.00  0.00    -0.257 A  
HETATM    8  C   UNL     1     -11.576  12.145  66.415  1.00  0.00    -0.429 A  
HETATM    9  C   UNL     1      -9.800   9.991  66.350  1.00  0.00    -0.283 A  
HETATM   10  C   UNL     1     -10.688  12.013  65.340  1.00  0.00    -0.330 A  
HETATM   11  C   UNL     1      -9.816  10.915  65.305  1.00  0.00    -0.318 A  
BRANCH  10  12
HETATM   12  C   UNL     1     -10.580  13.105  64.305  1.00  0.00    -0.412 C  
BRANCH  12  13
HETATM   13  N   UNL     1     -11.622  14.123  64.450  1.00  0.00    -0.538 NA 
HETATM   14  H   UNL     1     -12.333  13.836  65.122  1.00  0.00     0.000 HD 
BRANCH  13  15
HETATM   15  C   UNL     1     -11.051  15.434  64.798  1.00  0.00    -0.403 C  
BRANCH  15  16
HETATM   16  C   UNL     1     -10.002  15.370  65.919  1.00  0.00    -0.374 C  
BRANCH  16  17
HETATM   17  C   UNL     1     -10.265  16.354  67.017  1.00  0.00    -0.282 A  
HETATM   18  C   UNL     1     -10.937  16.130  68.209  1.00  0.00    -0.340 A  
HETATM   19  N   UNL     1     -10.991  17.325  68.885  1.00  0.00    -0.266 NA 
HETATM   20  C   UNL     1     -11.554  14.907  68.785  1.00  0.00    -0.348 C  
HETATM   21  H   UNL     1     -11.437  17.459  69.792  1.00  0.00     0.000 HD 
HETATM   22  C   UNL     1     -10.361  18.315  68.172  1.00  0.00    -0.373 A  
HETATM   23  C   UNL     1     -10.188  19.671  68.474  1.00  0.00    -0.529 A  
HETATM   24  C   UNL     1      -9.488  20.457  67.553  1.00  0.00    -0.532 A  
HETATM   25  C   UNL     1      -8.983  19.905  66.379  1.00  0.00    -0.434 A  
HETATM   26  C   UNL     1      -9.173  18.549  66.089  1.00  0.00    -0.136 A  
HETATM   27  C   UNL     1      -9.878  17.736  67.002  1.00  0.00    -0.309 A  
ENDBRANCH  16  17
ENDBRANCH  15  16
ENDBRANCH  13  15
ENDBRANCH  12  13
ENDBRANCH  10  12
ENDBRANCH   2   6
BRANCH   3  28
HETATM   28  N   UNL     1      -9.881   7.351  70.681  1.00  0.00    -0.180 NA 
HETATM   29  H   UNL     1      -8.875   7.513  70.740  1.00  0.00     0.000 HD 
HETATM   30  O   UNL     1     -10.759   7.421  71.773  1.00  0.00    -0.213 OA 
HETATM   31  H   UNL     1     -10.296   7.639  72.574  1.00  0.00     0.000 HD 
ENDBRANCH   3  28
TORSDOF 7
ENDMDL
MODEL       87
REMARK 921   NORMALIZED FREE ENERGY PREDICTED BY IDOCK:   -4.87 KCAL/MOL
REMARK 922        TOTAL FREE ENERGY PREDICTED BY IDOCK:   -9.50 KCAL/MOL
REMARK 923 INTER-LIGAND FREE ENERGY PREDICTED BY IDOCK:   -8.21 KCAL/MOL
REMARK 924 INTRA-LIGAND FREE ENERGY PREDICTED BY IDOCK:   -1.29 KCAL/MOL
REMARK 927      BINDING AFFINITY PREDICTED BY RF-SCORE:    0.00 PKD
ROOT
HETATM    1  C   UNL     1      -9.679   8.182  66.651  1.00  0.00    -0.318 C  
HETATM    2  C   UNL     1      -9.154   9.195  65.945  1.00  0.00    -0.256 C  
HETATM    3  C   UNL     1      -8.780   7.174  67.224  1.00  0.00    -0.120 C  
HETATM    4  H   UNL     1      -8.699   5.964  68.718  1.00  0.00     0.000 HD 
HETATM    5  O   UNL     1      -9.280   6.618  68.347  1.00  0.00    -0.125 OA 
ENDROOT
BRANCH   2   6
HETATM    6  C   UNL     1     -10.013  10.228  65.378  1.00  0.00    -0.371 A  
HETATM    7  C   UNL     1     -10.881  10.953  66.197  1.00  0.00    -0.166 A  
HETATM    8  C   UNL     1     -11.619  12.015  65.667  1.00  0.00    -0.356 A  
HETATM    9  C   UNL     1      -9.918  10.536  64.019  1.00  0.00    -0.363 A  
HETATM   10  C   UNL     1     -11.491  12.361  64.315  1.00  0.00    -0.427 A  
HETATM   11  C   UNL     1     -10.651  11.598  63.491  1.00  0.00    -0.496 A  
BRANCH  10  12
HETATM   12  C   UNL     1     -12.141  13.616  63.788  1.00  0.00    -0.382 C  
BRANCH  12  13
HETATM   13  N   UNL     1     -12.196  14.684  64.787  1.00  0.00    -0.420 NA 
HETATM   14  H   UNL     1     -12.339  14.311  65.725  1.00  0.00     0.000 HD 
BRANCH  13  15
HETATM   15  C   UNL     1     -11.001  15.543  64.726  1.00  0.00    -0.399 C  
BRANCH  15  16
HETATM   16  C   UNL     1     -10.020  15.314  65.886  1.00  0.00    -0.368 C  
BRANCH  16  17
HETATM   17  C   UNL     1     -10.474  15.948  67.164  1.00  0.00    -0.313 A  
HETATM   18  C   UNL     1     -10.415  17.289  67.509  1.00  0.00    -0.356 A  
HETATM   19  N   UNL     1     -10.888  17.407  68.794  1.00  0.00    -0.289 NA 
HETATM   20  C   UNL     1      -9.946  18.486  66.764  1.00  0.00    -0.381 C  
HETATM   21  H   UNL     1     -10.951  18.284  69.311  1.00  0.00     0.000 HD 
HETATM   22  C   UNL     1     -11.265  16.183  69.287  1.00  0.00    -0.337 A  
HETATM   23  C   UNL     1     -11.786  15.839  70.540  1.00  0.00    -0.400 A  
HETATM   24  C   UNL     1     -12.091  14.493  70.769  1.00  0.00    -0.398 A  
HETATM   25  C   UNL     1     -11.883  13.534  69.781  1.00  0.00    -0.395 A  
HETATM   26  C   UNL     1     -11.353  13.895  68.538  1.00  0.00    -0.311 A  
HETATM   27  C   UNL     1     -11.035  15.247  68.283  1.00  0.00    -0.276 A  
ENDBRANCH  16  17
ENDBRANCH  15  16
ENDBRANCH  13  15
ENDBRANCH  12  13
ENDBRANCH  10  12
ENDBRANCH   2   6
BRANCH   3  28
HETATM   28  N   UNL     1      -7.635   6.837  66.723  1.00  0.00    -0.089 NA 
HETATM   29  H   UNL     1      -6.740   7.231  67.017  1.00  0.00     0.000 HD 
HETATM   30  O   UNL     1      -7.782   5.862  65.726  1.00  0.00    -0.091 OA 
HETATM   31  H   UNL     1      -6.941   5.616  65.358  1.00  0.00     0.000 HD 
ENDBRANCH   3  28
TORSDOF 7
ENDMDL
MODEL       88
REMARK 921   NORMALIZED FREE ENERGY PREDICTED BY IDOCK:   -4.86 KCAL/MOL
REMARK 922        TOTAL FREE ENERGY PREDICTED BY IDOCK:   -9.48 KCAL/MOL
REMARK 923 INTER-LIGAND FREE ENERGY PREDICTED BY IDOCK:   -8.90 KCAL/MOL
REMARK 924 INTRA-LIGAND FREE ENERGY PREDICTED BY IDOCK:   -0.58 KCAL/MOL
REMARK 927      BINDING AFFINITY PREDICTED BY RF-SCORE:    0.00 PKD
ROOT
HETATM    1  C   UNL     1     -12.013   8.804  70.919  1.00  0.00    -0.235 C  
HETATM    2  C   UNL     1     -12.853   9.695  71.468  1.00  0.00    -0.485 C  
HETATM    3  C   UNL     1     -12.243   7.374  71.148  1.00  0.00    -0.324 C  
HETATM    4  H   UNL     1     -11.938   5.684  70.281  1.00  0.00     0.000 HD 
HETATM    5  O   UNL     1     -11.790   6.611  70.132  1.00  0.00    -0.389 OA 
ENDROOT
BRANCH   2   6
HETATM    6  C   UNL     1     -12.670  11.124  71.246  1.00  0.00    -0.531 A  
HETATM    7  C   UNL     1     -11.967  11.581  70.129  1.00  0.00    -0.452 A  
HETATM    8  C   UNL     1     -11.890  12.951  69.863  1.00  0.00    -0.373 A  
HETATM    9  C   UNL     1     -13.256  12.040  72.122  1.00  0.00    -0.400 A  
HETATM   10  C   UNL     1     -12.519  13.873  70.710  1.00  0.00    -0.445 A  
HETATM   11  C   UNL     1     -13.183  13.407  71.854  1.00  0.00    -0.522 A  
BRANCH  10  12
HETATM   12  C   UNL     1     -12.595  15.329  70.325  1.00  0.00    -0.347 C  
BRANCH  12  13
HETATM   13  N   UNL     1     -12.307  15.553  68.908  1.00  0.00    -0.590 NA 
HETATM   14  H   UNL     1     -13.125  15.906  68.412  1.00  0.00     0.000 HD 
BRANCH  13  15
HETATM   15  C   UNL     1     -11.144  16.437  68.725  1.00  0.00    -0.337 C  
BRANCH  15  16
HETATM   16  C   UNL     1     -10.475  16.298  67.348  1.00  0.00    -0.304 C  
BRANCH  16  17
HETATM   17  C   UNL     1      -9.103  15.704  67.428  1.00  0.00    -0.203 A  
HETATM   18  C   UNL     1      -8.696  14.453  66.993  1.00  0.00    -0.223 A  
HETATM   19  N   UNL     1      -7.369  14.312  67.319  1.00  0.00    -0.307 NA 
HETATM   20  C   UNL     1      -9.427  13.355  66.309  1.00  0.00    -0.196 C  
HETATM   21  H   UNL     1      -6.809  13.481  67.125  1.00  0.00     0.000 HD 
HETATM   22  C   UNL     1      -6.899  15.441  67.941  1.00  0.00    -0.149 A  
HETATM   23  C   UNL     1      -5.625  15.727  68.446  1.00  0.00    -0.111 A  
HETATM   24  C   UNL     1      -5.425  16.981  69.031  1.00  0.00    -0.144 A  
HETATM   25  C   UNL     1      -6.460  17.911  69.105  1.00  0.00    -0.243 A  
HETATM   26  C   UNL     1      -7.729  17.604  68.602  1.00  0.00    -0.281 A  
HETATM   27  C   UNL     1      -7.957  16.343  68.009  1.00  0.00    -0.159 A  
ENDBRANCH  16  17
ENDBRANCH  15  16
ENDBRANCH  13  15
ENDBRANCH  12  13
ENDBRANCH  10  12
ENDBRANCH   2   6
BRANCH   3  28
HETATM   28  N   UNL     1     -12.811   6.878  72.200  1.00  0.00    -0.549 NA 
HETATM   29  H   UNL     1     -12.307   6.454  72.980  1.00  0.00     0.000 HD 
HETATM   30  O   UNL     1     -14.207   6.997  72.130  1.00  0.00    -0.601 OA 
HETATM   31  H   UNL     1     -14.623   6.633  72.902  1.00  0.00     0.000 HD 
ENDBRANCH   3  28
TORSDOF 7
ENDMDL
MODEL       89
REMARK 921   NORMALIZED FREE ENERGY PREDICTED BY IDOCK:   -4.85 KCAL/MOL
REMARK 922        TOTAL FREE ENERGY PREDICTED BY IDOCK:   -9.47 KCAL/MOL
REMARK 923 INTER-LIGAND FREE ENERGY PREDICTED BY IDOCK:   -7.16 KCAL/MOL
REMARK 924 INTRA-LIGAND FREE ENERGY PREDICTED BY IDOCK:   -2.32 KCAL/MOL
REMARK 927      BINDING AFFINITY PREDICTED BY RF-SCORE:    0.00 PKD
ROOT
HETATM    1  C   UNL     1     -12.333   8.957  71.263  1.00  0.00    -0.342 C  
HETATM    2  C   UNL     1     -12.235   7.686  71.680  1.00  0.00    -0.346 C  
HETATM    3  C   UNL     1     -13.300   9.848  71.914  1.00  0.00    -0.424 C  
HETATM    4  H   UNL     1     -13.539  11.717  72.302  1.00  0.00     0.000 HD 
HETATM    5  O   UNL     1     -12.913  11.140  71.881  1.00  0.00    -0.458 OA 
ENDROOT
BRANCH   2   6
HETATM    6  C   UNL     1     -11.271   6.777  71.072  1.00  0.00    -0.335 A  
HETATM    7  C   UNL     1     -10.242   6.223  71.836  1.00  0.00    -0.227 A  
HETATM    8  C   UNL     1      -9.390   5.268  71.276  1.00  0.00    -0.187 A  
HETATM    9  C   UNL     1     -11.418   6.409  69.732  1.00  0.00    -0.468 A  
HETATM   10  C   UNL     1      -9.563   4.857  69.947  1.00  0.00    -0.252 A  
HETATM   11  C   UNL     1     -10.570   5.453  69.174  1.00  0.00    -0.241 A  
BRANCH  10  12
HETATM   12  C   UNL     1      -8.767   3.698  69.401  1.00  0.00    -0.082 C  
BRANCH  12  13
HETATM   13  N   UNL     1      -7.936   4.076  68.256  1.00  0.00    -0.076 NA 
HETATM   14  H   UNL     1      -8.505   4.383  67.467  1.00  0.00     0.000 HD 
BRANCH  13  15
HETATM   15  C   UNL     1      -6.936   5.091  68.626  1.00  0.00    -0.056 C  
BRANCH  15  16
HETATM   16  C   UNL     1      -6.705   6.152  67.538  1.00  0.00    -0.058 C  
BRANCH  16  17
HETATM   17  C   UNL     1      -7.965   6.855  67.137  1.00  0.00    -0.113 A  
HETATM   18  C   UNL     1      -8.758   6.602  66.029  1.00  0.00    -0.147 A  
HETATM   19  N   UNL     1      -9.777   7.524  66.030  1.00  0.00    -0.425 NA 
HETATM   20  C   UNL     1      -8.657   5.589  64.947  1.00  0.00    -0.111 C  
HETATM   21  H   UNL     1     -10.509   7.581  65.322  1.00  0.00     0.000 HD 
HETATM   22  C   UNL     1      -9.676   8.359  67.115  1.00  0.00    -0.190 A  
HETATM   23  C   UNL     1     -10.484   9.435  67.502  1.00  0.00    -0.343 A  
HETATM   24  C   UNL     1     -10.143  10.113  68.676  1.00  0.00    -0.186 A  
HETATM   25  C   UNL     1      -9.038   9.727  69.432  1.00  0.00    -0.209 A  
HETATM   26  C   UNL     1      -8.237   8.655  69.024  1.00  0.00    -0.122 A  
HETATM   27  C   UNL     1      -8.559   7.955  67.841  1.00  0.00    -0.125 A  
ENDBRANCH  16  17
ENDBRANCH  15  16
ENDBRANCH  13  15
ENDBRANCH  12  13
ENDBRANCH  10  12
ENDBRANCH   2   6
BRANCH   3  28
HETATM   28  N   UNL     1     -14.407   9.460  72.460  1.00  0.00    -0.632 NA 
HETATM   29  H   UNL     1     -15.333   9.630  72.067  1.00  0.00     0.000 HD 
HETATM   30  O   UNL     1     -14.170   8.776  73.662  1.00  0.00    -1.000 OA 
HETATM   31  H   UNL     1     -14.983   8.492  74.063  1.00  0.00     0.000 HD 
ENDBRANCH   3  28
TORSDOF 7
ENDMDL
MODEL       90
REMARK 921   NORMALIZED FREE ENERGY PREDICTED BY IDOCK:   -4.85 KCAL/MOL
REMARK 922        TOTAL FREE ENERGY PREDICTED BY IDOCK:   -9.46 KCAL/MOL
REMARK 923 INTER-LIGAND FREE ENERGY PREDICTED BY IDOCK:   -7.32 KCAL/MOL
REMARK 924 INTRA-LIGAND FREE ENERGY PREDICTED BY IDOCK:   -2.14 KCAL/MOL
REMARK 927      BINDING AFFINITY PREDICTED BY RF-SCORE:    0.00 PKD
ROOT
HETATM    1  C   UNL     1     -10.945  15.123  68.649  1.00  0.00    -0.256 C  
HETATM    2  C   UNL     1     -10.914  13.832  69.013  1.00  0.00    -0.277 C  
HETATM    3  C   UNL     1     -11.165  16.147  69.677  1.00  0.00    -0.331 C  
HETATM    4  H   UNL     1     -10.733  17.989  70.026  1.00  0.00     0.000 HD 
HETATM    5  O   UNL     1     -10.590  17.326  69.360  1.00  0.00    -0.300 OA 
ENDROOT
BRANCH   2   6
HETATM    6  C   UNL     1     -10.677  12.788  68.024  1.00  0.00    -0.246 A  
HETATM    7  C   UNL     1      -9.638  12.913  67.098  1.00  0.00    -0.225 A  
HETATM    8  C   UNL     1      -9.347  11.860  66.227  1.00  0.00    -0.234 A  
HETATM    9  C   UNL     1     -11.454  11.627  68.044  1.00  0.00    -0.385 A  
HETATM   10  C   UNL     1     -10.090  10.673  66.277  1.00  0.00    -0.291 A  
HETATM   11  C   UNL     1     -11.161  10.575  67.177  1.00  0.00    -0.232 A  
BRANCH  10  12
HETATM   12  C   UNL     1      -9.660   9.474  65.470  1.00  0.00    -0.279 C  
BRANCH  12  13
HETATM   13  N   UNL     1      -8.518   8.776  66.062  1.00  0.00    -0.127 NA 
HETATM   14  H   UNL     1      -7.969   9.397  66.657  1.00  0.00     0.000 HD 
BRANCH  13  15
HETATM   15  C   UNL     1      -8.941   7.568  66.791  1.00  0.00    -0.144 C  
BRANCH  15  16
HETATM   16  C   UNL     1      -8.327   7.450  68.194  1.00  0.00    -0.124 C  
BRANCH  16  17
HETATM   17  C   UNL     1      -8.979   8.359  69.191  1.00  0.00    -0.147 A  
HETATM   18  C   UNL     1      -8.565   9.623  69.579  1.00  0.00    -0.172 A  
HETATM   19  N   UNL     1      -9.429  10.060  70.554  1.00  0.00    -0.301 NA 
HETATM   20  C   UNL     1      -7.427  10.472  69.141  1.00  0.00    -0.114 C  
HETATM   21  H   UNL     1      -9.359  10.959  71.030  1.00  0.00     0.000 HD 
HETATM   22  C   UNL     1     -10.399   9.122  70.800  1.00  0.00    -0.258 A  
HETATM   23  C   UNL     1     -11.464   9.143  71.709  1.00  0.00    -0.452 A  
HETATM   24  C   UNL     1     -12.314   8.034  71.739  1.00  0.00    -0.352 A  
HETATM   25  C   UNL     1     -12.106   6.948  70.892  1.00  0.00    -0.424 A  
HETATM   26  C   UNL     1     -11.031   6.940  69.996  1.00  0.00    -0.320 A  
HETATM   27  C   UNL     1     -10.157   8.047  69.948  1.00  0.00    -0.198 A  
ENDBRANCH  16  17
ENDBRANCH  15  16
ENDBRANCH  13  15
ENDBRANCH  12  13
ENDBRANCH  10  12
ENDBRANCH   2   6
BRANCH   3  28
HETATM   28  N   UNL     1     -11.836  15.963  70.768  1.00  0.00    -0.387 NA 
HETATM   29  H   UNL     1     -11.418  15.908  71.698  1.00  0.00     0.000 HD 
HETATM   30  O   UNL     1     -13.210  15.849  70.510  1.00  0.00    -0.739 OA 
HETATM   31  H   UNL     1     -13.701  15.714  71.311  1.00  0.00     0.000 HD 
ENDBRANCH   3  28
TORSDOF 7
ENDMDL
MODEL       91
REMARK 921   NORMALIZED FREE ENERGY PREDICTED BY IDOCK:   -4.84 KCAL/MOL
REMARK 922        TOTAL FREE ENERGY PREDICTED BY IDOCK:   -9.45 KCAL/MOL
REMARK 923 INTER-LIGAND FREE ENERGY PREDICTED BY IDOCK:   -8.76 KCAL/MOL
REMARK 924 INTRA-LIGAND FREE ENERGY PREDICTED BY IDOCK:   -0.69 KCAL/MOL
REMARK 927      BINDING AFFINITY PREDICTED BY RF-SCORE:    0.00 PKD
ROOT
HETATM    1  C   UNL     1     -10.200   6.139  67.116  1.00  0.00    -0.246 C  
HETATM    2  C   UNL     1      -9.889   7.048  66.180  1.00  0.00     0.109 C  
HETATM    3  C   UNL     1     -10.088   4.713  66.787  1.00  0.00    -0.213 C  
HETATM    4  H   UNL     1      -9.746   3.032  67.657  1.00  0.00     0.000 HD 
HETATM    5  O   UNL     1      -9.818   3.955  67.870  1.00  0.00    -0.119 OA 
ENDROOT
BRANCH   2   6
HETATM    6  C   UNL     1      -9.968   8.474  66.475  1.00  0.00    -0.350 A  
HETATM    7  C   UNL     1      -9.511   9.414  65.549  1.00  0.00    -0.328 A  
HETATM    8  C   UNL     1      -9.690  10.779  65.791  1.00  0.00    -0.278 A  
HETATM    9  C   UNL     1     -10.562   8.901  67.665  1.00  0.00    -0.292 A  
HETATM   10  C   UNL     1     -10.331  11.213  66.959  1.00  0.00    -0.263 A  
HETATM   11  C   UNL     1     -10.744  10.263  67.904  1.00  0.00    -0.310 A  
BRANCH  10  12
HETATM   12  C   UNL     1     -10.690  12.668  67.132  1.00  0.00    -0.241 C  
BRANCH  12  13
HETATM   13  N   UNL     1      -9.555  13.560  66.893  1.00  0.00    -0.250 NA 
HETATM   14  H   UNL     1      -8.767  13.060  66.481  1.00  0.00     0.000 HD 
BRANCH  13  15
HETATM   15  C   UNL     1      -9.943  14.721  66.075  1.00  0.00    -0.313 C  
BRANCH  15  16
HETATM   16  C   UNL     1     -11.173  15.468  66.611  1.00  0.00    -0.118 C  
BRANCH  16  17
HETATM   17  C   UNL     1     -10.821  16.511  67.627  1.00  0.00    -0.269 A  
HETATM   18  C   UNL     1     -10.799  16.373  69.006  1.00  0.00    -0.331 A  
HETATM   19  N   UNL     1     -10.476  17.598  69.539  1.00  0.00    -0.286 NA 
HETATM   20  C   UNL     1     -11.065  15.210  69.892  1.00  0.00    -0.302 C  
HETATM   21  H   UNL     1     -10.397  17.793  70.537  1.00  0.00     0.000 HD 
HETATM   22  C   UNL     1     -10.274  18.522  68.546  1.00  0.00    -0.351 A  
HETATM   23  C   UNL     1      -9.942  19.880  68.632  1.00  0.00    -0.492 A  
HETATM   24  C   UNL     1      -9.790  20.588  67.436  1.00  0.00    -0.574 A  
HETATM   25  C   UNL     1      -9.963  19.960  66.204  1.00  0.00    -0.593 A  
HETATM   26  C   UNL     1     -10.304  18.605  66.138  1.00  0.00    -0.481 A  
HETATM   27  C   UNL     1     -10.465  17.869  67.331  1.00  0.00    -0.390 A  
ENDBRANCH  16  17
ENDBRANCH  15  16
ENDBRANCH  13  15
ENDBRANCH  12  13
ENDBRANCH  10  12
ENDBRANCH   2   6
BRANCH   3  28
HETATM   28  N   UNL     1     -10.232   4.217  65.601  1.00  0.00    -0.416 NA 
HETATM   29  H   UNL     1      -9.500   3.722  65.090  1.00  0.00     0.000 HD 
HETATM   30  O   UNL     1     -11.525   4.445  65.106  1.00  0.00    -1.069 OA 
HETATM   31  H   UNL     1     -11.631   4.081  64.235  1.00  0.00     0.000 HD 
ENDBRANCH   3  28
TORSDOF 7
ENDMDL
MODEL       92
REMARK 921   NORMALIZED FREE ENERGY PREDICTED BY IDOCK:   -4.83 KCAL/MOL
REMARK 922        TOTAL FREE ENERGY PREDICTED BY IDOCK:   -9.44 KCAL/MOL
REMARK 923 INTER-LIGAND FREE ENERGY PREDICTED BY IDOCK:   -8.20 KCAL/MOL
REMARK 924 INTRA-LIGAND FREE ENERGY PREDICTED BY IDOCK:   -1.24 KCAL/MOL
REMARK 927      BINDING AFFINITY PREDICTED BY RF-SCORE:    0.00 PKD
ROOT
HETATM    1  C   UNL     1     -10.158   8.707  69.511  1.00  0.00    -0.203 C  
HETATM    2  C   UNL     1     -10.313   8.484  68.198  1.00  0.00    -0.258 C  
HETATM    3  C   UNL     1      -9.922   7.567  70.404  1.00  0.00    -0.184 C  
HETATM    4  H   UNL     1      -9.049   7.168  72.071  1.00  0.00     0.000 HD 
HETATM    5  O   UNL     1      -9.202   7.907  71.493  1.00  0.00    -0.130 OA 
ENDROOT
BRANCH   2   6
HETATM    6  C   UNL     1     -10.529   9.593  67.276  1.00  0.00    -0.323 A  
HETATM    7  C   UNL     1     -11.385  10.642  67.620  1.00  0.00    -0.284 A  
HETATM    8  C   UNL     1     -11.501  11.754  66.782  1.00  0.00    -0.352 A  
HETATM    9  C   UNL     1      -9.824   9.637  66.071  1.00  0.00    -0.345 A  
HETATM   10  C   UNL     1     -10.759  11.827  65.596  1.00  0.00    -0.328 A  
HETATM   11  C   UNL     1      -9.938  10.749  65.236  1.00  0.00    -0.342 A  
BRANCH  10  12
HETATM   12  C   UNL     1     -10.742  13.101  64.788  1.00  0.00    -0.364 C  
BRANCH  12  13
HETATM   13  N   UNL     1      -9.701  14.031  65.226  1.00  0.00    -0.573 NA 
HETATM   14  H   UNL     1      -9.275  14.514  64.435  1.00  0.00     0.000 HD 
BRANCH  13  15
HETATM   15  C   UNL     1     -10.212  14.983  66.226  1.00  0.00    -0.294 C  
BRANCH  15  16
HETATM   16  C   UNL     1      -9.647  14.756  67.637  1.00  0.00    -0.208 C  
BRANCH  16  17
HETATM   17  C   UNL     1     -10.417  15.486  68.694  1.00  0.00    -0.237 A  
HETATM   18  C   UNL     1     -10.412  16.847  68.955  1.00  0.00    -0.341 A  
HETATM   19  N   UNL     1     -11.219  17.063  70.046  1.00  0.00    -0.195 NA 
HETATM   20  C   UNL     1      -9.714  17.981  68.295  1.00  0.00    -0.332 C  
HETATM   21  H   UNL     1     -11.393  17.975  70.468  1.00  0.00     0.000 HD 
HETATM   22  C   UNL     1     -11.758  15.882  70.492  1.00  0.00    -0.373 A  
HETATM   23  C   UNL     1     -12.618  15.635  71.569  1.00  0.00    -0.511 A  
HETATM   24  C   UNL     1     -13.019  14.314  71.789  1.00  0.00    -0.430 A  
HETATM   25  C   UNL     1     -12.577  13.283  70.962  1.00  0.00    -0.408 A  
HETATM   26  C   UNL     1     -11.711  13.549  69.896  1.00  0.00    -0.341 A  
HETATM   27  C   UNL     1     -11.290  14.874  69.655  1.00  0.00    -0.311 A  
ENDBRANCH  16  17
ENDBRANCH  15  16
ENDBRANCH  13  15
ENDBRANCH  12  13
ENDBRANCH  10  12
ENDBRANCH   2   6
BRANCH   3  28
HETATM   28  N   UNL     1     -10.349   6.364  70.192  1.00  0.00    -0.190 NA 
HETATM   29  H   UNL     1      -9.784   5.615  69.790  1.00  0.00     0.000 HD 
HETATM   30  O   UNL     1     -11.688   6.222  70.585  1.00  0.00    -0.343 OA 
HETATM   31  H   UNL     1     -12.001   5.339  70.429  1.00  0.00     0.000 HD 
ENDBRANCH   3  28
TORSDOF 7
ENDMDL
MODEL       93
REMARK 921   NORMALIZED FREE ENERGY PREDICTED BY IDOCK:   -4.81 KCAL/MOL
REMARK 922        TOTAL FREE ENERGY PREDICTED BY IDOCK:   -9.41 KCAL/MOL
REMARK 923 INTER-LIGAND FREE ENERGY PREDICTED BY IDOCK:   -8.36 KCAL/MOL
REMARK 924 INTRA-LIGAND FREE ENERGY PREDICTED BY IDOCK:   -1.05 KCAL/MOL
REMARK 927      BINDING AFFINITY PREDICTED BY RF-SCORE:    0.00 PKD
ROOT
HETATM    1  C   UNL     1     -10.015  11.380  64.704  1.00  0.00    -0.315 C  
HETATM    2  C   UNL     1     -10.764  10.884  65.701  1.00  0.00    -0.178 C  
HETATM    3  C   UNL     1      -9.519  10.470  63.666  1.00  0.00    -0.304 C  
HETATM    4  H   UNL     1      -9.024  10.499  61.807  1.00  0.00     0.000 HD 
HETATM    5  O   UNL     1      -9.346  11.089  62.480  1.00  0.00    -0.298 OA 
ENDROOT
BRANCH   2   6
HETATM    6  C   UNL     1     -11.293  11.759  66.739  1.00  0.00    -0.385 A  
HETATM    7  C   UNL     1     -11.311  11.344  68.073  1.00  0.00    -0.372 A  
HETATM    8  C   UNL     1     -11.716  12.229  69.076  1.00  0.00    -0.376 A  
HETATM    9  C   UNL     1     -11.724  13.045  66.405  1.00  0.00    -0.444 A  
HETATM   10  C   UNL     1     -12.102  13.536  68.753  1.00  0.00    -0.305 A  
HETATM   11  C   UNL     1     -12.125  13.930  67.407  1.00  0.00    -0.380 A  
BRANCH  10  12
HETATM   12  C   UNL     1     -12.359  14.544  69.845  1.00  0.00    -0.298 C  
BRANCH  12  13
HETATM   13  N   UNL     1     -11.569  15.765  69.682  1.00  0.00    -0.342 NA 
HETATM   14  H   UNL     1     -11.984  16.548  70.188  1.00  0.00     0.000 HD 
BRANCH  13  15
HETATM   15  C   UNL     1     -10.165  15.557  70.072  1.00  0.00    -0.273 C  
BRANCH  15  16
HETATM   16  C   UNL     1      -9.198  15.497  68.879  1.00  0.00    -0.218 C  
BRANCH  16  17
HETATM   17  C   UNL     1      -8.567  16.821  68.577  1.00  0.00    -0.245 A  
HETATM   18  C   UNL     1      -7.300  17.254  68.936  1.00  0.00    -0.243 A  
HETATM   19  N   UNL     1      -7.167  18.550  68.500  1.00  0.00    -0.278 NA 
HETATM   20  C   UNL     1      -6.192  16.585  69.665  1.00  0.00    -0.220 C  
HETATM   21  H   UNL     1      -6.336  19.126  68.635  1.00  0.00     0.000 HD 
HETATM   22  C   UNL     1      -8.305  18.966  67.856  1.00  0.00    -0.281 A  
HETATM   23  C   UNL     1      -8.609  20.200  67.268  1.00  0.00    -0.414 A  
HETATM   24  C   UNL     1      -9.863  20.341  66.667  1.00  0.00    -0.562 A  
HETATM   25  C   UNL     1     -10.775  19.288  66.655  1.00  0.00    -0.504 A  
HETATM   26  C   UNL     1     -10.458  18.065  67.255  1.00  0.00    -0.390 A  
HETATM   27  C   UNL     1      -9.199  17.898  67.870  1.00  0.00    -0.263 A  
ENDBRANCH  16  17
ENDBRANCH  15  16
ENDBRANCH  13  15
ENDBRANCH  12  13
ENDBRANCH  10  12
ENDBRANCH   2   6
BRANCH   3  28
HETATM   28  N   UNL     1      -9.265   9.214  63.847  1.00  0.00    -0.349 NA 
HETATM   29  H   UNL     1      -9.977   8.498  63.995  1.00  0.00     0.000 HD 
HETATM   30  O   UNL     1      -7.885   8.963  63.813  1.00  0.00    -0.123 OA 
HETATM   31  H   UNL     1      -7.699   8.041  63.946  1.00  0.00     0.000 HD 
ENDBRANCH   3  28
TORSDOF 7
ENDMDL
MODEL       94
REMARK 921   NORMALIZED FREE ENERGY PREDICTED BY IDOCK:   -4.81 KCAL/MOL
REMARK 922        TOTAL FREE ENERGY PREDICTED BY IDOCK:   -9.40 KCAL/MOL
REMARK 923 INTER-LIGAND FREE ENERGY PREDICTED BY IDOCK:   -7.40 KCAL/MOL
REMARK 924 INTRA-LIGAND FREE ENERGY PREDICTED BY IDOCK:   -2.00 KCAL/MOL
REMARK 927      BINDING AFFINITY PREDICTED BY RF-SCORE:    0.00 PKD
ROOT
HETATM    1  C   UNL     1     -10.788   6.546  70.690  1.00  0.00    -0.317 C  
HETATM    2  C   UNL     1      -9.598   7.034  70.307  1.00  0.00    -0.168 C  
HETATM    3  C   UNL     1     -10.849   5.642  71.843  1.00  0.00    -0.242 C  
HETATM    4  H   UNL     1     -12.070   5.127  73.238  1.00  0.00     0.000 HD 
HETATM    5  O   UNL     1     -12.030   5.713  72.491  1.00  0.00    -0.258 OA 
ENDROOT
BRANCH   2   6
HETATM    6  C   UNL     1      -9.500   7.952  69.179  1.00  0.00    -0.155 A  
HETATM    7  C   UNL     1     -10.382   7.845  68.101  1.00  0.00    -0.249 A  
HETATM    8  C   UNL     1     -10.354   8.794  67.077  1.00  0.00    -0.353 A  
HETATM    9  C   UNL     1      -8.558   8.982  69.207  1.00  0.00    -0.136 A  
HETATM   10  C   UNL     1      -9.445   9.860  67.125  1.00  0.00    -0.190 A  
HETATM   11  C   UNL     1      -8.532   9.933  68.186  1.00  0.00    -0.114 A  
BRANCH  10  12
HETATM   12  C   UNL     1      -9.538  10.983  66.121  1.00  0.00    -0.207 C  
BRANCH  12  13
HETATM   13  N   UNL     1     -10.879  11.565  66.050  1.00  0.00    -0.286 NA 
HETATM   14  H   UNL     1     -11.569  10.971  66.511  1.00  0.00     0.000 HD 
BRANCH  13  15
HETATM   15  C   UNL     1     -10.903  12.935  66.589  1.00  0.00    -0.267 C  
BRANCH  15  16
HETATM   16  C   UNL     1     -10.256  13.062  67.977  1.00  0.00    -0.233 C  
BRANCH  16  17
HETATM   17  C   UNL     1     -11.260  13.277  69.067  1.00  0.00    -0.320 A  
HETATM   18  C   UNL     1     -11.827  14.476  69.468  1.00  0.00    -0.329 A  
HETATM   19  N   UNL     1     -12.648  14.208  70.537  1.00  0.00    -0.345 NA 
HETATM   20  C   UNL     1     -11.673  15.865  68.963  1.00  0.00    -0.377 C  
HETATM   21  H   UNL     1     -13.190  14.910  71.042  1.00  0.00     0.000 HD 
HETATM   22  C   UNL     1     -12.641  12.868  70.832  1.00  0.00    -0.270 A  
HETATM   23  C   UNL     1     -13.315  12.163  71.836  1.00  0.00    -0.421 A  
HETATM   24  C   UNL     1     -13.122  10.779  71.899  1.00  0.00    -0.557 A  
HETATM   25  C   UNL     1     -12.290  10.130  70.990  1.00  0.00    -0.474 A  
HETATM   26  C   UNL     1     -11.617  10.853  69.999  1.00  0.00    -0.424 A  
HETATM   27  C   UNL     1     -11.793  12.251  69.917  1.00  0.00    -0.383 A  
ENDBRANCH  16  17
ENDBRANCH  15  16
ENDBRANCH  13  15
ENDBRANCH  12  13
ENDBRANCH  10  12
ENDBRANCH   2   6
BRANCH   3  28
HETATM   28  N   UNL     1      -9.892   4.854  72.214  1.00  0.00    -0.163 NA 
HETATM   29  H   UNL     1      -9.085   5.147  72.766  1.00  0.00     0.000 HD 
HETATM   30  O   UNL     1     -10.104   3.544  71.758  1.00  0.00    -0.163 OA 
HETATM   31  H   UNL     1      -9.401   2.966  72.030  1.00  0.00     0.000 HD 
ENDBRANCH   3  28
TORSDOF 7
ENDMDL
MODEL       95
REMARK 921   NORMALIZED FREE ENERGY PREDICTED BY IDOCK:   -4.80 KCAL/MOL
REMARK 922        TOTAL FREE ENERGY PREDICTED BY IDOCK:   -9.39 KCAL/MOL
REMARK 923 INTER-LIGAND FREE ENERGY PREDICTED BY IDOCK:   -6.19 KCAL/MOL
REMARK 924 INTRA-LIGAND FREE ENERGY PREDICTED BY IDOCK:   -3.20 KCAL/MOL
REMARK 927      BINDING AFFINITY PREDICTED BY RF-SCORE:    0.00 PKD
ROOT
HETATM    1  C   UNL     1     -10.312  10.485  64.995  1.00  0.00    -0.310 C  
HETATM    2  C   UNL     1     -10.850  11.134  66.038  1.00  0.00    -0.230 C  
HETATM    3  C   UNL     1     -10.230  11.166  63.698  1.00  0.00    -0.387 C  
HETATM    4  H   UNL     1      -9.141  11.171  62.112  1.00  0.00     0.000 HD 
HETATM    5  O   UNL     1      -9.194  10.730  62.952  1.00  0.00    -0.252 OA 
ENDROOT
BRANCH   2   6
HETATM    6  C   UNL     1     -10.930  10.498  67.347  1.00  0.00    -0.352 A  
HETATM    7  C   UNL     1     -10.656   9.136  67.490  1.00  0.00    -0.317 A  
HETATM    8  C   UNL     1     -10.626   8.558  68.761  1.00  0.00    -0.162 A  
HETATM    9  C   UNL     1     -11.221  11.271  68.474  1.00  0.00    -0.311 A  
HETATM   10  C   UNL     1     -10.866   9.338  69.900  1.00  0.00    -0.252 A  
HETATM   11  C   UNL     1     -11.187  10.694  69.744  1.00  0.00    -0.363 A  
BRANCH  10  12
HETATM   12  C   UNL     1     -10.652   8.759  71.277  1.00  0.00    -0.262 C  
BRANCH  12  13
HETATM   13  N   UNL     1      -9.353   9.122  71.844  1.00  0.00    -0.316 NA 
HETATM   14  H   UNL     1      -9.435   9.381  72.827  1.00  0.00     0.000 HD 
BRANCH  13  15
HETATM   15  C   UNL     1      -8.360   8.052  71.650  1.00  0.00    -0.124 C  
BRANCH  15  16
HETATM   16  C   UNL     1      -7.019   8.551  71.091  1.00  0.00    -0.070 C  
BRANCH  16  17
HETATM   17  C   UNL     1      -7.016   8.656  69.597  1.00  0.00    -0.050 A  
HETATM   18  C   UNL     1      -6.811   7.638  68.679  1.00  0.00    -0.066 A  
HETATM   19  N   UNL     1      -6.839   8.199  67.425  1.00  0.00    -0.072 NA 
HETATM   20  C   UNL     1      -6.574   6.181  68.850  1.00  0.00    -0.051 C  
HETATM   21  H   UNL     1      -6.706   7.683  66.556  1.00  0.00     0.000 HD 
HETATM   22  C   UNL     1      -7.070   9.549  67.502  1.00  0.00    -0.085 A  
HETATM   23  C   UNL     1      -7.167  10.506  66.485  1.00  0.00    -0.124 A  
HETATM   24  C   UNL     1      -7.420  11.829  66.860  1.00  0.00    -0.106 A  
HETATM   25  C   UNL     1      -7.571  12.178  68.200  1.00  0.00    -0.125 A  
HETATM   26  C   UNL     1      -7.462  11.209  69.204  1.00  0.00    -0.109 A  
HETATM   27  C   UNL     1      -7.205   9.867  68.851  1.00  0.00    -0.076 A  
ENDBRANCH  16  17
ENDBRANCH  15  16
ENDBRANCH  13  15
ENDBRANCH  12  13
ENDBRANCH  10  12
ENDBRANCH   2   6
BRANCH   3  28
HETATM   28  N   UNL     1     -11.050  12.081  63.293  1.00  0.00    -0.677 NA 
HETATM   29  H   UNL     1     -10.829  13.077  63.255  1.00  0.00     0.000 HD 
HETATM   30  O   UNL     1     -12.283  11.529  62.913  1.00  0.00    -0.942 OA 
HETATM   31  H   UNL     1     -12.885  12.201  62.615  1.00  0.00     0.000 HD 
ENDBRANCH   3  28
TORSDOF 7
ENDMDL
MODEL       96
REMARK 921   NORMALIZED FREE ENERGY PREDICTED BY IDOCK:   -4.80 KCAL/MOL
REMARK 922        TOTAL FREE ENERGY PREDICTED BY IDOCK:   -9.39 KCAL/MOL
REMARK 923 INTER-LIGAND FREE ENERGY PREDICTED BY IDOCK:   -8.40 KCAL/MOL
REMARK 924 INTRA-LIGAND FREE ENERGY PREDICTED BY IDOCK:   -1.00 KCAL/MOL
REMARK 927      BINDING AFFINITY PREDICTED BY RF-SCORE:    0.00 PKD
ROOT
HETATM    1  C   UNL     1      -9.880  10.923  64.751  1.00  0.00    -0.343 C  
HETATM    2  C   UNL     1     -10.349  10.398  65.893  1.00  0.00    -0.261 C  
HETATM    3  C   UNL     1      -9.367  10.024  63.712  1.00  0.00    -0.257 C  
HETATM    4  H   UNL     1      -9.176   9.954  61.799  1.00  0.00     0.000 HD 
HETATM    5  O   UNL     1      -9.509  10.536  62.472  1.00  0.00    -0.280 OA 
ENDROOT
BRANCH   2   6
HETATM    6  C   UNL     1     -10.886  11.258  66.941  1.00  0.00    -0.333 A  
HETATM    7  C   UNL     1     -10.630  10.978  68.286  1.00  0.00    -0.220 A  
HETATM    8  C   UNL     1     -11.054  11.866  69.277  1.00  0.00    -0.264 A  
HETATM    9  C   UNL     1     -11.606  12.402  66.593  1.00  0.00    -0.447 A  
HETATM   10  C   UNL     1     -11.733  13.042  68.932  1.00  0.00    -0.371 A  
HETATM   11  C   UNL     1     -12.026  13.291  67.583  1.00  0.00    -0.366 A  
BRANCH  10  12
HETATM   12  C   UNL     1     -12.025  14.087  69.980  1.00  0.00    -0.339 C  
BRANCH  12  13
HETATM   13  N   UNL     1     -12.240  15.416  69.406  1.00  0.00    -0.566 NA 
HETATM   14  H   UNL     1     -12.921  15.950  69.947  1.00  0.00     0.000 HD 
BRANCH  13  15
HETATM   15  C   UNL     1     -10.974  16.153  69.258  1.00  0.00    -0.315 C  
BRANCH  15  16
HETATM   16  C   UNL     1     -11.005  17.210  68.144  1.00  0.00    -0.231 C  
BRANCH  16  17
HETATM   17  C   UNL     1      -9.726  17.270  67.366  1.00  0.00    -0.258 A  
HETATM   18  C   UNL     1      -9.419  16.602  66.192  1.00  0.00    -0.287 A  
HETATM   19  N   UNL     1      -8.120  16.909  65.868  1.00  0.00    -0.419 NA 
HETATM   20  C   UNL     1     -10.215  15.684  65.335  1.00  0.00    -0.401 C  
HETATM   21  H   UNL     1      -7.624  16.548  65.053  1.00  0.00     0.000 HD 
HETATM   22  C   UNL     1      -7.579  17.768  66.791  1.00  0.00    -0.216 A  
HETATM   23  C   UNL     1      -6.297  18.326  66.860  1.00  0.00    -0.198 A  
HETATM   24  C   UNL     1      -6.020  19.189  67.925  1.00  0.00    -0.212 A  
HETATM   25  C   UNL     1      -6.991  19.480  68.881  1.00  0.00    -0.386 A  
HETATM   26  C   UNL     1      -8.264  18.906  68.801  1.00  0.00    -0.347 A  
HETATM   27  C   UNL     1      -8.566  18.030  67.737  1.00  0.00    -0.244 A  
ENDBRANCH  16  17
ENDBRANCH  15  16
ENDBRANCH  13  15
ENDBRANCH  12  13
ENDBRANCH  10  12
ENDBRANCH   2   6
BRANCH   3  28
HETATM   28  N   UNL     1      -8.832   8.867  63.937  1.00  0.00    -0.430 NA 
HETATM   29  H   UNL     1      -8.574   8.522  64.862  1.00  0.00     0.000 HD 
HETATM   30  O   UNL     1      -8.652   8.149  62.745  1.00  0.00    -0.406 OA 
HETATM   31  H   UNL     1      -8.259   7.300  62.911  1.00  0.00     0.000 HD 
ENDBRANCH   3  28
TORSDOF 7
ENDMDL
MODEL       97
REMARK 921   NORMALIZED FREE ENERGY PREDICTED BY IDOCK:   -4.78 KCAL/MOL
REMARK 922        TOTAL FREE ENERGY PREDICTED BY IDOCK:   -9.37 KCAL/MOL
REMARK 923 INTER-LIGAND FREE ENERGY PREDICTED BY IDOCK:   -6.21 KCAL/MOL
REMARK 924 INTRA-LIGAND FREE ENERGY PREDICTED BY IDOCK:   -3.16 KCAL/MOL
REMARK 927      BINDING AFFINITY PREDICTED BY RF-SCORE:    0.00 PKD
ROOT
HETATM    1  C   UNL     1     -12.337   8.213  70.974  1.00  0.00    -0.152 C  
HETATM    2  C   UNL     1     -12.184   6.917  71.285  1.00  0.00    -0.427 C  
HETATM    3  C   UNL     1     -13.316   9.012  71.719  1.00  0.00    -0.397 C  
HETATM    4  H   UNL     1     -13.609  10.834  72.262  1.00  0.00     0.000 HD 
HETATM    5  O   UNL     1     -12.975  10.316  71.780  1.00  0.00    -0.410 OA 
ENDROOT
BRANCH   2   6
HETATM    6  C   UNL     1     -11.206   6.095  70.581  1.00  0.00    -0.387 A  
HETATM    7  C   UNL     1     -10.512   5.088  71.257  1.00  0.00    -0.213 A  
HETATM    8  C   UNL     1      -9.660   4.233  70.554  1.00  0.00    -0.267 A  
HETATM    9  C   UNL     1     -11.011   6.275  69.210  1.00  0.00    -0.435 A  
HETATM   10  C   UNL     1      -9.499   4.376  69.169  1.00  0.00    -0.240 A  
HETATM   11  C   UNL     1     -10.163   5.419  68.507  1.00  0.00    -0.237 A  
BRANCH  10  12
HETATM   12  C   UNL     1      -8.729   3.343  68.384  1.00  0.00    -0.102 C  
BRANCH  12  13
HETATM   13  N   UNL     1      -7.469   3.865  67.851  1.00  0.00    -0.066 NA 
HETATM   14  H   UNL     1      -7.626   4.668  67.242  1.00  0.00     0.000 HD 
BRANCH  13  15
HETATM   15  C   UNL     1      -6.518   4.183  68.928  1.00  0.00    -0.040 C  
BRANCH  15  16
HETATM   16  C   UNL     1      -5.847   5.557  68.770  1.00  0.00    -0.019 C  
BRANCH  16  17
HETATM   17  C   UNL     1      -6.797   6.694  68.989  1.00  0.00    -0.058 A  
HETATM   18  C   UNL     1      -7.310   7.562  68.038  1.00  0.00    -0.096 A  
HETATM   19  N   UNL     1      -8.092   8.480  68.695  1.00  0.00    -0.120 NA 
HETATM   20  C   UNL     1      -7.135   7.634  66.564  1.00  0.00    -0.075 C  
HETATM   21  H   UNL     1      -8.591   9.247  68.243  1.00  0.00     0.000 HD 
HETATM   22  C   UNL     1      -8.113   8.226  70.043  1.00  0.00    -0.116 A  
HETATM   23  C   UNL     1      -8.765   8.906  71.079  1.00  0.00    -0.276 A  
HETATM   24  C   UNL     1      -8.612   8.411  72.377  1.00  0.00    -0.261 A  
HETATM   25  C   UNL     1      -7.839   7.280  72.627  1.00  0.00    -0.105 A  
HETATM   26  C   UNL     1      -7.188   6.618  71.581  1.00  0.00    -0.085 A  
HETATM   27  C   UNL     1      -7.324   7.100  70.261  1.00  0.00    -0.083 A  
ENDBRANCH  16  17
ENDBRANCH  15  16
ENDBRANCH  13  15
ENDBRANCH  12  13
ENDBRANCH  10  12
ENDBRANCH   2   6
BRANCH   3  28
HETATM   28  N   UNL     1     -14.392   8.542  72.260  1.00  0.00    -0.591 NA 
HETATM   29  H   UNL     1     -15.151   8.096  71.741  1.00  0.00     0.000 HD 
HETATM   30  O   UNL     1     -14.385   8.722  73.651  1.00  0.00    -0.952 OA 
HETATM   31  H   UNL     1     -15.175   8.377  74.048  1.00  0.00     0.000 HD 
ENDBRANCH   3  28
TORSDOF 7
ENDMDL
MODEL       98
REMARK 921   NORMALIZED FREE ENERGY PREDICTED BY IDOCK:   -4.78 KCAL/MOL
REMARK 922        TOTAL FREE ENERGY PREDICTED BY IDOCK:   -9.37 KCAL/MOL
REMARK 923 INTER-LIGAND FREE ENERGY PREDICTED BY IDOCK:   -8.59 KCAL/MOL
REMARK 924 INTRA-LIGAND FREE ENERGY PREDICTED BY IDOCK:   -0.78 KCAL/MOL
REMARK 927      BINDING AFFINITY PREDICTED BY RF-SCORE:    0.00 PKD
ROOT
HETATM    1  C   UNL     1      -9.722   4.838  65.616  1.00  0.00    -0.188 C  
HETATM    2  C   UNL     1     -10.084   5.034  66.893  1.00  0.00    -0.261 C  
HETATM    3  C   UNL     1      -9.667   3.468  65.094  1.00  0.00    -0.129 C  
HETATM    4  H   UNL     1      -9.869   2.526  63.429  1.00  0.00     0.000 HD 
HETATM    5  O   UNL     1      -9.904   3.414  63.767  1.00  0.00    -0.137 OA 
ENDROOT
BRANCH   2   6
HETATM    6  C   UNL     1     -10.171   6.382  67.442  1.00  0.00    -0.223 A  
HETATM    7  C   UNL     1     -10.034   7.495  66.609  1.00  0.00    -0.270 A  
HETATM    8  C   UNL     1     -10.228   8.780  67.121  1.00  0.00    -0.346 A  
HETATM    9  C   UNL     1     -10.456   6.558  68.798  1.00  0.00    -0.245 A  
HETATM   10  C   UNL     1     -10.564   8.961  68.470  1.00  0.00    -0.183 A  
HETATM   11  C   UNL     1     -10.654   7.841  69.308  1.00  0.00    -0.199 A  
BRANCH  10  12
HETATM   12  C   UNL     1     -10.954  10.327  68.978  1.00  0.00    -0.232 C  
BRANCH  12  13
HETATM   13  N   UNL     1     -12.095  10.892  68.256  1.00  0.00    -0.810 NA 
HETATM   14  H   UNL     1     -12.904  11.006  68.867  1.00  0.00     0.000 HD 
BRANCH  13  15
HETATM   15  C   UNL     1     -11.742  12.156  67.589  1.00  0.00    -0.316 C  
BRANCH  15  16
HETATM   16  C   UNL     1     -10.786  13.037  68.408  1.00  0.00    -0.273 C  
BRANCH  16  17
HETATM   17  C   UNL     1     -11.488  14.160  69.107  1.00  0.00    -0.338 A  
HETATM   18  C   UNL     1     -11.468  15.505  68.776  1.00  0.00    -0.355 A  
HETATM   19  N   UNL     1     -12.204  16.175  69.723  1.00  0.00    -0.332 NA 
HETATM   20  C   UNL     1     -10.815  16.244  67.665  1.00  0.00    -0.293 C  
HETATM   21  H   UNL     1     -12.353  17.185  69.735  1.00  0.00     0.000 HD 
HETATM   22  C   UNL     1     -12.713  15.302  70.651  1.00  0.00    -0.416 A  
HETATM   23  C   UNL     1     -13.502  15.547  71.781  1.00  0.00    -0.576 A  
HETATM   24  C   UNL     1     -13.887  14.447  72.554  1.00  0.00    -0.559 A  
HETATM   25  C   UNL     1     -13.498  13.156  72.208  1.00  0.00    -0.665 A  
HETATM   26  C   UNL     1     -12.701  12.931  71.080  1.00  0.00    -0.366 A  
HETATM   27  C   UNL     1     -12.297  14.025  70.284  1.00  0.00    -0.425 A  
ENDBRANCH  16  17
ENDBRANCH  15  16
ENDBRANCH  13  15
ENDBRANCH  12  13
ENDBRANCH  10  12
ENDBRANCH   2   6
BRANCH   3  28
HETATM   28  N   UNL     1      -9.417   2.418  65.806  1.00  0.00    -0.363 NA 
HETATM   29  H   UNL     1      -9.778   2.261  66.748  1.00  0.00     0.000 HD 
HETATM   30  O   UNL     1      -8.586   1.521  65.118  1.00  0.00    -0.088 OA 
HETATM   31  H   UNL     1      -8.402   0.750  65.641  1.00  0.00     0.000 HD 
ENDBRANCH   3  28
TORSDOF 7
ENDMDL
MODEL       99
REMARK 921   NORMALIZED FREE ENERGY PREDICTED BY IDOCK:   -4.77 KCAL/MOL
REMARK 922        TOTAL FREE ENERGY PREDICTED BY IDOCK:   -9.36 KCAL/MOL
REMARK 923 INTER-LIGAND FREE ENERGY PREDICTED BY IDOCK:   -7.02 KCAL/MOL
REMARK 924 INTRA-LIGAND FREE ENERGY PREDICTED BY IDOCK:   -2.33 KCAL/MOL
REMARK 927      BINDING AFFINITY PREDICTED BY RF-SCORE:    0.00 PKD
ROOT
HETATM    1  C   UNL     1     -12.121  14.157  64.918  1.00  0.00    -0.438 C  
HETATM    2  C   UNL     1     -11.001  13.434  64.774  1.00  0.00    -0.371 C  
HETATM    3  C   UNL     1     -12.215  15.464  64.258  1.00  0.00    -0.126 C  
HETATM    4  H   UNL     1     -13.547  16.641  63.522  1.00  0.00     0.000 HD 
HETATM    5  O   UNL     1     -13.486  15.794  63.949  1.00  0.00     0.322 OA 
ENDROOT
BRANCH   2   6
HETATM    6  C   UNL     1     -10.878  12.122  65.397  1.00  0.00    -0.335 A  
HETATM    7  C   UNL     1     -10.064  11.141  64.825  1.00  0.00    -0.351 A  
HETATM    8  C   UNL     1      -9.865   9.926  65.485  1.00  0.00    -0.381 A  
HETATM    9  C   UNL     1     -11.529  11.868  66.606  1.00  0.00    -0.382 A  
HETATM   10  C   UNL     1     -10.474   9.684  66.724  1.00  0.00    -0.257 A  
HETATM   11  C   UNL     1     -11.327  10.656  67.267  1.00  0.00    -0.122 A  
BRANCH  10  12
HETATM   12  C   UNL     1     -10.113   8.455  67.521  1.00  0.00    -0.218 C  
BRANCH  12  13
HETATM   13  N   UNL     1      -9.560   8.780  68.836  1.00  0.00    -0.156 NA 
HETATM   14  H   UNL     1      -9.480   7.950  69.423  1.00  0.00     0.000 HD 
BRANCH  13  15
HETATM   15  C   UNL     1      -8.272   9.484  68.722  1.00  0.00    -0.112 C  
BRANCH  15  16
HETATM   16  C   UNL     1      -8.243  10.835  69.454  1.00  0.00    -0.035 C  
BRANCH  16  17
HETATM   17  C   UNL     1      -7.787  11.960  68.576  1.00  0.00    -0.136 A  
HETATM   18  C   UNL     1      -6.584  12.068  67.897  1.00  0.00    -0.076 A  
HETATM   19  N   UNL     1      -6.573  13.288  67.266  1.00  0.00    -0.442 NA 
HETATM   20  C   UNL     1      -5.423  11.148  67.783  1.00  0.00    -0.040 C  
HETATM   21  H   UNL     1      -5.803  13.640  66.697  1.00  0.00     0.000 HD 
HETATM   22  C   UNL     1      -7.740  13.970  67.504  1.00  0.00    -0.182 A  
HETATM   23  C   UNL     1      -8.147  15.238  67.073  1.00  0.00    -0.253 A  
HETATM   24  C   UNL     1      -9.412  15.683  67.469  1.00  0.00    -0.214 A  
HETATM   25  C   UNL     1     -10.234  14.889  68.265  1.00  0.00    -0.225 A  
HETATM   26  C   UNL     1      -9.806  13.628  68.695  1.00  0.00    -0.140 A  
HETATM   27  C   UNL     1      -8.533  13.157  68.310  1.00  0.00    -0.161 A  
ENDBRANCH  16  17
ENDBRANCH  15  16
ENDBRANCH  13  15
ENDBRANCH  12  13
ENDBRANCH  10  12
ENDBRANCH   2   6
BRANCH   3  28
HETATM   28  N   UNL     1     -11.207  16.231  63.996  1.00  0.00    -1.342 NA 
HETATM   29  H   UNL     1     -10.379  15.937  63.476  1.00  0.00     0.000 HD 
HETATM   30  O   UNL     1     -11.397  17.519  64.518  1.00  0.00    -0.850 OA 
HETATM   31  H   UNL     1     -10.656  18.082  64.325  1.00  0.00     0.000 HD 
ENDBRANCH   3  28
TORSDOF 7
ENDMDL
MODEL      100
REMARK 921   NORMALIZED FREE ENERGY PREDICTED BY IDOCK:   -4.77 KCAL/MOL
REMARK 922        TOTAL FREE ENERGY PREDICTED BY IDOCK:   -9.35 KCAL/MOL
REMARK 923 INTER-LIGAND FREE ENERGY PREDICTED BY IDOCK:   -8.60 KCAL/MOL
REMARK 924 INTRA-LIGAND FREE ENERGY PREDICTED BY IDOCK:   -0.76 KCAL/MOL
REMARK 927      BINDING AFFINITY PREDICTED BY RF-SCORE:    0.00 PKD
ROOT
HETATM    1  C   UNL     1     -10.446   9.795  67.620  1.00  0.00    -0.305 C  
HETATM    2  C   UNL     1     -11.584  10.155  68.233  1.00  0.00     0.085 C  
HETATM    3  C   UNL     1     -10.293   8.411  67.159  1.00  0.00    -0.311 C  
HETATM    4  H   UNL     1      -9.379   7.416  65.790  1.00  0.00     0.000 HD 
HETATM    5  O   UNL     1      -9.478   8.313  66.088  1.00  0.00    -0.209 OA 
ENDROOT
BRANCH   2   6
HETATM    6  C   UNL     1     -11.782  11.527  68.686  1.00  0.00    -0.389 A  
HETATM    7  C   UNL     1     -11.942  11.806  70.046  1.00  0.00    -0.421 A  
HETATM    8  C   UNL     1     -12.020  13.130  70.483  1.00  0.00    -0.303 A  
HETATM    9  C   UNL     1     -11.747  12.572  67.761  1.00  0.00    -0.419 A  
HETATM   10  C   UNL     1     -11.935  14.185  69.565  1.00  0.00    -0.389 A  
HETATM   11  C   UNL     1     -11.822  13.895  68.198  1.00  0.00    -0.407 A  
BRANCH  10  12
HETATM   12  C   UNL     1     -11.833  15.609  70.053  1.00  0.00    -0.367 C  
BRANCH  12  13
HETATM   13  N   UNL     1     -11.755  16.575  68.956  1.00  0.00    -0.162 NA 
HETATM   14  H   UNL     1     -12.554  17.209  68.959  1.00  0.00     0.000 HD 
BRANCH  13  15
HETATM   15  C   UNL     1     -10.482  17.316  68.977  1.00  0.00    -0.309 C  
BRANCH  15  16
HETATM   16  C   UNL     1     -10.365  18.371  67.866  1.00  0.00    -0.425 C  
BRANCH  16  17
HETATM   17  C   UNL     1      -9.130  18.204  67.036  1.00  0.00    -0.263 A  
HETATM   18  C   UNL     1      -8.786  17.123  66.241  1.00  0.00    -0.231 A  
HETATM   19  N   UNL     1      -7.544  17.377  65.711  1.00  0.00    -0.441 NA 
HETATM   20  C   UNL     1      -9.495  15.855  65.930  1.00  0.00    -0.372 C  
HETATM   21  H   UNL     1      -7.037  16.745  65.091  1.00  0.00     0.000 HD 
HETATM   22  C   UNL     1      -7.079  18.599  66.128  1.00  0.00    -0.260 A  
HETATM   23  C   UNL     1      -5.871  19.247  65.845  1.00  0.00    -0.191 A  
HETATM   24  C   UNL     1      -5.663  20.509  66.410  1.00  0.00    -0.209 A  
HETATM   25  C   UNL     1      -6.628  21.096  67.225  1.00  0.00    -0.429 A  
HETATM   26  C   UNL     1      -7.825  20.429  67.505  1.00  0.00    -0.332 A  
HETATM   27  C   UNL     1      -8.058  19.153  66.948  1.00  0.00    -0.277 A  
ENDBRANCH  16  17
ENDBRANCH  15  16
ENDBRANCH  13  15
ENDBRANCH  12  13
ENDBRANCH  10  12
ENDBRANCH   2   6
BRANCH   3  28
HETATM   28  N   UNL     1     -10.862   7.385  67.705  1.00  0.00    -0.484 NA 
HETATM   29  H   UNL     1     -10.838   7.177  68.704  1.00  0.00     0.000 HD 
HETATM   30  O   UNL     1     -11.518   6.597  66.748  1.00  0.00    -0.776 OA 
HETATM   31  H   UNL     1     -11.936   5.844  67.149  1.00  0.00     0.000 HD 
ENDBRANCH   3  28
TORSDOF 7
ENDMDL
MODEL      101
REMARK 921   NORMALIZED FREE ENERGY PREDICTED BY IDOCK:   -4.76 KCAL/MOL
REMARK 922        TOTAL FREE ENERGY PREDICTED BY IDOCK:   -9.34 KCAL/MOL
REMARK 923 INTER-LIGAND FREE ENERGY PREDICTED BY IDOCK:   -8.48 KCAL/MOL
REMARK 924 INTRA-LIGAND FREE ENERGY PREDICTED BY IDOCK:   -0.86 KCAL/MOL
REMARK 927      BINDING AFFINITY PREDICTED BY RF-SCORE:    0.00 PKD
ROOT
HETATM    1  C   UNL     1     -10.979   7.104  69.985  1.00  0.00    -0.287 C  
HETATM    2  C   UNL     1     -11.696   7.618  70.996  1.00  0.00    -0.306 C  
HETATM    3  C   UNL     1     -10.626   5.681  70.013  1.00  0.00    -0.318 C  
HETATM    4  H   UNL     1     -10.256   4.238  68.795  1.00  0.00     0.000 HD 
HETATM    5  O   UNL     1     -10.485   5.160  68.777  1.00  0.00    -0.148 OA 
ENDROOT
BRANCH   2   6
HETATM    6  C   UNL     1     -12.084   9.023  70.993  1.00  0.00    -0.304 A  
HETATM    7  C   UNL     1     -13.115   9.474  71.820  1.00  0.00    -0.504 A  
HETATM    8  C   UNL     1     -13.407  10.838  71.894  1.00  0.00    -0.445 A  
HETATM    9  C   UNL     1     -11.376   9.933  70.204  1.00  0.00    -0.335 A  
HETATM   10  C   UNL     1     -12.668  11.762  71.143  1.00  0.00    -0.405 A  
HETATM   11  C   UNL     1     -11.665  11.296  70.280  1.00  0.00    -0.415 A  
BRANCH  10  12
HETATM   12  C   UNL     1     -12.857  13.243  71.362  1.00  0.00    -0.322 C  
BRANCH  12  13
HETATM   13  N   UNL     1     -12.970  13.987  70.107  1.00  0.00    -0.279 NA 
HETATM   14  H   UNL     1     -13.930  13.998  69.765  1.00  0.00     0.000 HD 
BRANCH  13  15
HETATM   15  C   UNL     1     -12.428  15.350  70.237  1.00  0.00    -0.374 C  
BRANCH  15  16
HETATM   16  C   UNL     1     -10.956  15.470  69.814  1.00  0.00    -0.299 C  
BRANCH  16  17
HETATM   17  C   UNL     1     -10.795  15.950  68.405  1.00  0.00    -0.316 A  
HETATM   18  C   UNL     1     -10.412  17.212  67.980  1.00  0.00    -0.369 A  
HETATM   19  N   UNL     1     -10.453  17.218  66.607  1.00  0.00    -0.293 NA 
HETATM   20  C   UNL     1     -10.019  18.434  68.729  1.00  0.00    -0.404 C  
HETATM   21  H   UNL     1     -10.228  18.023  66.023  1.00  0.00     0.000 HD 
HETATM   22  C   UNL     1     -10.839  15.991  66.127  1.00  0.00    -0.179 A  
HETATM   23  C   UNL     1     -11.023  15.556  64.809  1.00  0.00    -0.416 A  
HETATM   24  C   UNL     1     -11.419  14.230  64.613  1.00  0.00    -0.389 A  
HETATM   25  C   UNL     1     -11.621  13.375  65.694  1.00  0.00    -0.350 A  
HETATM   26  C   UNL     1     -11.442  13.830  67.004  1.00  0.00    -0.368 A  
HETATM   27  C   UNL     1     -11.044  15.166  67.229  1.00  0.00    -0.332 A  
ENDBRANCH  16  17
ENDBRANCH  15  16
ENDBRANCH  13  15
ENDBRANCH  12  13
ENDBRANCH  10  12
ENDBRANCH   2   6
BRANCH   3  28
HETATM   28  N   UNL     1     -10.460   4.984  71.091  1.00  0.00    -0.178 NA 
HETATM   29  H   UNL     1     -11.176   4.389  71.509  1.00  0.00     0.000 HD 
HETATM   30  O   UNL     1      -9.168   5.152  71.612  1.00  0.00    -0.142 OA 
HETATM   31  H   UNL     1      -9.046   4.641  72.404  1.00  0.00     0.000 HD 
ENDBRANCH   3  28
TORSDOF 7
ENDMDL
MODEL      102
REMARK 921   NORMALIZED FREE ENERGY PREDICTED BY IDOCK:   -4.76 KCAL/MOL
REMARK 922        TOTAL FREE ENERGY PREDICTED BY IDOCK:   -9.34 KCAL/MOL
REMARK 923 INTER-LIGAND FREE ENERGY PREDICTED BY IDOCK:   -8.87 KCAL/MOL
REMARK 924 INTRA-LIGAND FREE ENERGY PREDICTED BY IDOCK:   -0.47 KCAL/MOL
REMARK 927      BINDING AFFINITY PREDICTED BY RF-SCORE:    0.00 PKD
ROOT
HETATM    1  C   UNL     1      -9.521   9.422  66.238  1.00  0.00    -0.273 C  
HETATM    2  C   UNL     1      -9.847   9.852  65.010  1.00  0.00    -0.323 C  
HETATM    3  C   UNL     1      -8.709   8.208  66.374  1.00  0.00    -0.149 C  
HETATM    4  H   UNL     1      -7.432   7.428  67.583  1.00  0.00     0.000 HD 
HETATM    5  O   UNL     1      -7.958   8.214  67.495  1.00  0.00    -0.118 OA 
ENDROOT
BRANCH   2   6
HETATM    6  C   UNL     1     -10.636  11.066  64.834  1.00  0.00    -0.328 A  
HETATM    7  C   UNL     1     -11.174  11.727  65.941  1.00  0.00    -0.345 A  
HETATM    8  C   UNL     1     -11.833  12.947  65.775  1.00  0.00    -0.469 A  
HETATM    9  C   UNL     1     -10.798  11.605  63.556  1.00  0.00    -0.497 A  
HETATM   10  C   UNL     1     -11.955  13.519  64.501  1.00  0.00    -0.451 A  
HETATM   11  C   UNL     1     -11.452  12.826  63.390  1.00  0.00    -0.454 A  
BRANCH  10  12
HETATM   12  C   UNL     1     -12.499  14.917  64.345  1.00  0.00    -0.207 C  
BRANCH  12  13
HETATM   13  N   UNL     1     -11.456  15.895  64.032  1.00  0.00    -1.104 NA 
HETATM   14  H   UNL     1     -11.850  16.743  63.625  1.00  0.00     0.000 HD 
BRANCH  13  15
HETATM   15  C   UNL     1     -10.628  16.198  65.212  1.00  0.00    -0.369 C  
BRANCH  15  16
HETATM   16  C   UNL     1     -10.606  17.690  65.581  1.00  0.00    -0.137 C  
BRANCH  16  17
HETATM   17  C   UNL     1      -9.871  17.961  66.857  1.00  0.00    -0.321 A  
HETATM   18  C   UNL     1     -10.128  17.426  68.110  1.00  0.00    -0.328 A  
HETATM   19  N   UNL     1      -9.244  17.998  68.993  1.00  0.00    -0.123 NA 
HETATM   20  C   UNL     1     -11.133  16.437  68.580  1.00  0.00    -0.357 C  
HETATM   21  H   UNL     1      -9.210  17.796  69.992  1.00  0.00     0.000 HD 
HETATM   22  C   UNL     1      -8.412  18.877  68.347  1.00  0.00    -0.350 A  
HETATM   23  C   UNL     1      -7.381  19.678  68.852  1.00  0.00    -0.373 A  
HETATM   24  C   UNL     1      -6.683  20.485  67.948  1.00  0.00    -0.346 A  
HETATM   25  C   UNL     1      -7.006  20.487  66.593  1.00  0.00    -0.310 A  
HETATM   26  C   UNL     1      -8.045  19.686  66.108  1.00  0.00    -0.356 A  
HETATM   27  C   UNL     1      -8.766  18.865  67.001  1.00  0.00    -0.305 A  
ENDBRANCH  16  17
ENDBRANCH  15  16
ENDBRANCH  13  15
ENDBRANCH  12  13
ENDBRANCH  10  12
ENDBRANCH   2   6
BRANCH   3  28
HETATM   28  N   UNL     1      -8.701   7.228  65.529  1.00  0.00    -0.332 NA 
HETATM   29  H   UNL     1      -8.484   7.325  64.536  1.00  0.00     0.000 HD 
HETATM   30  O   UNL     1      -9.028   6.015  66.152  1.00  0.00    -0.147 OA 
HETATM   31  H   UNL     1      -9.022   5.296  65.531  1.00  0.00     0.000 HD 
ENDBRANCH   3  28
TORSDOF 7
ENDMDL
MODEL      103
REMARK 921   NORMALIZED FREE ENERGY PREDICTED BY IDOCK:   -4.76 KCAL/MOL
REMARK 922        TOTAL FREE ENERGY PREDICTED BY IDOCK:   -9.34 KCAL/MOL
REMARK 923 INTER-LIGAND FREE ENERGY PREDICTED BY IDOCK:   -6.53 KCAL/MOL
REMARK 924 INTRA-LIGAND FREE ENERGY PREDICTED BY IDOCK:   -2.80 KCAL/MOL
REMARK 927      BINDING AFFINITY PREDICTED BY RF-SCORE:    0.00 PKD
ROOT
HETATM    1  C   UNL     1      -9.511   9.001  66.964  1.00  0.00    -0.212 C  
HETATM    2  C   UNL     1      -9.867   7.707  66.966  1.00  0.00    -0.282 C  
HETATM    3  C   UNL     1      -9.540   9.745  65.700  1.00  0.00    -0.263 C  
HETATM    4  H   UNL     1      -9.792  11.543  65.064  1.00  0.00     0.000 HD 
HETATM    5  O   UNL     1      -9.773  11.061  65.883  1.00  0.00    -0.206 OA 
ENDROOT
BRANCH   2   6
HETATM    6  C   UNL     1      -9.871   6.940  68.206  1.00  0.00    -0.141 A  
HETATM    7  C   UNL     1     -11.078   6.607  68.827  1.00  0.00    -0.297 A  
HETATM    8  C   UNL     1     -11.079   5.779  69.952  1.00  0.00    -0.327 A  
HETATM    9  C   UNL     1      -8.664   6.483  68.739  1.00  0.00    -0.123 A  
HETATM   10  C   UNL     1      -9.875   5.275  70.463  1.00  0.00    -0.274 A  
HETATM   11  C   UNL     1      -8.666   5.654  69.861  1.00  0.00    -0.127 A  
BRANCH  10  12
HETATM   12  C   UNL     1      -9.889   4.238  71.557  1.00  0.00    -0.189 C  
BRANCH  12  13
HETATM   13  N   UNL     1      -9.462   4.776  72.849  1.00  0.00    -0.130 NA 
HETATM   14  H   UNL     1      -8.577   5.277  72.771  1.00  0.00     0.000 HD 
BRANCH  13  15
HETATM   15  C   UNL     1     -10.505   5.621  73.454  1.00  0.00    -0.242 C  
BRANCH  15  16
HETATM   16  C   UNL     1     -10.009   7.019  73.855  1.00  0.00    -0.370 C  
BRANCH  16  17
HETATM   17  C   UNL     1     -10.004   7.983  72.709  1.00  0.00    -0.364 A  
HETATM   18  C   UNL     1     -11.097   8.582  72.104  1.00  0.00    -0.366 A  
HETATM   19  N   UNL     1     -10.627   9.345  71.062  1.00  0.00    -0.308 NA 
HETATM   20  C   UNL     1     -12.554   8.507  72.389  1.00  0.00    -0.409 C  
HETATM   21  H   UNL     1     -11.215   9.893  70.433  1.00  0.00     0.000 HD 
HETATM   22  C   UNL     1      -9.260   9.269  70.982  1.00  0.00    -0.202 A  
HETATM   23  C   UNL     1      -8.375   9.869  70.078  1.00  0.00    -0.191 A  
HETATM   24  C   UNL     1      -7.010   9.617  70.242  1.00  0.00    -0.119 A  
HETATM   25  C   UNL     1      -6.550   8.798  71.270  1.00  0.00    -0.075 A  
HETATM   26  C   UNL     1      -7.450   8.199  72.159  1.00  0.00    -0.124 A  
HETATM   27  C   UNL     1      -8.834   8.436  72.013  1.00  0.00    -0.277 A  
ENDBRANCH  16  17
ENDBRANCH  15  16
ENDBRANCH  13  15
ENDBRANCH  12  13
ENDBRANCH  10  12
ENDBRANCH   2   6
BRANCH   3  28
HETATM   28  N   UNL     1      -9.360   9.219  64.531  1.00  0.00    -0.422 NA 
HETATM   29  H   UNL     1      -8.842   8.357  64.361  1.00  0.00     0.000 HD 
HETATM   30  O   UNL     1      -9.970   9.987  63.528  1.00  0.00    -0.493 OA 
HETATM   31  H   UNL     1      -9.838   9.601  62.670  1.00  0.00     0.000 HD 
ENDBRANCH   3  28
TORSDOF 7
ENDMDL
MODEL      104
REMARK 921   NORMALIZED FREE ENERGY PREDICTED BY IDOCK:   -4.75 KCAL/MOL
REMARK 922        TOTAL FREE ENERGY PREDICTED BY IDOCK:   -9.32 KCAL/MOL
REMARK 923 INTER-LIGAND FREE ENERGY PREDICTED BY IDOCK:   -8.42 KCAL/MOL
REMARK 924 INTRA-LIGAND FREE ENERGY PREDICTED BY IDOCK:   -0.91 KCAL/MOL
REMARK 927      BINDING AFFINITY PREDICTED BY RF-SCORE:    0.00 PKD
ROOT
HETATM    1  C   UNL     1     -10.582   8.066  67.182  1.00  0.00    -0.367 C  
HETATM    2  C   UNL     1     -10.470   9.214  67.868  1.00  0.00    -0.293 C  
HETATM    3  C   UNL     1     -10.199   6.809  67.832  1.00  0.00    -0.171 C  
HETATM    4  H   UNL     1     -10.638   4.936  67.774  1.00  0.00     0.000 HD 
HETATM    5  O   UNL     1     -10.887   5.751  67.353  1.00  0.00    -0.268 OA 
ENDROOT
BRANCH   2   6
HETATM    6  C   UNL     1     -10.861  10.482  67.263  1.00  0.00    -0.338 A  
HETATM    7  C   UNL     1     -10.644  10.713  65.902  1.00  0.00    -0.178 A  
HETATM    8  C   UNL     1     -11.121  11.884  65.307  1.00  0.00    -0.354 A  
HETATM    9  C   UNL     1     -11.514  11.444  68.037  1.00  0.00    -0.377 A  
HETATM   10  C   UNL     1     -11.821  12.830  66.067  1.00  0.00    -0.495 A  
HETATM   11  C   UNL     1     -11.993  12.611  67.442  1.00  0.00    -0.309 A  
BRANCH  10  12
HETATM   12  C   UNL     1     -12.494  13.999  65.392  1.00  0.00    -0.498 C  
BRANCH  12  13
HETATM   13  N   UNL     1     -11.644  14.631  64.381  1.00  0.00    -0.620 NA 
HETATM   14  H   UNL     1     -12.168  14.838  63.530  1.00  0.00     0.000 HD 
BRANCH  13  15
HETATM   15  C   UNL     1     -10.978  15.833  64.910  1.00  0.00    -0.427 C  
BRANCH  15  16
HETATM   16  C   UNL     1      -9.888  15.526  65.948  1.00  0.00    -0.385 C  
BRANCH  16  17
HETATM   17  C   UNL     1      -9.798  16.570  67.019  1.00  0.00    -0.259 A  
HETATM   18  C   UNL     1     -10.539  16.649  68.187  1.00  0.00    -0.336 A  
HETATM   19  N   UNL     1     -10.162  17.797  68.840  1.00  0.00    -0.374 NA 
HETATM   20  C   UNL     1     -11.585  15.762  68.760  1.00  0.00    -0.401 C  
HETATM   21  H   UNL     1     -10.552  18.115  69.727  1.00  0.00     0.000 HD 
HETATM   22  C   UNL     1      -9.187  18.459  68.136  1.00  0.00    -0.312 A  
HETATM   23  C   UNL     1      -8.528  19.661  68.421  1.00  0.00    -0.352 A  
HETATM   24  C   UNL     1      -7.559  20.101  67.514  1.00  0.00    -0.333 A  
HETATM   25  C   UNL     1      -7.262  19.365  66.370  1.00  0.00    -0.252 A  
HETATM   26  C   UNL     1      -7.937  18.171  66.096  1.00  0.00    -0.222 A  
HETATM   27  C   UNL     1      -8.922  17.707  66.995  1.00  0.00    -0.258 A  
ENDBRANCH  16  17
ENDBRANCH  15  16
ENDBRANCH  13  15
ENDBRANCH  12  13
ENDBRANCH  10  12
ENDBRANCH   2   6
BRANCH   3  28
HETATM   28  N   UNL     1      -9.302   6.701  68.759  1.00  0.00    -0.132 NA 
HETATM   29  H   UNL     1      -9.503   6.723  69.759  1.00  0.00     0.000 HD 
HETATM   30  O   UNL     1      -8.019   6.551  68.212  1.00  0.00    -0.107 OA 
HETATM   31  H   UNL     1      -7.361   6.473  68.893  1.00  0.00     0.000 HD 
ENDBRANCH   3  28
TORSDOF 7
ENDMDL
MODEL      105
REMARK 921   NORMALIZED FREE ENERGY PREDICTED BY IDOCK:   -4.74 KCAL/MOL
REMARK 922        TOTAL FREE ENERGY PREDICTED BY IDOCK:   -9.31 KCAL/MOL
REMARK 923 INTER-LIGAND FREE ENERGY PREDICTED BY IDOCK:   -8.06 KCAL/MOL
REMARK 924 INTRA-LIGAND FREE ENERGY PREDICTED BY IDOCK:   -1.25 KCAL/MOL
REMARK 927      BINDING AFFINITY PREDICTED BY RF-SCORE:    0.00 PKD
ROOT
HETATM    1  C   UNL     1      -9.460  17.573  67.197  1.00  0.00    -0.259 C  
HETATM    2  C   UNL     1     -10.542  17.076  66.578  1.00  0.00    -0.172 C  
HETATM    3  C   UNL     1      -9.464  18.978  67.617  1.00  0.00    -0.306 C  
HETATM    4  H   UNL     1      -8.686  20.105  68.968  1.00  0.00     0.000 HD 
HETATM    5  O   UNL     1      -8.684  19.195  68.697  1.00  0.00    -0.349 OA 
ENDROOT
BRANCH   2   6
HETATM    6  C   UNL     1     -10.584  15.678  66.165  1.00  0.00    -0.325 A  
HETATM    7  C   UNL     1     -11.170  15.318  64.949  1.00  0.00    -0.422 A  
HETATM    8  C   UNL     1     -11.109  13.994  64.509  1.00  0.00    -0.360 A  
HETATM    9  C   UNL     1      -9.979  14.704  66.962  1.00  0.00    -0.246 A  
HETATM   10  C   UNL     1     -10.459  13.020  65.279  1.00  0.00    -0.318 A  
HETATM   11  C   UNL     1      -9.915  13.382  66.520  1.00  0.00    -0.286 A  
BRANCH  10  12
HETATM   12  C   UNL     1     -10.231  11.637  64.721  1.00  0.00    -0.275 C  
BRANCH  12  13
HETATM   13  N   UNL     1      -8.819  11.254  64.724  1.00  0.00    -0.383 NA 
HETATM   14  H   UNL     1      -8.227  12.014  65.061  1.00  0.00     0.000 HD 
BRANCH  13  15
HETATM   15  C   UNL     1      -8.596  10.017  65.491  1.00  0.00    -0.151 C  
BRANCH  15  16
HETATM   16  C   UNL     1      -9.894   9.316  65.918  1.00  0.00    -0.335 C  
BRANCH  16  17
HETATM   17  C   UNL     1      -9.931   9.005  67.382  1.00  0.00    -0.266 A  
HETATM   18  C   UNL     1      -9.319   7.947  68.037  1.00  0.00    -0.145 A  
HETATM   19  N   UNL     1      -9.669   8.024  69.364  1.00  0.00    -0.168 NA 
HETATM   20  C   UNL     1      -8.444   6.850  67.548  1.00  0.00    -0.122 C  
HETATM   21  H   UNL     1      -9.368   7.365  70.082  1.00  0.00     0.000 HD 
HETATM   22  C   UNL     1     -10.477   9.109  69.591  1.00  0.00    -0.223 A  
HETATM   23  C   UNL     1     -11.069   9.558  70.778  1.00  0.00    -0.390 A  
HETATM   24  C   UNL     1     -11.851  10.715  70.715  1.00  0.00    -0.459 A  
HETATM   25  C   UNL     1     -12.032  11.394  69.512  1.00  0.00    -0.409 A  
HETATM   26  C   UNL     1     -11.440  10.925  68.335  1.00  0.00    -0.374 A  
HETATM   27  C   UNL     1     -10.648   9.757  68.371  1.00  0.00    -0.264 A  
ENDBRANCH  16  17
ENDBRANCH  15  16
ENDBRANCH  13  15
ENDBRANCH  12  13
ENDBRANCH  10  12
ENDBRANCH   2   6
BRANCH   3  28
HETATM   28  N   UNL     1     -10.128  19.921  67.030  1.00  0.00    -0.416 NA 
HETATM   29  H   UNL     1     -11.045  20.253  67.332  1.00  0.00     0.000 HD 
HETATM   30  O   UNL     1      -9.427  20.428  65.926  1.00  0.00    -0.641 OA 
HETATM   31  H   UNL     1      -9.915  21.120  65.496  1.00  0.00     0.000 HD 
ENDBRANCH   3  28
TORSDOF 7
ENDMDL
MODEL      106
REMARK 921   NORMALIZED FREE ENERGY PREDICTED BY IDOCK:   -4.74 KCAL/MOL
REMARK 922        TOTAL FREE ENERGY PREDICTED BY IDOCK:   -9.31 KCAL/MOL
REMARK 923 INTER-LIGAND FREE ENERGY PREDICTED BY IDOCK:   -7.51 KCAL/MOL
REMARK 924 INTRA-LIGAND FREE ENERGY PREDICTED BY IDOCK:   -1.81 KCAL/MOL
REMARK 927      BINDING AFFINITY PREDICTED BY RF-SCORE:    0.00 PKD
ROOT
HETATM    1  C   UNL     1     -10.873  10.431  69.389  1.00  0.00    -0.287 C  
HETATM    2  C   UNL     1     -11.054  10.216  68.077  1.00  0.00    -0.302 C  
HETATM    3  C   UNL     1     -10.716   9.279  70.283  1.00  0.00    -0.243 C  
HETATM    4  H   UNL     1      -9.864   8.821  71.947  1.00  0.00     0.000 HD 
HETATM    5  O   UNL     1      -9.965   9.567  71.367  1.00  0.00    -0.225 OA 
ENDROOT
BRANCH   2   6
HETATM    6  C   UNL     1     -11.192  11.335  67.153  1.00  0.00    -0.344 A  
HETATM    7  C   UNL     1     -10.683  11.248  65.855  1.00  0.00    -0.291 A  
HETATM    8  C   UNL     1     -10.915  12.279  64.942  1.00  0.00    -0.344 A  
HETATM    9  C   UNL     1     -11.894  12.476  67.550  1.00  0.00    -0.389 A  
HETATM   10  C   UNL     1     -11.662  13.404  65.318  1.00  0.00    -0.346 A  
HETATM   11  C   UNL     1     -12.129  13.504  66.637  1.00  0.00    -0.447 A  
BRANCH  10  12
HETATM   12  C   UNL     1     -12.070  14.425  64.286  1.00  0.00    -0.436 C  
BRANCH  12  13
HETATM   13  N   UNL     1     -11.473  15.739  64.527  1.00  0.00    -0.623 NA 
HETATM   14  H   UNL     1     -11.993  16.261  65.233  1.00  0.00     0.000 HD 
BRANCH  13  15
HETATM   15  C   UNL     1     -10.048  15.629  64.880  1.00  0.00     0.121 C  
BRANCH  15  16
HETATM   16  C   UNL     1      -9.654  16.455  66.114  1.00  0.00    -0.356 C  
BRANCH  16  17
HETATM   17  C   UNL     1      -8.271  16.149  66.599  1.00  0.00    -0.321 A  
HETATM   18  C   UNL     1      -7.137  16.935  66.471  1.00  0.00    -0.246 A  
HETATM   19  N   UNL     1      -6.084  16.236  67.010  1.00  0.00    -0.320 NA 
HETATM   20  C   UNL     1      -6.925  18.282  65.879  1.00  0.00    -0.312 C  
HETATM   21  H   UNL     1      -5.122  16.571  67.044  1.00  0.00     0.000 HD 
HETATM   22  C   UNL     1      -6.505  15.024  67.497  1.00  0.00    -0.092 A  
HETATM   23  C   UNL     1      -5.777  13.998  68.113  1.00  0.00    -0.128 A  
HETATM   24  C   UNL     1      -6.478  12.860  68.521  1.00  0.00    -0.083 A  
HETATM   25  C   UNL     1      -7.853  12.754  68.321  1.00  0.00    -0.141 A  
HETATM   26  C   UNL     1      -8.562  13.785  67.695  1.00  0.00    -0.187 A  
HETATM   27  C   UNL     1      -7.876  14.944  67.272  1.00  0.00    -0.235 A  
ENDBRANCH  16  17
ENDBRANCH  15  16
ENDBRANCH  13  15
ENDBRANCH  12  13
ENDBRANCH  10  12
ENDBRANCH   2   6
BRANCH   3  28
HETATM   28  N   UNL     1     -11.234   8.111  70.079  1.00  0.00    -0.433 NA 
HETATM   29  H   UNL     1     -10.775   7.359  69.564  1.00  0.00     0.000 HD 
HETATM   30  O   UNL     1     -12.509   8.011  70.656  1.00  0.00    -0.495 OA 
HETATM   31  H   UNL     1     -12.889   7.153  70.505  1.00  0.00     0.000 HD 
ENDBRANCH   3  28
TORSDOF 7
ENDMDL
MODEL      107
REMARK 921   NORMALIZED FREE ENERGY PREDICTED BY IDOCK:   -4.74 KCAL/MOL
REMARK 922        TOTAL FREE ENERGY PREDICTED BY IDOCK:   -9.30 KCAL/MOL
REMARK 923 INTER-LIGAND FREE ENERGY PREDICTED BY IDOCK:   -6.55 KCAL/MOL
REMARK 924 INTRA-LIGAND FREE ENERGY PREDICTED BY IDOCK:   -2.75 KCAL/MOL
REMARK 927      BINDING AFFINITY PREDICTED BY RF-SCORE:    0.00 PKD
ROOT
HETATM    1  C   UNL     1     -11.243  11.007  69.343  1.00  0.00    -0.332 C  
HETATM    2  C   UNL     1     -10.343  11.694  68.623  1.00  0.00    -0.229 C  
HETATM    3  C   UNL     1     -10.784  10.222  70.494  1.00  0.00    -0.144 C  
HETATM    4  H   UNL     1     -11.434   9.597  72.194  1.00  0.00     0.000 HD 
HETATM    5  O   UNL     1     -11.731  10.105  71.448  1.00  0.00    -0.360 OA 
ENDROOT
BRANCH   2   6
HETATM    6  C   UNL     1     -10.764  12.502  67.485  1.00  0.00    -0.250 A  
HETATM    7  C   UNL     1     -12.106  12.853  67.324  1.00  0.00    -0.275 A  
HETATM    8  C   UNL     1     -12.485  13.717  66.294  1.00  0.00    -0.441 A  
HETATM    9  C   UNL     1      -9.807  12.980  66.586  1.00  0.00    -0.252 A  
HETATM   10  C   UNL     1     -11.523  14.241  65.419  1.00  0.00    -0.332 A  
HETATM   11  C   UNL     1     -10.184  13.846  65.560  1.00  0.00    -0.348 A  
BRANCH  10  12
HETATM   12  C   UNL     1     -11.901  15.314  64.429  1.00  0.00    -0.281 C  
BRANCH  12  13
HETATM   13  N   UNL     1     -10.931  16.409  64.387  1.00  0.00    -1.115 NA 
HETATM   14  H   UNL     1     -10.884  16.831  63.460  1.00  0.00     0.000 HD 
BRANCH  13  15
HETATM   15  C   UNL     1     -11.208  17.416  65.425  1.00  0.00     0.554 C  
BRANCH  15  16
HETATM   16  C   UNL     1      -9.946  18.109  65.962  1.00  0.00    -0.220 C  
BRANCH  16  17
HETATM   17  C   UNL     1      -9.228  17.291  66.991  1.00  0.00    -0.252 A  
HETATM   18  C   UNL     1      -7.870  17.028  67.064  1.00  0.00    -0.191 A  
HETATM   19  N   UNL     1      -7.667  16.190  68.134  1.00  0.00    -0.139 NA 
HETATM   20  C   UNL     1      -6.727  17.468  66.222  1.00  0.00    -0.309 C  
HETATM   21  H   UNL     1      -6.759  15.824  68.421  1.00  0.00     0.000 HD 
HETATM   22  C   UNL     1      -8.853  15.913  68.766  1.00  0.00    -0.213 A  
HETATM   23  C   UNL     1      -9.114  15.107  69.880  1.00  0.00     0.148 A  
HETATM   24  C   UNL     1     -10.439  15.012  70.318  1.00  0.00    -0.063 A  
HETATM   25  C   UNL     1     -11.460  15.699  69.665  1.00  0.00    -0.345 A  
HETATM   26  C   UNL     1     -11.182  16.493  68.547  1.00  0.00    -0.296 A  
HETATM   27  C   UNL     1      -9.853  16.603  68.085  1.00  0.00    -0.250 A  
ENDBRANCH  16  17
ENDBRANCH  15  16
ENDBRANCH  13  15
ENDBRANCH  12  13
ENDBRANCH  10  12
ENDBRANCH   2   6
BRANCH   3  28
HETATM   28  N   UNL     1      -9.609   9.690  70.603  1.00  0.00    -0.322 NA 
HETATM   29  H   UNL     1      -8.947   9.594  69.832  1.00  0.00     0.000 HD 
HETATM   30  O   UNL     1      -9.362   9.263  71.916  1.00  0.00    -0.299 OA 
HETATM   31  H   UNL     1      -8.500   8.873  71.995  1.00  0.00     0.000 HD 
ENDBRANCH   3  28
TORSDOF 7
ENDMDL
MODEL      108
REMARK 921   NORMALIZED FREE ENERGY PREDICTED BY IDOCK:   -4.74 KCAL/MOL
REMARK 922        TOTAL FREE ENERGY PREDICTED BY IDOCK:   -9.30 KCAL/MOL
REMARK 923 INTER-LIGAND FREE ENERGY PREDICTED BY IDOCK:   -8.52 KCAL/MOL
REMARK 924 INTRA-LIGAND FREE ENERGY PREDICTED BY IDOCK:   -0.79 KCAL/MOL
REMARK 927      BINDING AFFINITY PREDICTED BY RF-SCORE:    0.00 PKD
ROOT
HETATM    1  C   UNL     1     -10.273  15.929  68.192  1.00  0.00    -0.232 C  
HETATM    2  C   UNL     1     -11.522  15.835  68.670  1.00  0.00    -0.389 C  
HETATM    3  C   UNL     1      -9.849  17.176  67.547  1.00  0.00    -0.266 C  
HETATM    4  H   UNL     1      -8.249  18.203  67.251  1.00  0.00     0.000 HD 
HETATM    5  O   UNL     1      -8.523  17.395  67.670  1.00  0.00    -0.208 OA 
ENDROOT
BRANCH   2   6
HETATM    6  C   UNL     1     -11.973  14.619  69.337  1.00  0.00    -0.351 A  
HETATM    7  C   UNL     1     -11.640  13.364  68.820  1.00  0.00    -0.363 A  
HETATM    8  C   UNL     1     -11.981  12.206  69.523  1.00  0.00    -0.338 A  
HETATM    9  C   UNL     1     -12.688  14.712  70.533  1.00  0.00    -0.394 A  
HETATM   10  C   UNL     1     -12.654  12.294  70.749  1.00  0.00    -0.302 A  
HETATM   11  C   UNL     1     -13.025  13.555  71.237  1.00  0.00    -0.384 A  
BRANCH  10  12
HETATM   12  C   UNL     1     -12.856  11.060  71.594  1.00  0.00    -0.435 C  
BRANCH  12  13
HETATM   13  N   UNL     1     -13.248   9.894  70.803  1.00  0.00    -0.602 NA 
HETATM   14  H   UNL     1     -12.713   9.833  69.937  1.00  0.00     0.000 HD 
BRANCH  13  15
HETATM   15  C   UNL     1     -13.148   8.651  71.586  1.00  0.00    -0.346 C  
BRANCH  15  16
HETATM   16  C   UNL     1     -11.747   8.400  72.165  1.00  0.00    -0.442 C  
BRANCH  16  17
HETATM   17  C   UNL     1     -11.022   7.290  71.468  1.00  0.00    -0.259 A  
HETATM   18  C   UNL     1     -10.482   7.304  70.192  1.00  0.00    -0.218 A  
HETATM   19  N   UNL     1      -9.964   6.055  69.948  1.00  0.00    -0.169 NA 
HETATM   20  C   UNL     1     -10.410   8.368  69.157  1.00  0.00    -0.229 C  
HETATM   21  H   UNL     1      -9.510   5.775  69.078  1.00  0.00     0.000 HD 
HETATM   22  C   UNL     1     -10.139   5.236  71.034  1.00  0.00    -0.221 A  
HETATM   23  C   UNL     1      -9.779   3.895  71.219  1.00  0.00    -0.247 A  
HETATM   24  C   UNL     1     -10.080   3.306  72.451  1.00  0.00    -0.226 A  
HETATM   25  C   UNL     1     -10.715   4.032  73.456  1.00  0.00    -0.306 A  
HETATM   26  C   UNL     1     -11.075   5.368  73.250  1.00  0.00    -0.352 A  
HETATM   27  C   UNL     1     -10.784   5.985  72.014  1.00  0.00    -0.281 A  
ENDBRANCH  16  17
ENDBRANCH  15  16
ENDBRANCH  13  15
ENDBRANCH  12  13
ENDBRANCH  10  12
ENDBRANCH   2   6
BRANCH   3  28
HETATM   28  N   UNL     1     -10.640  17.988  66.922  1.00  0.00    -0.323 NA 
HETATM   29  H   UNL     1     -11.227  18.686  67.380  1.00  0.00     0.000 HD 
HETATM   30  O   UNL     1     -10.586  17.785  65.535  1.00  0.00    -0.632 OA 
HETATM   31  H   UNL     1     -11.166  18.382  65.077  1.00  0.00     0.000 HD 
ENDBRANCH   3  28
TORSDOF 7
ENDMDL
MODEL      109
REMARK 921   NORMALIZED FREE ENERGY PREDICTED BY IDOCK:   -4.72 KCAL/MOL
REMARK 922        TOTAL FREE ENERGY PREDICTED BY IDOCK:   -9.28 KCAL/MOL
REMARK 923 INTER-LIGAND FREE ENERGY PREDICTED BY IDOCK:   -8.41 KCAL/MOL
REMARK 924 INTRA-LIGAND FREE ENERGY PREDICTED BY IDOCK:   -0.88 KCAL/MOL
REMARK 927      BINDING AFFINITY PREDICTED BY RF-SCORE:    0.00 PKD
ROOT
HETATM    1  C   UNL     1      -9.769  17.334  68.182  1.00  0.00    -0.284 C  
HETATM    2  C   UNL     1     -10.904  16.801  68.658  1.00  0.00    -0.336 C  
HETATM    3  C   UNL     1      -9.481  18.748  68.446  1.00  0.00    -0.349 C  
HETATM    4  H   UNL     1      -7.970  19.920  68.660  1.00  0.00     0.000 HD 
HETATM    5  O   UNL     1      -8.157  19.004  68.489  1.00  0.00    -0.326 OA 
ENDROOT
BRANCH   2   6
HETATM    6  C   UNL     1     -11.215  15.394  68.435  1.00  0.00    -0.318 A  
HETATM    7  C   UNL     1     -10.872  14.777  67.229  1.00  0.00    -0.309 A  
HETATM    8  C   UNL     1     -11.072  13.404  67.064  1.00  0.00    -0.310 A  
HETATM    9  C   UNL     1     -11.802  14.646  69.457  1.00  0.00    -0.374 A  
HETATM   10  C   UNL     1     -11.614  12.638  68.105  1.00  0.00    -0.386 A  
HETATM   11  C   UNL     1     -11.999  13.274  69.294  1.00  0.00    -0.354 A  
BRANCH  10  12
HETATM   12  C   UNL     1     -11.658  11.134  67.997  1.00  0.00    -0.263 C  
BRANCH  12  13
HETATM   13  N   UNL     1     -10.346  10.551  67.711  1.00  0.00    -0.199 NA 
HETATM   14  H   UNL     1      -9.607  11.252  67.766  1.00  0.00     0.000 HD 
BRANCH  13  15
HETATM   15  C   UNL     1     -10.064   9.401  68.586  1.00  0.00    -0.190 C  
BRANCH  15  16
HETATM   16  C   UNL     1     -10.083   9.746  70.083  1.00  0.00    -0.317 C  
BRANCH  16  17
HETATM   17  C   UNL     1     -10.829   8.738  70.901  1.00  0.00    -0.293 A  
HETATM   18  C   UNL     1     -12.031   8.913  71.567  1.00  0.00    -0.333 A  
HETATM   19  N   UNL     1     -12.311   7.744  72.232  1.00  0.00    -0.480 NA 
HETATM   20  C   UNL     1     -12.953  10.075  71.662  1.00  0.00    -0.554 C  
HETATM   21  H   UNL     1     -13.134   7.590  72.815  1.00  0.00     0.000 HD 
HETATM   22  C   UNL     1     -11.331   6.810  72.005  1.00  0.00    -0.272 A  
HETATM   23  C   UNL     1     -11.205   5.501  72.486  1.00  0.00    -0.330 A  
HETATM   24  C   UNL     1     -10.089   4.764  72.079  1.00  0.00    -0.258 A  
HETATM   25  C   UNL     1      -9.139   5.317  71.223  1.00  0.00    -0.169 A  
HETATM   26  C   UNL     1      -9.277   6.630  70.760  1.00  0.00    -0.155 A  
HETATM   27  C   UNL     1     -10.394   7.395  71.159  1.00  0.00    -0.209 A  
ENDBRANCH  16  17
ENDBRANCH  15  16
ENDBRANCH  13  15
ENDBRANCH  12  13
ENDBRANCH  10  12
ENDBRANCH   2   6
BRANCH   3  28
HETATM   28  N   UNL     1     -10.379  19.663  68.617  1.00  0.00    -0.542 NA 
HETATM   29  H   UNL     1     -10.903  20.105  67.860  1.00  0.00     0.000 HD 
HETATM   30  O   UNL     1     -10.540  19.972  69.976  1.00  0.00    -0.501 OA 
HETATM   31  H   UNL     1     -11.200  20.644  70.101  1.00  0.00     0.000 HD 
ENDBRANCH   3  28
TORSDOF 7
ENDMDL
MODEL      110
REMARK 921   NORMALIZED FREE ENERGY PREDICTED BY IDOCK:   -4.70 KCAL/MOL
REMARK 922        TOTAL FREE ENERGY PREDICTED BY IDOCK:   -9.26 KCAL/MOL
REMARK 923 INTER-LIGAND FREE ENERGY PREDICTED BY IDOCK:   -7.50 KCAL/MOL
REMARK 924 INTRA-LIGAND FREE ENERGY PREDICTED BY IDOCK:   -1.76 KCAL/MOL
REMARK 927      BINDING AFFINITY PREDICTED BY RF-SCORE:    0.00 PKD
ROOT
HETATM    1  C   UNL     1     -10.470  11.049  65.447  1.00  0.00    -0.306 C  
HETATM    2  C   UNL     1      -9.884   9.919  65.022  1.00  0.00    -0.323 C  
HETATM    3  C   UNL     1     -11.455  11.708  64.582  1.00  0.00    -0.178 C  
HETATM    4  H   UNL     1     -13.015  12.825  64.725  1.00  0.00     0.000 HD 
HETATM    5  O   UNL     1     -12.377  12.398  65.285  1.00  0.00    -0.563 OA 
ENDROOT
BRANCH   2   6
HETATM    6  C   UNL     1      -8.916   9.224  65.861  1.00  0.00    -0.225 A  
HETATM    7  C   UNL     1      -9.093   9.166  67.246  1.00  0.00    -0.143 A  
HETATM    8  C   UNL     1      -8.223   8.405  68.031  1.00  0.00    -0.127 A  
HETATM    9  C   UNL     1      -7.840   8.558  65.269  1.00  0.00    -0.106 A  
HETATM   10  C   UNL     1      -7.172   7.694  67.438  1.00  0.00    -0.087 A  
HETATM   11  C   UNL     1      -6.974   7.796  66.053  1.00  0.00    -0.061 A  
BRANCH  10  12
HETATM   12  C   UNL     1      -6.350   6.730  68.256  1.00  0.00    -0.031 C  
BRANCH  12  13
HETATM   13  N   UNL     1      -7.172   5.881  69.120  1.00  0.00    -0.076 NA 
HETATM   14  H   UNL     1      -8.022   6.362  69.415  1.00  0.00     0.000 HD 
BRANCH  13  15
HETATM   15  C   UNL     1      -7.478   4.592  68.478  1.00  0.00    -0.065 C  
BRANCH  15  16
HETATM   16  C   UNL     1      -8.820   3.988  68.920  1.00  0.00    -0.149 C  
BRANCH  16  17
HETATM   17  C   UNL     1      -9.914   5.007  69.009  1.00  0.00    -0.251 A  
HETATM   18  C   UNL     1     -10.533   5.675  67.964  1.00  0.00    -0.200 A  
HETATM   19  N   UNL     1     -11.434   6.555  68.512  1.00  0.00    -0.547 NA 
HETATM   20  C   UNL     1     -10.361   5.588  66.491  1.00  0.00    -0.309 C  
HETATM   21  H   UNL     1     -12.028   7.187  67.975  1.00  0.00     0.000 HD 
HETATM   22  C   UNL     1     -11.428   6.468  69.882  1.00  0.00    -0.403 A  
HETATM   23  C   UNL     1     -12.169   7.179  70.833  1.00  0.00    -0.354 A  
HETATM   24  C   UNL     1     -11.959   6.872  72.181  1.00  0.00    -0.302 A  
HETATM   25  C   UNL     1     -11.043   5.893  72.559  1.00  0.00    -0.328 A  
HETATM   26  C   UNL     1     -10.304   5.200  71.594  1.00  0.00    -0.274 A  
HETATM   27  C   UNL     1     -10.497   5.493  70.227  1.00  0.00    -0.365 A  
ENDBRANCH  16  17
ENDBRANCH  15  16
ENDBRANCH  13  15
ENDBRANCH  12  13
ENDBRANCH  10  12
ENDBRANCH   2   6
BRANCH   3  28
HETATM   28  N   UNL     1     -11.457  11.650  63.289  1.00  0.00    -0.815 NA 
HETATM   29  H   UNL     1     -10.619  11.712  62.709  1.00  0.00     0.000 HD 
HETATM   30  O   UNL     1     -12.757  11.492  62.787  1.00  0.00    -0.907 OA 
HETATM   31  H   UNL     1     -12.758  11.449  61.838  1.00  0.00     0.000 HD 
ENDBRANCH   3  28
TORSDOF 7
ENDMDL
MODEL      111
REMARK 921   NORMALIZED FREE ENERGY PREDICTED BY IDOCK:   -4.70 KCAL/MOL
REMARK 922        TOTAL FREE ENERGY PREDICTED BY IDOCK:   -9.25 KCAL/MOL
REMARK 923 INTER-LIGAND FREE ENERGY PREDICTED BY IDOCK:   -8.63 KCAL/MOL
REMARK 924 INTRA-LIGAND FREE ENERGY PREDICTED BY IDOCK:   -0.62 KCAL/MOL
REMARK 927      BINDING AFFINITY PREDICTED BY RF-SCORE:    0.00 PKD
ROOT
HETATM    1  C   UNL     1      -8.066  17.686  66.217  1.00  0.00    -0.281 C  
HETATM    2  C   UNL     1      -9.393  17.576  66.381  1.00  0.00    -0.265 C  
HETATM    3  C   UNL     1      -7.450  19.016  66.274  1.00  0.00    -0.269 C  
HETATM    4  H   UNL     1      -5.773  19.834  66.745  1.00  0.00     0.000 HD 
HETATM    5  O   UNL     1      -6.173  18.972  66.707  1.00  0.00    -0.180 OA 
ENDROOT
BRANCH   2   6
HETATM    6  C   UNL     1     -10.039  16.269  66.351  1.00  0.00    -0.318 A  
HETATM    7  C   UNL     1      -9.800  15.386  65.295  1.00  0.00    -0.239 A  
HETATM    8  C   UNL     1     -10.335  14.096  65.328  1.00  0.00    -0.409 A  
HETATM    9  C   UNL     1     -10.851  15.876  67.417  1.00  0.00    -0.291 A  
HETATM   10  C   UNL     1     -11.108  13.677  66.419  1.00  0.00    -0.307 A  
HETATM   11  C   UNL     1     -11.381  14.586  67.452  1.00  0.00    -0.370 A  
BRANCH  10  12
HETATM   12  C   UNL     1     -11.527  12.233  66.543  1.00  0.00    -0.381 C  
BRANCH  12  13
HETATM   13  N   UNL     1     -11.996  11.897  67.888  1.00  0.00    -0.577 NA 
HETATM   14  H   UNL     1     -13.008  11.770  67.910  1.00  0.00     0.000 HD 
BRANCH  13  15
HETATM   15  C   UNL     1     -11.295  10.720  68.426  1.00  0.00    -0.302 C  
BRANCH  15  16
HETATM   16  C   UNL     1     -10.904  10.860  69.906  1.00  0.00    -0.205 C  
BRANCH  16  17
HETATM   17  C   UNL     1     -11.651   9.914  70.795  1.00  0.00    -0.430 A  
HETATM   18  C   UNL     1     -12.677  10.215  71.677  1.00  0.00    -0.447 A  
HETATM   19  N   UNL     1     -13.023   9.052  72.322  1.00  0.00    -0.413 NA 
HETATM   20  C   UNL     1     -13.368  11.490  71.996  1.00  0.00    -0.397 C  
HETATM   21  H   UNL     1     -13.747   8.978  73.036  1.00  0.00     0.000 HD 
HETATM   22  C   UNL     1     -12.261   8.002  71.874  1.00  0.00    -0.319 A  
HETATM   23  C   UNL     1     -12.267   6.656  72.257  1.00  0.00    -0.185 A  
HETATM   24  C   UNL     1     -11.372   5.794  71.617  1.00  0.00    -0.216 A  
HETATM   25  C   UNL     1     -10.506   6.263  70.631  1.00  0.00    -0.276 A  
HETATM   26  C   UNL     1     -10.508   7.614  70.267  1.00  0.00    -0.224 A  
HETATM   27  C   UNL     1     -11.401   8.505  70.901  1.00  0.00    -0.304 A  
ENDBRANCH  16  17
ENDBRANCH  15  16
ENDBRANCH  13  15
ENDBRANCH  12  13
ENDBRANCH  10  12
ENDBRANCH   2   6
BRANCH   3  28
HETATM   28  N   UNL     1      -8.043  20.118  65.948  1.00  0.00    -0.538 NA 
HETATM   29  H   UNL     1      -8.937  20.427  66.334  1.00  0.00     0.000 HD 
HETATM   30  O   UNL     1      -7.302  20.834  64.996  1.00  0.00    -0.491 OA 
HETATM   31  H   UNL     1      -7.739  21.643  64.757  1.00  0.00     0.000 HD 
ENDBRANCH   3  28
TORSDOF 7
ENDMDL
MODEL      112
REMARK 921   NORMALIZED FREE ENERGY PREDICTED BY IDOCK:   -4.69 KCAL/MOL
REMARK 922        TOTAL FREE ENERGY PREDICTED BY IDOCK:   -9.24 KCAL/MOL
REMARK 923 INTER-LIGAND FREE ENERGY PREDICTED BY IDOCK:   -8.23 KCAL/MOL
REMARK 924 INTRA-LIGAND FREE ENERGY PREDICTED BY IDOCK:   -1.01 KCAL/MOL
REMARK 927      BINDING AFFINITY PREDICTED BY RF-SCORE:    0.00 PKD
ROOT
HETATM    1  C   UNL     1      -7.072  13.889  68.920  1.00  0.00    -0.110 C  
HETATM    2  C   UNL     1      -7.449  15.146  69.201  1.00  0.00    -0.176 C  
HETATM    3  C   UNL     1      -6.280  13.147  69.907  1.00  0.00    -0.094 C  
HETATM    4  H   UNL     1      -5.968  11.334  70.470  1.00  0.00     0.000 HD 
HETATM    5  O   UNL     1      -6.482  11.815  69.831  1.00  0.00    -0.131 OA 
ENDROOT
BRANCH   2   6
HETATM    6  C   UNL     1      -8.255  15.908  68.255  1.00  0.00    -0.152 A  
HETATM    7  C   UNL     1      -7.797  16.130  66.954  1.00  0.00    -0.283 A  
HETATM    8  C   UNL     1      -8.620  16.765  66.021  1.00  0.00    -0.213 A  
HETATM    9  C   UNL     1      -9.519  16.364  68.634  1.00  0.00    -0.239 A  
HETATM   10  C   UNL     1      -9.910  17.179  66.381  1.00  0.00    -0.312 A  
HETATM   11  C   UNL     1     -10.343  16.995  67.702  1.00  0.00    -0.332 A  
BRANCH  10  12
HETATM   12  C   UNL     1     -10.863  17.694  65.331  1.00  0.00     0.104 C  
BRANCH  12  13
HETATM   13  N   UNL     1     -11.194  16.682  64.327  1.00  0.00    -1.380 NA 
HETATM   14  H   UNL     1     -10.785  16.908  63.420  1.00  0.00     0.000 HD 
BRANCH  13  15
HETATM   15  C   UNL     1     -10.806  15.333  64.771  1.00  0.00    -0.358 C  
BRANCH  15  16
HETATM   16  C   UNL     1     -11.998  14.382  64.964  1.00  0.00    -0.413 C  
BRANCH  16  17
HETATM   17  C   UNL     1     -11.636  13.147  65.730  1.00  0.00    -0.383 A  
HETATM   18  C   UNL     1     -11.184  11.939  65.222  1.00  0.00    -0.295 A  
HETATM   19  N   UNL     1     -11.034  11.076  66.280  1.00  0.00    -0.178 NA 
HETATM   20  C   UNL     1     -10.888  11.495  63.836  1.00  0.00    -0.469 C  
HETATM   21  H   UNL     1     -10.721  10.108  66.199  1.00  0.00     0.000 HD 
HETATM   22  C   UNL     1     -11.362  11.692  67.461  1.00  0.00    -0.298 A  
HETATM   23  C   UNL     1     -11.365  11.191  68.768  1.00  0.00    -0.342 A  
HETATM   24  C   UNL     1     -11.744  12.061  69.796  1.00  0.00    -0.390 A  
HETATM   25  C   UNL     1     -12.104  13.378  69.523  1.00  0.00    -0.334 A  
HETATM   26  C   UNL     1     -12.104  13.859  68.209  1.00  0.00    -0.322 A  
HETATM   27  C   UNL     1     -11.728  13.000  67.154  1.00  0.00    -0.439 A  
ENDBRANCH  16  17
ENDBRANCH  15  16
ENDBRANCH  13  15
ENDBRANCH  12  13
ENDBRANCH  10  12
ENDBRANCH   2   6
BRANCH   3  28
HETATM   28  N   UNL     1      -5.471  13.687  70.760  1.00  0.00    -0.147 NA 
HETATM   29  H   UNL     1      -4.550  14.058  70.524  1.00  0.00     0.000 HD 
HETATM   30  O   UNL     1      -6.023  13.698  72.050  1.00  0.00    -0.540 OA 
HETATM   31  H   UNL     1      -5.428  14.095  72.675  1.00  0.00     0.000 HD 
ENDBRANCH   3  28
TORSDOF 7
ENDMDL
MODEL      113
REMARK 921   NORMALIZED FREE ENERGY PREDICTED BY IDOCK:   -4.67 KCAL/MOL
REMARK 922        TOTAL FREE ENERGY PREDICTED BY IDOCK:   -9.22 KCAL/MOL
REMARK 923 INTER-LIGAND FREE ENERGY PREDICTED BY IDOCK:   -8.26 KCAL/MOL
REMARK 924 INTRA-LIGAND FREE ENERGY PREDICTED BY IDOCK:   -0.96 KCAL/MOL
REMARK 927      BINDING AFFINITY PREDICTED BY RF-SCORE:    0.00 PKD
ROOT
HETATM    1  C   UNL     1      -8.183   3.334  68.453  1.00  0.00    -0.085 C  
HETATM    2  C   UNL     1      -8.938   4.353  68.018  1.00  0.00    -0.142 C  
HETATM    3  C   UNL     1      -7.241   2.698  67.525  1.00  0.00    -0.053 C  
HETATM    4  H   UNL     1      -5.561   1.762  67.556  1.00  0.00     0.000 HD 
HETATM    5  O   UNL     1      -6.171   2.174  68.157  1.00  0.00    -0.024 OA 
ENDROOT
BRANCH   2   6
HETATM    6  C   UNL     1      -9.870   5.024  68.916  1.00  0.00    -0.245 A  
HETATM    7  C   UNL     1      -9.831   4.775  70.290  1.00  0.00    -0.313 A  
HETATM    8  C   UNL     1     -10.651   5.503  71.156  1.00  0.00    -0.303 A  
HETATM    9  C   UNL     1     -10.764   5.967  68.405  1.00  0.00    -0.351 A  
HETATM   10  C   UNL     1     -11.514   6.487  70.656  1.00  0.00    -0.433 A  
HETATM   11  C   UNL     1     -11.580   6.696  69.270  1.00  0.00    -0.147 A  
BRANCH  10  12
HETATM   12  C   UNL     1     -12.259   7.396  71.601  1.00  0.00    -0.330 C  
BRANCH  12  13
HETATM   13  N   UNL     1     -13.608   7.713  71.131  1.00  0.00    -0.608 NA 
HETATM   14  H   UNL     1     -14.299   7.074  71.523  1.00  0.00     0.000 HD 
BRANCH  13  15
HETATM   15  C   UNL     1     -13.959   9.117  71.402  1.00  0.00    -0.182 C  
BRANCH  15  16
HETATM   16  C   UNL     1     -12.804   9.935  72.001  1.00  0.00    -0.488 C  
BRANCH  16  17
HETATM   17  C   UNL     1     -12.425  11.110  71.153  1.00  0.00    -0.498 A  
HETATM   18  C   UNL     1     -11.564  11.125  70.067  1.00  0.00    -0.338 A  
HETATM   19  N   UNL     1     -11.469  12.425  69.633  1.00  0.00    -0.451 NA 
HETATM   20  C   UNL     1     -10.800  10.045  69.392  1.00  0.00    -0.270 C  
HETATM   21  H   UNL     1     -10.894  12.734  68.849  1.00  0.00     0.000 HD 
HETATM   22  C   UNL     1     -12.254  13.252  70.396  1.00  0.00    -0.332 A  
HETATM   23  C   UNL     1     -12.450  14.635  70.316  1.00  0.00    -0.401 A  
HETATM   24  C   UNL     1     -13.326  15.221  71.234  1.00  0.00    -0.586 A  
HETATM   25  C   UNL     1     -13.980  14.451  72.193  1.00  0.00    -0.607 A  
HETATM   26  C   UNL     1     -13.764  13.070  72.265  1.00  0.00    -0.608 A  
HETATM   27  C   UNL     1     -12.882  12.456  71.350  1.00  0.00    -0.360 A  
ENDBRANCH  16  17
ENDBRANCH  15  16
ENDBRANCH  13  15
ENDBRANCH  12  13
ENDBRANCH  10  12
ENDBRANCH   2   6
BRANCH   3  28
HETATM   28  N   UNL     1      -7.401   2.633  66.243  1.00  0.00    -0.065 NA 
HETATM   29  H   UNL     1      -8.010   1.963  65.772  1.00  0.00     0.000 HD 
HETATM   30  O   UNL     1      -6.630   3.602  65.583  1.00  0.00    -0.035 OA 
HETATM   31  H   UNL     1      -6.748   3.554  64.642  1.00  0.00     0.000 HD 
ENDBRANCH   3  28
TORSDOF 7
ENDMDL
MODEL      114
REMARK 921   NORMALIZED FREE ENERGY PREDICTED BY IDOCK:   -4.66 KCAL/MOL
REMARK 922        TOTAL FREE ENERGY PREDICTED BY IDOCK:   -9.19 KCAL/MOL
REMARK 923 INTER-LIGAND FREE ENERGY PREDICTED BY IDOCK:   -8.72 KCAL/MOL
REMARK 924 INTRA-LIGAND FREE ENERGY PREDICTED BY IDOCK:   -0.47 KCAL/MOL
REMARK 927      BINDING AFFINITY PREDICTED BY RF-SCORE:    0.00 PKD
ROOT
HETATM    1  C   UNL     1     -11.081  14.220  65.955  1.00  0.00    -0.319 C  
HETATM    2  C   UNL     1     -12.062  13.631  66.656  1.00  0.00    -0.459 C  
HETATM    3  C   UNL     1     -11.437  15.154  64.881  1.00  0.00    -0.374 C  
HETATM    4  H   UNL     1     -10.721  16.701  63.990  1.00  0.00     0.000 HD 
HETATM    5  O   UNL     1     -10.491  16.097  64.686  1.00  0.00    -0.526 OA 
ENDROOT
BRANCH   2   6
HETATM    6  C   UNL     1     -11.749  12.713  67.745  1.00  0.00    -0.412 A  
HETATM    7  C   UNL     1     -11.994  13.079  69.071  1.00  0.00    -0.312 A  
HETATM    8  C   UNL     1     -11.796  12.155  70.099  1.00  0.00    -0.368 A  
HETATM    9  C   UNL     1     -11.260  11.438  67.454  1.00  0.00    -0.370 A  
HETATM   10  C   UNL     1     -11.354  10.857  69.810  1.00  0.00    -0.374 A  
HETATM   11  C   UNL     1     -11.065  10.514  68.481  1.00  0.00    -0.329 A  
BRANCH  10  12
HETATM   12  C   UNL     1     -11.318   9.807  70.893  1.00  0.00    -0.365 C  
BRANCH  12  13
HETATM   13  N   UNL     1     -12.513   8.963  70.898  1.00  0.00    -0.493 NA 
HETATM   14  H   UNL     1     -13.052   9.074  70.040  1.00  0.00     0.000 HD 
BRANCH  13  15
HETATM   15  C   UNL     1     -12.175   7.550  71.142  1.00  0.00    -0.301 C  
BRANCH  15  16
HETATM   16  C   UNL     1     -11.606   7.288  72.545  1.00  0.00    -0.285 C  
BRANCH  16  17
HETATM   17  C   UNL     1     -10.332   6.501  72.516  1.00  0.00    -0.216 A  
HETATM   18  C   UNL     1     -10.105   5.240  73.045  1.00  0.00    -0.176 A  
HETATM   19  N   UNL     1      -8.782   4.936  72.837  1.00  0.00    -0.117 NA 
HETATM   20  C   UNL     1     -11.000   4.282  73.745  1.00  0.00    -0.344 C  
HETATM   21  H   UNL     1      -8.332   4.069  73.133  1.00  0.00     0.000 HD 
HETATM   22  C   UNL     1      -8.146   5.957  72.176  1.00  0.00    -0.107 A  
HETATM   23  C   UNL     1      -6.811   6.076  71.773  1.00  0.00    -0.068 A  
HETATM   24  C   UNL     1      -6.437   7.244  71.101  1.00  0.00    -0.043 A  
HETATM   25  C   UNL     1      -7.365   8.250  70.842  1.00  0.00    -0.059 A  
HETATM   26  C   UNL     1      -8.694   8.117  71.260  1.00  0.00    -0.173 A  
HETATM   27  C   UNL     1      -9.095   6.949  71.943  1.00  0.00    -0.143 A  
ENDBRANCH  16  17
ENDBRANCH  15  16
ENDBRANCH  13  15
ENDBRANCH  12  13
ENDBRANCH  10  12
ENDBRANCH   2   6
BRANCH   3  28
HETATM   28  N   UNL     1     -12.525  15.096  64.184  1.00  0.00    -0.859 NA 
HETATM   29  H   UNL     1     -13.357  15.660  64.367  1.00  0.00     0.000 HD 
HETATM   30  O   UNL     1     -12.417  14.160  63.145  1.00  0.00    -1.126 OA 
HETATM   31  H   UNL     1     -13.216  14.118  62.634  1.00  0.00     0.000 HD 
ENDBRANCH   3  28
TORSDOF 7
ENDMDL
MODEL      115
REMARK 921   NORMALIZED FREE ENERGY PREDICTED BY IDOCK:   -4.65 KCAL/MOL
REMARK 922        TOTAL FREE ENERGY PREDICTED BY IDOCK:   -9.19 KCAL/MOL
REMARK 923 INTER-LIGAND FREE ENERGY PREDICTED BY IDOCK:   -6.29 KCAL/MOL
REMARK 924 INTRA-LIGAND FREE ENERGY PREDICTED BY IDOCK:   -2.90 KCAL/MOL
REMARK 927      BINDING AFFINITY PREDICTED BY RF-SCORE:    0.00 PKD
ROOT
HETATM    1  C   UNL     1      -8.923  12.195  67.271  1.00  0.00    -0.184 C  
HETATM    2  C   UNL     1      -8.923  13.032  68.319  1.00  0.00    -0.177 C  
HETATM    3  C   UNL     1      -9.860  11.066  67.262  1.00  0.00    -0.178 C  
HETATM    4  H   UNL     1     -10.816   9.966  66.007  1.00  0.00     0.000 HD 
HETATM    5  O   UNL     1     -10.210  10.698  66.013  1.00  0.00    -0.242 OA 
ENDROOT
BRANCH   2   6
HETATM    6  C   UNL     1      -8.021  14.178  68.354  1.00  0.00    -0.142 A  
HETATM    7  C   UNL     1      -7.168  14.439  67.280  1.00  0.00    -0.030 A  
HETATM    8  C   UNL     1      -6.388  15.598  67.272  1.00  0.00    -0.056 A  
HETATM    9  C   UNL     1      -8.059  15.053  69.442  1.00  0.00    -0.155 A  
HETATM   10  C   UNL     1      -6.458  16.506  68.337  1.00  0.00    -0.133 A  
HETATM   11  C   UNL     1      -7.283  16.212  69.433  1.00  0.00    -0.204 A  
BRANCH  10  12
HETATM   12  C   UNL     1      -5.762  17.841  68.244  1.00  0.00    -0.158 C  
BRANCH  12  13
HETATM   13  N   UNL     1      -6.648  18.908  67.776  1.00  0.00    -0.208 NA 
HETATM   14  H   UNL     1      -6.147  19.790  67.672  1.00  0.00     0.000 HD 
BRANCH  13  15
HETATM   15  C   UNL     1      -7.338  18.530  66.532  1.00  0.00    -0.232 C  
BRANCH  15  16
HETATM   16  C   UNL     1      -8.795  19.011  66.466  1.00  0.00    -0.334 C  
BRANCH  16  17
HETATM   17  C   UNL     1      -9.723  18.162  67.279  1.00  0.00    -0.297 A  
HETATM   18  C   UNL     1     -10.176  18.400  68.568  1.00  0.00    -0.364 A  
HETATM   19  N   UNL     1     -10.960  17.333  68.935  1.00  0.00    -0.266 NA 
HETATM   20  C   UNL     1      -9.940  19.525  69.510  1.00  0.00    -0.120 C  
HETATM   21  H   UNL     1     -11.420  17.236  69.840  1.00  0.00     0.000 HD 
HETATM   22  C   UNL     1     -11.040  16.417  67.917  1.00  0.00    -0.249 A  
HETATM   23  C   UNL     1     -11.715  15.191  67.860  1.00  0.00    -0.275 A  
HETATM   24  C   UNL     1     -11.627  14.457  66.673  1.00  0.00    -0.396 A  
HETATM   25  C   UNL     1     -10.894  14.932  65.588  1.00  0.00    -0.347 A  
HETATM   26  C   UNL     1     -10.218  16.155  65.667  1.00  0.00    -0.390 A  
HETATM   27  C   UNL     1     -10.290  16.914  66.855  1.00  0.00    -0.304 A  
ENDBRANCH  16  17
ENDBRANCH  15  16
ENDBRANCH  13  15
ENDBRANCH  12  13
ENDBRANCH  10  12
ENDBRANCH   2   6
BRANCH   3  28
HETATM   28  N   UNL     1     -10.309  10.473  68.321  1.00  0.00    -0.160 NA 
HETATM   29  H   UNL     1      -9.721  10.123  69.078  1.00  0.00     0.000 HD 
HETATM   30  O   UNL     1     -11.708  10.374  68.295  1.00  0.00    -0.692 OA 
HETATM   31  H   UNL     1     -12.037   9.938  69.072  1.00  0.00     0.000 HD 
ENDBRANCH   3  28
TORSDOF 7
ENDMDL
MODEL      116
REMARK 921   NORMALIZED FREE ENERGY PREDICTED BY IDOCK:   -4.63 KCAL/MOL
REMARK 922        TOTAL FREE ENERGY PREDICTED BY IDOCK:   -9.16 KCAL/MOL
REMARK 923 INTER-LIGAND FREE ENERGY PREDICTED BY IDOCK:   -8.29 KCAL/MOL
REMARK 924 INTRA-LIGAND FREE ENERGY PREDICTED BY IDOCK:   -0.87 KCAL/MOL
REMARK 927      BINDING AFFINITY PREDICTED BY RF-SCORE:    0.00 PKD
ROOT
HETATM    1  C   UNL     1     -11.948  12.602  65.928  1.00  0.00    -0.497 C  
HETATM    2  C   UNL     1     -10.973  11.916  66.543  1.00  0.00    -0.337 C  
HETATM    3  C   UNL     1     -11.645  13.295  64.671  1.00  0.00    -0.350 C  
HETATM    4  H   UNL     1     -12.530  13.851  63.055  1.00  0.00     0.000 HD 
HETATM    5  O   UNL     1     -12.725  13.402  63.869  1.00  0.00    -0.670 OA 
ENDROOT
BRANCH   2   6
HETATM    6  C   UNL     1     -11.241  11.196  67.783  1.00  0.00    -0.359 A  
HETATM    7  C   UNL     1     -10.840   9.866  67.929  1.00  0.00    -0.312 A  
HETATM    8  C   UNL     1     -11.000   9.218  69.156  1.00  0.00    -0.083 A  
HETATM    9  C   UNL     1     -11.844  11.863  68.852  1.00  0.00    -0.366 A  
HETATM   10  C   UNL     1     -11.558   9.897  70.248  1.00  0.00    -0.319 A  
HETATM   11  C   UNL     1     -11.999  11.217  70.078  1.00  0.00    -0.447 A  
BRANCH  10  12
HETATM   12  C   UNL     1     -11.559   9.262  71.616  1.00  0.00    -0.393 C  
BRANCH  12  13
HETATM   13  N   UNL     1     -12.715   8.390  71.831  1.00  0.00    -0.339 NA 
HETATM   14  H   UNL     1     -13.411   8.505  71.095  1.00  0.00     0.000 HD 
BRANCH  13  15
HETATM   15  C   UNL     1     -12.310   6.982  71.974  1.00  0.00    -0.267 C  
BRANCH  15  16
HETATM   16  C   UNL     1     -10.788   6.777  71.981  1.00  0.00    -0.257 C  
BRANCH  16  17
HETATM   17  C   UNL     1     -10.383   5.421  71.491  1.00  0.00    -0.289 A  
HETATM   18  C   UNL     1     -10.126   5.037  70.184  1.00  0.00    -0.268 A  
HETATM   19  N   UNL     1      -9.845   3.692  70.195  1.00  0.00    -0.108 NA 
HETATM   20  C   UNL     1     -10.129   5.798  68.908  1.00  0.00    -0.242 C  
HETATM   21  H   UNL     1      -9.627   3.138  69.367  1.00  0.00     0.000 HD 
HETATM   22  C   UNL     1      -9.898   3.195  71.473  1.00  0.00    -0.130 A  
HETATM   23  C   UNL     1      -9.694   1.892  71.942  1.00  0.00    -0.202 A  
HETATM   24  C   UNL     1      -9.806   1.672  73.318  1.00  0.00    -0.126 A  
HETATM   25  C   UNL     1     -10.111   2.717  74.188  1.00  0.00    -0.169 A  
HETATM   26  C   UNL     1     -10.322   4.011  73.700  1.00  0.00    -0.237 A  
HETATM   27  C   UNL     1     -10.216   4.258  72.314  1.00  0.00    -0.244 A  
ENDBRANCH  16  17
ENDBRANCH  15  16
ENDBRANCH  13  15
ENDBRANCH  12  13
ENDBRANCH  10  12
ENDBRANCH   2   6
BRANCH   3  28
HETATM   28  N   UNL     1     -10.483  13.764  64.349  1.00  0.00    -0.609 NA 
HETATM   29  H   UNL     1     -10.117  14.663  64.663  1.00  0.00     0.000 HD 
HETATM   30  O   UNL     1      -9.790  12.877  63.512  1.00  0.00    -0.672 OA 
HETATM   31  H   UNL     1      -8.937  13.221  63.276  1.00  0.00     0.000 HD 
ENDBRANCH   3  28
TORSDOF 7
ENDMDL
MODEL      117
REMARK 921   NORMALIZED FREE ENERGY PREDICTED BY IDOCK:   -4.62 KCAL/MOL
REMARK 922        TOTAL FREE ENERGY PREDICTED BY IDOCK:   -9.15 KCAL/MOL
REMARK 923 INTER-LIGAND FREE ENERGY PREDICTED BY IDOCK:   -8.04 KCAL/MOL
REMARK 924 INTRA-LIGAND FREE ENERGY PREDICTED BY IDOCK:   -1.11 KCAL/MOL
REMARK 927      BINDING AFFINITY PREDICTED BY RF-SCORE:    0.00 PKD
ROOT
HETATM    1  C   UNL     1     -11.795  12.398  65.619  1.00  0.00    -0.468 C  
HETATM    2  C   UNL     1     -10.893  11.715  66.339  1.00  0.00    -0.333 C  
HETATM    3  C   UNL     1     -11.412  12.910  64.298  1.00  0.00    -0.377 C  
HETATM    4  H   UNL     1     -12.215  13.337  62.603  1.00  0.00     0.000 HD 
HETATM    5  O   UNL     1     -12.463  13.005  63.459  1.00  0.00    -0.694 OA 
ENDROOT
BRANCH   2   6
HETATM    6  C   UNL     1     -11.242  11.173  67.646  1.00  0.00    -0.364 A  
HETATM    7  C   UNL     1     -10.992   9.831  67.946  1.00  0.00    -0.246 A  
HETATM    8  C   UNL     1     -11.227   9.347  69.235  1.00  0.00     0.017 A  
HETATM    9  C   UNL     1     -11.772  12.017  68.625  1.00  0.00    -0.380 A  
HETATM   10  C   UNL     1     -11.711  10.200  70.235  1.00  0.00    -0.361 A  
HETATM   11  C   UNL     1     -12.003  11.534  69.913  1.00  0.00    -0.426 A  
BRANCH  10  12
HETATM   12  C   UNL     1     -11.788   9.727  71.665  1.00  0.00    -0.354 C  
BRANCH  12  13
HETATM   13  N   UNL     1     -11.993   8.282  71.770  1.00  0.00    -0.297 NA 
HETATM   14  H   UNL     1     -11.817   7.815  70.881  1.00  0.00     0.000 HD 
BRANCH  13  15
HETATM   15  C   UNL     1     -11.186   7.699  72.854  1.00  0.00    -0.372 C  
BRANCH  15  16
HETATM   16  C   UNL     1      -9.685   8.007  72.739  1.00  0.00    -0.348 C  
BRANCH  16  17
HETATM   17  C   UNL     1      -9.066   7.423  71.507  1.00  0.00    -0.148 A  
HETATM   18  C   UNL     1      -8.316   8.080  70.544  1.00  0.00    -0.123 A  
HETATM   19  N   UNL     1      -8.003   7.166  69.568  1.00  0.00    -0.125 NA 
HETATM   20  C   UNL     1      -7.866   9.491  70.431  1.00  0.00    -0.190 C  
HETATM   21  H   UNL     1      -7.463   7.375  68.728  1.00  0.00     0.000 HD 
HETATM   22  C   UNL     1      -8.517   5.931  69.875  1.00  0.00    -0.129 A  
HETATM   23  C   UNL     1      -8.450   4.725  69.167  1.00  0.00    -0.087 A  
HETATM   24  C   UNL     1      -9.068   3.605  69.731  1.00  0.00    -0.193 A  
HETATM   25  C   UNL     1      -9.725   3.691  70.956  1.00  0.00    -0.243 A  
HETATM   26  C   UNL     1      -9.790   4.907  71.646  1.00  0.00    -0.245 A  
HETATM   27  C   UNL     1      -9.176   6.052  71.095  1.00  0.00    -0.160 A  
ENDBRANCH  16  17
ENDBRANCH  15  16
ENDBRANCH  13  15
ENDBRANCH  12  13
ENDBRANCH  10  12
ENDBRANCH   2   6
BRANCH   3  28
HETATM   28  N   UNL     1     -10.208  13.243  63.958  1.00  0.00    -0.758 NA 
HETATM   29  H   UNL     1      -9.775  14.141  64.177  1.00  0.00     0.000 HD 
HETATM   30  O   UNL     1      -9.576  12.211  63.249  1.00  0.00    -0.635 OA 
HETATM   31  H   UNL     1      -8.692  12.455  62.999  1.00  0.00     0.000 HD 
ENDBRANCH   3  28
TORSDOF 7
ENDMDL
MODEL      118
REMARK 921   NORMALIZED FREE ENERGY PREDICTED BY IDOCK:   -4.62 KCAL/MOL
REMARK 922        TOTAL FREE ENERGY PREDICTED BY IDOCK:   -9.14 KCAL/MOL
REMARK 923 INTER-LIGAND FREE ENERGY PREDICTED BY IDOCK:   -8.07 KCAL/MOL
REMARK 924 INTRA-LIGAND FREE ENERGY PREDICTED BY IDOCK:   -1.07 KCAL/MOL
REMARK 927      BINDING AFFINITY PREDICTED BY RF-SCORE:    0.00 PKD
ROOT
HETATM    1  C   UNL     1      -9.195   8.211  66.898  1.00  0.00    -0.198 C  
HETATM    2  C   UNL     1      -8.782   9.341  66.304  1.00  0.00    -0.160 C  
HETATM    3  C   UNL     1      -8.206   7.351  67.556  1.00  0.00    -0.113 C  
HETATM    4  H   UNL     1      -8.095   6.091  69.006  1.00  0.00     0.000 HD 
HETATM    5  O   UNL     1      -8.735   6.649  68.580  1.00  0.00    -0.124 OA 
ENDROOT
BRANCH   2   6
HETATM    6  C   UNL     1      -9.738  10.233  65.658  1.00  0.00    -0.308 A  
HETATM    7  C   UNL     1     -10.645  10.970  66.422  1.00  0.00    -0.308 A  
HETATM    8  C   UNL     1     -11.482  11.904  65.805  1.00  0.00    -0.326 A  
HETATM    9  C   UNL     1      -9.701  10.396  64.271  1.00  0.00    -0.389 A  
HETATM   10  C   UNL     1     -11.415  12.110  64.421  1.00  0.00    -0.417 A  
HETATM   11  C   UNL     1     -10.534  11.331  63.656  1.00  0.00    -0.464 A  
BRANCH  10  12
HETATM   12  C   UNL     1     -12.180  13.242  63.783  1.00  0.00    -0.439 C  
BRANCH  12  13
HETATM   13  N   UNL     1     -12.358  14.381  64.686  1.00  0.00    -0.570 NA 
HETATM   14  H   UNL     1     -12.426  14.079  65.658  1.00  0.00     0.000 HD 
BRANCH  13  15
HETATM   15  C   UNL     1     -11.294  15.383  64.507  1.00  0.00    -0.313 C  
BRANCH  15  16
HETATM   16  C   UNL     1     -10.164  15.271  65.543  1.00  0.00    -0.417 C  
BRANCH  16  17
HETATM   17  C   UNL     1     -10.382  16.151  66.736  1.00  0.00    -0.291 A  
HETATM   18  C   UNL     1     -10.996  15.815  67.932  1.00  0.00    -0.324 A  
HETATM   19  N   UNL     1     -11.025  16.945  68.713  1.00  0.00    -0.282 NA 
HETATM   20  C   UNL     1     -11.579  14.540  68.425  1.00  0.00    -0.356 C  
HETATM   21  H   UNL     1     -11.429  16.993  69.649  1.00  0.00     0.000 HD 
HETATM   22  C   UNL     1     -10.435  18.000  68.064  1.00  0.00    -0.375 A  
HETATM   23  C   UNL     1     -10.255  19.326  68.478  1.00  0.00    -0.471 A  
HETATM   24  C   UNL     1      -9.603  20.197  67.600  1.00  0.00    -0.534 A  
HETATM   25  C   UNL     1      -9.149  19.756  66.358  1.00  0.00    -0.452 A  
HETATM   26  C   UNL     1      -9.346  18.430  65.958  1.00  0.00    -0.012 A  
HETATM   27  C   UNL     1     -10.004  17.532  66.826  1.00  0.00    -0.313 A  
ENDBRANCH  16  17
ENDBRANCH  15  16
ENDBRANCH  13  15
ENDBRANCH  12  13
ENDBRANCH  10  12
ENDBRANCH   2   6
BRANCH   3  28
HETATM   28  N   UNL     1      -6.963   7.257  67.208  1.00  0.00    -0.076 NA 
HETATM   29  H   UNL     1      -6.644   6.952  66.288  1.00  0.00     0.000 HD 
HETATM   30  O   UNL     1      -6.111   7.626  68.259  1.00  0.00    -0.034 OA 
HETATM   31  H   UNL     1      -5.198   7.557  68.003  1.00  0.00     0.000 HD 
ENDBRANCH   3  28
TORSDOF 7
ENDMDL
MODEL      119
REMARK 921   NORMALIZED FREE ENERGY PREDICTED BY IDOCK:   -4.62 KCAL/MOL
REMARK 922        TOTAL FREE ENERGY PREDICTED BY IDOCK:   -9.14 KCAL/MOL
REMARK 923 INTER-LIGAND FREE ENERGY PREDICTED BY IDOCK:   -8.00 KCAL/MOL
REMARK 924 INTRA-LIGAND FREE ENERGY PREDICTED BY IDOCK:   -1.13 KCAL/MOL
REMARK 927      BINDING AFFINITY PREDICTED BY RF-SCORE:    0.00 PKD
ROOT
HETATM    1  C   UNL     1      -8.758   9.273  64.722  1.00  0.00    -0.220 C  
HETATM    2  C   UNL     1      -8.461   9.656  65.973  1.00  0.00    -0.131 C  
HETATM    3  C   UNL     1      -7.736   8.584  63.927  1.00  0.00    -0.141 C  
HETATM    4  H   UNL     1      -7.609   7.298  62.502  1.00  0.00     0.000 HD 
HETATM    5  O   UNL     1      -8.271   7.744  63.017  1.00  0.00    -0.122 OA 
ENDROOT
BRANCH   2   6
HETATM    6  C   UNL     1      -9.457  10.324  66.801  1.00  0.00    -0.198 A  
HETATM    7  C   UNL     1      -9.363  10.281  68.195  1.00  0.00    -0.144 A  
HETATM    8  C   UNL     1     -10.256  11.014  68.979  1.00  0.00    -0.217 A  
HETATM    9  C   UNL     1     -10.475  11.065  66.196  1.00  0.00    -0.301 A  
HETATM   10  C   UNL     1     -11.248  11.800  68.377  1.00  0.00    -0.307 A  
HETATM   11  C   UNL     1     -11.364  11.801  66.979  1.00  0.00    -0.387 A  
BRANCH  10  12
HETATM   12  C   UNL     1     -12.089  12.733  69.212  1.00  0.00    -0.172 C  
BRANCH  12  13
HETATM   13  N   UNL     1     -12.165  14.081  68.647  1.00  0.00    -0.527 NA 
HETATM   14  H   UNL     1     -13.064  14.519  68.847  1.00  0.00     0.000 HD 
BRANCH  13  15
HETATM   15  C   UNL     1     -11.044  14.921  69.099  1.00  0.00    -0.269 C  
BRANCH  15  16
HETATM   16  C   UNL     1      -9.925  15.067  68.056  1.00  0.00    -0.219 C  
BRANCH  16  17
HETATM   17  C   UNL     1     -10.225  16.112  67.026  1.00  0.00    -0.285 A  
HETATM   18  C   UNL     1     -10.552  15.915  65.693  1.00  0.00    -0.378 A  
HETATM   19  N   UNL     1     -10.687  17.154  65.113  1.00  0.00    -0.660 NA 
HETATM   20  C   UNL     1     -10.742  14.680  64.890  1.00  0.00    -0.447 C  
HETATM   21  H   UNL     1     -10.917  17.313  64.132  1.00  0.00     0.000 HD 
HETATM   22  C   UNL     1     -10.470  18.148  66.034  1.00  0.00    -0.335 A  
HETATM   23  C   UNL     1     -10.494  19.539  65.880  1.00  0.00    -0.585 A  
HETATM   24  C   UNL     1     -10.239  20.322  67.010  1.00  0.00    -0.503 A  
HETATM   25  C   UNL     1      -9.972  19.733  68.244  1.00  0.00    -0.557 A  
HETATM   26  C   UNL     1      -9.943  18.341  68.377  1.00  0.00    -0.401 A  
HETATM   27  C   UNL     1     -10.195  17.529  67.250  1.00  0.00    -0.335 A  
ENDBRANCH  16  17
ENDBRANCH  15  16
ENDBRANCH  13  15
ENDBRANCH  12  13
ENDBRANCH  10  12
ENDBRANCH   2   6
BRANCH   3  28
HETATM   28  N   UNL     1      -6.460   8.751  64.063  1.00  0.00    -0.076 NA 
HETATM   29  H   UNL     1      -5.944   8.569  64.925  1.00  0.00     0.000 HD 
HETATM   30  O   UNL     1      -5.877   9.215  62.874  1.00  0.00    -0.088 OA 
HETATM   31  H   UNL     1      -4.940   9.338  62.974  1.00  0.00     0.000 HD 
ENDBRANCH   3  28
TORSDOF 7
ENDMDL
MODEL      120
REMARK 921   NORMALIZED FREE ENERGY PREDICTED BY IDOCK:   -4.61 KCAL/MOL
REMARK 922        TOTAL FREE ENERGY PREDICTED BY IDOCK:   -9.13 KCAL/MOL
REMARK 923 INTER-LIGAND FREE ENERGY PREDICTED BY IDOCK:   -6.34 KCAL/MOL
REMARK 924 INTRA-LIGAND FREE ENERGY PREDICTED BY IDOCK:   -2.78 KCAL/MOL
REMARK 927      BINDING AFFINITY PREDICTED BY RF-SCORE:    0.00 PKD
ROOT
HETATM    1  C   UNL     1      -9.909   8.205  67.851  1.00  0.00    -0.206 C  
HETATM    2  C   UNL     1      -8.672   8.717  67.937  1.00  0.00    -0.136 C  
HETATM    3  C   UNL     1     -10.104   6.771  68.092  1.00  0.00    -0.164 C  
HETATM    4  H   UNL     1     -11.458   5.565  68.734  1.00  0.00     0.000 HD 
HETATM    5  O   UNL     1     -11.331   6.494  68.578  1.00  0.00    -0.258 OA 
ENDROOT
BRANCH   2   6
HETATM    6  C   UNL     1      -8.441  10.141  67.725  1.00  0.00    -0.114 A  
HETATM    7  C   UNL     1      -8.334  10.655  66.430  1.00  0.00    -0.151 A  
HETATM    8  C   UNL     1      -8.224  12.033  66.232  1.00  0.00     0.199 A  
HETATM    9  C   UNL     1      -8.391  11.004  68.822  1.00  0.00    -0.144 A  
HETATM   10  C   UNL     1      -8.224  12.909  67.326  1.00  0.00    -0.176 A  
HETATM   11  C   UNL     1      -8.285  12.380  68.624  1.00  0.00    -0.002 A  
BRANCH  10  12
HETATM   12  C   UNL     1      -8.293  14.399  67.106  1.00  0.00    -0.191 C  
BRANCH  12  13
HETATM   13  N   UNL     1      -9.089  14.759  65.932  1.00  0.00    -0.476 NA 
HETATM   14  H   UNL     1      -9.358  13.934  65.396  1.00  0.00     0.000 HD 
BRANCH  13  15
HETATM   15  C   UNL     1     -10.264  15.565  66.302  1.00  0.00    -0.294 C  
BRANCH  15  16
HETATM   16  C   UNL     1     -11.604  14.874  66.004  1.00  0.00    -0.226 C  
BRANCH  16  17
HETATM   17  C   UNL     1     -11.670  13.480  66.549  1.00  0.00    -0.408 A  
HETATM   18  C   UNL     1     -11.633  12.292  65.837  1.00  0.00    -0.393 A  
HETATM   19  N   UNL     1     -11.781  11.265  66.737  1.00  0.00    -0.343 NA 
HETATM   20  C   UNL     1     -11.488  12.010  64.385  1.00  0.00    -0.413 C  
HETATM   21  H   UNL     1     -11.800  10.275  66.490  1.00  0.00     0.000 HD 
HETATM   22  C   UNL     1     -11.898  11.752  68.015  1.00  0.00    -0.234 A  
HETATM   23  C   UNL     1     -12.074  11.071  69.226  1.00  0.00    -0.363 A  
HETATM   24  C   UNL     1     -12.156  11.835  70.394  1.00  0.00    -0.440 A  
HETATM   25  C   UNL     1     -12.065  13.224  70.349  1.00  0.00    -0.401 A  
HETATM   26  C   UNL     1     -11.899  13.888  69.129  1.00  0.00    -0.401 A  
HETATM   27  C   UNL     1     -11.815  13.139  67.935  1.00  0.00    -0.390 A  
ENDBRANCH  16  17
ENDBRANCH  15  16
ENDBRANCH  13  15
ENDBRANCH  12  13
ENDBRANCH  10  12
ENDBRANCH   2   6
BRANCH   3  28
HETATM   28  N   UNL     1      -9.214   5.859  67.868  1.00  0.00    -0.109 NA 
HETATM   29  H   UNL     1      -8.586   5.853  67.063  1.00  0.00     0.000 HD 
HETATM   30  O   UNL     1      -9.225   4.879  68.871  1.00  0.00    -0.107 OA 
HETATM   31  H   UNL     1      -8.572   4.209  68.706  1.00  0.00     0.000 HD 
ENDBRANCH   3  28
TORSDOF 7
ENDMDL
MODEL      121
REMARK 921   NORMALIZED FREE ENERGY PREDICTED BY IDOCK:   -4.61 KCAL/MOL
REMARK 922        TOTAL FREE ENERGY PREDICTED BY IDOCK:   -9.12 KCAL/MOL
REMARK 923 INTER-LIGAND FREE ENERGY PREDICTED BY IDOCK:   -8.27 KCAL/MOL
REMARK 924 INTRA-LIGAND FREE ENERGY PREDICTED BY IDOCK:   -0.85 KCAL/MOL
REMARK 927      BINDING AFFINITY PREDICTED BY RF-SCORE:    0.00 PKD
ROOT
HETATM    1  C   UNL     1     -10.319  10.695  65.074  1.00  0.00    -0.341 C  
HETATM    2  C   UNL     1     -10.793  11.638  65.901  1.00  0.00    -0.339 C  
HETATM    3  C   UNL     1     -10.087  11.034  63.666  1.00  0.00    -0.371 C  
HETATM    4  H   UNL     1      -8.951  10.518  62.202  1.00  0.00     0.000 HD 
HETATM    5  O   UNL     1      -9.100  10.298  63.114  1.00  0.00    -0.217 OA 
ENDROOT
BRANCH   2   6
HETATM    6  C   UNL     1     -11.015  11.345  67.312  1.00  0.00    -0.336 A  
HETATM    7  C   UNL     1     -11.824  12.179  68.089  1.00  0.00    -0.362 A  
HETATM    8  C   UNL     1     -12.122  11.832  69.409  1.00  0.00    -0.301 A  
HETATM    9  C   UNL     1     -10.468  10.188  67.872  1.00  0.00    -0.265 A  
HETATM   10  C   UNL     1     -11.618  10.647  69.961  1.00  0.00    -0.406 A  
HETATM   11  C   UNL     1     -10.769   9.840  69.189  1.00  0.00    -0.242 A  
BRANCH  10  12
HETATM   12  C   UNL     1     -12.088  10.181  71.316  1.00  0.00    -0.394 C  
BRANCH  12  13
HETATM   13  N   UNL     1     -11.478   8.912  71.718  1.00  0.00    -0.330 NA 
HETATM   14  H   UNL     1     -11.032   8.985  72.632  1.00  0.00     0.000 HD 
BRANCH  13  15
HETATM   15  C   UNL     1     -12.453   7.809  71.682  1.00  0.00    -0.326 C  
BRANCH  15  16
HETATM   16  C   UNL     1     -12.132   6.738  70.629  1.00  0.00    -0.371 C  
BRANCH  16  17
HETATM   17  C   UNL     1     -10.830   6.044  70.886  1.00  0.00    -0.349 A  
HETATM   18  C   UNL     1      -9.716   6.003  70.061  1.00  0.00    -0.165 A  
HETATM   19  N   UNL     1      -8.778   5.207  70.672  1.00  0.00    -0.125 NA 
HETATM   20  C   UNL     1      -9.437   6.624  68.741  1.00  0.00    -0.129 C  
HETATM   21  H   UNL     1      -7.859   4.992  70.285  1.00  0.00     0.000 HD 
HETATM   22  C   UNL     1      -9.244   4.742  71.876  1.00  0.00    -0.137 A  
HETATM   23  C   UNL     1      -8.634   3.901  72.815  1.00  0.00    -0.101 A  
HETATM   24  C   UNL     1      -9.352   3.593  73.974  1.00  0.00    -0.107 A  
HETATM   25  C   UNL     1     -10.630   4.108  74.183  1.00  0.00    -0.302 A  
HETATM   26  C   UNL     1     -11.227   4.938  73.230  1.00  0.00    -0.423 A  
HETATM   27  C   UNL     1     -10.523   5.262  72.050  1.00  0.00    -0.283 A  
ENDBRANCH  16  17
ENDBRANCH  15  16
ENDBRANCH  13  15
ENDBRANCH  12  13
ENDBRANCH  10  12
ENDBRANCH   2   6
BRANCH   3  28
HETATM   28  N   UNL     1     -10.746  11.931  63.006  1.00  0.00    -0.675 NA 
HETATM   29  H   UNL     1     -10.327  12.763  62.588  1.00  0.00     0.000 HD 
HETATM   30  O   UNL     1     -12.111  11.615  62.939  1.00  0.00    -0.876 OA 
HETATM   31  H   UNL     1     -12.595  12.274  62.455  1.00  0.00     0.000 HD 
ENDBRANCH   3  28
TORSDOF 7
ENDMDL
MODEL      122
REMARK 921   NORMALIZED FREE ENERGY PREDICTED BY IDOCK:   -4.61 KCAL/MOL
REMARK 922        TOTAL FREE ENERGY PREDICTED BY IDOCK:   -9.12 KCAL/MOL
REMARK 923 INTER-LIGAND FREE ENERGY PREDICTED BY IDOCK:   -6.53 KCAL/MOL
REMARK 924 INTRA-LIGAND FREE ENERGY PREDICTED BY IDOCK:   -2.60 KCAL/MOL
REMARK 927      BINDING AFFINITY PREDICTED BY RF-SCORE:    0.00 PKD
ROOT
HETATM    1  C   UNL     1     -10.592   4.762  66.173  1.00  0.00    -0.282 C  
HETATM    2  C   UNL     1      -9.675   5.060  67.107  1.00  0.00    -0.180 C  
HETATM    3  C   UNL     1     -10.146   4.465  64.808  1.00  0.00    -0.083 C  
HETATM    4  H   UNL     1     -10.696   3.435  63.279  1.00  0.00     0.000 HD 
HETATM    5  O   UNL     1     -10.985   3.627  64.164  1.00  0.00    -0.281 OA 
ENDROOT
BRANCH   2   6
HETATM    6  C   UNL     1     -10.077   5.339  68.480  1.00  0.00    -0.232 A  
HETATM    7  C   UNL     1     -11.147   6.200  68.742  1.00  0.00    -0.398 A  
HETATM    8  C   UNL     1     -11.596   6.376  70.053  1.00  0.00    -0.446 A  
HETATM    9  C   UNL     1      -9.429   4.693  69.535  1.00  0.00    -0.236 A  
HETATM   10  C   UNL     1     -10.983   5.692  71.111  1.00  0.00    -0.248 A  
HETATM   11  C   UNL     1      -9.881   4.867  70.843  1.00  0.00    -0.277 A  
BRANCH  10  12
HETATM   12  C   UNL     1     -11.583   5.737  72.494  1.00  0.00    -0.267 C  
BRANCH  12  13
HETATM   13  N   UNL     1     -11.365   7.021  73.161  1.00  0.00    -0.546 NA 
HETATM   14  H   UNL     1     -12.095   7.215  73.846  1.00  0.00     0.000 HD 
BRANCH  13  15
HETATM   15  C   UNL     1     -10.025   7.095  73.767  1.00  0.00    -0.331 C  
BRANCH  15  16
HETATM   16  C   UNL     1      -9.241   8.357  73.377  1.00  0.00    -0.111 C  
BRANCH  16  17
HETATM   17  C   UNL     1      -8.845   8.370  71.932  1.00  0.00    -0.267 A  
HETATM   18  C   UNL     1      -7.764   7.731  71.347  1.00  0.00    -0.082 A  
HETATM   19  N   UNL     1      -7.757   8.066  70.014  1.00  0.00    -0.086 NA 
HETATM   20  C   UNL     1      -6.715   6.841  71.908  1.00  0.00    -0.054 C  
HETATM   21  H   UNL     1      -7.063   7.744  69.339  1.00  0.00     0.000 HD 
HETATM   22  C   UNL     1      -8.810   8.893  69.715  1.00  0.00    -0.144 A  
HETATM   23  C   UNL     1      -9.179   9.478  68.498  1.00  0.00    -0.131 A  
HETATM   24  C   UNL     1     -10.322  10.283  68.485  1.00  0.00    -0.200 A  
HETATM   25  C   UNL     1     -11.066  10.491  69.644  1.00  0.00    -0.338 A  
HETATM   26  C   UNL     1     -10.677   9.905  70.854  1.00  0.00    -0.305 A  
HETATM   27  C   UNL     1      -9.525   9.090  70.894  1.00  0.00    -0.331 A  
ENDBRANCH  16  17
ENDBRANCH  15  16
ENDBRANCH  13  15
ENDBRANCH  12  13
ENDBRANCH  10  12
ENDBRANCH   2   6
BRANCH   3  28
HETATM   28  N   UNL     1      -9.077   4.946  64.261  1.00  0.00    -0.325 NA 
HETATM   29  H   UNL     1      -8.196   5.098  64.754  1.00  0.00     0.000 HD 
HETATM   30  O   UNL     1      -9.282   5.231  62.903  1.00  0.00    -0.348 OA 
HETATM   31  H   UNL     1      -8.496   5.583  62.502  1.00  0.00     0.000 HD 
ENDBRANCH   3  28
TORSDOF 7
ENDMDL
MODEL      123
REMARK 921   NORMALIZED FREE ENERGY PREDICTED BY IDOCK:   -4.60 KCAL/MOL
REMARK 922        TOTAL FREE ENERGY PREDICTED BY IDOCK:   -9.12 KCAL/MOL
REMARK 923 INTER-LIGAND FREE ENERGY PREDICTED BY IDOCK:   -7.16 KCAL/MOL
REMARK 924 INTRA-LIGAND FREE ENERGY PREDICTED BY IDOCK:   -1.96 KCAL/MOL
REMARK 927      BINDING AFFINITY PREDICTED BY RF-SCORE:    0.00 PKD
ROOT
HETATM    1  C   UNL     1      -8.643   5.407  65.343  1.00  0.00    -0.150 C  
HETATM    2  C   UNL     1      -9.736   4.970  65.987  1.00  0.00    -0.194 C  
HETATM    3  C   UNL     1      -8.488   5.102  63.916  1.00  0.00    -0.119 C  
HETATM    4  H   UNL     1      -7.662   5.839  62.343  1.00  0.00     0.000 HD 
HETATM    5  O   UNL     1      -7.763   6.036  63.267  1.00  0.00    -0.082 OA 
ENDROOT
BRANCH   2   6
HETATM    6  C   UNL     1      -9.936   5.271  67.399  1.00  0.00    -0.206 A  
HETATM    7  C   UNL     1     -11.022   6.049  67.810  1.00  0.00    -0.333 A  
HETATM    8  C   UNL     1     -11.269   6.240  69.171  1.00  0.00    -0.439 A  
HETATM    9  C   UNL     1      -9.071   4.725  68.351  1.00  0.00    -0.148 A  
HETATM   10  C   UNL     1     -10.435   5.653  70.132  1.00  0.00    -0.366 A  
HETATM   11  C   UNL     1      -9.321   4.914  69.710  1.00  0.00    -0.200 A  
BRANCH  10  12
HETATM   12  C   UNL     1     -10.807   5.705  71.593  1.00  0.00    -0.237 C  
BRANCH  12  13
HETATM   13  N   UNL     1     -11.833   6.709  71.879  1.00  0.00    -0.318 NA 
HETATM   14  H   UNL     1     -12.693   6.278  72.217  1.00  0.00     0.000 HD 
BRANCH  13  15
HETATM   15  C   UNL     1     -11.340   7.734  72.814  1.00  0.00    -0.389 C  
BRANCH  15  16
HETATM   16  C   UNL     1     -10.331   8.706  72.184  1.00  0.00    -0.403 C  
BRANCH  16  17
HETATM   17  C   UNL     1     -10.869   9.395  70.969  1.00  0.00    -0.406 A  
HETATM   18  C   UNL     1     -12.054  10.105  70.855  1.00  0.00    -0.356 A  
HETATM   19  N   UNL     1     -12.169  10.512  69.548  1.00  0.00    -0.540 NA 
HETATM   20  C   UNL     1     -13.111  10.436  71.845  1.00  0.00    -0.563 C  
HETATM   21  H   UNL     1     -12.952  11.049  69.174  1.00  0.00     0.000 HD 
HETATM   22  C   UNL     1     -11.086  10.099  68.813  1.00  0.00    -0.203 A  
HETATM   23  C   UNL     1     -10.796  10.281  67.455  1.00  0.00    -0.355 A  
HETATM   24  C   UNL     1      -9.597   9.750  66.971  1.00  0.00    -0.218 A  
HETATM   25  C   UNL     1      -8.725   9.065  67.814  1.00  0.00    -0.125 A  
HETATM   26  C   UNL     1      -9.036   8.885  69.166  1.00  0.00    -0.140 A  
HETATM   27  C   UNL     1     -10.241   9.410  69.678  1.00  0.00    -0.225 A  
ENDBRANCH  16  17
ENDBRANCH  15  16
ENDBRANCH  13  15
ENDBRANCH  12  13
ENDBRANCH  10  12
ENDBRANCH   2   6
BRANCH   3  28
HETATM   28  N   UNL     1      -8.978   4.060  63.328  1.00  0.00    -0.109 NA 
HETATM   29  H   UNL     1      -8.492   3.167  63.237  1.00  0.00     0.000 HD 
HETATM   30  O   UNL     1     -10.265   4.313  62.831  1.00  0.00    -0.338 OA 
HETATM   31  H   UNL     1     -10.626   3.547  62.399  1.00  0.00     0.000 HD 
ENDBRANCH   3  28
TORSDOF 7
ENDMDL
MODEL      124
REMARK 921   NORMALIZED FREE ENERGY PREDICTED BY IDOCK:   -4.60 KCAL/MOL
REMARK 922        TOTAL FREE ENERGY PREDICTED BY IDOCK:   -9.11 KCAL/MOL
REMARK 923 INTER-LIGAND FREE ENERGY PREDICTED BY IDOCK:   -6.46 KCAL/MOL
REMARK 924 INTRA-LIGAND FREE ENERGY PREDICTED BY IDOCK:   -2.65 KCAL/MOL
REMARK 927      BINDING AFFINITY PREDICTED BY RF-SCORE:    0.00 PKD
ROOT
HETATM    1  C   UNL     1     -11.007  11.767  66.221  1.00  0.00    -0.346 C  
HETATM    2  C   UNL     1     -10.333  10.623  66.415  1.00  0.00    -0.291 C  
HETATM    3  C   UNL     1     -11.730  11.962  64.960  1.00  0.00    -0.188 C  
HETATM    4  H   UNL     1     -13.269  12.898  64.284  1.00  0.00     0.000 HD 
HETATM    5  O   UNL     1     -12.801  12.771  65.101  1.00  0.00    -0.726 OA 
ENDROOT
BRANCH   2   6
HETATM    6  C   UNL     1      -9.620  10.383  67.664  1.00  0.00    -0.168 A  
HETATM    7  C   UNL     1     -10.302   9.913  68.789  1.00  0.00    -0.222 A  
HETATM    8  C   UNL     1      -9.595   9.581  69.947  1.00  0.00    -0.250 A  
HETATM    9  C   UNL     1      -8.236  10.564  67.714  1.00  0.00    -0.107 A  
HETATM   10  C   UNL     1      -8.201   9.712  69.988  1.00  0.00    -0.197 A  
HETATM   11  C   UNL     1      -7.530  10.228  68.870  1.00  0.00    -0.094 A  
BRANCH  10  12
HETATM   12  C   UNL     1      -7.422   9.181  71.166  1.00  0.00    -0.063 C  
BRANCH  12  13
HETATM   13  N   UNL     1      -7.948   7.908  71.660  1.00  0.00    -0.095 NA 
HETATM   14  H   UNL     1      -8.868   7.707  71.269  1.00  0.00     0.000 HD 
BRANCH  13  15
HETATM   15  C   UNL     1      -7.007   6.802  71.416  1.00  0.00    -0.070 C  
BRANCH  15  16
HETATM   16  C   UNL     1      -7.670   5.549  70.825  1.00  0.00    -0.091 C  
BRANCH  16  17
HETATM   17  C   UNL     1      -8.990   5.840  70.181  1.00  0.00    -0.148 A  
HETATM   18  C   UNL     1     -10.251   5.712  70.742  1.00  0.00    -0.227 A  
HETATM   19  N   UNL     1     -11.170   6.034  69.772  1.00  0.00    -0.411 NA 
HETATM   20  C   UNL     1     -10.696   5.302  72.099  1.00  0.00    -0.271 C  
HETATM   21  H   UNL     1     -12.182   6.017  69.904  1.00  0.00     0.000 HD 
HETATM   22  C   UNL     1     -10.542   6.381  68.603  1.00  0.00    -0.253 A  
HETATM   23  C   UNL     1     -11.082   6.764  67.370  1.00  0.00    -0.366 A  
HETATM   24  C   UNL     1     -10.191   7.073  66.338  1.00  0.00    -0.006 A  
HETATM   25  C   UNL     1      -8.814   7.001  66.536  1.00  0.00    -0.151 A  
HETATM   26  C   UNL     1      -8.292   6.607  67.773  1.00  0.00    -0.122 A  
HETATM   27  C   UNL     1      -9.172   6.288  68.829  1.00  0.00    -0.125 A  
ENDBRANCH  16  17
ENDBRANCH  15  16
ENDBRANCH  13  15
ENDBRANCH  12  13
ENDBRANCH  10  12
ENDBRANCH   2   6
BRANCH   3  28
HETATM   28  N   UNL     1     -11.394  11.433  63.828  1.00  0.00    -0.524 NA 
HETATM   29  H   UNL     1     -10.457  11.093  63.607  1.00  0.00     0.000 HD 
HETATM   30  O   UNL     1     -12.482  11.385  62.945  1.00  0.00    -0.949 OA 
HETATM   31  H   UNL     1     -12.235  10.996  62.114  1.00  0.00     0.000 HD 
ENDBRANCH   3  28
TORSDOF 7
ENDMDL
MODEL      125
REMARK 921   NORMALIZED FREE ENERGY PREDICTED BY IDOCK:   -4.58 KCAL/MOL
REMARK 922        TOTAL FREE ENERGY PREDICTED BY IDOCK:   -9.08 KCAL/MOL
REMARK 923 INTER-LIGAND FREE ENERGY PREDICTED BY IDOCK:   -8.19 KCAL/MOL
REMARK 924 INTRA-LIGAND FREE ENERGY PREDICTED BY IDOCK:   -0.89 KCAL/MOL
REMARK 927      BINDING AFFINITY PREDICTED BY RF-SCORE:    0.00 PKD
ROOT
HETATM    1  C   UNL     1      -9.336   8.856  71.754  1.00  0.00    -0.304 C  
HETATM    2  C   UNL     1      -9.941   8.278  70.705  1.00  0.00    -0.217 C  
HETATM    3  C   UNL     1      -8.832   8.009  72.840  1.00  0.00    -0.224 C  
HETATM    4  H   UNL     1      -7.446   8.009  74.175  1.00  0.00     0.000 HD 
HETATM    5  O   UNL     1      -7.772   8.557  73.470  1.00  0.00    -0.345 OA 
ENDROOT
BRANCH   2   6
HETATM    6  C   UNL     1     -10.437   9.084  69.596  1.00  0.00    -0.227 A  
HETATM    7  C   UNL     1     -11.389  10.082  69.817  1.00  0.00    -0.281 A  
HETATM    8  C   UNL     1     -11.777  10.923  68.771  1.00  0.00    -0.355 A  
HETATM    9  C   UNL     1      -9.907   8.899  68.317  1.00  0.00    -0.187 A  
HETATM   10  C   UNL     1     -11.211  10.776  67.497  1.00  0.00    -0.346 A  
HETATM   11  C   UNL     1     -10.291   9.742  67.274  1.00  0.00    -0.308 A  
BRANCH  10  12
HETATM   12  C   UNL     1     -11.488  11.795  66.421  1.00  0.00    -0.239 C  
BRANCH  12  13
HETATM   13  N   UNL     1     -10.390  12.747  66.251  1.00  0.00    -0.254 NA 
HETATM   14  H   UNL     1     -10.250  12.984  65.269  1.00  0.00     0.000 HD 
BRANCH  13  15
HETATM   15  C   UNL     1     -10.588  13.954  67.072  1.00  0.00    -0.279 C  
BRANCH  15  16
HETATM   16  C   UNL     1     -10.157  13.779  68.536  1.00  0.00    -0.225 C  
BRANCH  16  17
HETATM   17  C   UNL     1     -10.699  14.849  69.432  1.00  0.00    -0.264 A  
HETATM   18  C   UNL     1     -10.409  16.204  69.401  1.00  0.00    -0.277 A  
HETATM   19  N   UNL     1     -11.086  16.797  70.439  1.00  0.00    -0.371 NA 
HETATM   20  C   UNL     1      -9.545  17.014  68.503  1.00  0.00    -0.273 C  
HETATM   21  H   UNL     1     -11.051  17.791  70.663  1.00  0.00     0.000 HD 
HETATM   22  C   UNL     1     -11.819  15.867  71.135  1.00  0.00    -0.438 A  
HETATM   23  C   UNL     1     -12.640  16.024  72.257  1.00  0.00    -0.505 A  
HETATM   24  C   UNL     1     -13.279  14.886  72.758  1.00  0.00    -0.568 A  
HETATM   25  C   UNL     1     -13.103  13.642  72.157  1.00  0.00    -0.489 A  
HETATM   26  C   UNL     1     -12.271  13.503  71.041  1.00  0.00    -0.348 A  
HETATM   27  C   UNL     1     -11.613  14.637  70.518  1.00  0.00    -0.319 A  
ENDBRANCH  16  17
ENDBRANCH  15  16
ENDBRANCH  13  15
ENDBRANCH  12  13
ENDBRANCH  10  12
ENDBRANCH   2   6
BRANCH   3  28
HETATM   28  N   UNL     1      -9.335   6.865  73.176  1.00  0.00    -0.138 NA 
HETATM   29  H   UNL     1      -9.275   6.020  72.607  1.00  0.00     0.000 HD 
HETATM   30  O   UNL     1      -9.971   6.935  74.424  1.00  0.00    -0.411 OA 
HETATM   31  H   UNL     1     -10.340   6.095  74.671  1.00  0.00     0.000 HD 
ENDBRANCH   3  28
TORSDOF 7
ENDMDL
MODEL      126
REMARK 921   NORMALIZED FREE ENERGY PREDICTED BY IDOCK:   -4.57 KCAL/MOL
REMARK 922        TOTAL FREE ENERGY PREDICTED BY IDOCK:   -9.08 KCAL/MOL
REMARK 923 INTER-LIGAND FREE ENERGY PREDICTED BY IDOCK:   -7.20 KCAL/MOL
REMARK 924 INTRA-LIGAND FREE ENERGY PREDICTED BY IDOCK:   -1.88 KCAL/MOL
REMARK 927      BINDING AFFINITY PREDICTED BY RF-SCORE:    0.00 PKD
ROOT
HETATM    1  C   UNL     1     -10.553   9.802  69.758  1.00  0.00    -0.285 C  
HETATM    2  C   UNL     1      -9.801  10.075  68.681  1.00  0.00    -0.168 C  
HETATM    3  C   UNL     1     -10.007   8.931  70.805  1.00  0.00    -0.226 C  
HETATM    4  H   UNL     1     -10.163   8.645  72.701  1.00  0.00     0.000 HD 
HETATM    5  O   UNL     1     -10.516   9.210  72.023  1.00  0.00    -0.322 OA 
ENDROOT
BRANCH   2   6
HETATM    6  C   UNL     1     -10.300  10.953  67.630  1.00  0.00    -0.232 A  
HETATM    7  C   UNL     1      -9.808  10.846  66.326  1.00  0.00    -0.261 A  
HETATM    8  C   UNL     1     -10.369  11.613  65.303  1.00  0.00    -0.316 A  
HETATM    9  C   UNL     1     -11.321  11.862  67.916  1.00  0.00    -0.358 A  
HETATM   10  C   UNL     1     -11.428  12.490  65.573  1.00  0.00    -0.389 A  
HETATM   11  C   UNL     1     -11.883  12.625  66.893  1.00  0.00    -0.425 A  
BRANCH  10  12
HETATM   12  C   UNL     1     -12.154  13.177  64.443  1.00  0.00    -0.410 C  
BRANCH  12  13
HETATM   13  N   UNL     1     -11.538  14.451  64.070  1.00  0.00    -0.637 NA 
HETATM   14  H   UNL     1     -11.887  14.785  63.172  1.00  0.00     0.000 HD 
BRANCH  13  15
HETATM   15  C   UNL     1     -11.710  15.464  65.125  1.00  0.00    -0.037 C  
BRANCH  15  16
HETATM   16  C   UNL     1     -10.559  16.479  65.196  1.00  0.00    -0.237 C  
BRANCH  16  17
HETATM   17  C   UNL     1     -10.008  16.635  66.580  1.00  0.00    -0.296 A  
HETATM   18  C   UNL     1     -10.162  17.715  67.434  1.00  0.00    -0.345 A  
HETATM   19  N   UNL     1      -9.440  17.449  68.572  1.00  0.00    -0.289 NA 
HETATM   20  C   UNL     1     -10.908  18.993  67.294  1.00  0.00    -0.494 C  
HETATM   21  H   UNL     1      -9.365  18.078  69.372  1.00  0.00     0.000 HD 
HETATM   22  C   UNL     1      -8.834  16.221  68.487  1.00  0.00    -0.219 A  
HETATM   23  C   UNL     1      -8.005  15.560  69.402  1.00  0.00    -0.229 A  
HETATM   24  C   UNL     1      -7.528  14.294  69.049  1.00  0.00    -0.102 A  
HETATM   25  C   UNL     1      -7.870  13.714  67.829  1.00  0.00    -0.172 A  
HETATM   26  C   UNL     1      -8.692  14.394  66.924  1.00  0.00    -0.218 A  
HETATM   27  C   UNL     1      -9.184  15.674  67.256  1.00  0.00    -0.214 A  
ENDBRANCH  16  17
ENDBRANCH  15  16
ENDBRANCH  13  15
ENDBRANCH  12  13
ENDBRANCH  10  12
ENDBRANCH   2   6
BRANCH   3  28
HETATM   28  N   UNL     1      -9.138   7.993  70.605  1.00  0.00    -0.151 NA 
HETATM   29  H   UNL     1      -8.134   8.096  70.757  1.00  0.00     0.000 HD 
HETATM   30  O   UNL     1      -9.754   6.817  70.152  1.00  0.00    -0.167 OA 
HETATM   31  H   UNL     1      -9.116   6.129  70.005  1.00  0.00     0.000 HD 
ENDBRANCH   3  28
TORSDOF 7
ENDMDL
MODEL      127
REMARK 921   NORMALIZED FREE ENERGY PREDICTED BY IDOCK:   -4.57 KCAL/MOL
REMARK 922        TOTAL FREE ENERGY PREDICTED BY IDOCK:   -9.07 KCAL/MOL
REMARK 923 INTER-LIGAND FREE ENERGY PREDICTED BY IDOCK:   -7.43 KCAL/MOL
REMARK 924 INTRA-LIGAND FREE ENERGY PREDICTED BY IDOCK:   -1.65 KCAL/MOL
REMARK 927      BINDING AFFINITY PREDICTED BY RF-SCORE:    0.00 PKD
ROOT
HETATM    1  C   UNL     1     -11.576  12.102  67.357  1.00  0.00    -0.410 C  
HETATM    2  C   UNL     1     -11.907  12.427  68.616  1.00  0.00    -0.348 C  
HETATM    3  C   UNL     1     -11.637  13.134  66.316  1.00  0.00    -0.356 C  
HETATM    4  H   UNL     1     -10.796  13.580  64.645  1.00  0.00     0.000 HD 
HETATM    5  O   UNL     1     -10.756  12.912  65.319  1.00  0.00    -0.284 OA 
ENDROOT
BRANCH   2   6
HETATM    6  C   UNL     1     -11.838  11.434  69.682  1.00  0.00    -0.431 A  
HETATM    7  C   UNL     1     -12.654  11.551  70.810  1.00  0.00    -0.390 A  
HETATM    8  C   UNL     1     -12.663  10.539  71.774  1.00  0.00    -0.508 A  
HETATM    9  C   UNL     1     -10.998  10.327  69.542  1.00  0.00    -0.300 A  
HETATM   10  C   UNL     1     -11.860   9.402  71.614  1.00  0.00    -0.464 A  
HETATM   11  C   UNL     1     -11.010   9.316  70.502  1.00  0.00    -0.318 A  
BRANCH  10  12
HETATM   12  C   UNL     1     -12.007   8.231  72.554  1.00  0.00    -0.356 C  
BRANCH  12  13
HETATM   13  N   UNL     1     -10.730   7.808  73.131  1.00  0.00    -0.385 NA 
HETATM   14  H   UNL     1     -10.655   8.082  74.111  1.00  0.00     0.000 HD 
BRANCH  13  15
HETATM   15  C   UNL     1     -10.511   6.362  72.958  1.00  0.00    -0.230 C  
BRANCH  15  16
HETATM   16  C   UNL     1      -9.097   6.009  72.471  1.00  0.00    -0.135 C  
BRANCH  16  17
HETATM   17  C   UNL     1      -8.849   6.431  71.056  1.00  0.00    -0.139 A  
HETATM   18  C   UNL     1      -9.241   5.779  69.898  1.00  0.00    -0.144 A  
HETATM   19  N   UNL     1      -8.749   6.494  68.833  1.00  0.00    -0.127 NA 
HETATM   20  C   UNL     1     -10.024   4.536  69.677  1.00  0.00    -0.251 C  
HETATM   21  H   UNL     1      -8.878   6.239  67.854  1.00  0.00     0.000 HD 
HETATM   22  C   UNL     1      -8.061   7.599  69.266  1.00  0.00    -0.128 A  
HETATM   23  C   UNL     1      -7.393   8.589  68.534  1.00  0.00    -0.092 A  
HETATM   24  C   UNL     1      -6.774   9.619  69.249  1.00  0.00    -0.049 A  
HETATM   25  C   UNL     1      -6.824   9.655  70.641  1.00  0.00    -0.119 A  
HETATM   26  C   UNL     1      -7.488   8.652  71.356  1.00  0.00    -0.124 A  
HETATM   27  C   UNL     1      -8.118   7.600  70.657  1.00  0.00    -0.108 A  
ENDBRANCH  16  17
ENDBRANCH  15  16
ENDBRANCH  13  15
ENDBRANCH  12  13
ENDBRANCH  10  12
ENDBRANCH   2   6
BRANCH   3  28
HETATM   28  N   UNL     1     -12.441  14.148  66.331  1.00  0.00    -0.512 NA 
HETATM   29  H   UNL     1     -12.440  14.873  67.049  1.00  0.00     0.000 HD 
HETATM   30  O   UNL     1     -13.312  14.123  65.232  1.00  0.00    -0.715 OA 
HETATM   31  H   UNL     1     -13.902  14.868  65.243  1.00  0.00     0.000 HD 
ENDBRANCH   3  28
TORSDOF 7
ENDMDL
MODEL      128
REMARK 921   NORMALIZED FREE ENERGY PREDICTED BY IDOCK:   -4.57 KCAL/MOL
REMARK 922        TOTAL FREE ENERGY PREDICTED BY IDOCK:   -9.06 KCAL/MOL
REMARK 923 INTER-LIGAND FREE ENERGY PREDICTED BY IDOCK:   -9.14 KCAL/MOL
REMARK 924 INTRA-LIGAND FREE ENERGY PREDICTED BY IDOCK:    0.08 KCAL/MOL
REMARK 927      BINDING AFFINITY PREDICTED BY RF-SCORE:    0.00 PKD
ROOT
HETATM    1  C   UNL     1     -10.542  14.729  65.358  1.00  0.00    -0.395 C  
HETATM    2  C   UNL     1     -11.454  13.758  65.203  1.00  0.00    -0.329 C  
HETATM    3  C   UNL     1     -10.859  16.085  64.896  1.00  0.00    -0.372 C  
HETATM    4  H   UNL     1     -10.422  17.912  65.307  1.00  0.00     0.000 HD 
HETATM    5  O   UNL     1     -10.216  17.034  65.607  1.00  0.00    -0.556 OA 
ENDROOT
BRANCH   2   6
HETATM    6  C   UNL     1     -11.184  12.403  65.669  1.00  0.00    -0.360 A  
HETATM    7  C   UNL     1     -10.350  11.557  64.934  1.00  0.00    -0.340 A  
HETATM    8  C   UNL     1     -10.006  10.301  65.441  1.00  0.00    -0.371 A  
HETATM    9  C   UNL     1     -11.711  11.974  66.888  1.00  0.00    -0.342 A  
HETATM   10  C   UNL     1     -10.491   9.884  66.688  1.00  0.00    -0.239 A  
HETATM   11  C   UNL     1     -11.365  10.721  67.396  1.00  0.00    -0.239 A  
BRANCH  10  12
HETATM   12  C   UNL     1      -9.975   8.614  67.317  1.00  0.00    -0.219 C  
BRANCH  12  13
HETATM   13  N   UNL     1     -10.573   7.413  66.733  1.00  0.00    -0.503 NA 
HETATM   14  H   UNL     1     -10.672   7.499  65.722  1.00  0.00     0.000 HD 
BRANCH  13  15
HETATM   15  C   UNL     1      -9.821   6.201  67.100  1.00  0.00    -0.141 C  
BRANCH  15  16
HETATM   16  C   UNL     1     -10.494   5.368  68.202  1.00  0.00    -0.188 C  
BRANCH  16  17
HETATM   17  C   UNL     1     -10.109   5.811  69.580  1.00  0.00    -0.278 A  
HETATM   18  C   UNL     1      -8.970   5.467  70.290  1.00  0.00    -0.137 A  
HETATM   19  N   UNL     1      -9.060   6.057  71.528  1.00  0.00    -0.143 NA 
HETATM   20  C   UNL     1      -7.797   4.626  69.938  1.00  0.00    -0.061 C  
HETATM   21  H   UNL     1      -8.362   5.966  72.266  1.00  0.00     0.000 HD 
HETATM   22  C   UNL     1     -10.219   6.784  71.636  1.00  0.00    -0.191 A  
HETATM   23  C   UNL     1     -10.717   7.529  72.712  1.00  0.00    -0.382 A  
HETATM   24  C   UNL     1     -11.940   8.184  72.536  1.00  0.00    -0.410 A  
HETATM   25  C   UNL     1     -12.634   8.096  71.331  1.00  0.00    -0.301 A  
HETATM   26  C   UNL     1     -12.125   7.339  70.271  1.00  0.00     0.020 A  
HETATM   27  C   UNL     1     -10.893   6.666  70.424  1.00  0.00    -0.316 A  
ENDBRANCH  16  17
ENDBRANCH  15  16
ENDBRANCH  13  15
ENDBRANCH  12  13
ENDBRANCH  10  12
ENDBRANCH   2   6
BRANCH   3  28
HETATM   28  N   UNL     1     -11.659  16.361  63.917  1.00  0.00    -1.602 NA 
HETATM   29  H   UNL     1     -11.503  17.108  63.239  1.00  0.00     0.000 HD 
HETATM   30  O   UNL     1     -12.769  15.503  63.908  1.00  0.00    -0.746 OA 
HETATM   31  H   UNL     1     -13.356  15.706  63.189  1.00  0.00     0.000 HD 
ENDBRANCH   3  28
TORSDOF 7
ENDMDL
MODEL      129
REMARK 921   NORMALIZED FREE ENERGY PREDICTED BY IDOCK:   -4.56 KCAL/MOL
REMARK 922        TOTAL FREE ENERGY PREDICTED BY IDOCK:   -9.06 KCAL/MOL
REMARK 923 INTER-LIGAND FREE ENERGY PREDICTED BY IDOCK:   -7.46 KCAL/MOL
REMARK 924 INTRA-LIGAND FREE ENERGY PREDICTED BY IDOCK:   -1.60 KCAL/MOL
REMARK 927      BINDING AFFINITY PREDICTED BY RF-SCORE:    0.00 PKD
ROOT
HETATM    1  C   UNL     1      -6.859  18.319  68.918  1.00  0.00    -0.270 C  
HETATM    2  C   UNL     1      -8.046  18.779  68.496  1.00  0.00    -0.379 C  
HETATM    3  C   UNL     1      -6.175  19.014  70.014  1.00  0.00    -0.151 C  
HETATM    4  H   UNL     1      -4.945  18.639  71.445  1.00  0.00     0.000 HD 
HETATM    5  O   UNL     1      -5.388  18.189  70.735  1.00  0.00    -0.256 OA 
ENDROOT
BRANCH   2   6
HETATM    6  C   UNL     1      -8.766  18.103  67.423  1.00  0.00    -0.245 A  
HETATM    7  C   UNL     1      -8.427  16.798  67.057  1.00  0.00    -0.225 A  
HETATM    8  C   UNL     1      -9.191  16.118  66.106  1.00  0.00    -0.382 A  
HETATM    9  C   UNL     1      -9.841  18.743  66.802  1.00  0.00    -0.374 A  
HETATM   10  C   UNL     1     -10.302  16.736  65.516  1.00  0.00    -0.236 A  
HETATM   11  C   UNL     1     -10.606  18.062  65.856  1.00  0.00    -0.225 A  
BRANCH  10  12
HETATM   12  C   UNL     1     -11.233  15.942  64.633  1.00  0.00    -0.351 C  
BRANCH  12  13
HETATM   13  N   UNL     1     -11.015  14.499  64.738  1.00  0.00    -0.497 NA 
HETATM   14  H   UNL     1     -10.246  14.283  65.373  1.00  0.00     0.000 HD 
BRANCH  13  15
HETATM   15  C   UNL     1     -12.247  13.793  65.126  1.00  0.00    -0.431 C  
BRANCH  15  16
HETATM   16  C   UNL     1     -12.010  12.635  66.108  1.00  0.00    -0.458 C  
BRANCH  16  17
HETATM   17  C   UNL     1     -10.865  12.890  67.040  1.00  0.00    -0.282 A  
HETATM   18  C   UNL     1     -10.841  13.738  68.136  1.00  0.00    -0.246 A  
HETATM   19  N   UNL     1      -9.572  13.701  68.660  1.00  0.00    -0.379 NA 
HETATM   20  C   UNL     1     -11.885  14.602  68.745  1.00  0.00    -0.348 C  
HETATM   21  H   UNL     1      -9.263  14.237  69.471  1.00  0.00     0.000 HD 
HETATM   22  C   UNL     1      -8.775  12.842  67.944  1.00  0.00    -0.185 A  
HETATM   23  C   UNL     1      -7.427  12.509  68.117  1.00  0.00    -0.117 A  
HETATM   24  C   UNL     1      -6.868  11.584  67.230  1.00  0.00    -0.118 A  
HETATM   25  C   UNL     1      -7.630  11.017  66.211  1.00  0.00    -0.111 A  
HETATM   26  C   UNL     1      -8.974  11.369  66.048  1.00  0.00    -0.203 A  
HETATM   27  C   UNL     1      -9.561  12.302  66.930  1.00  0.00    -0.214 A  
ENDBRANCH  16  17
ENDBRANCH  15  16
ENDBRANCH  13  15
ENDBRANCH  12  13
ENDBRANCH  10  12
ENDBRANCH   2   6
BRANCH   3  28
HETATM   28  N   UNL     1      -6.296  20.275  70.276  1.00  0.00    -0.398 NA 
HETATM   29  H   UNL     1      -6.883  20.655  71.020  1.00  0.00     0.000 HD 
HETATM   30  O   UNL     1      -5.517  21.054  69.407  1.00  0.00    -0.380 OA 
HETATM   31  H   UNL     1      -5.606  21.980  69.600  1.00  0.00     0.000 HD 
ENDBRANCH   3  28
TORSDOF 7
ENDMDL
MODEL      130
REMARK 921   NORMALIZED FREE ENERGY PREDICTED BY IDOCK:   -4.55 KCAL/MOL
REMARK 922        TOTAL FREE ENERGY PREDICTED BY IDOCK:   -9.04 KCAL/MOL
REMARK 923 INTER-LIGAND FREE ENERGY PREDICTED BY IDOCK:   -8.33 KCAL/MOL
REMARK 924 INTRA-LIGAND FREE ENERGY PREDICTED BY IDOCK:   -0.71 KCAL/MOL
REMARK 927      BINDING AFFINITY PREDICTED BY RF-SCORE:    0.00 PKD
ROOT
HETATM    1  C   UNL     1      -9.888  17.023  66.016  1.00  0.00    -0.263 C  
HETATM    2  C   UNL     1     -10.529  16.165  66.823  1.00  0.00    -0.294 C  
HETATM    3  C   UNL     1      -9.894  18.452  66.347  1.00  0.00    -0.360 C  
HETATM    4  H   UNL     1      -8.799  20.016  66.109  1.00  0.00     0.000 HD 
HETATM    5  O   UNL     1      -8.795  19.090  65.894  1.00  0.00    -0.450 OA 
ENDROOT
BRANCH   2   6
HETATM    6  C   UNL     1     -10.528  14.735  66.538  1.00  0.00    -0.291 A  
HETATM    7  C   UNL     1     -11.686  14.104  66.076  1.00  0.00    -0.389 A  
HETATM    8  C   UNL     1     -11.647  12.759  65.700  1.00  0.00    -0.410 A  
HETATM    9  C   UNL     1      -9.344  14.006  66.668  1.00  0.00    -0.292 A  
HETATM   10  C   UNL     1     -10.450  12.035  65.780  1.00  0.00    -0.290 A  
HETATM   11  C   UNL     1      -9.305  12.664  66.290  1.00  0.00    -0.162 A  
BRANCH  10  12
HETATM   12  C   UNL     1     -10.364  10.644  65.203  1.00  0.00    -0.261 C  
BRANCH  12  13
HETATM   13  N   UNL     1      -9.606   9.727  66.055  1.00  0.00    -0.215 NA 
HETATM   14  H   UNL     1      -8.768  10.173  66.430  1.00  0.00     0.000 HD 
BRANCH  13  15
HETATM   15  C   UNL     1     -10.444   9.169  67.129  1.00  0.00    -0.255 C  
BRANCH  15  16
HETATM   16  C   UNL     1      -9.637   8.552  68.282  1.00  0.00    -0.156 C  
BRANCH  16  17
HETATM   17  C   UNL     1     -10.490   8.193  69.460  1.00  0.00    -0.227 A  
HETATM   18  C   UNL     1     -10.714   6.932  69.988  1.00  0.00    -0.243 A  
HETATM   19  N   UNL     1     -11.604   7.069  71.025  1.00  0.00    -0.303 NA 
HETATM   20  C   UNL     1     -10.189   5.592  69.614  1.00  0.00    -0.321 C  
HETATM   21  H   UNL     1     -11.957   6.298  71.592  1.00  0.00     0.000 HD 
HETATM   22  C   UNL     1     -11.954   8.385  71.194  1.00  0.00    -0.272 A  
HETATM   23  C   UNL     1     -12.830   8.973  72.114  1.00  0.00    -0.478 A  
HETATM   24  C   UNL     1     -12.991  10.361  72.061  1.00  0.00    -0.499 A  
HETATM   25  C   UNL     1     -12.301  11.127  71.125  1.00  0.00    -0.451 A  
HETATM   26  C   UNL     1     -11.436  10.521  70.207  1.00  0.00    -0.416 A  
HETATM   27  C   UNL     1     -11.258   9.121  70.239  1.00  0.00    -0.249 A  
ENDBRANCH  16  17
ENDBRANCH  15  16
ENDBRANCH  13  15
ENDBRANCH  12  13
ENDBRANCH  10  12
ENDBRANCH   2   6
BRANCH   3  28
HETATM   28  N   UNL     1     -10.838  19.053  66.996  1.00  0.00    -0.417 NA 
HETATM   29  H   UNL     1     -11.777  18.676  67.129  1.00  0.00     0.000 HD 
HETATM   30  O   UNL     1     -10.406  20.292  67.494  1.00  0.00    -0.364 OA 
HETATM   31  H   UNL     1     -11.099  20.733  67.970  1.00  0.00     0.000 HD 
ENDBRANCH   3  28
TORSDOF 7
ENDMDL
MODEL      131
REMARK 921   NORMALIZED FREE ENERGY PREDICTED BY IDOCK:   -4.55 KCAL/MOL
REMARK 922        TOTAL FREE ENERGY PREDICTED BY IDOCK:   -9.04 KCAL/MOL
REMARK 923 INTER-LIGAND FREE ENERGY PREDICTED BY IDOCK:   -8.29 KCAL/MOL
REMARK 924 INTRA-LIGAND FREE ENERGY PREDICTED BY IDOCK:   -0.75 KCAL/MOL
REMARK 927      BINDING AFFINITY PREDICTED BY RF-SCORE:    0.00 PKD
ROOT
HETATM    1  C   UNL     1      -8.618  18.540  66.586  1.00  0.00    -0.295 C  
HETATM    2  C   UNL     1      -8.989  18.272  67.847  1.00  0.00    -0.285 C  
HETATM    3  C   UNL     1      -8.011  19.841  66.284  1.00  0.00    -0.332 C  
HETATM    4  H   UNL     1      -6.768  20.624  65.041  1.00  0.00     0.000 HD 
HETATM    5  O   UNL     1      -7.161  19.781  65.237  1.00  0.00    -0.378 OA 
ENDROOT
BRANCH   2   6
HETATM    6  C   UNL     1      -9.576  16.983  68.190  1.00  0.00    -0.266 A  
HETATM    7  C   UNL     1     -10.304  16.830  69.373  1.00  0.00    -0.276 A  
HETATM    8  C   UNL     1     -10.957  15.624  69.642  1.00  0.00    -0.288 A  
HETATM    9  C   UNL     1      -9.463  15.913  67.299  1.00  0.00    -0.217 A  
HETATM   10  C   UNL     1     -10.889  14.563  68.728  1.00  0.00    -0.256 A  
HETATM   11  C   UNL     1     -10.118  14.710  67.566  1.00  0.00    -0.224 A  
BRANCH  10  12
HETATM   12  C   UNL     1     -11.741  13.334  68.927  1.00  0.00    -0.327 C  
BRANCH  12  13
HETATM   13  N   UNL     1     -10.989  12.214  69.493  1.00  0.00    -0.462 NA 
HETATM   14  H   UNL     1     -11.594  11.592  70.031  1.00  0.00     0.000 HD 
BRANCH  13  15
HETATM   15  C   UNL     1     -10.249  11.479  68.454  1.00  0.00    -0.205 C  
BRANCH  15  16
HETATM   16  C   UNL     1     -11.156  10.692  67.494  1.00  0.00    -0.367 C  
BRANCH  16  17
HETATM   17  C   UNL     1     -10.853  10.968  66.054  1.00  0.00    -0.189 A  
HETATM   18  C   UNL     1     -11.443  11.915  65.233  1.00  0.00    -0.253 A  
HETATM   19  N   UNL     1     -10.898  11.776  63.980  1.00  0.00    -0.351 NA 
HETATM   20  C   UNL     1     -12.486  12.942  65.493  1.00  0.00    -0.462 C  
HETATM   21  H   UNL     1     -11.154  12.339  63.169  1.00  0.00     0.000 HD 
HETATM   22  C   UNL     1      -9.960  10.774  63.967  1.00  0.00    -0.342 A  
HETATM   23  C   UNL     1      -9.174  10.289  62.915  1.00  0.00    -0.316 A  
HETATM   24  C   UNL     1      -8.283   9.248  63.197  1.00  0.00    -0.178 A  
HETATM   25  C   UNL     1      -8.185   8.717  64.481  1.00  0.00    -0.166 A  
HETATM   26  C   UNL     1      -8.985   9.208  65.517  1.00  0.00    -0.252 A  
HETATM   27  C   UNL     1      -9.894  10.257  65.258  1.00  0.00    -0.372 A  
ENDBRANCH  16  17
ENDBRANCH  15  16
ENDBRANCH  13  15
ENDBRANCH  12  13
ENDBRANCH  10  12
ENDBRANCH   2   6
BRANCH   3  28
HETATM   28  N   UNL     1      -8.251  20.935  66.932  1.00  0.00    -0.564 NA 
HETATM   29  H   UNL     1      -7.533  21.522  67.358  1.00  0.00     0.000 HD 
HETATM   30  O   UNL     1      -9.626  21.210  66.973  1.00  0.00    -0.664 OA 
HETATM   31  H   UNL     1      -9.802  22.014  67.449  1.00  0.00     0.000 HD 
ENDBRANCH   3  28
TORSDOF 7
ENDMDL
MODEL      132
REMARK 921   NORMALIZED FREE ENERGY PREDICTED BY IDOCK:   -4.54 KCAL/MOL
REMARK 922        TOTAL FREE ENERGY PREDICTED BY IDOCK:   -9.03 KCAL/MOL
REMARK 923 INTER-LIGAND FREE ENERGY PREDICTED BY IDOCK:   -6.46 KCAL/MOL
REMARK 924 INTRA-LIGAND FREE ENERGY PREDICTED BY IDOCK:   -2.57 KCAL/MOL
REMARK 927      BINDING AFFINITY PREDICTED BY RF-SCORE:    0.00 PKD
ROOT
HETATM    1  C   UNL     1      -8.900  11.526  67.027  1.00  0.00    -0.173 C  
HETATM    2  C   UNL     1      -8.811  12.183  68.193  1.00  0.00    -0.187 C  
HETATM    3  C   UNL     1      -9.537  10.204  67.002  1.00  0.00    -0.171 C  
HETATM    4  H   UNL     1     -10.521   9.075  65.795  1.00  0.00     0.000 HD 
HETATM    5  O   UNL     1     -10.109   9.931  65.811  1.00  0.00    -0.284 OA 
ENDROOT
BRANCH   2   6
HETATM    6  C   UNL     1      -8.204  13.508  68.254  1.00  0.00    -0.157 A  
HETATM    7  C   UNL     1      -7.816  14.162  67.082  1.00  0.00    -0.063 A  
HETATM    8  C   UNL     1      -7.338  15.474  67.140  1.00  0.00    -0.226 A  
HETATM    9  C   UNL     1      -8.070  14.150  69.487  1.00  0.00     0.458 A  
HETATM   10  C   UNL     1      -7.249  16.142  68.368  1.00  0.00    -0.135 A  
HETATM   11  C   UNL     1      -7.597  15.461  69.543  1.00  0.00    -0.212 A  
BRANCH  10  12
HETATM   12  C   UNL     1      -6.912  17.612  68.410  1.00  0.00    -0.222 C  
BRANCH  12  13
HETATM   13  N   UNL     1      -8.101  18.460  68.504  1.00  0.00    -0.316 NA 
HETATM   14  H   UNL     1      -7.851  19.446  68.575  1.00  0.00     0.000 HD 
BRANCH  13  15
HETATM   15  C   UNL     1      -9.027  18.218  67.385  1.00  0.00    -0.257 C  
BRANCH  15  16
HETATM   16  C   UNL     1     -10.480  17.987  67.829  1.00  0.00    -0.421 C  
BRANCH  16  17
HETATM   17  C   UNL     1     -10.863  16.539  67.830  1.00  0.00    -0.304 A  
HETATM   18  C   UNL     1     -10.927  15.681  66.743  1.00  0.00    -0.230 A  
HETATM   19  N   UNL     1     -11.377  14.466  67.200  1.00  0.00    -0.328 NA 
HETATM   20  C   UNL     1     -10.622  15.881  65.302  1.00  0.00    -0.441 C  
HETATM   21  H   UNL     1     -11.530  13.646  66.614  1.00  0.00     0.000 HD 
HETATM   22  C   UNL     1     -11.594  14.507  68.555  1.00  0.00    -0.313 A  
HETATM   23  C   UNL     1     -12.057  13.511  69.423  1.00  0.00    -0.340 A  
HETATM   24  C   UNL     1     -12.176  13.836  70.778  1.00  0.00    -0.437 A  
HETATM   25  C   UNL     1     -11.843  15.106  71.243  1.00  0.00    -0.403 A  
HETATM   26  C   UNL     1     -11.390  16.091  70.358  1.00  0.00    -0.405 A  
HETATM   27  C   UNL     1     -11.264  15.789  68.985  1.00  0.00    -0.319 A  
ENDBRANCH  16  17
ENDBRANCH  15  16
ENDBRANCH  13  15
ENDBRANCH  12  13
ENDBRANCH  10  12
ENDBRANCH   2   6
BRANCH   3  28
HETATM   28  N   UNL     1      -9.555   9.376  67.996  1.00  0.00    -0.137 NA 
HETATM   29  H   UNL     1      -8.735   9.121  68.549  1.00  0.00     0.000 HD 
HETATM   30  O   UNL     1     -10.846   8.875  68.218  1.00  0.00    -0.434 OA 
HETATM   31  H   UNL     1     -10.859   8.267  68.949  1.00  0.00     0.000 HD 
ENDBRANCH   3  28
TORSDOF 7
ENDMDL
MODEL      133
REMARK 921   NORMALIZED FREE ENERGY PREDICTED BY IDOCK:   -4.53 KCAL/MOL
REMARK 922        TOTAL FREE ENERGY PREDICTED BY IDOCK:   -9.01 KCAL/MOL
REMARK 923 INTER-LIGAND FREE ENERGY PREDICTED BY IDOCK:   -7.84 KCAL/MOL
REMARK 924 INTRA-LIGAND FREE ENERGY PREDICTED BY IDOCK:   -1.17 KCAL/MOL
REMARK 927      BINDING AFFINITY PREDICTED BY RF-SCORE:    0.00 PKD
ROOT
HETATM    1  C   UNL     1     -10.261   7.228  66.849  1.00  0.00    -0.340 C  
HETATM    2  C   UNL     1     -10.169   8.170  67.800  1.00  0.00    -0.288 C  
HETATM    3  C   UNL     1      -9.878   5.850  67.174  1.00  0.00    -0.143 C  
HETATM    4  H   UNL     1     -10.301   4.049  66.645  1.00  0.00     0.000 HD 
HETATM    5  O   UNL     1     -10.549   4.942  66.435  1.00  0.00    -0.297 OA 
ENDROOT
BRANCH   2   6
HETATM    6  C   UNL     1     -10.561   9.546  67.522  1.00  0.00    -0.338 A  
HETATM    7  C   UNL     1     -10.344  10.102  66.258  1.00  0.00    -0.245 A  
HETATM    8  C   UNL     1     -10.821  11.382  65.966  1.00  0.00    -0.306 A  
HETATM    9  C   UNL     1     -11.213  10.291  68.507  1.00  0.00    -0.271 A  
HETATM   10  C   UNL     1     -11.521  12.115  66.934  1.00  0.00    -0.414 A  
HETATM   11  C   UNL     1     -11.693  11.568  68.214  1.00  0.00    -0.371 A  
BRANCH  10  12
HETATM   12  C   UNL     1     -12.195  13.413  66.563  1.00  0.00    -0.356 C  
BRANCH  12  13
HETATM   13  N   UNL     1     -12.074  13.723  65.138  1.00  0.00    -0.377 NA 
HETATM   14  H   UNL     1     -12.915  13.457  64.626  1.00  0.00     0.000 HD 
BRANCH  13  15
HETATM   15  C   UNL     1     -11.737  15.139  64.919  1.00  0.00    -0.290 C  
BRANCH  15  16
HETATM   16  C   UNL     1     -10.225  15.412  64.875  1.00  0.00    -0.162 C  
BRANCH  16  17
HETATM   17  C   UNL     1      -9.712  16.042  66.133  1.00  0.00    -0.353 A  
HETATM   18  C   UNL     1      -9.005  15.431  67.156  1.00  0.00    -0.218 A  
HETATM   19  N   UNL     1      -8.792  16.374  68.133  1.00  0.00    -0.188 NA 
HETATM   20  C   UNL     1      -8.513  14.040  67.329  1.00  0.00    -0.220 C  
HETATM   21  H   UNL     1      -8.302  16.200  69.010  1.00  0.00     0.000 HD 
HETATM   22  C   UNL     1      -9.328  17.583  67.766  1.00  0.00    -0.257 A  
HETATM   23  C   UNL     1      -9.353  18.802  68.453  1.00  0.00    -0.382 A  
HETATM   24  C   UNL     1      -9.972  19.888  67.826  1.00  0.00    -0.552 A  
HETATM   25  C   UNL     1     -10.542  19.755  66.562  1.00  0.00    -0.580 A  
HETATM   26  C   UNL     1     -10.516  18.526  65.895  1.00  0.00    -0.379 A  
HETATM   27  C   UNL     1      -9.899  17.415  66.508  1.00  0.00    -0.310 A  
ENDBRANCH  16  17
ENDBRANCH  15  16
ENDBRANCH  13  15
ENDBRANCH  12  13
ENDBRANCH  10  12
ENDBRANCH   2   6
BRANCH   3  28
HETATM   28  N   UNL     1      -8.995   5.519  68.060  1.00  0.00    -0.108 NA 
HETATM   29  H   UNL     1      -9.212   5.293  69.032  1.00  0.00     0.000 HD 
HETATM   30  O   UNL     1      -7.703   5.512  67.516  1.00  0.00    -0.094 OA 
HETATM   31  H   UNL     1      -7.055   5.269  68.167  1.00  0.00     0.000 HD 
ENDBRANCH   3  28
TORSDOF 7
ENDMDL
MODEL      134
REMARK 921   NORMALIZED FREE ENERGY PREDICTED BY IDOCK:   -4.52 KCAL/MOL
REMARK 922        TOTAL FREE ENERGY PREDICTED BY IDOCK:   -9.01 KCAL/MOL
REMARK 923 INTER-LIGAND FREE ENERGY PREDICTED BY IDOCK:   -6.24 KCAL/MOL
REMARK 924 INTRA-LIGAND FREE ENERGY PREDICTED BY IDOCK:   -2.76 KCAL/MOL
REMARK 927      BINDING AFFINITY PREDICTED BY RF-SCORE:    0.00 PKD
ROOT
HETATM    1  C   UNL     1     -11.540  12.443  66.229  1.00  0.00    -0.449 C  
HETATM    2  C   UNL     1     -10.691  11.411  66.114  1.00  0.00    -0.320 C  
HETATM    3  C   UNL     1     -11.840  13.253  65.043  1.00  0.00    -0.352 C  
HETATM    4  H   UNL     1     -13.265  14.328  64.325  1.00  0.00     0.000 HD 
HETATM    5  O   UNL     1     -13.071  13.803  65.093  1.00  0.00    -0.762 OA 
ENDROOT
BRANCH   2   6
HETATM    6  C   UNL     1     -10.385  10.570  67.265  1.00  0.00    -0.275 A  
HETATM    7  C   UNL     1     -10.880   9.266  67.340  1.00  0.00    -0.165 A  
HETATM    8  C   UNL     1     -10.492   8.430  68.390  1.00  0.00    -0.208 A  
HETATM    9  C   UNL     1      -9.539  11.051  68.266  1.00  0.00    -0.172 A  
HETATM   10  C   UNL     1      -9.604   8.890  69.371  1.00  0.00    -0.163 A  
HETATM   11  C   UNL     1      -9.149  10.215  69.313  1.00  0.00    -0.208 A  
BRANCH  10  12
HETATM   12  C   UNL     1      -9.042   7.935  70.395  1.00  0.00    -0.154 C  
BRANCH  12  13
HETATM   13  N   UNL     1      -8.986   6.556  69.908  1.00  0.00    -0.143 NA 
HETATM   14  H   UNL     1      -9.501   6.448  69.034  1.00  0.00     0.000 HD 
BRANCH  13  15
HETATM   15  C   UNL     1      -7.597   6.086  69.775  1.00  0.00    -0.081 C  
BRANCH  15  16
HETATM   16  C   UNL     1      -7.349   5.249  68.511  1.00  0.00    -0.071 C  
BRANCH  16  17
HETATM   17  C   UNL     1      -7.957   5.856  67.284  1.00  0.00    -0.102 A  
HETATM   18  C   UNL     1      -8.874   5.279  66.420  1.00  0.00    -0.123 A  
HETATM   19  N   UNL     1      -9.108   6.175  65.406  1.00  0.00    -0.372 NA 
HETATM   20  C   UNL     1      -9.552   3.957  66.433  1.00  0.00    -0.204 C  
HETATM   21  H   UNL     1      -9.737   6.010  64.620  1.00  0.00     0.000 HD 
HETATM   22  C   UNL     1      -8.381   7.323  65.594  1.00  0.00    -0.140 A  
HETATM   23  C   UNL     1      -8.306   8.481  64.810  1.00  0.00    -0.163 A  
HETATM   24  C   UNL     1      -7.475   9.513  65.255  1.00  0.00    -0.107 A  
HETATM   25  C   UNL     1      -6.749   9.390  66.437  1.00  0.00    -0.075 A  
HETATM   26  C   UNL     1      -6.830   8.222  67.203  1.00  0.00    -0.070 A  
HETATM   27  C   UNL     1      -7.660   7.164  66.774  1.00  0.00    -0.093 A  
ENDBRANCH  16  17
ENDBRANCH  15  16
ENDBRANCH  13  15
ENDBRANCH  12  13
ENDBRANCH  10  12
ENDBRANCH   2   6
BRANCH   3  28
HETATM   28  N   UNL     1     -11.029  13.436  64.051  1.00  0.00    -0.556 NA 
HETATM   29  H   UNL     1     -10.198  14.027  64.089  1.00  0.00     0.000 HD 
HETATM   30  O   UNL     1     -11.439  12.718  62.918  1.00  0.00    -0.716 OA 
HETATM   31  H   UNL     1     -10.844  12.852  62.190  1.00  0.00     0.000 HD 
ENDBRANCH   3  28
TORSDOF 7
ENDMDL
MODEL      135
REMARK 921   NORMALIZED FREE ENERGY PREDICTED BY IDOCK:   -4.52 KCAL/MOL
REMARK 922        TOTAL FREE ENERGY PREDICTED BY IDOCK:   -9.00 KCAL/MOL
REMARK 923 INTER-LIGAND FREE ENERGY PREDICTED BY IDOCK:   -7.61 KCAL/MOL
REMARK 924 INTRA-LIGAND FREE ENERGY PREDICTED BY IDOCK:   -1.39 KCAL/MOL
REMARK 927      BINDING AFFINITY PREDICTED BY RF-SCORE:    0.00 PKD
ROOT
HETATM    1  C   UNL     1      -9.728   5.538  70.220  1.00  0.00    -0.242 C  
HETATM    2  C   UNL     1      -8.844   5.933  69.292  1.00  0.00    -0.118 C  
HETATM    3  C   UNL     1      -9.404   4.384  71.066  1.00  0.00    -0.149 C  
HETATM    4  H   UNL     1      -9.785   3.705  72.825  1.00  0.00     0.000 HD 
HETATM    5  O   UNL     1      -9.994   4.452  72.277  1.00  0.00    -0.164 OA 
ENDROOT
BRANCH   2   6
HETATM    6  C   UNL     1      -9.120   7.088  68.447  1.00  0.00    -0.127 A  
HETATM    7  C   UNL     1     -10.323   7.177  67.742  1.00  0.00    -0.257 A  
HETATM    8  C   UNL     1     -10.629   8.335  67.023  1.00  0.00    -0.328 A  
HETATM    9  C   UNL     1      -8.203   8.140  68.393  1.00  0.00    -0.129 A  
HETATM   10  C   UNL     1      -9.736   9.414  67.006  1.00  0.00    -0.233 A  
HETATM   11  C   UNL     1      -8.510   9.298  67.678  1.00  0.00    -0.116 A  
BRANCH  10  12
HETATM   12  C   UNL     1     -10.144  10.728  66.388  1.00  0.00    -0.227 C  
BRANCH  12  13
HETATM   13  N   UNL     1     -11.503  11.126  66.757  1.00  0.00    -0.354 NA 
HETATM   14  H   UNL     1     -11.951  10.424  67.347  1.00  0.00     0.000 HD 
BRANCH  13  15
HETATM   15  C   UNL     1     -11.524  12.454  67.393  1.00  0.00    -0.352 C  
BRANCH  15  16
HETATM   16  C   UNL     1     -10.765  12.509  68.727  1.00  0.00    -0.235 C  
BRANCH  16  17
HETATM   17  C   UNL     1     -11.663  12.338  69.913  1.00  0.00    -0.346 A  
HETATM   18  C   UNL     1     -12.010  11.156  70.547  1.00  0.00    -0.380 A  
HETATM   19  N   UNL     1     -12.898  11.468  71.548  1.00  0.00    -0.409 NA 
HETATM   20  C   UNL     1     -11.607   9.746  70.306  1.00  0.00    -0.283 C  
HETATM   21  H   UNL     1     -13.329  10.787  72.174  1.00  0.00     0.000 HD 
HETATM   22  C   UNL     1     -13.127  12.820  71.591  1.00  0.00    -0.331 A  
HETATM   23  C   UNL     1     -13.958  13.567  72.435  1.00  0.00    -0.638 A  
HETATM   24  C   UNL     1     -13.989  14.953  72.254  1.00  0.00    -0.602 A  
HETATM   25  C   UNL     1     -13.218  15.565  71.269  1.00  0.00    -0.588 A  
HETATM   26  C   UNL     1     -12.400  14.801  70.429  1.00  0.00    -0.402 A  
HETATM   27  C   UNL     1     -12.353  13.399  70.590  1.00  0.00    -0.423 A  
ENDBRANCH  16  17
ENDBRANCH  15  16
ENDBRANCH  13  15
ENDBRANCH  12  13
ENDBRANCH  10  12
ENDBRANCH   2   6
BRANCH   3  28
HETATM   28  N   UNL     1      -8.645   3.399  70.710  1.00  0.00    -0.069 NA 
HETATM   29  H   UNL     1      -7.647   3.483  70.511  1.00  0.00     0.000 HD 
HETATM   30  O   UNL     1      -9.368   2.199  70.631  1.00  0.00    -0.112 OA 
HETATM   31  H   UNL     1      -8.810   1.477  70.370  1.00  0.00     0.000 HD 
ENDBRANCH   3  28
TORSDOF 7
ENDMDL
MODEL      136
REMARK 921   NORMALIZED FREE ENERGY PREDICTED BY IDOCK:   -4.51 KCAL/MOL
REMARK 922        TOTAL FREE ENERGY PREDICTED BY IDOCK:   -8.98 KCAL/MOL
REMARK 923 INTER-LIGAND FREE ENERGY PREDICTED BY IDOCK:   -8.35 KCAL/MOL
REMARK 924 INTRA-LIGAND FREE ENERGY PREDICTED BY IDOCK:   -0.63 KCAL/MOL
REMARK 927      BINDING AFFINITY PREDICTED BY RF-SCORE:    0.00 PKD
ROOT
HETATM    1  C   UNL     1      -7.518  18.241  66.017  1.00  0.00    -0.255 C  
HETATM    2  C   UNL     1      -7.815  17.721  67.218  1.00  0.00    -0.225 C  
HETATM    3  C   UNL     1      -7.585  19.695  65.835  1.00  0.00    -0.310 C  
HETATM    4  H   UNL     1      -6.774  21.076  64.769  1.00  0.00     0.000 HD 
HETATM    5  O   UNL     1      -6.730  20.134  64.888  1.00  0.00    -0.298 OA 
ENDROOT
BRANCH   2   6
HETATM    6  C   UNL     1      -7.739  16.283  67.445  1.00  0.00    -0.187 A  
HETATM    7  C   UNL     1      -8.893  15.497  67.391  1.00  0.00    -0.203 A  
HETATM    8  C   UNL     1      -8.798  14.107  67.499  1.00  0.00    -0.202 A  
HETATM    9  C   UNL     1      -6.496  15.682  67.654  1.00  0.00    -0.191 A  
HETATM   10  C   UNL     1      -7.548  13.493  67.658  1.00  0.00    -0.181 A  
HETATM   11  C   UNL     1      -6.401  14.294  67.758  1.00  0.00    -0.168 A  
BRANCH  10  12
HETATM   12  C   UNL     1      -7.426  11.991  67.588  1.00  0.00    -0.132 C  
BRANCH  12  13
HETATM   13  N   UNL     1      -7.297  11.500  66.215  1.00  0.00    -0.372 NA 
HETATM   14  H   UNL     1      -6.319  11.370  65.956  1.00  0.00     0.000 HD 
BRANCH  13  15
HETATM   15  C   UNL     1      -8.077  10.269  66.005  1.00  0.00    -0.139 C  
BRANCH  15  16
HETATM   16  C   UNL     1      -9.198  10.069  67.037  1.00  0.00    -0.167 C  
BRANCH  16  17
HETATM   17  C   UNL     1     -10.345  11.011  66.837  1.00  0.00    -0.279 A  
HETATM   18  C   UNL     1     -11.194  11.526  67.804  1.00  0.00    -0.279 A  
HETATM   19  N   UNL     1     -12.131  12.300  67.163  1.00  0.00    -0.528 NA 
HETATM   20  C   UNL     1     -11.233  11.360  69.280  1.00  0.00    -0.342 C  
HETATM   21  H   UNL     1     -12.890  12.797  67.629  1.00  0.00     0.000 HD 
HETATM   22  C   UNL     1     -11.906  12.314  65.809  1.00  0.00    -0.352 A  
HETATM   23  C   UNL     1     -12.613  12.955  64.785  1.00  0.00    -0.493 A  
HETATM   24  C   UNL     1     -12.146  12.798  63.477  1.00  0.00    -0.642 A  
HETATM   25  C   UNL     1     -11.016  12.028  63.207  1.00  0.00    -0.399 A  
HETATM   26  C   UNL     1     -10.328  11.387  64.242  1.00  0.00    -0.383 A  
HETATM   27  C   UNL     1     -10.781  11.529  65.572  1.00  0.00    -0.328 A  
ENDBRANCH  16  17
ENDBRANCH  15  16
ENDBRANCH  13  15
ENDBRANCH  12  13
ENDBRANCH  10  12
ENDBRANCH   2   6
BRANCH   3  28
HETATM   28  N   UNL     1      -8.372  20.484  66.492  1.00  0.00    -0.540 NA 
HETATM   29  H   UNL     1      -9.390  20.469  66.426  1.00  0.00     0.000 HD 
HETATM   30  O   UNL     1      -7.645  21.364  67.308  1.00  0.00    -0.750 OA 
HETATM   31  H   UNL     1      -8.222  21.944  67.791  1.00  0.00     0.000 HD 
ENDBRANCH   3  28
TORSDOF 7
ENDMDL
MODEL      137
REMARK 921   NORMALIZED FREE ENERGY PREDICTED BY IDOCK:   -4.50 KCAL/MOL
REMARK 922        TOTAL FREE ENERGY PREDICTED BY IDOCK:   -8.97 KCAL/MOL
REMARK 923 INTER-LIGAND FREE ENERGY PREDICTED BY IDOCK:   -8.25 KCAL/MOL
REMARK 924 INTRA-LIGAND FREE ENERGY PREDICTED BY IDOCK:   -0.72 KCAL/MOL
REMARK 927      BINDING AFFINITY PREDICTED BY RF-SCORE:    0.00 PKD
ROOT
HETATM    1  C   UNL     1     -10.191   4.460  65.841  1.00  0.00    -0.252 C  
HETATM    2  C   UNL     1      -9.806   4.006  67.043  1.00  0.00    -0.151 C  
HETATM    3  C   UNL     1      -9.897   3.658  64.649  1.00  0.00    -0.181 C  
HETATM    4  H   UNL     1     -10.607   3.330  62.892  1.00  0.00     0.000 HD 
HETATM    5  O   UNL     1     -10.798   3.850  63.664  1.00  0.00    -0.240 OA 
ENDROOT
BRANCH   2   6
HETATM    6  C   UNL     1     -10.099   4.764  68.253  1.00  0.00    -0.109 A  
HETATM    7  C   UNL     1      -9.728   4.269  69.506  1.00  0.00    -0.272 A  
HETATM    8  C   UNL     1      -9.912   5.051  70.649  1.00  0.00    -0.300 A  
HETATM    9  C   UNL     1     -10.698   6.022  68.152  1.00  0.00    -0.353 A  
HETATM   10  C   UNL     1     -10.465   6.334  70.549  1.00  0.00    -0.274 A  
HETATM   11  C   UNL     1     -10.878   6.804  69.293  1.00  0.00    -0.303 A  
BRANCH  10  12
HETATM   12  C   UNL     1     -10.493   7.246  71.750  1.00  0.00    -0.197 C  
BRANCH  12  13
HETATM   13  N   UNL     1     -11.781   7.919  71.917  1.00  0.00    -0.282 NA 
HETATM   14  H   UNL     1     -12.271   7.586  72.747  1.00  0.00     0.000 HD 
BRANCH  13  15
HETATM   15  C   UNL     1     -11.629   9.383  71.933  1.00  0.00    -0.278 C  
BRANCH  15  16
HETATM   16  C   UNL     1     -12.888  10.138  71.481  1.00  0.00    -0.548 C  
BRANCH  16  17
HETATM   17  C   UNL     1     -12.573  11.401  70.741  1.00  0.00    -0.409 A  
HETATM   18  C   UNL     1     -11.911  11.528  69.530  1.00  0.00    -0.351 A  
HETATM   19  N   UNL     1     -11.796  12.870  69.260  1.00  0.00    -0.314 NA 
HETATM   20  C   UNL     1     -11.354  10.518  68.593  1.00  0.00    -0.315 C  
HETATM   21  H   UNL     1     -11.341  13.259  68.433  1.00  0.00     0.000 HD 
HETATM   22  C   UNL     1     -12.377  13.618  70.253  1.00  0.00    -0.322 A  
HETATM   23  C   UNL     1     -12.481  15.007  70.391  1.00  0.00    -0.407 A  
HETATM   24  C   UNL     1     -13.143  15.499  71.520  1.00  0.00    -0.573 A  
HETATM   25  C   UNL     1     -13.679  14.633  72.471  1.00  0.00    -0.572 A  
HETATM   26  C   UNL     1     -13.556  13.248  72.321  1.00  0.00    -0.703 A  
HETATM   27  C   UNL     1     -12.891  12.726  71.191  1.00  0.00    -0.315 A  
ENDBRANCH  16  17
ENDBRANCH  15  16
ENDBRANCH  13  15
ENDBRANCH  12  13
ENDBRANCH  10  12
ENDBRANCH   2   6
BRANCH   3  28
HETATM   28  N   UNL     1      -8.889   2.854  64.533  1.00  0.00    -0.105 NA 
HETATM   29  H   UNL     1      -7.917   3.155  64.458  1.00  0.00     0.000 HD 
HETATM   30  O   UNL     1      -9.305   1.514  64.521  1.00  0.00    -0.122 OA 
HETATM   31  H   UNL     1      -8.565   0.924  64.435  1.00  0.00     0.000 HD 
ENDBRANCH   3  28
TORSDOF 7
ENDMDL
MODEL      138
REMARK 921   NORMALIZED FREE ENERGY PREDICTED BY IDOCK:   -4.48 KCAL/MOL
REMARK 922        TOTAL FREE ENERGY PREDICTED BY IDOCK:   -8.94 KCAL/MOL
REMARK 923 INTER-LIGAND FREE ENERGY PREDICTED BY IDOCK:   -5.91 KCAL/MOL
REMARK 924 INTRA-LIGAND FREE ENERGY PREDICTED BY IDOCK:   -3.03 KCAL/MOL
REMARK 927      BINDING AFFINITY PREDICTED BY RF-SCORE:    0.00 PKD
ROOT
HETATM    1  C   UNL     1     -11.744   9.490  71.362  1.00  0.00    -0.465 C  
HETATM    2  C   UNL     1     -11.437   8.689  70.330  1.00  0.00    -0.151 C  
HETATM    3  C   UNL     1     -12.496  10.723  71.105  1.00  0.00    -0.414 C  
HETATM    4  H   UNL     1     -13.736  11.895  71.995  1.00  0.00     0.000 HD 
HETATM    5  O   UNL     1     -13.249  11.096  72.161  1.00  0.00    -0.481 OA 
ENDROOT
BRANCH   2   6
HETATM    6  C   UNL     1     -10.708   7.445  70.548  1.00  0.00    -0.247 A  
HETATM    7  C   UNL     1     -11.132   6.262  69.938  1.00  0.00    -0.469 A  
HETATM    8  C   UNL     1     -10.368   5.099  70.061  1.00  0.00    -0.347 A  
HETATM    9  C   UNL     1      -9.544   7.452  71.320  1.00  0.00    -0.166 A  
HETATM   10  C   UNL     1      -9.172   5.111  70.792  1.00  0.00    -0.188 A  
HETATM   11  C   UNL     1      -8.779   6.291  71.439  1.00  0.00    -0.135 A  
BRANCH  10  12
HETATM   12  C   UNL     1      -8.257   3.912  70.770  1.00  0.00    -0.066 C  
BRANCH  12  13
HETATM   13  N   UNL     1      -7.810   3.569  69.420  1.00  0.00    -0.051 NA 
HETATM   14  H   UNL     1      -8.594   3.521  68.769  1.00  0.00     0.000 HD 
BRANCH  13  15
HETATM   15  C   UNL     1      -6.769   4.494  68.943  1.00  0.00    -0.046 C  
BRANCH  15  16
HETATM   16  C   UNL     1      -6.861   4.801  67.440  1.00  0.00    -0.056 C  
BRANCH  16  17
HETATM   17  C   UNL     1      -8.153   5.454  67.059  1.00  0.00    -0.101 A  
HETATM   18  C   UNL     1      -9.219   4.887  66.379  1.00  0.00    -0.138 A  
HETATM   19  N   UNL     1     -10.165   5.867  66.199  1.00  0.00    -0.415 NA 
HETATM   20  C   UNL     1      -9.446   3.514  65.859  1.00  0.00    -0.143 C  
HETATM   21  H   UNL     1     -11.055   5.734  65.718  1.00  0.00     0.000 HD 
HETATM   22  C   UNL     1      -9.750   7.051  66.756  1.00  0.00    -0.184 A  
HETATM   23  C   UNL     1     -10.384   8.298  66.798  1.00  0.00    -0.361 A  
HETATM   24  C   UNL     1      -9.720   9.342  67.449  1.00  0.00    -0.205 A  
HETATM   25  C   UNL     1      -8.472   9.144  68.034  1.00  0.00    -0.121 A  
HETATM   26  C   UNL     1      -7.849   7.893  67.974  1.00  0.00    -0.127 A  
HETATM   27  C   UNL     1      -8.498   6.823  67.320  1.00  0.00    -0.120 A  
ENDBRANCH  16  17
ENDBRANCH  15  16
ENDBRANCH  13  15
ENDBRANCH  12  13
ENDBRANCH  10  12
ENDBRANCH   2   6
BRANCH   3  28
HETATM   28  N   UNL     1     -12.454  11.396  70.001  1.00  0.00    -0.199 NA 
HETATM   29  H   UNL     1     -12.949  11.133  69.147  1.00  0.00     0.000 HD 
HETATM   30  O   UNL     1     -11.642  12.533  70.126  1.00  0.00    -0.520 OA 
HETATM   31  H   UNL     1     -11.612  13.026  69.315  1.00  0.00     0.000 HD 
ENDBRANCH   3  28
TORSDOF 7
ENDMDL
MODEL      139
REMARK 921   NORMALIZED FREE ENERGY PREDICTED BY IDOCK:   -4.48 KCAL/MOL
REMARK 922        TOTAL FREE ENERGY PREDICTED BY IDOCK:   -8.94 KCAL/MOL
REMARK 923 INTER-LIGAND FREE ENERGY PREDICTED BY IDOCK:   -5.95 KCAL/MOL
REMARK 924 INTRA-LIGAND FREE ENERGY PREDICTED BY IDOCK:   -2.98 KCAL/MOL
REMARK 927      BINDING AFFINITY PREDICTED BY RF-SCORE:    0.00 PKD
ROOT
HETATM    1  C   UNL     1      -8.125  12.504  68.327  1.00  0.00    -0.165 C  
HETATM    2  C   UNL     1      -7.172  13.249  67.746  1.00  0.00    -0.151 C  
HETATM    3  C   UNL     1      -8.107  11.050  68.133  1.00  0.00    -0.122 C  
HETATM    4  H   UNL     1      -8.644   9.445  69.048  1.00  0.00     0.000 HD 
HETATM    5  O   UNL     1      -8.654  10.387  69.173  1.00  0.00    -0.149 OA 
ENDROOT
BRANCH   2   6
HETATM    6  C   UNL     1      -7.143  14.695  67.932  1.00  0.00    -0.170 A  
HETATM    7  C   UNL     1      -6.999  15.241  69.210  1.00  0.00    -0.166 A  
HETATM    8  C   UNL     1      -6.861  16.622  69.369  1.00  0.00    -0.218 A  
HETATM    9  C   UNL     1      -7.196  15.536  66.818  1.00  0.00     0.196 A  
HETATM   10  C   UNL     1      -6.862  17.467  68.251  1.00  0.00    -0.200 A  
HETATM   11  C   UNL     1      -7.054  16.915  66.977  1.00  0.00    -0.234 A  
BRANCH  10  12
HETATM   12  C   UNL     1      -6.529  18.930  68.405  1.00  0.00    -0.230 C  
BRANCH  12  13
HETATM   13  N   UNL     1      -7.697  19.795  68.233  1.00  0.00    -0.311 NA 
HETATM   14  H   UNL     1      -8.092  19.707  67.297  1.00  0.00     0.000 HD 
BRANCH  13  15
HETATM   15  C   UNL     1      -8.711  19.547  69.271  1.00  0.00     0.045 C  
BRANCH  15  16
HETATM   16  C   UNL     1     -10.150  19.527  68.734  1.00  0.00    -0.519 C  
BRANCH  16  17
HETATM   17  C   UNL     1     -10.343  18.531  67.632  1.00  0.00    -0.442 A  
HETATM   18  C   UNL     1     -10.409  18.780  66.270  1.00  0.00    -0.448 A  
HETATM   19  N   UNL     1     -10.652  17.582  65.642  1.00  0.00    -0.556 NA 
HETATM   20  C   UNL     1     -10.281  20.033  65.483  1.00  0.00    -0.229 C  
HETATM   21  H   UNL     1     -10.758  17.466  64.634  1.00  0.00     0.000 HD 
HETATM   22  C   UNL     1     -10.732  16.561  66.556  1.00  0.00    -0.144 A  
HETATM   23  C   UNL     1     -10.973  15.196  66.363  1.00  0.00    -0.329 A  
HETATM   24  C   UNL     1     -10.993  14.374  67.493  1.00  0.00    -0.299 A  
HETATM   25  C   UNL     1     -10.778  14.900  68.765  1.00  0.00    -0.252 A  
HETATM   26  C   UNL     1     -10.547  16.268  68.940  1.00  0.00    -0.284 A  
HETATM   27  C   UNL     1     -10.525  17.119  67.814  1.00  0.00    -0.362 A  
ENDBRANCH  16  17
ENDBRANCH  15  16
ENDBRANCH  13  15
ENDBRANCH  12  13
ENDBRANCH  10  12
ENDBRANCH   2   6
BRANCH   3  28
HETATM   28  N   UNL     1      -7.631  10.451  67.090  1.00  0.00    -0.095 NA 
HETATM   29  H   UNL     1      -6.849  10.798  66.534  1.00  0.00     0.000 HD 
HETATM   30  O   UNL     1      -8.327   9.263  66.823  1.00  0.00    -0.120 OA 
HETATM   31  H   UNL     1      -7.977   8.823  66.057  1.00  0.00     0.000 HD 
ENDBRANCH   3  28
TORSDOF 7
ENDMDL
MODEL      140
REMARK 921   NORMALIZED FREE ENERGY PREDICTED BY IDOCK:   -4.46 KCAL/MOL
REMARK 922        TOTAL FREE ENERGY PREDICTED BY IDOCK:   -8.91 KCAL/MOL
REMARK 923 INTER-LIGAND FREE ENERGY PREDICTED BY IDOCK:   -5.88 KCAL/MOL
REMARK 924 INTRA-LIGAND FREE ENERGY PREDICTED BY IDOCK:   -3.03 KCAL/MOL
REMARK 927      BINDING AFFINITY PREDICTED BY RF-SCORE:    0.00 PKD
ROOT
HETATM    1  C   UNL     1     -12.387   8.041  70.710  1.00  0.00     0.030 C  
HETATM    2  C   UNL     1     -12.088   6.755  70.943  1.00  0.00    -0.421 C  
HETATM    3  C   UNL     1     -13.280   8.744  71.638  1.00  0.00    -0.357 C  
HETATM    4  H   UNL     1     -13.610  10.524  72.288  1.00  0.00     0.000 HD 
HETATM    5  O   UNL     1     -13.031  10.069  71.688  1.00  0.00    -0.379 OA 
ENDROOT
BRANCH   2   6
HETATM    6  C   UNL     1     -11.187   6.029  70.056  1.00  0.00    -0.425 A  
HETATM    7  C   UNL     1     -10.434   4.955  70.537  1.00  0.00    -0.170 A  
HETATM    8  C   UNL     1      -9.658   4.195  69.658  1.00  0.00    -0.277 A  
HETATM    9  C   UNL     1     -11.126   6.370  68.703  1.00  0.00    -0.393 A  
HETATM   10  C   UNL     1      -9.632   4.501  68.291  1.00  0.00    -0.203 A  
HETATM   11  C   UNL     1     -10.354   5.609  67.825  1.00  0.00    -0.260 A  
BRANCH  10  12
HETATM   12  C   UNL     1      -8.947   3.574  67.318  1.00  0.00    -0.146 C  
BRANCH  12  13
HETATM   13  N   UNL     1      -7.861   4.228  66.587  1.00  0.00    -0.097 NA 
HETATM   14  H   UNL     1      -8.116   5.176  66.310  1.00  0.00     0.000 HD 
BRANCH  13  15
HETATM   15  C   UNL     1      -6.605   4.212  67.355  1.00  0.00    -0.046 C  
BRANCH  15  16
HETATM   16  C   UNL     1      -6.033   5.611  67.629  1.00  0.00    -0.021 C  
BRANCH  16  17
HETATM   17  C   UNL     1      -6.625   6.251  68.846  1.00  0.00    -0.048 A  
HETATM   18  C   UNL     1      -6.466   5.863  70.167  1.00  0.00    -0.039 A  
HETATM   19  N   UNL     1      -7.235   6.700  70.940  1.00  0.00    -0.072 NA 
HETATM   20  C   UNL     1      -5.675   4.772  70.792  1.00  0.00    -0.016 C  
HETATM   21  H   UNL     1      -7.316   6.640  71.955  1.00  0.00     0.000 HD 
HETATM   22  C   UNL     1      -7.876   7.629  70.160  1.00  0.00    -0.097 A  
HETATM   23  C   UNL     1      -8.757   8.656  70.522  1.00  0.00    -0.178 A  
HETATM   24  C   UNL     1      -9.262   9.468  69.502  1.00  0.00    -0.198 A  
HETATM   25  C   UNL     1      -8.898   9.259  68.173  1.00  0.00    -0.129 A  
HETATM   26  C   UNL     1      -8.024   8.222  67.830  1.00  0.00    -0.122 A  
HETATM   27  C   UNL     1      -7.502   7.387  68.841  1.00  0.00    -0.101 A  
ENDBRANCH  16  17
ENDBRANCH  15  16
ENDBRANCH  13  15
ENDBRANCH  12  13
ENDBRANCH  10  12
ENDBRANCH   2   6
BRANCH   3  28
HETATM   28  N   UNL     1     -14.211   8.178  72.335  1.00  0.00    -0.622 NA 
HETATM   29  H   UNL     1     -14.750   7.367  72.027  1.00  0.00     0.000 HD 
HETATM   30  O   UNL     1     -14.386   8.820  73.570  1.00  0.00    -1.095 OA 
HETATM   31  H   UNL     1     -15.070   8.404  74.081  1.00  0.00     0.000 HD 
ENDBRANCH   3  28
TORSDOF 7
ENDMDL
MODEL      141
REMARK 921   NORMALIZED FREE ENERGY PREDICTED BY IDOCK:   -4.46 KCAL/MOL
REMARK 922        TOTAL FREE ENERGY PREDICTED BY IDOCK:   -8.91 KCAL/MOL
REMARK 923 INTER-LIGAND FREE ENERGY PREDICTED BY IDOCK:   -7.58 KCAL/MOL
REMARK 924 INTRA-LIGAND FREE ENERGY PREDICTED BY IDOCK:   -1.33 KCAL/MOL
REMARK 927      BINDING AFFINITY PREDICTED BY RF-SCORE:    0.00 PKD
ROOT
HETATM    1  C   UNL     1      -8.333   6.956  68.126  1.00  0.00    -0.118 C  
HETATM    2  C   UNL     1      -9.348   7.748  68.501  1.00  0.00    -0.147 C  
HETATM    3  C   UNL     1      -8.276   5.582  68.638  1.00  0.00    -0.102 C  
HETATM    4  H   UNL     1      -7.615   3.852  68.118  1.00  0.00     0.000 HD 
HETATM    5  O   UNL     1      -7.652   4.741  67.787  1.00  0.00    -0.081 OA 
ENDROOT
BRANCH   2   6
HETATM    6  C   UNL     1      -9.450   9.113  67.997  1.00  0.00    -0.157 A  
HETATM    7  C   UNL     1     -10.457   9.459  67.093  1.00  0.00    -0.315 A  
HETATM    8  C   UNL     1     -10.617  10.790  66.700  1.00  0.00    -0.291 A  
HETATM    9  C   UNL     1      -8.574  10.092  68.472  1.00  0.00    -0.119 A  
HETATM   10  C   UNL     1      -9.774  11.786  67.212  1.00  0.00    -0.188 A  
HETATM   11  C   UNL     1      -8.737  11.421  68.083  1.00  0.00    -0.154 A  
BRANCH  10  12
HETATM   12  C   UNL     1     -10.062  13.240  66.935  1.00  0.00    -0.250 C  
BRANCH  12  13
HETATM   13  N   UNL     1     -10.250  14.020  68.160  1.00  0.00    -0.237 NA 
HETATM   14  H   UNL     1      -9.863  14.959  68.068  1.00  0.00     0.000 HD 
BRANCH  13  15
HETATM   15  C   UNL     1     -11.666  14.059  68.563  1.00  0.00    -0.352 C  
BRANCH  15  16
HETATM   16  C   UNL     1     -11.889  14.640  69.967  1.00  0.00    -0.363 C  
BRANCH  16  17
HETATM   17  C   UNL     1     -12.624  13.701  70.873  1.00  0.00    -0.421 A  
HETATM   18  C   UNL     1     -13.563  14.022  71.841  1.00  0.00    -0.435 A  
HETATM   19  N   UNL     1     -13.929  12.854  72.466  1.00  0.00    -0.668 NA 
HETATM   20  C   UNL     1     -14.153  15.320  72.260  1.00  0.00    -0.651 C  
HETATM   21  H   UNL     1     -14.602  12.791  73.229  1.00  0.00     0.000 HD 
HETATM   22  C   UNL     1     -13.265  11.783  71.922  1.00  0.00    -0.362 A  
HETATM   23  C   UNL     1     -13.323  10.424  72.254  1.00  0.00    -0.255 A  
HETATM   24  C   UNL     1     -12.529   9.541  71.516  1.00  0.00    -0.463 A  
HETATM   25  C   UNL     1     -11.712  10.003  70.486  1.00  0.00    -0.400 A  
HETATM   26  C   UNL     1     -11.660  11.365  70.175  1.00  0.00    -0.368 A  
HETATM   27  C   UNL     1     -12.450  12.277  70.907  1.00  0.00    -0.371 A  
ENDBRANCH  16  17
ENDBRANCH  15  16
ENDBRANCH  13  15
ENDBRANCH  12  13
ENDBRANCH  10  12
ENDBRANCH   2   6
BRANCH   3  28
HETATM   28  N   UNL     1      -8.759   5.199  69.775  1.00  0.00    -0.098 NA 
HETATM   29  H   UNL     1      -8.409   5.507  70.683  1.00  0.00     0.000 HD 
HETATM   30  O   UNL     1      -9.827   4.305  69.600  1.00  0.00    -0.213 OA 
HETATM   31  H   UNL     1     -10.181   4.024  70.436  1.00  0.00     0.000 HD 
ENDBRANCH   3  28
TORSDOF 7
ENDMDL
MODEL      142
REMARK 921   NORMALIZED FREE ENERGY PREDICTED BY IDOCK:   -4.45 KCAL/MOL
REMARK 922        TOTAL FREE ENERGY PREDICTED BY IDOCK:   -8.90 KCAL/MOL
REMARK 923 INTER-LIGAND FREE ENERGY PREDICTED BY IDOCK:   -7.71 KCAL/MOL
REMARK 924 INTRA-LIGAND FREE ENERGY PREDICTED BY IDOCK:   -1.19 KCAL/MOL
REMARK 927      BINDING AFFINITY PREDICTED BY RF-SCORE:    0.00 PKD
ROOT
HETATM    1  C   UNL     1     -10.339   8.801  71.399  1.00  0.00    -0.348 C  
HETATM    2  C   UNL     1     -10.965   8.360  70.298  1.00  0.00    -0.236 C  
HETATM    3  C   UNL     1     -10.571   8.114  72.674  1.00  0.00    -0.344 C  
HETATM    4  H   UNL     1      -9.664   7.758  74.333  1.00  0.00     0.000 HD 
HETATM    5  O   UNL     1      -9.513   8.203  73.506  1.00  0.00    -0.243 OA 
ENDROOT
BRANCH   2   6
HETATM    6  C   UNL     1     -10.744   9.003  69.008  1.00  0.00    -0.163 A  
HETATM    7  C   UNL     1     -10.120   8.308  67.969  1.00  0.00    -0.243 A  
HETATM    8  C   UNL     1     -10.011   8.891  66.705  1.00  0.00    -0.346 A  
HETATM    9  C   UNL     1     -11.216  10.300  68.793  1.00  0.00    -0.260 A  
HETATM   10  C   UNL     1     -10.527  10.172  66.468  1.00  0.00    -0.236 A  
HETATM   11  C   UNL     1     -11.110  10.881  67.530  1.00  0.00    -0.375 A  
BRANCH  10  12
HETATM   12  C   UNL     1     -10.576  10.725  65.066  1.00  0.00    -0.173 C  
BRANCH  12  13
HETATM   13  N   UNL     1      -9.570  11.762  64.834  1.00  0.00    -0.402 NA 
HETATM   14  H   UNL     1      -8.734  11.379  64.394  1.00  0.00     0.000 HD 
BRANCH  13  15
HETATM   15  C   UNL     1     -10.121  12.885  64.056  1.00  0.00    -0.117 C  
BRANCH  15  16
HETATM   16  C   UNL     1     -10.046  14.234  64.787  1.00  0.00    -0.168 C  
BRANCH  16  17
HETATM   17  C   UNL     1     -10.914  14.283  66.007  1.00  0.00    -0.312 A  
HETATM   18  C   UNL     1     -12.260  13.966  66.098  1.00  0.00    -0.464 A  
HETATM   19  N   UNL     1     -12.656  14.210  67.391  1.00  0.00    -0.417 NA 
HETATM   20  C   UNL     1     -13.233  13.468  65.091  1.00  0.00     0.101 C  
HETATM   21  H   UNL     1     -13.603  14.073  67.743  1.00  0.00     0.000 HD 
HETATM   22  C   UNL     1     -11.602  14.662  68.145  1.00  0.00    -0.335 A  
HETATM   23  C   UNL     1     -11.554  15.038  69.493  1.00  0.00    -0.337 A  
HETATM   24  C   UNL     1     -10.323  15.459  70.006  1.00  0.00    -0.288 A  
HETATM   25  C   UNL     1      -9.187  15.499  69.200  1.00  0.00    -0.246 A  
HETATM   26  C   UNL     1      -9.256  15.129  67.853  1.00  0.00    -0.184 A  
HETATM   27  C   UNL     1     -10.488  14.703  67.311  1.00  0.00    -0.266 A  
ENDBRANCH  16  17
ENDBRANCH  15  16
ENDBRANCH  13  15
ENDBRANCH  12  13
ENDBRANCH  10  12
ENDBRANCH   2   6
BRANCH   3  28
HETATM   28  N   UNL     1     -11.661   7.491  72.987  1.00  0.00    -0.612 NA 
HETATM   29  H   UNL     1     -11.721   6.487  73.159  1.00  0.00     0.000 HD 
HETATM   30  O   UNL     1     -12.749   8.373  73.061  1.00  0.00    -0.697 OA 
HETATM   31  H   UNL     1     -13.549   7.915  73.291  1.00  0.00     0.000 HD 
ENDBRANCH   3  28
TORSDOF 7
ENDMDL
MODEL      143
REMARK 921   NORMALIZED FREE ENERGY PREDICTED BY IDOCK:   -4.44 KCAL/MOL
REMARK 922        TOTAL FREE ENERGY PREDICTED BY IDOCK:   -8.89 KCAL/MOL
REMARK 923 INTER-LIGAND FREE ENERGY PREDICTED BY IDOCK:   -6.68 KCAL/MOL
REMARK 924 INTRA-LIGAND FREE ENERGY PREDICTED BY IDOCK:   -2.21 KCAL/MOL
REMARK 927      BINDING AFFINITY PREDICTED BY RF-SCORE:    0.00 PKD
ROOT
HETATM    1  C   UNL     1      -8.647   9.812  64.906  1.00  0.00    -0.183 C  
HETATM    2  C   UNL     1      -8.281  10.473  66.015  1.00  0.00    -0.150 C  
HETATM    3  C   UNL     1      -7.630   9.070  64.153  1.00  0.00    -0.118 C  
HETATM    4  H   UNL     1      -7.490   7.532  63.005  1.00  0.00     0.000 HD 
HETATM    5  O   UNL     1      -8.148   8.013  63.493  1.00  0.00    -0.152 OA 
ENDROOT
BRANCH   2   6
HETATM    6  C   UNL     1      -9.267  11.205  66.802  1.00  0.00    -0.183 A  
HETATM    7  C   UNL     1     -10.608  10.814  66.795  1.00  0.00    -0.307 A  
HETATM    8  C   UNL     1     -11.526  11.450  67.636  1.00  0.00    -0.348 A  
HETATM    9  C   UNL     1      -8.854  12.262  67.616  1.00  0.00    -0.175 A  
HETATM   10  C   UNL     1     -11.108  12.477  68.492  1.00  0.00    -0.297 A  
HETATM   11  C   UNL     1      -9.769  12.894  68.458  1.00  0.00    -0.129 A  
BRANCH  10  12
HETATM   12  C   UNL     1     -12.053  13.034  69.528  1.00  0.00    -0.230 C  
BRANCH  12  13
HETATM   13  N   UNL     1     -11.949  12.344  70.814  1.00  0.00    -0.458 NA 
HETATM   14  H   UNL     1     -11.961  13.002  71.593  1.00  0.00     0.000 HD 
BRANCH  13  15
HETATM   15  C   UNL     1     -12.993  11.316  70.962  1.00  0.00    -0.211 C  
BRANCH  15  16
HETATM   16  C   UNL     1     -12.606  10.180  71.922  1.00  0.00    -0.437 C  
BRANCH  16  17
HETATM   17  C   UNL     1     -12.191   8.932  71.205  1.00  0.00    -0.351 A  
HETATM   18  C   UNL     1     -12.900   7.746  71.093  1.00  0.00    -0.156 A  
HETATM   19  N   UNL     1     -12.113   6.858  70.400  1.00  0.00    -0.608 NA 
HETATM   20  C   UNL     1     -14.243   7.344  71.583  1.00  0.00    -0.583 C  
HETATM   21  H   UNL     1     -12.380   5.899  70.178  1.00  0.00     0.000 HD 
HETATM   22  C   UNL     1     -10.921   7.437  70.046  1.00  0.00    -0.248 A  
HETATM   23  C   UNL     1      -9.831   6.903  69.349  1.00  0.00    -0.161 A  
HETATM   24  C   UNL     1      -8.733   7.738  69.121  1.00  0.00    -0.139 A  
HETATM   25  C   UNL     1      -8.729   9.056  69.573  1.00  0.00    -0.144 A  
HETATM   26  C   UNL     1      -9.824   9.570  70.276  1.00  0.00    -0.313 A  
HETATM   27  C   UNL     1     -10.943   8.746  70.521  1.00  0.00    -0.272 A  
ENDBRANCH  16  17
ENDBRANCH  15  16
ENDBRANCH  13  15
ENDBRANCH  12  13
ENDBRANCH  10  12
ENDBRANCH   2   6
BRANCH   3  28
HETATM   28  N   UNL     1      -6.374   9.378  64.108  1.00  0.00    -0.089 NA 
HETATM   29  H   UNL     1      -5.636   8.859  64.586  1.00  0.00     0.000 HD 
HETATM   30  O   UNL     1      -6.157  10.518  63.319  1.00  0.00    -0.239 OA 
HETATM   31  H   UNL     1      -5.235  10.744  63.287  1.00  0.00     0.000 HD 
ENDBRANCH   3  28
TORSDOF 7
ENDMDL
MODEL      144
REMARK 921   NORMALIZED FREE ENERGY PREDICTED BY IDOCK:   -4.40 KCAL/MOL
REMARK 922        TOTAL FREE ENERGY PREDICTED BY IDOCK:   -8.83 KCAL/MOL
REMARK 923 INTER-LIGAND FREE ENERGY PREDICTED BY IDOCK:   -7.82 KCAL/MOL
REMARK 924 INTRA-LIGAND FREE ENERGY PREDICTED BY IDOCK:   -1.01 KCAL/MOL
REMARK 927      BINDING AFFINITY PREDICTED BY RF-SCORE:    0.00 PKD
ROOT
HETATM    1  C   UNL     1     -12.205  14.408  70.672  1.00  0.00    -0.414 C  
HETATM    2  C   UNL     1     -12.485  13.107  70.842  1.00  0.00    -0.407 C  
HETATM    3  C   UNL     1     -12.794  15.389  71.590  1.00  0.00    -0.419 C  
HETATM    4  H   UNL     1     -12.404  17.122  72.329  1.00  0.00     0.000 HD 
HETATM    5  O   UNL     1     -12.022  16.487  71.735  1.00  0.00    -0.372 OA 
ENDROOT
BRANCH   2   6
HETATM    6  C   UNL     1     -11.902  12.101  69.964  1.00  0.00    -0.383 A  
HETATM    7  C   UNL     1     -11.663  10.806  70.432  1.00  0.00    -0.445 A  
HETATM    8  C   UNL     1     -11.208   9.818  69.555  1.00  0.00    -0.181 A  
HETATM    9  C   UNL     1     -11.641  12.417  68.629  1.00  0.00    -0.365 A  
HETATM   10  C   UNL     1     -10.993  10.116  68.203  1.00  0.00    -0.313 A  
HETATM   11  C   UNL     1     -11.190  11.429  67.753  1.00  0.00    -0.346 A  
BRANCH  10  12
HETATM   12  C   UNL     1     -10.682   9.012  67.222  1.00  0.00    -0.151 C  
BRANCH  12  13
HETATM   13  N   UNL     1      -9.253   8.708  67.151  1.00  0.00    -0.141 NA 
HETATM   14  H   UNL     1      -8.686   9.516  67.408  1.00  0.00     0.000 HD 
BRANCH  13  15
HETATM   15  C   UNL     1      -8.910   7.530  67.965  1.00  0.00    -0.127 C  
BRANCH  15  16
HETATM   16  C   UNL     1     -10.016   6.464  68.001  1.00  0.00    -0.144 C  
BRANCH  16  17
HETATM   17  C   UNL     1      -9.854   5.499  69.135  1.00  0.00    -0.227 A  
HETATM   18  C   UNL     1      -9.174   4.291  69.126  1.00  0.00    -0.145 A  
HETATM   19  N   UNL     1      -9.336   3.716  70.364  1.00  0.00    -0.152 NA 
HETATM   20  C   UNL     1      -8.391   3.601  68.069  1.00  0.00    -0.101 C  
HETATM   21  H   UNL     1      -8.949   2.813  70.639  1.00  0.00     0.000 HD 
HETATM   22  C   UNL     1     -10.089   4.522  71.179  1.00  0.00    -0.147 A  
HETATM   23  C   UNL     1     -10.505   4.329  72.502  1.00  0.00    -0.222 A  
HETATM   24  C   UNL     1     -11.271   5.336  73.096  1.00  0.00    -0.382 A  
HETATM   25  C   UNL     1     -11.605   6.491  72.392  1.00  0.00    -0.292 A  
HETATM   26  C   UNL     1     -11.189   6.663  71.068  1.00  0.00    -0.349 A  
HETATM   27  C   UNL     1     -10.417   5.658  70.445  1.00  0.00    -0.355 A  
ENDBRANCH  16  17
ENDBRANCH  15  16
ENDBRANCH  13  15
ENDBRANCH  12  13
ENDBRANCH  10  12
ENDBRANCH   2   6
BRANCH   3  28
HETATM   28  N   UNL     1     -13.926  15.242  72.199  1.00  0.00    -0.501 NA 
HETATM   29  H   UNL     1     -14.623  14.537  71.955  1.00  0.00     0.000 HD 
HETATM   30  O   UNL     1     -14.071  16.174  73.237  1.00  0.00    -0.733 OA 
HETATM   31  H   UNL     1     -14.903  16.065  73.684  1.00  0.00     0.000 HD 
ENDBRANCH   3  28
TORSDOF 7
ENDMDL
MODEL      145
REMARK 921   NORMALIZED FREE ENERGY PREDICTED BY IDOCK:   -4.39 KCAL/MOL
REMARK 922        TOTAL FREE ENERGY PREDICTED BY IDOCK:   -8.82 KCAL/MOL
REMARK 923 INTER-LIGAND FREE ENERGY PREDICTED BY IDOCK:   -7.85 KCAL/MOL
REMARK 924 INTRA-LIGAND FREE ENERGY PREDICTED BY IDOCK:   -0.98 KCAL/MOL
REMARK 927      BINDING AFFINITY PREDICTED BY RF-SCORE:    0.00 PKD
ROOT
HETATM    1  C   UNL     1     -11.554  13.026  65.332  1.00  0.00    -0.374 C  
HETATM    2  C   UNL     1     -10.426  12.421  64.930  1.00  0.00    -0.327 C  
HETATM    3  C   UNL     1     -11.878  14.355  64.802  1.00  0.00    -0.433 C  
HETATM    4  H   UNL     1     -13.416  15.442  64.415  1.00  0.00     0.000 HD 
HETATM    5  O   UNL     1     -13.207  14.581  64.758  1.00  0.00    -0.337 OA 
ENDROOT
BRANCH   2   6
HETATM    6  C   UNL     1     -10.081  11.092  65.418  1.00  0.00    -0.326 A  
HETATM    7  C   UNL     1      -9.301  10.233  64.640  1.00  0.00    -0.320 A  
HETATM    8  C   UNL     1      -8.882   9.005  65.159  1.00  0.00    -0.224 A  
HETATM    9  C   UNL     1     -10.479  10.701  66.699  1.00  0.00    -0.296 A  
HETATM   10  C   UNL     1      -9.236   8.629  66.462  1.00  0.00    -0.236 A  
HETATM   11  C   UNL     1     -10.058   9.477  67.218  1.00  0.00    -0.272 A  
BRANCH  10  12
HETATM   12  C   UNL     1      -8.633   7.396  67.086  1.00  0.00    -0.118 C  
BRANCH  12  13
HETATM   13  N   UNL     1      -7.230   7.581  67.459  1.00  0.00    -0.088 NA 
HETATM   14  H   UNL     1      -6.853   8.446  67.071  1.00  0.00     0.000 HD 
BRANCH  13  15
HETATM   15  C   UNL     1      -7.046   7.520  68.918  1.00  0.00    -0.080 C  
BRANCH  15  16
HETATM   16  C   UNL     1      -7.911   6.451  69.604  1.00  0.00    -0.116 C  
BRANCH  16  17
HETATM   17  C   UNL     1      -8.614   6.968  70.821  1.00  0.00    -0.143 A  
HETATM   18  C   UNL     1      -8.042   7.403  72.006  1.00  0.00    -0.094 A  
HETATM   19  N   UNL     1      -9.064   7.732  72.863  1.00  0.00    -0.175 NA 
HETATM   20  C   UNL     1      -6.625   7.534  72.434  1.00  0.00    -0.055 C  
HETATM   21  H   UNL     1      -8.935   8.075  73.815  1.00  0.00     0.000 HD 
HETATM   22  C   UNL     1     -10.283   7.535  72.264  1.00  0.00    -0.206 A  
HETATM   23  C   UNL     1     -11.575   7.728  72.766  1.00  0.00    -0.368 A  
HETATM   24  C   UNL     1     -12.650   7.449  71.917  1.00  0.00    -0.322 A  
HETATM   25  C   UNL     1     -12.437   6.996  70.617  1.00  0.00    -0.173 A  
HETATM   26  C   UNL     1     -11.139   6.800  70.136  1.00  0.00    -0.365 A  
HETATM   27  C   UNL     1     -10.037   7.072  70.975  1.00  0.00    -0.206 A  
ENDBRANCH  16  17
ENDBRANCH  15  16
ENDBRANCH  13  15
ENDBRANCH  12  13
ENDBRANCH  10  12
ENDBRANCH   2   6
BRANCH   3  28
HETATM   28  N   UNL     1     -11.003  15.228  64.418  1.00  0.00    -0.654 NA 
HETATM   29  H   UNL     1      -9.995  15.126  64.541  1.00  0.00     0.000 HD 
HETATM   30  O   UNL     1     -11.618  16.333  63.811  1.00  0.00    -1.539 OA 
HETATM   31  H   UNL     1     -10.976  16.973  63.529  1.00  0.00     0.000 HD 
ENDBRANCH   3  28
TORSDOF 7
ENDMDL
MODEL      146
REMARK 921   NORMALIZED FREE ENERGY PREDICTED BY IDOCK:   -4.39 KCAL/MOL
REMARK 922        TOTAL FREE ENERGY PREDICTED BY IDOCK:   -8.81 KCAL/MOL
REMARK 923 INTER-LIGAND FREE ENERGY PREDICTED BY IDOCK:   -7.81 KCAL/MOL
REMARK 924 INTRA-LIGAND FREE ENERGY PREDICTED BY IDOCK:   -1.00 KCAL/MOL
REMARK 927      BINDING AFFINITY PREDICTED BY RF-SCORE:    0.00 PKD
ROOT
HETATM    1  C   UNL     1     -11.678  12.994  64.697  1.00  0.00    -0.408 C  
HETATM    2  C   UNL     1     -11.080  12.382  63.664  1.00  0.00    -0.535 C  
HETATM    3  C   UNL     1     -12.569  14.129  64.433  1.00  0.00    -0.164 C  
HETATM    4  H   UNL     1     -14.112  14.989  65.196  1.00  0.00     0.000 HD 
HETATM    5  O   UNL     1     -13.534  14.254  65.367  1.00  0.00    -0.581 OA 
ENDROOT
BRANCH   2   6
HETATM    6  C   UNL     1     -10.204  11.237  63.885  1.00  0.00    -0.420 A  
HETATM    7  C   UNL     1      -9.280  10.856  62.909  1.00  0.00    -0.348 A  
HETATM    8  C   UNL     1      -8.369   9.829  63.172  1.00  0.00    -0.166 A  
HETATM    9  C   UNL     1     -10.248  10.559  65.105  1.00  0.00    -0.358 A  
HETATM   10  C   UNL     1      -8.374   9.179  64.413  1.00  0.00    -0.180 A  
HETATM   11  C   UNL     1      -9.336   9.537  65.369  1.00  0.00    -0.324 A  
BRANCH  10  12
HETATM   12  C   UNL     1      -7.278   8.204  64.764  1.00  0.00    -0.082 C  
BRANCH  12  13
HETATM   13  N   UNL     1      -6.693   8.464  66.081  1.00  0.00    -0.060 NA 
HETATM   14  H   UNL     1      -6.864   9.423  66.382  1.00  0.00     0.000 HD 
BRANCH  13  15
HETATM   15  C   UNL     1      -7.165   7.493  67.082  1.00  0.00    -0.086 C  
BRANCH  15  16
HETATM   16  C   UNL     1      -7.055   7.999  68.529  1.00  0.00    -0.080 C  
BRANCH  16  17
HETATM   17  C   UNL     1      -8.389   8.149  69.193  1.00  0.00    -0.131 A  
HETATM   18  C   UNL     1      -9.141   9.306  69.326  1.00  0.00    -0.151 A  
HETATM   19  N   UNL     1     -10.264   8.988  70.052  1.00  0.00    -0.194 NA 
HETATM   20  C   UNL     1      -8.915  10.696  68.854  1.00  0.00    -0.172 C  
HETATM   21  H   UNL     1     -10.994   9.652  70.310  1.00  0.00     0.000 HD 
HETATM   22  C   UNL     1     -10.269   7.656  70.381  1.00  0.00    -0.203 A  
HETATM   23  C   UNL     1     -11.202   6.913  71.115  1.00  0.00    -0.314 A  
HETATM   24  C   UNL     1     -10.950   5.549  71.292  1.00  0.00    -0.198 A  
HETATM   25  C   UNL     1      -9.810   4.955  70.755  1.00  0.00    -0.285 A  
HETATM   26  C   UNL     1      -8.884   5.716  70.033  1.00  0.00    -0.136 A  
HETATM   27  C   UNL     1      -9.115   7.095  69.842  1.00  0.00    -0.141 A  
ENDBRANCH  16  17
ENDBRANCH  15  16
ENDBRANCH  13  15
ENDBRANCH  12  13
ENDBRANCH  10  12
ENDBRANCH   2   6
BRANCH   3  28
HETATM   28  N   UNL     1     -12.459  14.934  63.426  1.00  0.00    -0.691 NA 
HETATM   29  H   UNL     1     -12.817  14.739  62.490  1.00  0.00     0.000 HD 
HETATM   30  O   UNL     1     -11.782  16.109  63.785  1.00  0.00    -1.404 OA 
HETATM   31  H   UNL     1     -11.701  16.700  63.046  1.00  0.00     0.000 HD 
ENDBRANCH   3  28
TORSDOF 7
ENDMDL
MODEL      147
REMARK 921   NORMALIZED FREE ENERGY PREDICTED BY IDOCK:   -4.37 KCAL/MOL
REMARK 922        TOTAL FREE ENERGY PREDICTED BY IDOCK:   -8.79 KCAL/MOL
REMARK 923 INTER-LIGAND FREE ENERGY PREDICTED BY IDOCK:   -6.71 KCAL/MOL
REMARK 924 INTRA-LIGAND FREE ENERGY PREDICTED BY IDOCK:   -2.08 KCAL/MOL
REMARK 927      BINDING AFFINITY PREDICTED BY RF-SCORE:    0.00 PKD
ROOT
HETATM    1  C   UNL     1     -10.730  12.366  67.298  1.00  0.00    -0.259 C  
HETATM    2  C   UNL     1     -10.702  11.046  67.534  1.00  0.00    -0.289 C  
HETATM    3  C   UNL     1     -11.846  12.928  66.531  1.00  0.00    -0.407 C  
HETATM    4  H   UNL     1     -12.831  14.573  66.368  1.00  0.00     0.000 HD 
HETATM    5  O   UNL     1     -12.108  14.209  66.866  1.00  0.00    -0.430 OA 
ENDROOT
BRANCH   2   6
HETATM    6  C   UNL     1      -9.620  10.453  68.311  1.00  0.00    -0.152 A  
HETATM    7  C   UNL     1      -9.825  10.086  69.644  1.00  0.00    -0.261 A  
HETATM    8  C   UNL     1      -8.820   9.419  70.348  1.00  0.00    -0.290 A  
HETATM    9  C   UNL     1      -8.392  10.194  67.699  1.00  0.00    -0.114 A  
HETATM   10  C   UNL     1      -7.603   9.110  69.724  1.00  0.00    -0.079 A  
HETATM   11  C   UNL     1      -7.390   9.523  68.401  1.00  0.00    -0.076 A  
BRANCH  10  12
HETATM   12  C   UNL     1      -6.595   8.230  70.420  1.00  0.00    -0.036 C  
BRANCH  12  13
HETATM   13  N   UNL     1      -7.049   6.845  70.548  1.00  0.00    -0.066 NA 
HETATM   14  H   UNL     1      -7.980   6.794  70.962  1.00  0.00     0.000 HD 
BRANCH  13  15
HETATM   15  C   UNL     1      -6.995   6.137  69.258  1.00  0.00    -0.064 C  
BRANCH  15  16
HETATM   16  C   UNL     1      -8.141   5.133  69.059  1.00  0.00    -0.085 C  
BRANCH  16  17
HETATM   17  C   UNL     1      -9.492   5.777  69.119  1.00  0.00    -0.157 A  
HETATM   18  C   UNL     1     -10.163   6.430  68.098  1.00  0.00    -0.167 A  
HETATM   19  N   UNL     1     -11.341   6.911  68.617  1.00  0.00    -0.530 NA 
HETATM   20  C   UNL     1      -9.813   6.669  66.674  1.00  0.00    -0.208 C  
HETATM   21  H   UNL     1     -12.033   7.443  68.090  1.00  0.00     0.000 HD 
HETATM   22  C   UNL     1     -11.460   6.577  69.943  1.00  0.00    -0.403 A  
HETATM   23  C   UNL     1     -12.480   6.866  70.857  1.00  0.00    -0.314 A  
HETATM   24  C   UNL     1     -12.338   6.385  72.162  1.00  0.00    -0.231 A  
HETATM   25  C   UNL     1     -11.219   5.643  72.534  1.00  0.00    -0.346 A  
HETATM   26  C   UNL     1     -10.205   5.372  71.610  1.00  0.00    -0.268 A  
HETATM   27  C   UNL     1     -10.324   5.849  70.286  1.00  0.00    -0.298 A  
ENDBRANCH  16  17
ENDBRANCH  15  16
ENDBRANCH  13  15
ENDBRANCH  12  13
ENDBRANCH  10  12
ENDBRANCH   2   6
BRANCH   3  28
HETATM   28  N   UNL     1     -12.515  12.288  65.627  1.00  0.00    -0.474 NA 
HETATM   29  H   UNL     1     -12.488  11.276  65.499  1.00  0.00     0.000 HD 
HETATM   30  O   UNL     1     -13.284  13.164  64.845  1.00  0.00    -0.705 OA 
HETATM   31  H   UNL     1     -13.775  12.694  64.182  1.00  0.00     0.000 HD 
ENDBRANCH   3  28
TORSDOF 7
ENDMDL
MODEL      148
REMARK 921   NORMALIZED FREE ENERGY PREDICTED BY IDOCK:   -4.37 KCAL/MOL
REMARK 922        TOTAL FREE ENERGY PREDICTED BY IDOCK:   -8.78 KCAL/MOL
REMARK 923 INTER-LIGAND FREE ENERGY PREDICTED BY IDOCK:   -5.76 KCAL/MOL
REMARK 924 INTRA-LIGAND FREE ENERGY PREDICTED BY IDOCK:   -3.02 KCAL/MOL
REMARK 927      BINDING AFFINITY PREDICTED BY RF-SCORE:    0.00 PKD
ROOT
HETATM    1  C   UNL     1      -9.145   9.220  66.650  1.00  0.00    -0.177 C  
HETATM    2  C   UNL     1     -10.104   8.292  66.795  1.00  0.00    -0.373 C  
HETATM    3  C   UNL     1      -8.763   9.642  65.298  1.00  0.00    -0.160 C  
HETATM    4  H   UNL     1      -8.059  11.186  64.390  1.00  0.00     0.000 HD 
HETATM    5  O   UNL     1      -8.307  10.912  65.266  1.00  0.00    -0.133 OA 
ENDROOT
BRANCH   2   6
HETATM    6  C   UNL     1     -10.526   7.862  68.123  1.00  0.00    -0.227 A  
HETATM    7  C   UNL     1     -10.582   8.776  69.178  1.00  0.00    -0.200 A  
HETATM    8  C   UNL     1     -11.091   8.382  70.418  1.00  0.00    -0.240 A  
HETATM    9  C   UNL     1     -10.936   6.542  68.323  1.00  0.00    -0.362 A  
HETATM   10  C   UNL     1     -11.552   7.073  70.610  1.00  0.00    -0.379 A  
HETATM   11  C   UNL     1     -11.449   6.150  69.559  1.00  0.00    -0.299 A  
BRANCH  10  12
HETATM   12  C   UNL     1     -12.270   6.700  71.884  1.00  0.00    -0.335 C  
BRANCH  12  13
HETATM   13  N   UNL     1     -11.414   6.808  73.065  1.00  0.00    -0.503 NA 
HETATM   14  H   UNL     1     -11.895   7.277  73.833  1.00  0.00     0.000 HD 
BRANCH  13  15
HETATM   15  C   UNL     1     -10.894   5.494  73.479  1.00  0.00    -0.276 C  
BRANCH  15  16
HETATM   16  C   UNL     1      -9.367   5.372  73.361  1.00  0.00    -0.134 C  
BRANCH  16  17
HETATM   17  C   UNL     1      -8.916   5.054  71.969  1.00  0.00    -0.145 A  
HETATM   18  C   UNL     1      -9.079   3.862  71.280  1.00  0.00    -0.115 A  
HETATM   19  N   UNL     1      -8.461   4.002  70.061  1.00  0.00    -0.063 NA 
HETATM   20  C   UNL     1      -9.745   2.586  71.648  1.00  0.00    -0.222 C  
HETATM   21  H   UNL     1      -8.415   3.274  69.347  1.00  0.00     0.000 HD 
HETATM   22  C   UNL     1      -7.915   5.254  69.933  1.00  0.00    -0.083 A  
HETATM   23  C   UNL     1      -7.193   5.818  68.874  1.00  0.00    -0.082 A  
HETATM   24  C   UNL     1      -6.757   7.139  69.017  1.00  0.00    -0.056 A  
HETATM   25  C   UNL     1      -7.034   7.864  70.174  1.00  0.00    -0.049 A  
HETATM   26  C   UNL     1      -7.748   7.280  71.226  1.00  0.00    -0.088 A  
HETATM   27  C   UNL     1      -8.197   5.947  71.106  1.00  0.00    -0.123 A  
ENDBRANCH  16  17
ENDBRANCH  15  16
ENDBRANCH  13  15
ENDBRANCH  12  13
ENDBRANCH  10  12
ENDBRANCH   2   6
BRANCH   3  28
HETATM   28  N   UNL     1      -8.843   8.898  64.243  1.00  0.00    -0.420 NA 
HETATM   29  H   UNL     1      -8.497   7.939  64.187  1.00  0.00     0.000 HD 
HETATM   30  O   UNL     1      -9.466   9.577  63.185  1.00  0.00    -0.514 OA 
HETATM   31  H   UNL     1      -9.524   9.030  62.411  1.00  0.00     0.000 HD 
ENDBRANCH   3  28
TORSDOF 7
ENDMDL
MODEL      149
REMARK 921   NORMALIZED FREE ENERGY PREDICTED BY IDOCK:   -4.36 KCAL/MOL
REMARK 922        TOTAL FREE ENERGY PREDICTED BY IDOCK:   -8.78 KCAL/MOL
REMARK 923 INTER-LIGAND FREE ENERGY PREDICTED BY IDOCK:   -7.93 KCAL/MOL
REMARK 924 INTRA-LIGAND FREE ENERGY PREDICTED BY IDOCK:   -0.85 KCAL/MOL
REMARK 927      BINDING AFFINITY PREDICTED BY RF-SCORE:    0.00 PKD
ROOT
HETATM    1  C   UNL     1      -9.612   6.825  66.665  1.00  0.00    -0.211 C  
HETATM    2  C   UNL     1     -10.505   7.824  66.597  1.00  0.00    -0.196 C  
HETATM    3  C   UNL     1      -9.994   5.495  66.177  1.00  0.00    -0.096 C  
HETATM    4  H   UNL     1      -9.184   3.928  65.410  1.00  0.00     0.000 HD 
HETATM    5  O   UNL     1      -8.937   4.789  65.726  1.00  0.00    -0.128 OA 
ENDROOT
BRANCH   2   6
HETATM    6  C   UNL     1     -10.155   9.165  67.052  1.00  0.00    -0.316 A  
HETATM    7  C   UNL     1     -10.051   9.443  68.417  1.00  0.00    -0.208 A  
HETATM    8  C   UNL     1      -9.608  10.698  68.843  1.00  0.00    -0.204 A  
HETATM    9  C   UNL     1      -9.860  10.157  66.115  1.00  0.00    -0.297 A  
HETATM   10  C   UNL     1      -9.263  11.682  67.907  1.00  0.00    -0.171 A  
HETATM   11  C   UNL     1      -9.415  11.409  66.540  1.00  0.00    -0.218 A  
BRANCH  10  12
HETATM   12  C   UNL     1      -8.611  12.965  68.360  1.00  0.00    -0.120 C  
BRANCH  12  13
HETATM   13  N   UNL     1      -9.576  13.931  68.888  1.00  0.00    -0.406 NA 
HETATM   14  H   UNL     1      -9.155  14.527  69.600  1.00  0.00     0.000 HD 
BRANCH  13  15
HETATM   15  C   UNL     1     -10.188  14.728  67.812  1.00  0.00    -0.232 C  
BRANCH  15  16
HETATM   16  C   UNL     1      -9.210  15.091  66.684  1.00  0.00    -0.302 C  
BRANCH  16  17
HETATM   17  C   UNL     1      -8.484  16.376  66.937  1.00  0.00    -0.254 A  
HETATM   18  C   UNL     1      -7.172  16.538  67.351  1.00  0.00    -0.149 A  
HETATM   19  N   UNL     1      -6.950  17.885  67.509  1.00  0.00    -0.191 NA 
HETATM   20  C   UNL     1      -6.092  15.557  67.632  1.00  0.00    -0.158 C  
HETATM   21  H   UNL     1      -6.069  18.296  67.816  1.00  0.00     0.000 HD 
HETATM   22  C   UNL     1      -8.077  18.603  67.196  1.00  0.00    -0.247 A  
HETATM   23  C   UNL     1      -8.302  19.984  67.224  1.00  0.00    -0.381 A  
HETATM   24  C   UNL     1      -9.565  20.444  66.840  1.00  0.00    -0.546 A  
HETATM   25  C   UNL     1     -10.562  19.555  66.443  1.00  0.00    -0.571 A  
HETATM   26  C   UNL     1     -10.321  18.177  66.430  1.00  0.00    -0.404 A  
HETATM   27  C   UNL     1      -9.055  17.688  66.815  1.00  0.00    -0.273 A  
ENDBRANCH  16  17
ENDBRANCH  15  16
ENDBRANCH  13  15
ENDBRANCH  12  13
ENDBRANCH  10  12
ENDBRANCH   2   6
BRANCH   3  28
HETATM   28  N   UNL     1     -11.201   5.030  66.175  1.00  0.00    -0.636 NA 
HETATM   29  H   UNL     1     -11.773   4.908  67.012  1.00  0.00     0.000 HD 
HETATM   30  O   UNL     1     -11.624   4.715  64.875  1.00  0.00    -1.016 OA 
HETATM   31  H   UNL     1     -12.511   4.374  64.874  1.00  0.00     0.000 HD 
ENDBRANCH   3  28
TORSDOF 7
ENDMDL
MODEL      150
REMARK 921   NORMALIZED FREE ENERGY PREDICTED BY IDOCK:   -4.34 KCAL/MOL
REMARK 922        TOTAL FREE ENERGY PREDICTED BY IDOCK:   -8.74 KCAL/MOL
REMARK 923 INTER-LIGAND FREE ENERGY PREDICTED BY IDOCK:   -7.54 KCAL/MOL
REMARK 924 INTRA-LIGAND FREE ENERGY PREDICTED BY IDOCK:   -1.20 KCAL/MOL
REMARK 927      BINDING AFFINITY PREDICTED BY RF-SCORE:    0.00 PKD
ROOT
HETATM    1  C   UNL     1     -11.746  14.871  70.166  1.00  0.00    -0.340 C  
HETATM    2  C   UNL     1     -12.201  13.670  69.778  1.00  0.00    -0.350 C  
HETATM    3  C   UNL     1     -12.389  15.543  71.300  1.00  0.00    -0.408 C  
HETATM    4  H   UNL     1     -11.958  16.791  72.699  1.00  0.00     0.000 HD 
HETATM    5  O   UNL     1     -11.541  16.355  71.965  1.00  0.00    -0.444 OA 
ENDROOT
BRANCH   2   6
HETATM    6  C   UNL     1     -11.575  12.961  68.668  1.00  0.00    -0.353 A  
HETATM    7  C   UNL     1     -11.614  11.566  68.609  1.00  0.00    -0.375 A  
HETATM    8  C   UNL     1     -11.109  10.900  67.489  1.00  0.00    -0.375 A  
HETATM    9  C   UNL     1     -10.989  13.686  67.628  1.00  0.00    -0.283 A  
HETATM   10  C   UNL     1     -10.567  11.624  66.419  1.00  0.00    -0.299 A  
HETATM   11  C   UNL     1     -10.490  13.021  66.509  1.00  0.00    -0.284 A  
BRANCH  10  12
HETATM   12  C   UNL     1     -10.194  10.920  65.137  1.00  0.00    -0.297 C  
BRANCH  12  13
HETATM   13  N   UNL     1      -8.764  11.007  64.843  1.00  0.00    -0.362 NA 
HETATM   14  H   UNL     1      -8.554  11.803  64.241  1.00  0.00     0.000 HD 
BRANCH  13  15
HETATM   15  C   UNL     1      -7.959  11.038  66.075  1.00  0.00    -0.094 C  
BRANCH  15  16
HETATM   16  C   UNL     1      -7.433   9.658  66.501  1.00  0.00    -0.094 C  
BRANCH  16  17
HETATM   17  C   UNL     1      -8.146   9.111  67.699  1.00  0.00    -0.104 A  
HETATM   18  C   UNL     1      -7.970   9.473  69.025  1.00  0.00    -0.092 A  
HETATM   19  N   UNL     1      -8.790   8.673  69.785  1.00  0.00    -0.135 NA 
HETATM   20  C   UNL     1      -7.098  10.488  69.669  1.00  0.00    -0.141 C  
HETATM   21  H   UNL     1      -8.860   8.714  70.801  1.00  0.00     0.000 HD 
HETATM   22  C   UNL     1      -9.503   7.813  68.988  1.00  0.00    -0.150 A  
HETATM   23  C   UNL     1     -10.436   6.828  69.335  1.00  0.00    -0.244 A  
HETATM   24  C   UNL     1     -11.020   6.094  68.298  1.00  0.00    -0.397 A  
HETATM   25  C   UNL     1     -10.683   6.338  66.969  1.00  0.00    -0.435 A  
HETATM   26  C   UNL     1      -9.741   7.319  66.642  1.00  0.00    -0.249 A  
HETATM   27  C   UNL     1      -9.136   8.072  67.671  1.00  0.00    -0.144 A  
ENDBRANCH  16  17
ENDBRANCH  15  16
ENDBRANCH  13  15
ENDBRANCH  12  13
ENDBRANCH  10  12
ENDBRANCH   2   6
BRANCH   3  28
HETATM   28  N   UNL     1     -13.628  15.392  71.640  1.00  0.00    -0.485 NA 
HETATM   29  H   UNL     1     -14.357  15.037  71.020  1.00  0.00     0.000 HD 
HETATM   30  O   UNL     1     -13.842  15.779  72.972  1.00  0.00    -0.605 OA 
HETATM   31  H   UNL     1     -14.752  15.668  73.221  1.00  0.00     0.000 HD 
ENDBRANCH   3  28
TORSDOF 7
ENDMDL
MODEL      151
REMARK 921   NORMALIZED FREE ENERGY PREDICTED BY IDOCK:   -4.34 KCAL/MOL
REMARK 922        TOTAL FREE ENERGY PREDICTED BY IDOCK:   -8.74 KCAL/MOL
REMARK 923 INTER-LIGAND FREE ENERGY PREDICTED BY IDOCK:   -5.87 KCAL/MOL
REMARK 924 INTRA-LIGAND FREE ENERGY PREDICTED BY IDOCK:   -2.87 KCAL/MOL
REMARK 927      BINDING AFFINITY PREDICTED BY RF-SCORE:    0.00 PKD
ROOT
HETATM    1  C   UNL     1      -9.417  12.838  66.664  1.00  0.00    -0.249 C  
HETATM    2  C   UNL     1      -8.311  12.768  67.421  1.00  0.00    -0.189 C  
HETATM    3  C   UNL     1      -9.963  11.604  66.087  1.00  0.00    -0.221 C  
HETATM    4  H   UNL     1     -11.652  10.870  65.531  1.00  0.00     0.000 HD 
HETATM    5  O   UNL     1     -11.298  11.669  65.905  1.00  0.00    -0.298 OA 
ENDROOT
BRANCH   2   6
HETATM    6  C   UNL     1      -7.750  13.969  68.028  1.00  0.00    -0.149 A  
HETATM    7  C   UNL     1      -8.199  14.404  69.278  1.00  0.00     0.124 A  
HETATM    8  C   UNL     1      -7.581  15.490  69.903  1.00  0.00     0.044 A  
HETATM    9  C   UNL     1      -6.714  14.649  67.385  1.00  0.00    -0.039 A  
HETATM   10  C   UNL     1      -6.507  16.146  69.286  1.00  0.00    -0.182 A  
HETATM   11  C   UNL     1      -6.094  15.731  68.011  1.00  0.00    -0.149 A  
BRANCH  10  12
HETATM   12  C   UNL     1      -5.723  17.193  70.037  1.00  0.00    -0.232 C  
BRANCH  12  13
HETATM   13  N   UNL     1      -5.467  18.389  69.234  1.00  0.00    -0.205 NA 
HETATM   14  H   UNL     1      -5.593  18.204  68.239  1.00  0.00     0.000 HD 
BRANCH  13  15
HETATM   15  C   UNL     1      -6.290  19.526  69.679  1.00  0.00    -0.316 C  
BRANCH  15  16
HETATM   16  C   UNL     1      -7.154  20.133  68.563  1.00  0.00    -0.264 C  
BRANCH  16  17
HETATM   17  C   UNL     1      -7.598  19.118  67.556  1.00  0.00    -0.260 A  
HETATM   18  C   UNL     1      -7.030  18.848  66.321  1.00  0.00    -0.233 A  
HETATM   19  N   UNL     1      -7.797  17.884  65.714  1.00  0.00    -0.546 NA 
HETATM   20  C   UNL     1      -5.840  19.412  65.632  1.00  0.00    -0.200 C  
HETATM   21  H   UNL     1      -7.617  17.498  64.787  1.00  0.00     0.000 HD 
HETATM   22  C   UNL     1      -8.839  17.509  66.525  1.00  0.00    -0.266 A  
HETATM   23  C   UNL     1      -9.860  16.577  66.307  1.00  0.00    -0.336 A  
HETATM   24  C   UNL     1     -10.798  16.392  67.327  1.00  0.00    -0.194 A  
HETATM   25  C   UNL     1     -10.714  17.111  68.517  1.00  0.00    -0.326 A  
HETATM   26  C   UNL     1      -9.691  18.045  68.714  1.00  0.00    -0.336 A  
HETATM   27  C   UNL     1      -8.734  18.252  67.697  1.00  0.00    -0.261 A  
ENDBRANCH  16  17
ENDBRANCH  15  16
ENDBRANCH  13  15
ENDBRANCH  12  13
ENDBRANCH  10  12
ENDBRANCH   2   6
BRANCH   3  28
HETATM   28  N   UNL     1      -9.261  10.562  65.777  1.00  0.00    -0.173 NA 
HETATM   29  H   UNL     1      -8.342  10.350  66.167  1.00  0.00     0.000 HD 
HETATM   30  O   UNL     1      -9.926   9.762  64.836  1.00  0.00    -0.412 OA 
HETATM   31  H   UNL     1      -9.411   8.997  64.608  1.00  0.00     0.000 HD 
ENDBRANCH   3  28
TORSDOF 7
ENDMDL
MODEL      152
REMARK 921   NORMALIZED FREE ENERGY PREDICTED BY IDOCK:   -4.33 KCAL/MOL
REMARK 922        TOTAL FREE ENERGY PREDICTED BY IDOCK:   -8.73 KCAL/MOL
REMARK 923 INTER-LIGAND FREE ENERGY PREDICTED BY IDOCK:   -5.77 KCAL/MOL
REMARK 924 INTRA-LIGAND FREE ENERGY PREDICTED BY IDOCK:   -2.96 KCAL/MOL
REMARK 927      BINDING AFFINITY PREDICTED BY RF-SCORE:    0.00 PKD
ROOT
HETATM    1  C   UNL     1      -9.712   4.290  69.971  1.00  0.00    -0.287 C  
HETATM    2  C   UNL     1      -9.151   5.430  70.402  1.00  0.00    -0.170 C  
HETATM    3  C   UNL     1      -8.844   3.182  69.556  1.00  0.00    -0.091 C  
HETATM    4  H   UNL     1      -8.863   1.260  69.471  1.00  0.00     0.000 HD 
HETATM    5  O   UNL     1      -9.425   1.978  69.740  1.00  0.00    -0.111 OA 
ENDROOT
BRANCH   2   6
HETATM    6  C   UNL     1      -9.980   6.545  70.842  1.00  0.00    -0.204 A  
HETATM    7  C   UNL     1      -9.405   7.790  71.111  1.00  0.00    -0.164 A  
HETATM    8  C   UNL     1     -10.218   8.882  71.424  1.00  0.00    -0.375 A  
HETATM    9  C   UNL     1     -11.364   6.384  70.933  1.00  0.00    -0.398 A  
HETATM   10  C   UNL     1     -11.612   8.739  71.468  1.00  0.00    -0.374 A  
HETATM   11  C   UNL     1     -12.176   7.475  71.243  1.00  0.00    -0.357 A  
BRANCH  10  12
HETATM   12  C   UNL     1     -12.495   9.952  71.622  1.00  0.00    -0.415 C  
BRANCH  12  13
HETATM   13  N   UNL     1     -12.998  10.448  70.340  1.00  0.00    -0.517 NA 
HETATM   14  H   UNL     1     -13.981  10.716  70.404  1.00  0.00     0.000 HD 
BRANCH  13  15
HETATM   15  C   UNL     1     -12.171  11.553  69.826  1.00  0.00    -0.244 C  
BRANCH  15  16
HETATM   16  C   UNL     1     -11.846  11.432  68.329  1.00  0.00    -0.320 C  
BRANCH  16  17
HETATM   17  C   UNL     1     -10.487  10.854  68.077  1.00  0.00    -0.222 A  
HETATM   18  C   UNL     1      -9.274  11.522  68.065  1.00  0.00    -0.175 A  
HETATM   19  N   UNL     1      -8.301  10.610  67.734  1.00  0.00    -0.115 NA 
HETATM   20  C   UNL     1      -8.921  12.943  68.319  1.00  0.00    -0.175 C  
HETATM   21  H   UNL     1      -7.309  10.827  67.642  1.00  0.00     0.000 HD 
HETATM   22  C   UNL     1      -8.847   9.365  67.544  1.00  0.00    -0.118 A  
HETATM   23  C   UNL     1      -8.235   8.157  67.190  1.00  0.00    -0.120 A  
HETATM   24  C   UNL     1      -9.049   7.026  67.073  1.00  0.00    -0.150 A  
HETATM   25  C   UNL     1     -10.421   7.104  67.303  1.00  0.00    -0.372 A  
HETATM   26  C   UNL     1     -11.017   8.322  67.647  1.00  0.00     0.088 A  
HETATM   27  C   UNL     1     -10.217   9.479  67.769  1.00  0.00    -0.265 A  
ENDBRANCH  16  17
ENDBRANCH  15  16
ENDBRANCH  13  15
ENDBRANCH  12  13
ENDBRANCH  10  12
ENDBRANCH   2   6
BRANCH   3  28
HETATM   28  N   UNL     1      -7.656   3.321  69.065  1.00  0.00    -0.048 NA 
HETATM   29  H   UNL     1      -6.796   3.265  69.612  1.00  0.00     0.000 HD 
HETATM   30  O   UNL     1      -7.700   3.559  67.683  1.00  0.00    -0.075 OA 
HETATM   31  H   UNL     1      -6.827   3.661  67.322  1.00  0.00     0.000 HD 
ENDBRANCH   3  28
TORSDOF 7
ENDMDL
MODEL      153
REMARK 921   NORMALIZED FREE ENERGY PREDICTED BY IDOCK:   -4.30 KCAL/MOL
REMARK 922        TOTAL FREE ENERGY PREDICTED BY IDOCK:   -8.70 KCAL/MOL
REMARK 923 INTER-LIGAND FREE ENERGY PREDICTED BY IDOCK:   -7.69 KCAL/MOL
REMARK 924 INTRA-LIGAND FREE ENERGY PREDICTED BY IDOCK:   -1.00 KCAL/MOL
REMARK 927      BINDING AFFINITY PREDICTED BY RF-SCORE:    0.00 PKD
ROOT
HETATM    1  C   UNL     1      -7.450   9.110  64.687  1.00  0.00    -0.104 C  
HETATM    2  C   UNL     1      -8.644   9.001  65.290  1.00  0.00    -0.199 C  
HETATM    3  C   UNL     1      -6.606   7.917  64.561  1.00  0.00    -0.056 C  
HETATM    4  H   UNL     1      -5.252   7.197  63.398  1.00  0.00     0.000 HD 
HETATM    5  O   UNL     1      -5.800   7.970  63.480  1.00  0.00    -0.060 OA 
ENDROOT
BRANCH   2   6
HETATM    6  C   UNL     1      -9.521  10.159  65.416  1.00  0.00    -0.296 A  
HETATM    7  C   UNL     1      -9.664  11.056  64.354  1.00  0.00    -0.330 A  
HETATM    8  C   UNL     1     -10.589  12.100  64.441  1.00  0.00    -0.363 A  
HETATM    9  C   UNL     1     -10.268  10.336  66.582  1.00  0.00    -0.294 A  
HETATM   10  C   UNL     1     -11.379  12.253  65.588  1.00  0.00    -0.394 A  
HETATM   11  C   UNL     1     -11.194  11.376  66.667  1.00  0.00    -0.298 A  
BRANCH  10  12
HETATM   12  C   UNL     1     -12.501  13.261  65.608  1.00  0.00    -0.451 C  
BRANCH  12  13
HETATM   13  N   UNL     1     -12.376  14.220  66.706  1.00  0.00    -0.559 NA 
HETATM   14  H   UNL     1     -12.508  13.771  67.612  1.00  0.00     0.000 HD 
BRANCH  13  15
HETATM   15  C   UNL     1     -11.096  14.946  66.647  1.00  0.00    -0.329 C  
BRANCH  15  16
HETATM   16  C   UNL     1     -10.213  14.736  67.886  1.00  0.00    -0.229 C  
BRANCH  16  17
HETATM   17  C   UNL     1     -10.797  15.344  69.124  1.00  0.00    -0.249 A  
HETATM   18  C   UNL     1     -10.709  16.663  69.541  1.00  0.00    -0.306 A  
HETATM   19  N   UNL     1     -11.342  16.756  70.757  1.00  0.00    -0.374 NA 
HETATM   20  C   UNL     1     -10.076  17.858  68.924  1.00  0.00    -0.349 C  
HETATM   21  H   UNL     1     -11.423  17.613  71.304  1.00  0.00     0.000 HD 
HETATM   22  C   UNL     1     -11.851  15.539  71.134  1.00  0.00    -0.387 A  
HETATM   23  C   UNL     1     -12.553  15.176  72.289  1.00  0.00    -0.422 A  
HETATM   24  C   UNL     1     -12.963  13.844  72.408  1.00  0.00    -0.457 A  
HETATM   25  C   UNL     1     -12.680  12.916  71.409  1.00  0.00    -0.366 A  
HETATM   26  C   UNL     1     -11.968  13.295  70.266  1.00  0.00    -0.372 A  
HETATM   27  C   UNL     1     -11.542  14.633  70.124  1.00  0.00    -0.336 A  
ENDBRANCH  16  17
ENDBRANCH  15  16
ENDBRANCH  13  15
ENDBRANCH  12  13
ENDBRANCH  10  12
ENDBRANCH   2   6
BRANCH   3  28
HETATM   28  N   UNL     1      -6.613   6.919  65.383  1.00  0.00    -0.049 NA 
HETATM   29  H   UNL     1      -6.191   6.935  66.313  1.00  0.00     0.000 HD 
HETATM   30  O   UNL     1      -7.275   5.811  64.834  1.00  0.00    -0.062 OA 
HETATM   31  H   UNL     1      -7.280   5.078  65.438  1.00  0.00     0.000 HD 
ENDBRANCH   3  28
TORSDOF 7
ENDMDL
MODEL      154
REMARK 921   NORMALIZED FREE ENERGY PREDICTED BY IDOCK:   -4.29 KCAL/MOL
REMARK 922        TOTAL FREE ENERGY PREDICTED BY IDOCK:   -8.68 KCAL/MOL
REMARK 923 INTER-LIGAND FREE ENERGY PREDICTED BY IDOCK:   -8.05 KCAL/MOL
REMARK 924 INTRA-LIGAND FREE ENERGY PREDICTED BY IDOCK:   -0.63 KCAL/MOL
REMARK 927      BINDING AFFINITY PREDICTED BY RF-SCORE:    0.00 PKD
ROOT
HETATM    1  C   UNL     1     -10.630   8.039  69.037  1.00  0.00    -0.169 C  
HETATM    2  C   UNL     1     -11.031   9.155  69.664  1.00  0.00    -0.168 C  
HETATM    3  C   UNL     1     -10.535   6.789  69.799  1.00  0.00    -0.210 C  
HETATM    4  H   UNL     1     -10.672   4.891  69.522  1.00  0.00     0.000 HD 
HETATM    5  O   UNL     1     -10.735   5.700  69.028  1.00  0.00    -0.267 OA 
ENDROOT
BRANCH   2   6
HETATM    6  C   UNL     1     -11.159  10.412  68.936  1.00  0.00    -0.296 A  
HETATM    7  C   UNL     1     -10.917  10.460  67.561  1.00  0.00    -0.358 A  
HETATM    8  C   UNL     1     -11.149  11.640  66.851  1.00  0.00    -0.365 A  
HETATM    9  C   UNL     1     -11.588  11.559  69.608  1.00  0.00    -0.403 A  
HETATM   10  C   UNL     1     -11.627  12.781  67.510  1.00  0.00    -0.412 A  
HETATM   11  C   UNL     1     -11.822  12.737  68.898  1.00  0.00    -0.351 A  
BRANCH  10  12
HETATM   12  C   UNL     1     -12.052  13.993  66.719  1.00  0.00    -0.447 C  
BRANCH  12  13
HETATM   13  N   UNL     1     -10.923  14.677  66.087  1.00  0.00    -0.323 NA 
HETATM   14  H   UNL     1     -11.142  14.953  65.130  1.00  0.00     0.000 HD 
BRANCH  13  15
HETATM   15  C   UNL     1     -10.472  15.827  66.888  1.00  0.00    -0.315 C  
BRANCH  15  16
HETATM   16  C   UNL     1      -9.223  16.520  66.320  1.00  0.00    -0.345 C  
BRANCH  16  17
HETATM   17  C   UNL     1      -8.900  17.801  67.026  1.00  0.00    -0.260 A  
HETATM   18  C   UNL     1      -9.509  19.035  66.860  1.00  0.00    -0.316 A  
HETATM   19  N   UNL     1      -8.853  19.932  67.667  1.00  0.00    -0.328 NA 
HETATM   20  C   UNL     1     -10.643  19.474  66.007  1.00  0.00    -0.589 C  
HETATM   21  H   UNL     1      -9.084  20.923  67.741  1.00  0.00     0.000 HD 
HETATM   22  C   UNL     1      -7.845  19.314  68.363  1.00  0.00    -0.341 A  
HETATM   23  C   UNL     1      -6.927  19.841  69.280  1.00  0.00    -0.349 A  
HETATM   24  C   UNL     1      -6.000  18.963  69.849  1.00  0.00    -0.266 A  
HETATM   25  C   UNL     1      -5.994  17.611  69.513  1.00  0.00    -0.243 A  
HETATM   26  C   UNL     1      -6.913  17.104  68.588  1.00  0.00    -0.209 A  
HETATM   27  C   UNL     1      -7.857  17.971  67.998  1.00  0.00    -0.257 A  
ENDBRANCH  16  17
ENDBRANCH  15  16
ENDBRANCH  13  15
ENDBRANCH  12  13
ENDBRANCH  10  12
ENDBRANCH   2   6
BRANCH   3  28
HETATM   28  N   UNL     1     -10.284   6.717  71.066  1.00  0.00    -0.191 NA 
HETATM   29  H   UNL     1      -9.389   6.962  71.491  1.00  0.00     0.000 HD 
HETATM   30  O   UNL     1     -11.400   6.257  71.782  1.00  0.00    -0.269 OA 
HETATM   31  H   UNL     1     -11.215   6.204  72.712  1.00  0.00     0.000 HD 
ENDBRANCH   3  28
TORSDOF 7
ENDMDL
MODEL      155
REMARK 921   NORMALIZED FREE ENERGY PREDICTED BY IDOCK:   -4.29 KCAL/MOL
REMARK 922        TOTAL FREE ENERGY PREDICTED BY IDOCK:   -8.68 KCAL/MOL
REMARK 923 INTER-LIGAND FREE ENERGY PREDICTED BY IDOCK:   -8.19 KCAL/MOL
REMARK 924 INTRA-LIGAND FREE ENERGY PREDICTED BY IDOCK:   -0.48 KCAL/MOL
REMARK 927      BINDING AFFINITY PREDICTED BY RF-SCORE:    0.00 PKD
ROOT
HETATM    1  C   UNL     1     -12.144   9.509  71.766  1.00  0.00    -0.459 C  
HETATM    2  C   UNL     1     -13.080  10.339  71.281  1.00  0.00    -0.492 C  
HETATM    3  C   UNL     1     -12.490   8.102  71.994  1.00  0.00    -0.336 C  
HETATM    4  H   UNL     1     -11.647   6.373  72.022  1.00  0.00     0.000 HD 
HETATM    5  O   UNL     1     -11.423   7.284  71.874  1.00  0.00    -0.253 OA 
ENDROOT
BRANCH   2   6
HETATM    6  C   UNL     1     -12.769  11.740  71.022  1.00  0.00    -0.372 A  
HETATM    7  C   UNL     1     -11.906  12.091  69.980  1.00  0.00    -0.392 A  
HETATM    8  C   UNL     1     -11.700  13.437  69.667  1.00  0.00    -0.375 A  
HETATM    9  C   UNL     1     -13.387  12.737  71.780  1.00  0.00    -0.436 A  
HETATM   10  C   UNL     1     -12.356  14.441  70.391  1.00  0.00    -0.406 A  
HETATM   11  C   UNL     1     -13.183  14.080  71.465  1.00  0.00    -0.431 A  
BRANCH  10  12
HETATM   12  C   UNL     1     -12.280  15.878  69.937  1.00  0.00    -0.167 C  
BRANCH  12  13
HETATM   13  N   UNL     1     -10.981  16.489  70.220  1.00  0.00    -0.371 NA 
HETATM   14  H   UNL     1     -10.334  15.817  70.635  1.00  0.00     0.000 HD 
BRANCH  13  15
HETATM   15  C   UNL     1     -10.406  17.118  69.019  1.00  0.00    -0.331 C  
BRANCH  15  16
HETATM   16  C   UNL     1     -10.194  16.139  67.854  1.00  0.00    -0.261 C  
BRANCH  16  17
HETATM   17  C   UNL     1      -8.755  15.774  67.658  1.00  0.00    -0.178 A  
HETATM   18  C   UNL     1      -7.725  16.596  67.228  1.00  0.00    -0.169 A  
HETATM   19  N   UNL     1      -6.590  15.827  67.140  1.00  0.00    -0.291 NA 
HETATM   20  C   UNL     1      -7.691  18.038  66.871  1.00  0.00    -0.245 C  
HETATM   21  H   UNL     1      -5.678  16.170  66.839  1.00  0.00     0.000 HD 
HETATM   22  C   UNL     1      -6.850  14.532  67.515  1.00  0.00    -0.143 A  
HETATM   23  C   UNL     1      -5.999  13.422  67.567  1.00  0.00    -0.050 A  
HETATM   24  C   UNL     1      -6.542  12.208  68.001  1.00  0.00    -0.069 A  
HETATM   25  C   UNL     1      -7.882  12.113  68.368  1.00  0.00    -0.149 A  
HETATM   26  C   UNL     1      -8.720  13.232  68.300  1.00  0.00    -0.168 A  
HETATM   27  C   UNL     1      -8.196  14.468  67.863  1.00  0.00    -0.155 A  
ENDBRANCH  16  17
ENDBRANCH  15  16
ENDBRANCH  13  15
ENDBRANCH  12  13
ENDBRANCH  10  12
ENDBRANCH   2   6
BRANCH   3  28
HETATM   28  N   UNL     1     -13.676   7.672  72.282  1.00  0.00    -0.521 NA 
HETATM   29  H   UNL     1     -14.060   6.783  71.959  1.00  0.00     0.000 HD 
HETATM   30  O   UNL     1     -14.365   8.584  73.095  1.00  0.00    -0.973 OA 
HETATM   31  H   UNL     1     -15.235   8.267  73.307  1.00  0.00     0.000 HD 
ENDBRANCH   3  28
TORSDOF 7
ENDMDL
MODEL      156
REMARK 921   NORMALIZED FREE ENERGY PREDICTED BY IDOCK:   -4.29 KCAL/MOL
REMARK 922        TOTAL FREE ENERGY PREDICTED BY IDOCK:   -8.68 KCAL/MOL
REMARK 923 INTER-LIGAND FREE ENERGY PREDICTED BY IDOCK:   -7.90 KCAL/MOL
REMARK 924 INTRA-LIGAND FREE ENERGY PREDICTED BY IDOCK:   -0.77 KCAL/MOL
REMARK 927      BINDING AFFINITY PREDICTED BY RF-SCORE:    0.00 PKD
ROOT
HETATM    1  C   UNL     1     -10.322   6.375  69.933  1.00  0.00    -0.242 C  
HETATM    2  C   UNL     1     -11.129   6.913  70.860  1.00  0.00    -0.313 C  
HETATM    3  C   UNL     1     -10.113   4.923  69.928  1.00  0.00    -0.262 C  
HETATM    4  H   UNL     1      -9.704   3.507  68.691  1.00  0.00     0.000 HD 
HETATM    5  O   UNL     1      -9.840   4.448  68.695  1.00  0.00    -0.144 OA 
ENDROOT
BRANCH   2   6
HETATM    6  C   UNL     1     -11.379   8.349  70.885  1.00  0.00    -0.298 A  
HETATM    7  C   UNL     1     -10.675   9.204  70.033  1.00  0.00    -0.254 A  
HETATM    8  C   UNL     1     -10.997  10.563  69.983  1.00  0.00    -0.351 A  
HETATM    9  C   UNL     1     -12.372   8.864  71.721  1.00  0.00    -0.424 A  
HETATM   10  C   UNL     1     -12.027  11.076  70.782  1.00  0.00    -0.436 A  
HETATM   11  C   UNL     1     -12.696  10.220  71.668  1.00  0.00    -0.561 A  
BRANCH  10  12
HETATM   12  C   UNL     1     -12.497  12.497  70.594  1.00  0.00    -0.238 C  
BRANCH  12  13
HETATM   13  N   UNL     1     -11.458  13.366  70.040  1.00  0.00    -0.510 NA 
HETATM   14  H   UNL     1     -10.807  12.842  69.454  1.00  0.00     0.000 HD 
BRANCH  13  15
HETATM   15  C   UNL     1     -12.038  14.507  69.312  1.00  0.00    -0.290 C  
BRANCH  15  16
HETATM   16  C   UNL     1     -12.028  14.332  67.786  1.00  0.00    -0.384 C  
BRANCH  16  17
HETATM   17  C   UNL     1     -10.726  14.733  67.165  1.00  0.00    -0.299 A  
HETATM   18  C   UNL     1      -9.766  13.905  66.604  1.00  0.00    -0.289 A  
HETATM   19  N   UNL     1      -8.714  14.696  66.211  1.00  0.00    -0.438 NA 
HETATM   20  C   UNL     1      -9.720  12.433  66.406  1.00  0.00    -0.246 C  
HETATM   21  H   UNL     1      -7.860  14.351  65.773  1.00  0.00     0.000 HD 
HETATM   22  C   UNL     1      -8.969  16.016  66.488  1.00  0.00    -0.292 A  
HETATM   23  C   UNL     1      -8.180  17.151  66.269  1.00  0.00    -0.306 A  
HETATM   24  C   UNL     1      -8.705  18.390  66.649  1.00  0.00    -0.295 A  
HETATM   25  C   UNL     1      -9.970  18.486  67.225  1.00  0.00    -0.350 A  
HETATM   26  C   UNL     1     -10.740  17.340  67.444  1.00  0.00    -0.247 A  
HETATM   27  C   UNL     1     -10.232  16.077  67.071  1.00  0.00    -0.282 A  
ENDBRANCH  16  17
ENDBRANCH  15  16
ENDBRANCH  13  15
ENDBRANCH  12  13
ENDBRANCH  10  12
ENDBRANCH   2   6
BRANCH   3  28
HETATM   28  N   UNL     1     -10.175   4.166  70.975  1.00  0.00    -0.049 NA 
HETATM   29  H   UNL     1     -11.036   3.760  71.342  1.00  0.00     0.000 HD 
HETATM   30  O   UNL     1      -8.906   3.974  71.541  1.00  0.00    -0.102 OA 
HETATM   31  H   UNL     1      -8.951   3.418  72.310  1.00  0.00     0.000 HD 
ENDBRANCH   3  28
TORSDOF 7
ENDMDL
MODEL      157
REMARK 921   NORMALIZED FREE ENERGY PREDICTED BY IDOCK:   -4.28 KCAL/MOL
REMARK 922        TOTAL FREE ENERGY PREDICTED BY IDOCK:   -8.67 KCAL/MOL
REMARK 923 INTER-LIGAND FREE ENERGY PREDICTED BY IDOCK:   -8.14 KCAL/MOL
REMARK 924 INTRA-LIGAND FREE ENERGY PREDICTED BY IDOCK:   -0.53 KCAL/MOL
REMARK 927      BINDING AFFINITY PREDICTED BY RF-SCORE:    0.00 PKD
ROOT
HETATM    1  C   UNL     1     -10.987  14.529  69.167  1.00  0.00    -0.286 C  
HETATM    2  C   UNL     1     -11.597  13.507  69.785  1.00  0.00    -0.313 C  
HETATM    3  C   UNL     1     -11.533  15.882  69.320  1.00  0.00    -0.374 C  
HETATM    4  H   UNL     1     -10.939  17.712  69.314  1.00  0.00     0.000 HD 
HETATM    5  O   UNL     1     -10.584  16.835  69.215  1.00  0.00    -0.319 OA 
ENDROOT
BRANCH   2   6
HETATM    6  C   UNL     1     -11.072  12.152  69.674  1.00  0.00    -0.046 A  
HETATM    7  C   UNL     1     -11.873  11.054  69.997  1.00  0.00    -0.435 A  
HETATM    8  C   UNL     1     -11.401   9.756  69.783  1.00  0.00    -0.201 A  
HETATM    9  C   UNL     1      -9.781  11.950  69.181  1.00  0.00     0.292 A  
HETATM   10  C   UNL     1     -10.126   9.547  69.241  1.00  0.00    -0.203 A  
HETATM   11  C   UNL     1      -9.311  10.654  68.964  1.00  0.00    -0.191 A  
BRANCH  10  12
HETATM   12  C   UNL     1      -9.690   8.160  68.839  1.00  0.00    -0.156 C  
BRANCH  12  13
HETATM   13  N   UNL     1     -10.076   7.825  67.467  1.00  0.00    -0.190 NA 
HETATM   14  H   UNL     1     -10.807   7.113  67.449  1.00  0.00     0.000 HD 
BRANCH  13  15
HETATM   15  C   UNL     1     -10.472   9.023  66.709  1.00  0.00    -0.200 C  
BRANCH  15  16
HETATM   16  C   UNL     1      -9.416   9.483  65.691  1.00  0.00    -0.326 C  
BRANCH  16  17
HETATM   17  C   UNL     1      -9.974  10.409  64.655  1.00  0.00    -0.408 A  
HETATM   18  C   UNL     1      -9.758  10.375  63.287  1.00  0.00    -0.255 A  
HETATM   19  N   UNL     1     -10.420  11.446  62.737  1.00  0.00    -0.660 NA 
HETATM   20  C   UNL     1      -8.979   9.446  62.428  1.00  0.00    -0.258 C  
HETATM   21  H   UNL     1     -10.428  11.675  61.743  1.00  0.00     0.000 HD 
HETATM   22  C   UNL     1     -11.070  12.166  63.707  1.00  0.00    -0.436 A  
HETATM   23  C   UNL     1     -11.849  13.325  63.599  1.00  0.00    -0.515 A  
HETATM   24  C   UNL     1     -12.403  13.846  64.772  1.00  0.00    -0.429 A  
HETATM   25  C   UNL     1     -12.188  13.229  66.003  1.00  0.00    -0.483 A  
HETATM   26  C   UNL     1     -11.400  12.076  66.092  1.00  0.00    -0.407 A  
HETATM   27  C   UNL     1     -10.826  11.533  64.922  1.00  0.00    -0.345 A  
ENDBRANCH  16  17
ENDBRANCH  15  16
ENDBRANCH  13  15
ENDBRANCH  12  13
ENDBRANCH  10  12
ENDBRANCH   2   6
BRANCH   3  28
HETATM   28  N   UNL     1     -12.781  16.153  69.528  1.00  0.00    -0.396 NA 
HETATM   29  H   UNL     1     -13.408  16.554  68.829  1.00  0.00     0.000 HD 
HETATM   30  O   UNL     1     -13.163  15.826  70.838  1.00  0.00    -0.595 OA 
HETATM   31  H   UNL     1     -14.079  16.025  70.990  1.00  0.00     0.000 HD 
ENDBRANCH   3  28
TORSDOF 7
ENDMDL
MODEL      158
REMARK 921   NORMALIZED FREE ENERGY PREDICTED BY IDOCK:   -4.25 KCAL/MOL
REMARK 922        TOTAL FREE ENERGY PREDICTED BY IDOCK:   -8.61 KCAL/MOL
REMARK 923 INTER-LIGAND FREE ENERGY PREDICTED BY IDOCK:   -5.86 KCAL/MOL
REMARK 924 INTRA-LIGAND FREE ENERGY PREDICTED BY IDOCK:   -2.75 KCAL/MOL
REMARK 927      BINDING AFFINITY PREDICTED BY RF-SCORE:    0.00 PKD
ROOT
HETATM    1  C   UNL     1      -8.857   9.416  64.876  1.00  0.00    -0.240 C  
HETATM    2  C   UNL     1      -8.372   9.936  66.013  1.00  0.00    -0.124 C  
HETATM    3  C   UNL     1      -7.946   8.697  63.977  1.00  0.00    -0.158 C  
HETATM    4  H   UNL     1      -7.987   7.281  62.676  1.00  0.00     0.000 HD 
HETATM    5  O   UNL     1      -8.577   7.746  63.259  1.00  0.00     0.136 OA 
ENDROOT
BRANCH   2   6
HETATM    6  C   UNL     1      -9.250  10.639  66.942  1.00  0.00    -0.172 A  
HETATM    7  C   UNL     1     -10.556  10.191  67.156  1.00  0.00    -0.308 A  
HETATM    8  C   UNL     1     -11.353  10.801  68.128  1.00  0.00    -0.377 A  
HETATM    9  C   UNL     1      -8.759  11.727  67.667  1.00  0.00    -0.159 A  
HETATM   10  C   UNL     1     -10.850  11.860  68.894  1.00  0.00    -0.261 A  
HETATM   11  C   UNL     1      -9.555  12.333  68.639  1.00  0.00    -0.051 A  
BRANCH  10  12
HETATM   12  C   UNL     1     -11.640  12.394  70.063  1.00  0.00    -0.138 C  
BRANCH  12  13
HETATM   13  N   UNL     1     -12.448  13.562  69.711  1.00  0.00    -0.176 NA 
HETATM   14  H   UNL     1     -13.078  13.822  70.470  1.00  0.00     0.000 HD 
BRANCH  13  15
HETATM   15  C   UNL     1     -11.607  14.697  69.296  1.00  0.00    -0.302 C  
BRANCH  15  16
HETATM   16  C   UNL     1     -11.984  15.273  67.923  1.00  0.00    -0.018 C  
BRANCH  16  17
HETATM   17  C   UNL     1     -11.052  14.837  66.835  1.00  0.00    -0.339 A  
HETATM   18  C   UNL     1      -9.783  15.324  66.564  1.00  0.00    -0.268 A  
HETATM   19  N   UNL     1      -9.320  14.675  65.445  1.00  0.00    -0.361 NA 
HETATM   20  C   UNL     1      -8.950  16.353  67.239  1.00  0.00    -0.208 C  
HETATM   21  H   UNL     1      -8.412  14.842  65.012  1.00  0.00     0.000 HD 
HETATM   22  C   UNL     1     -10.247  13.771  64.989  1.00  0.00    -0.346 A  
HETATM   23  C   UNL     1     -10.200  12.911  63.886  1.00  0.00    -0.162 A  
HETATM   24  C   UNL     1     -11.302  12.081  63.662  1.00  0.00    -0.536 A  
HETATM   25  C   UNL     1     -12.406  12.112  64.511  1.00  0.00    -0.395 A  
HETATM   26  C   UNL     1     -12.440  12.984  65.604  1.00  0.00    -0.452 A  
HETATM   27  C   UNL     1     -11.340  13.834  65.850  1.00  0.00    -0.311 A  
ENDBRANCH  16  17
ENDBRANCH  15  16
ENDBRANCH  13  15
ENDBRANCH  12  13
ENDBRANCH  10  12
ENDBRANCH   2   6
BRANCH   3  28
HETATM   28  N   UNL     1      -6.679   8.936  63.867  1.00  0.00    -0.087 NA 
HETATM   29  H   UNL     1      -6.286   9.779  63.447  1.00  0.00     0.000 HD 
HETATM   30  O   UNL     1      -5.915   7.887  64.400  1.00  0.00    -0.051 OA 
HETATM   31  H   UNL     1      -4.985   8.062  64.319  1.00  0.00     0.000 HD 
ENDBRANCH   3  28
TORSDOF 7
ENDMDL
MODEL      159
REMARK 921   NORMALIZED FREE ENERGY PREDICTED BY IDOCK:   -4.23 KCAL/MOL
REMARK 922        TOTAL FREE ENERGY PREDICTED BY IDOCK:   -8.60 KCAL/MOL
REMARK 923 INTER-LIGAND FREE ENERGY PREDICTED BY IDOCK:   -7.76 KCAL/MOL
REMARK 924 INTRA-LIGAND FREE ENERGY PREDICTED BY IDOCK:   -0.84 KCAL/MOL
REMARK 927      BINDING AFFINITY PREDICTED BY RF-SCORE:    0.00 PKD
ROOT
HETATM    1  C   UNL     1     -11.213   8.218  72.307  1.00  0.00    -0.443 C  
HETATM    2  C   UNL     1     -11.106   8.536  71.008  1.00  0.00    -0.306 C  
HETATM    3  C   UNL     1     -11.023   6.822  72.716  1.00  0.00    -0.270 C  
HETATM    4  H   UNL     1     -10.427   5.810  74.240  1.00  0.00     0.000 HD 
HETATM    5  O   UNL     1     -10.550   6.715  73.975  1.00  0.00    -0.323 OA 
ENDROOT
BRANCH   2   6
HETATM    6  C   UNL     1     -11.267   9.916  70.565  1.00  0.00    -0.399 A  
HETATM    7  C   UNL     1     -10.476  10.423  69.531  1.00  0.00    -0.274 A  
HETATM    8  C   UNL     1     -10.711  11.709  69.038  1.00  0.00    -0.217 A  
HETATM    9  C   UNL     1     -12.262  10.713  71.136  1.00  0.00    -0.479 A  
HETATM   10  C   UNL     1     -11.740  12.496  69.572  1.00  0.00    -0.375 A  
HETATM   11  C   UNL     1     -12.498  11.995  70.641  1.00  0.00    -0.335 A  
BRANCH  10  12
HETATM   12  C   UNL     1     -12.113  13.804  68.920  1.00  0.00    -0.313 C  
BRANCH  12  13
HETATM   13  N   UNL     1     -11.867  13.803  67.477  1.00  0.00    -0.372 NA 
HETATM   14  H   UNL     1     -12.719  13.600  66.954  1.00  0.00     0.000 HD 
BRANCH  13  15
HETATM   15  C   UNL     1     -11.252  15.065  67.034  1.00  0.00    -0.328 C  
BRANCH  15  16
HETATM   16  C   UNL     1     -10.220  15.628  68.024  1.00  0.00    -0.227 C  
BRANCH  16  17
HETATM   17  C   UNL     1      -8.972  16.109  67.350  1.00  0.00    -0.201 A  
HETATM   18  C   UNL     1      -7.817  15.386  67.095  1.00  0.00    -0.214 A  
HETATM   19  N   UNL     1      -6.914  16.242  66.512  1.00  0.00    -0.175 NA 
HETATM   20  C   UNL     1      -7.457  13.968  67.353  1.00  0.00    -0.147 C  
HETATM   21  H   UNL     1      -5.970  15.981  66.225  1.00  0.00     0.000 HD 
HETATM   22  C   UNL     1      -7.454  17.495  66.369  1.00  0.00    -0.299 A  
HETATM   23  C   UNL     1      -6.892  18.663  65.840  1.00  0.00    -0.312 A  
HETATM   24  C   UNL     1      -7.688  19.812  65.812  1.00  0.00    -0.268 A  
HETATM   25  C   UNL     1      -8.995  19.789  66.293  1.00  0.00    -0.431 A  
HETATM   26  C   UNL     1      -9.537  18.615  66.826  1.00  0.00    -0.332 A  
HETATM   27  C   UNL     1      -8.752  17.443  66.868  1.00  0.00    -0.265 A  
ENDBRANCH  16  17
ENDBRANCH  15  16
ENDBRANCH  13  15
ENDBRANCH  12  13
ENDBRANCH  10  12
ENDBRANCH   2   6
BRANCH   3  28
HETATM   28  N   UNL     1     -11.279   5.795  71.972  1.00  0.00    -0.265 NA 
HETATM   29  H   UNL     1     -12.215   5.522  71.668  1.00  0.00     0.000 HD 
HETATM   30  O   UNL     1     -10.105   5.105  71.635  1.00  0.00    -0.186 OA 
HETATM   31  H   UNL     1     -10.293   4.351  71.088  1.00  0.00     0.000 HD 
ENDBRANCH   3  28
TORSDOF 7
ENDMDL
MODEL      160
REMARK 921   NORMALIZED FREE ENERGY PREDICTED BY IDOCK:   -4.21 KCAL/MOL
REMARK 922        TOTAL FREE ENERGY PREDICTED BY IDOCK:   -8.57 KCAL/MOL
REMARK 923 INTER-LIGAND FREE ENERGY PREDICTED BY IDOCK:   -7.61 KCAL/MOL
REMARK 924 INTRA-LIGAND FREE ENERGY PREDICTED BY IDOCK:   -0.96 KCAL/MOL
REMARK 927      BINDING AFFINITY PREDICTED BY RF-SCORE:    0.00 PKD
ROOT
HETATM    1  C   UNL     1      -9.773   5.815  68.486  1.00  0.00    -0.161 C  
HETATM    2  C   UNL     1     -10.244   6.827  69.229  1.00  0.00    -0.197 C  
HETATM    3  C   UNL     1      -9.640   4.487  69.094  1.00  0.00    -0.180 C  
HETATM    4  H   UNL     1      -9.679   2.632  68.585  1.00  0.00     0.000 HD 
HETATM    5  O   UNL     1      -9.765   3.492  68.191  1.00  0.00    -0.138 OA 
ENDROOT
BRANCH   2   6
HETATM    6  C   UNL     1     -10.410   8.156  68.654  1.00  0.00    -0.224 A  
HETATM    7  C   UNL     1     -10.290   8.351  67.276  1.00  0.00    -0.369 A  
HETATM    8  C   UNL     1     -10.560   9.604  66.720  1.00  0.00    -0.209 A  
HETATM    9  C   UNL     1     -10.755   9.228  69.480  1.00  0.00    -0.236 A  
HETATM   10  C   UNL     1     -10.955  10.671  67.538  1.00  0.00    -0.371 A  
HETATM   11  C   UNL     1     -11.027  10.479  68.925  1.00  0.00    -0.291 A  
BRANCH  10  12
HETATM   12  C   UNL     1     -11.424  11.966  66.922  1.00  0.00    -0.322 C  
BRANCH  12  13
HETATM   13  N   UNL     1     -10.368  12.649  66.174  1.00  0.00    -0.251 NA 
HETATM   14  H   UNL     1     -10.634  12.792  65.200  1.00  0.00     0.000 HD 
BRANCH  13  15
HETATM   15  C   UNL     1      -9.981  13.915  66.818  1.00  0.00    -0.269 C  
BRANCH  15  16
HETATM   16  C   UNL     1     -11.127  14.934  66.911  1.00  0.00    -0.337 C  
BRANCH  16  17
HETATM   17  C   UNL     1     -11.177  15.631  68.235  1.00  0.00    -0.353 A  
HETATM   18  C   UNL     1     -10.779  16.927  68.523  1.00  0.00    -0.359 A  
HETATM   19  N   UNL     1     -10.951  17.123  69.872  1.00  0.00    -0.236 NA 
HETATM   20  C   UNL     1     -10.235  18.012  67.666  1.00  0.00    -0.376 C  
HETATM   21  H   UNL     1     -10.729  17.987  70.366  1.00  0.00     0.000 HD 
HETATM   22  C   UNL     1     -11.462  15.996  70.466  1.00  0.00    -0.389 A  
HETATM   23  C   UNL     1     -11.780  15.749  71.807  1.00  0.00    -0.562 A  
HETATM   24  C   UNL     1     -12.301  14.492  72.129  1.00  0.00    -0.341 A  
HETATM   25  C   UNL     1     -12.495  13.523  71.148  1.00  0.00    -0.424 A  
HETATM   26  C   UNL     1     -12.162  13.785  69.814  1.00  0.00    -0.368 A  
HETATM   27  C   UNL     1     -11.633  15.045  69.463  1.00  0.00    -0.337 A  
ENDBRANCH  16  17
ENDBRANCH  15  16
ENDBRANCH  13  15
ENDBRANCH  12  13
ENDBRANCH  10  12
ENDBRANCH   2   6
BRANCH   3  28
HETATM   28  N   UNL     1      -9.422   4.271  70.351  1.00  0.00    -0.157 NA 
HETATM   29  H   UNL     1      -9.073   4.973  71.004  1.00  0.00     0.000 HD 
HETATM   30  O   UNL     1      -9.726   2.947  70.701  1.00  0.00    -0.148 OA 
HETATM   31  H   UNL     1      -9.566   2.788  71.624  1.00  0.00     0.000 HD 
ENDBRANCH   3  28
TORSDOF 7
ENDMDL
MODEL      161
REMARK 921   NORMALIZED FREE ENERGY PREDICTED BY IDOCK:   -4.21 KCAL/MOL
REMARK 922        TOTAL FREE ENERGY PREDICTED BY IDOCK:   -8.56 KCAL/MOL
REMARK 923 INTER-LIGAND FREE ENERGY PREDICTED BY IDOCK:   -7.80 KCAL/MOL
REMARK 924 INTRA-LIGAND FREE ENERGY PREDICTED BY IDOCK:   -0.76 KCAL/MOL
REMARK 927      BINDING AFFINITY PREDICTED BY RF-SCORE:    0.00 PKD
ROOT
HETATM    1  C   UNL     1     -12.126  14.584  70.790  1.00  0.00    -0.398 C  
HETATM    2  C   UNL     1     -12.528  13.305  70.807  1.00  0.00    -0.403 C  
HETATM    3  C   UNL     1     -12.707  15.526  71.754  1.00  0.00    -0.424 C  
HETATM    4  H   UNL     1     -12.238  17.138  72.692  1.00  0.00     0.000 HD 
HETATM    5  O   UNL     1     -11.861  16.529  72.068  1.00  0.00    -0.478 OA 
ENDROOT
BRANCH   2   6
HETATM    6  C   UNL     1     -11.959  12.335  69.879  1.00  0.00    -0.377 A  
HETATM    7  C   UNL     1     -11.690  11.029  70.298  1.00  0.00    -0.445 A  
HETATM    8  C   UNL     1     -11.248  10.077  69.376  1.00  0.00    -0.235 A  
HETATM    9  C   UNL     1     -11.740  12.698  68.548  1.00  0.00    -0.372 A  
HETATM   10  C   UNL     1     -11.076  10.421  68.029  1.00  0.00    -0.359 A  
HETATM   11  C   UNL     1     -11.303  11.745  67.628  1.00  0.00    -0.370 A  
BRANCH  10  12
HETATM   12  C   UNL     1     -10.781   9.354  67.004  1.00  0.00    -0.137 C  
BRANCH  12  13
HETATM   13  N   UNL     1      -9.359   9.013  66.940  1.00  0.00    -0.150 NA 
HETATM   14  H   UNL     1      -8.784   9.723  67.394  1.00  0.00     0.000 HD 
BRANCH  13  15
HETATM   15  C   UNL     1      -9.098   7.674  67.493  1.00  0.00    -0.125 C  
BRANCH  15  16
HETATM   16  C   UNL     1     -10.322   6.746  67.461  1.00  0.00    -0.267 C  
BRANCH  16  17
HETATM   17  C   UNL     1     -10.023   5.374  67.981  1.00  0.00    -0.199 A  
HETATM   18  C   UNL     1     -10.026   4.951  69.300  1.00  0.00    -0.199 A  
HETATM   19  N   UNL     1      -9.638   3.632  69.313  1.00  0.00    -0.167 NA 
HETATM   20  C   UNL     1     -10.342   5.658  70.568  1.00  0.00    -0.327 C  
HETATM   21  H   UNL     1      -9.543   3.064  70.155  1.00  0.00     0.000 HD 
HETATM   22  C   UNL     1      -9.398   3.184  68.039  1.00  0.00    -0.194 A  
HETATM   23  C   UNL     1      -8.978   1.926  67.590  1.00  0.00    -0.170 A  
HETATM   24  C   UNL     1      -8.819   1.748  66.213  1.00  0.00    -0.118 A  
HETATM   25  C   UNL     1      -9.071   2.788  65.322  1.00  0.00    -0.148 A  
HETATM   26  C   UNL     1      -9.481   4.041  65.789  1.00  0.00    -0.178 A  
HETATM   27  C   UNL     1      -9.647   4.247  67.175  1.00  0.00    -0.224 A  
ENDBRANCH  16  17
ENDBRANCH  15  16
ENDBRANCH  13  15
ENDBRANCH  12  13
ENDBRANCH  10  12
ENDBRANCH   2   6
BRANCH   3  28
HETATM   28  N   UNL     1     -13.896  15.427  72.255  1.00  0.00    -0.506 NA 
HETATM   29  H   UNL     1     -14.660  14.903  71.827  1.00  0.00     0.000 HD 
HETATM   30  O   UNL     1     -14.000  16.132  73.463  1.00  0.00    -0.825 OA 
HETATM   31  H   UNL     1     -14.873  16.059  73.831  1.00  0.00     0.000 HD 
ENDBRANCH   3  28
TORSDOF 7
ENDMDL
MODEL      162
REMARK 921   NORMALIZED FREE ENERGY PREDICTED BY IDOCK:   -4.20 KCAL/MOL
REMARK 922        TOTAL FREE ENERGY PREDICTED BY IDOCK:   -8.54 KCAL/MOL
REMARK 923 INTER-LIGAND FREE ENERGY PREDICTED BY IDOCK:   -7.76 KCAL/MOL
REMARK 924 INTRA-LIGAND FREE ENERGY PREDICTED BY IDOCK:   -0.79 KCAL/MOL
REMARK 927      BINDING AFFINITY PREDICTED BY RF-SCORE:    0.00 PKD
ROOT
HETATM    1  C   UNL     1     -11.717   9.414  71.121  1.00  0.00    -0.418 C  
HETATM    2  C   UNL     1     -11.391   9.432  69.819  1.00  0.00    -0.071 C  
HETATM    3  C   UNL     1     -12.287   8.190  71.694  1.00  0.00    -0.314 C  
HETATM    4  H   UNL     1     -12.375   7.265  73.378  1.00  0.00     0.000 HD 
HETATM    5  O   UNL     1     -12.005   8.057  73.007  1.00  0.00    -0.240 OA 
ENDROOT
BRANCH   2   6
HETATM    6  C   UNL     1     -10.802  10.623  69.218  1.00  0.00    -0.282 A  
HETATM    7  C   UNL     1      -9.434  10.671  68.940  1.00  0.00    -0.199 A  
HETATM    8  C   UNL     1      -8.896  11.769  68.264  1.00  0.00    -0.172 A  
HETATM    9  C   UNL     1     -11.623  11.694  68.860  1.00  0.00    -0.377 A  
HETATM   10  C   UNL     1      -9.723  12.825  67.857  1.00  0.00    -0.217 A  
HETATM   11  C   UNL     1     -11.087  12.789  68.181  1.00  0.00    -0.288 A  
BRANCH  10  12
HETATM   12  C   UNL     1      -9.180  13.916  66.968  1.00  0.00    -0.250 C  
BRANCH  12  13
HETATM   13  N   UNL     1      -7.717  13.927  66.920  1.00  0.00    -0.281 NA 
HETATM   14  H   UNL     1      -7.374  13.760  65.974  1.00  0.00     0.000 HD 
BRANCH  13  15
HETATM   15  C   UNL     1      -7.167  15.172  67.480  1.00  0.00    -0.200 C  
BRANCH  15  16
HETATM   16  C   UNL     1      -7.874  15.635  68.763  1.00  0.00    -0.169 C  
BRANCH  16  17
HETATM   17  C   UNL     1      -8.590  16.939  68.591  1.00  0.00    -0.267 A  
HETATM   18  C   UNL     1      -9.936  17.198  68.799  1.00  0.00    -0.315 A  
HETATM   19  N   UNL     1     -10.161  18.512  68.466  1.00  0.00    -0.375 NA 
HETATM   20  C   UNL     1     -11.051  16.335  69.268  1.00  0.00    -0.325 C  
HETATM   21  H   UNL     1     -11.069  18.975  68.513  1.00  0.00     0.000 HD 
HETATM   22  C   UNL     1      -8.998  19.117  68.061  1.00  0.00    -0.312 A  
HETATM   23  C   UNL     1      -8.768  20.428  67.628  1.00  0.00    -0.314 A  
HETATM   24  C   UNL     1      -7.459  20.777  67.279  1.00  0.00    -0.381 A  
HETATM   25  C   UNL     1      -6.424  19.848  67.363  1.00  0.00    -0.227 A  
HETATM   26  C   UNL     1      -6.674  18.540  67.790  1.00  0.00    -0.214 A  
HETATM   27  C   UNL     1      -7.988  18.163  68.145  1.00  0.00    -0.290 A  
ENDBRANCH  16  17
ENDBRANCH  15  16
ENDBRANCH  13  15
ENDBRANCH  12  13
ENDBRANCH  10  12
ENDBRANCH   2   6
BRANCH   3  28
HETATM   28  N   UNL     1     -12.988   7.325  71.035  1.00  0.00    -0.592 NA 
HETATM   29  H   UNL     1     -12.604   6.489  70.593  1.00  0.00     0.000 HD 
HETATM   30  O   UNL     1     -14.344   7.683  71.006  1.00  0.00    -0.668 OA 
HETATM   31  H   UNL     1     -14.859   7.048  70.522  1.00  0.00     0.000 HD 
ENDBRANCH   3  28
TORSDOF 7
ENDMDL
MODEL      163
REMARK 921   NORMALIZED FREE ENERGY PREDICTED BY IDOCK:   -4.19 KCAL/MOL
REMARK 922        TOTAL FREE ENERGY PREDICTED BY IDOCK:   -8.53 KCAL/MOL
REMARK 923 INTER-LIGAND FREE ENERGY PREDICTED BY IDOCK:   -6.58 KCAL/MOL
REMARK 924 INTRA-LIGAND FREE ENERGY PREDICTED BY IDOCK:   -1.95 KCAL/MOL
REMARK 927      BINDING AFFINITY PREDICTED BY RF-SCORE:    0.00 PKD
ROOT
HETATM    1  C   UNL     1      -8.422   8.184  69.358  1.00  0.00    -0.127 C  
HETATM    2  C   UNL     1      -8.660   9.495  69.201  1.00  0.00    -0.140 C  
HETATM    3  C   UNL     1      -8.178   7.662  70.707  1.00  0.00    -0.109 C  
HETATM    4  H   UNL     1      -8.398   6.035  71.710  1.00  0.00     0.000 HD 
HETATM    5  O   UNL     1      -8.557   6.373  70.837  1.00  0.00    -0.133 OA 
ENDROOT
BRANCH   2   6
HETATM    6  C   UNL     1      -8.928  10.048  67.879  1.00  0.00    -0.131 A  
HETATM    7  C   UNL     1      -9.767   9.374  66.988  1.00  0.00    -0.233 A  
HETATM    8  C   UNL     1     -10.107   9.963  65.767  1.00  0.00    -0.317 A  
HETATM    9  C   UNL     1      -8.393  11.290  67.528  1.00  0.00    -0.131 A  
HETATM   10  C   UNL     1      -9.615  11.231  65.431  1.00  0.00    -0.261 A  
HETATM   11  C   UNL     1      -8.736  11.879  66.311  1.00  0.00    -0.070 A  
BRANCH  10  12
HETATM   12  C   UNL     1     -10.127  11.944  64.204  1.00  0.00    -0.310 C  
BRANCH  12  13
HETATM   13  N   UNL     1     -10.888  13.151  64.530  1.00  0.00    -0.362 NA 
HETATM   14  H   UNL     1     -10.936  13.788  63.735  1.00  0.00     0.000 HD 
BRANCH  13  15
HETATM   15  C   UNL     1     -12.230  12.823  65.039  1.00  0.00    -0.473 C  
BRANCH  15  16
HETATM   16  C   UNL     1     -12.746  13.812  66.096  1.00  0.00    -0.335 C  
BRANCH  16  17
HETATM   17  C   UNL     1     -11.795  13.986  67.240  1.00  0.00    -0.445 A  
HETATM   18  C   UNL     1     -11.529  13.088  68.261  1.00  0.00    -0.312 A  
HETATM   19  N   UNL     1     -10.637  13.687  69.118  1.00  0.00    -0.429 NA 
HETATM   20  C   UNL     1     -12.034  11.717  68.534  1.00  0.00    -0.279 C  
HETATM   21  H   UNL     1     -10.270  13.258  69.967  1.00  0.00     0.000 HD 
HETATM   22  C   UNL     1     -10.307  14.943  68.674  1.00  0.00    -0.237 A  
HETATM   23  C   UNL     1      -9.452  15.900  69.234  1.00  0.00    -0.260 A  
HETATM   24  C   UNL     1      -9.297  17.110  68.551  1.00  0.00    -0.274 A  
HETATM   25  C   UNL     1      -9.970  17.350  67.355  1.00  0.00    -0.305 A  
HETATM   26  C   UNL     1     -10.827  16.385  66.815  1.00  0.00    -0.098 A  
HETATM   27  C   UNL     1     -11.003  15.156  67.488  1.00  0.00    -0.310 A  
ENDBRANCH  16  17
ENDBRANCH  15  16
ENDBRANCH  13  15
ENDBRANCH  12  13
ENDBRANCH  10  12
ENDBRANCH   2   6
BRANCH   3  28
HETATM   28  N   UNL     1      -7.654   8.340  71.677  1.00  0.00    -0.087 NA 
HETATM   29  H   UNL     1      -6.657   8.539  71.768  1.00  0.00     0.000 HD 
HETATM   30  O   UNL     1      -8.633   8.768  72.586  1.00  0.00    -0.411 OA 
HETATM   31  H   UNL     1      -8.248   9.266  73.298  1.00  0.00     0.000 HD 
ENDBRANCH   3  28
TORSDOF 7
ENDMDL
MODEL      164
REMARK 921   NORMALIZED FREE ENERGY PREDICTED BY IDOCK:   -4.18 KCAL/MOL
REMARK 922        TOTAL FREE ENERGY PREDICTED BY IDOCK:   -8.53 KCAL/MOL
REMARK 923 INTER-LIGAND FREE ENERGY PREDICTED BY IDOCK:   -7.70 KCAL/MOL
REMARK 924 INTRA-LIGAND FREE ENERGY PREDICTED BY IDOCK:   -0.82 KCAL/MOL
REMARK 927      BINDING AFFINITY PREDICTED BY RF-SCORE:    0.00 PKD
ROOT
HETATM    1  C   UNL     1     -10.195   4.282  64.985  1.00  0.00    -0.213 C  
HETATM    2  C   UNL     1      -9.249   5.056  65.538  1.00  0.00    -0.157 C  
HETATM    3  C   UNL     1      -9.878   3.531  63.766  1.00  0.00    -0.166 C  
HETATM    4  H   UNL     1     -10.391   1.908  62.870  1.00  0.00     0.000 HD 
HETATM    5  O   UNL     1     -10.597   2.394  63.660  1.00  0.00    -0.174 OA 
ENDROOT
BRANCH   2   6
HETATM    6  C   UNL     1      -9.520   5.802  66.761  1.00  0.00    -0.154 A  
HETATM    7  C   UNL     1      -8.529   6.600  67.337  1.00  0.00    -0.120 A  
HETATM    8  C   UNL     1      -8.829   7.396  68.445  1.00  0.00    -0.121 A  
HETATM    9  C   UNL     1     -10.799   5.766  67.323  1.00  0.00    -0.290 A  
HETATM   10  C   UNL     1     -10.123   7.404  68.982  1.00  0.00    -0.193 A  
HETATM   11  C   UNL     1     -11.099   6.564  68.426  1.00  0.00    -0.340 A  
BRANCH  10  12
HETATM   12  C   UNL     1     -10.494   8.398  70.055  1.00  0.00    -0.224 C  
BRANCH  12  13
HETATM   13  N   UNL     1      -9.590   9.548  70.094  1.00  0.00    -0.233 NA 
HETATM   14  H   UNL     1      -8.732   9.366  69.575  1.00  0.00     0.000 HD 
BRANCH  13  15
HETATM   15  C   UNL     1     -10.255  10.774  69.621  1.00  0.00    -0.057 C  
BRANCH  15  16
HETATM   16  C   UNL     1     -11.786  10.657  69.556  1.00  0.00    -0.356 C  
BRANCH  16  17
HETATM   17  C   UNL     1     -12.469  11.339  70.701  1.00  0.00    -0.439 A  
HETATM   18  C   UNL     1     -13.092  10.745  71.787  1.00  0.00    -0.468 A  
HETATM   19  N   UNL     1     -13.629  11.750  72.556  1.00  0.00    -0.415 NA 
HETATM   20  C   UNL     1     -13.256   9.322  72.182  1.00  0.00    -0.535 C  
HETATM   21  H   UNL     1     -14.155  11.603  73.418  1.00  0.00     0.000 HD 
HETATM   22  C   UNL     1     -13.359  12.978  72.008  1.00  0.00    -0.492 A  
HETATM   23  C   UNL     1     -13.718  14.259  72.447  1.00  0.00    -0.616 A  
HETATM   24  C   UNL     1     -13.293  15.349  71.682  1.00  0.00    -0.578 A  
HETATM   25  C   UNL     1     -12.539  15.163  70.525  1.00  0.00    -0.429 A  
HETATM   26  C   UNL     1     -12.198  13.876  70.098  1.00  0.00    -0.425 A  
HETATM   27  C   UNL     1     -12.617  12.758  70.852  1.00  0.00    -0.342 A  
ENDBRANCH  16  17
ENDBRANCH  15  16
ENDBRANCH  13  15
ENDBRANCH  12  13
ENDBRANCH  10  12
ENDBRANCH   2   6
BRANCH   3  28
HETATM   28  N   UNL     1      -9.013   3.900  62.877  1.00  0.00    -0.101 NA 
HETATM   29  H   UNL     1      -9.128   4.705  62.260  1.00  0.00     0.000 HD 
HETATM   30  O   UNL     1      -7.895   3.052  62.870  1.00  0.00    -0.065 OA 
HETATM   31  H   UNL     1      -7.260   3.323  62.218  1.00  0.00     0.000 HD 
ENDBRANCH   3  28
TORSDOF 7
ENDMDL
MODEL      165
REMARK 921   NORMALIZED FREE ENERGY PREDICTED BY IDOCK:   -4.18 KCAL/MOL
REMARK 922        TOTAL FREE ENERGY PREDICTED BY IDOCK:   -8.53 KCAL/MOL
REMARK 923 INTER-LIGAND FREE ENERGY PREDICTED BY IDOCK:   -7.55 KCAL/MOL
REMARK 924 INTRA-LIGAND FREE ENERGY PREDICTED BY IDOCK:   -0.98 KCAL/MOL
REMARK 927      BINDING AFFINITY PREDICTED BY RF-SCORE:    0.00 PKD
ROOT
HETATM    1  C   UNL     1     -11.893  14.922  70.617  1.00  0.00    -0.357 C  
HETATM    2  C   UNL     1     -12.277  13.714  70.178  1.00  0.00    -0.413 C  
HETATM    3  C   UNL     1     -12.549  15.491  71.799  1.00  0.00    -0.410 C  
HETATM    4  H   UNL     1     -12.164  16.693  73.251  1.00  0.00     0.000 HD 
HETATM    5  O   UNL     1     -11.739  16.324  72.486  1.00  0.00    -0.501 OA 
ENDROOT
BRANCH   2   6
HETATM    6  C   UNL     1     -11.635  13.106  69.019  1.00  0.00    -0.360 A  
HETATM    7  C   UNL     1     -11.866  11.764  68.705  1.00  0.00    -0.380 A  
HETATM    8  C   UNL     1     -11.336  11.219  67.533  1.00  0.00    -0.360 A  
HETATM    9  C   UNL     1     -10.834  13.888  68.183  1.00  0.00    -0.262 A  
HETATM   10  C   UNL     1     -10.574  12.011  66.664  1.00  0.00    -0.266 A  
HETATM   11  C   UNL     1     -10.309  13.344  67.011  1.00  0.00    -0.247 A  
BRANCH  10  12
HETATM   12  C   UNL     1     -10.161  11.478  65.315  1.00  0.00    -0.269 C  
BRANCH  12  13
HETATM   13  N   UNL     1      -8.765  11.040  65.287  1.00  0.00    -0.341 NA 
HETATM   14  H   UNL     1      -8.189  11.665  64.723  1.00  0.00     0.000 HD 
BRANCH  13  15
HETATM   15  C   UNL     1      -8.219  10.885  66.646  1.00  0.00    -0.145 C  
BRANCH  15  16
HETATM   16  C   UNL     1      -7.495   9.548  66.869  1.00  0.00    -0.094 C  
BRANCH  16  17
HETATM   17  C   UNL     1      -8.428   8.377  66.871  1.00  0.00    -0.117 A  
HETATM   18  C   UNL     1      -8.677   7.492  65.833  1.00  0.00    -0.147 A  
HETATM   19  N   UNL     1      -9.643   6.614  66.260  1.00  0.00    -0.357 NA 
HETATM   20  C   UNL     1      -8.111   7.387  64.463  1.00  0.00    -0.079 C  
HETATM   21  H   UNL     1     -10.028   5.856  65.696  1.00  0.00     0.000 HD 
HETATM   22  C   UNL     1     -10.018   6.894  67.550  1.00  0.00    -0.149 A  
HETATM   23  C   UNL     1     -10.967   6.268  68.368  1.00  0.00    -0.409 A  
HETATM   24  C   UNL     1     -11.139   6.769  69.662  1.00  0.00    -0.343 A  
HETATM   25  C   UNL     1     -10.390   7.851  70.117  1.00  0.00    -0.215 A  
HETATM   26  C   UNL     1      -9.454   8.470  69.282  1.00  0.00    -0.158 A  
HETATM   27  C   UNL     1      -9.263   7.984  67.971  1.00  0.00    -0.139 A  
ENDBRANCH  16  17
ENDBRANCH  15  16
ENDBRANCH  13  15
ENDBRANCH  12  13
ENDBRANCH  10  12
ENDBRANCH   2   6
BRANCH   3  28
HETATM   28  N   UNL     1     -13.766  15.241  72.159  1.00  0.00    -0.446 NA 
HETATM   29  H   UNL     1     -14.325  14.466  71.799  1.00  0.00     0.000 HD 
HETATM   30  O   UNL     1     -14.219  16.170  73.106  1.00  0.00    -0.580 OA 
HETATM   31  H   UNL     1     -15.113  15.986  73.370  1.00  0.00     0.000 HD 
ENDBRANCH   3  28
TORSDOF 7
ENDMDL
MODEL      166
REMARK 921   NORMALIZED FREE ENERGY PREDICTED BY IDOCK:   -4.18 KCAL/MOL
REMARK 922        TOTAL FREE ENERGY PREDICTED BY IDOCK:   -8.52 KCAL/MOL
REMARK 923 INTER-LIGAND FREE ENERGY PREDICTED BY IDOCK:   -6.49 KCAL/MOL
REMARK 924 INTRA-LIGAND FREE ENERGY PREDICTED BY IDOCK:   -2.04 KCAL/MOL
REMARK 927      BINDING AFFINITY PREDICTED BY RF-SCORE:    0.00 PKD
ROOT
HETATM    1  C   UNL     1     -11.969  10.035  70.866  1.00  0.00    -0.453 C  
HETATM    2  C   UNL     1     -11.702  10.428  69.611  1.00  0.00    -0.283 C  
HETATM    3  C   UNL     1     -12.982  10.762  71.639  1.00  0.00    -0.476 C  
HETATM    4  H   UNL     1     -14.245  10.451  73.056  1.00  0.00     0.000 HD 
HETATM    5  O   UNL     1     -13.589   9.980  72.555  1.00  0.00    -0.267 OA 
ENDROOT
BRANCH   2   6
HETATM    6  C   UNL     1     -10.718   9.717  68.804  1.00  0.00    -0.243 A  
HETATM    7  C   UNL     1      -9.487   9.349  69.353  1.00  0.00    -0.177 A  
HETATM    8  C   UNL     1      -8.594   8.573  68.609  1.00  0.00    -0.135 A  
HETATM    9  C   UNL     1     -11.034   9.348  67.495  1.00  0.00    -0.088 A  
HETATM   10  C   UNL     1      -8.927   8.156  67.314  1.00  0.00    -0.149 A  
HETATM   11  C   UNL     1     -10.145   8.570  66.754  1.00  0.00    -0.369 A  
BRANCH  10  12
HETATM   12  C   UNL     1      -8.050   7.169  66.584  1.00  0.00    -0.109 C  
BRANCH  12  13
HETATM   13  N   UNL     1      -7.958   7.448  65.151  1.00  0.00    -0.123 NA 
HETATM   14  H   UNL     1      -8.865   7.710  64.763  1.00  0.00     0.000 HD 
BRANCH  13  15
HETATM   15  C   UNL     1      -6.936   8.468  64.863  1.00  0.00    -0.072 C  
BRANCH  15  16
HETATM   16  C   UNL     1      -7.470   9.666  64.063  1.00  0.00    -0.128 C  
BRANCH  16  17
HETATM   17  C   UNL     1      -8.120  10.700  64.931  1.00  0.00    -0.022 A  
HETATM   18  C   UNL     1      -7.625  11.252  66.101  1.00  0.00     0.032 A  
HETATM   19  N   UNL     1      -8.579  12.113  66.588  1.00  0.00    -0.323 NA 
HETATM   20  C   UNL     1      -6.347  11.049  66.832  1.00  0.00    -0.104 C  
HETATM   21  H   UNL     1      -8.487  12.655  67.448  1.00  0.00     0.000 HD 
HETATM   22  C   UNL     1      -9.672  12.146  65.759  1.00  0.00    -0.229 A  
HETATM   23  C   UNL     1     -10.866  12.869  65.871  1.00  0.00    -0.294 A  
HETATM   24  C   UNL     1     -11.818  12.711  64.859  1.00  0.00    -0.436 A  
HETATM   25  C   UNL     1     -11.581  11.864  63.779  1.00  0.00    -0.555 A  
HETATM   26  C   UNL     1     -10.386  11.143  63.688  1.00  0.00    -0.449 A  
HETATM   27  C   UNL     1      -9.410  11.284  64.699  1.00  0.00    -0.156 A  
ENDBRANCH  16  17
ENDBRANCH  15  16
ENDBRANCH  13  15
ENDBRANCH  12  13
ENDBRANCH  10  12
ENDBRANCH   2   6
BRANCH   3  28
HETATM   28  N   UNL     1     -13.273  12.013  71.480  1.00  0.00    -0.286 NA 
HETATM   29  H   UNL     1     -13.378  12.469  70.573  1.00  0.00     0.000 HD 
HETATM   30  O   UNL     1     -13.426  12.662  72.714  1.00  0.00    -0.594 OA 
HETATM   31  H   UNL     1     -13.639  13.580  72.597  1.00  0.00     0.000 HD 
ENDBRANCH   3  28
TORSDOF 7
ENDMDL
MODEL      167
REMARK 921   NORMALIZED FREE ENERGY PREDICTED BY IDOCK:   -4.18 KCAL/MOL
REMARK 922        TOTAL FREE ENERGY PREDICTED BY IDOCK:   -8.52 KCAL/MOL
REMARK 923 INTER-LIGAND FREE ENERGY PREDICTED BY IDOCK:   -7.44 KCAL/MOL
REMARK 924 INTRA-LIGAND FREE ENERGY PREDICTED BY IDOCK:   -1.09 KCAL/MOL
REMARK 927      BINDING AFFINITY PREDICTED BY RF-SCORE:    0.00 PKD
ROOT
HETATM    1  C   UNL     1     -12.330  12.819  70.208  1.00  0.00    -0.277 C  
HETATM    2  C   UNL     1     -12.275  13.290  68.953  1.00  0.00    -0.133 C  
HETATM    3  C   UNL     1     -12.865  13.680  71.268  1.00  0.00    -0.344 C  
HETATM    4  H   UNL     1     -13.778  13.530  72.955  1.00  0.00     0.000 HD 
HETATM    5  O   UNL     1     -13.432  12.973  72.268  1.00  0.00    -0.540 OA 
ENDROOT
BRANCH   2   6
HETATM    6  C   UNL     1     -11.769  12.457  67.869  1.00  0.00    -0.421 A  
HETATM    7  C   UNL     1     -11.768  12.931  66.554  1.00  0.00    -0.453 A  
HETATM    8  C   UNL     1     -11.181  12.173  65.538  1.00  0.00    -0.381 A  
HETATM    9  C   UNL     1     -11.225  11.203  68.157  1.00  0.00    -0.356 A  
HETATM   10  C   UNL     1     -10.588  10.937  65.829  1.00  0.00    -0.230 A  
HETATM   11  C   UNL     1     -10.636  10.448  67.143  1.00  0.00    -0.319 A  
BRANCH  10  12
HETATM   12  C   UNL     1      -9.795  10.208  64.773  1.00  0.00    -0.312 C  
BRANCH  12  13
HETATM   13  N   UNL     1      -8.419   9.937  65.189  1.00  0.00    -0.141 NA 
HETATM   14  H   UNL     1      -8.228  10.317  66.117  1.00  0.00     0.000 HD 
BRANCH  13  15
HETATM   15  C   UNL     1      -8.106   8.500  65.122  1.00  0.00    -0.142 C  
BRANCH  15  16
HETATM   16  C   UNL     1      -7.730   7.888  66.480  1.00  0.00    -0.097 C  
BRANCH  16  17
HETATM   17  C   UNL     1      -8.793   6.985  67.025  1.00  0.00    -0.124 A  
HETATM   18  C   UNL     1      -9.247   5.792  66.485  1.00  0.00    -0.143 A  
HETATM   19  N   UNL     1     -10.266   5.336  67.285  1.00  0.00    -0.202 NA 
HETATM   20  C   UNL     1      -8.835   5.029  65.278  1.00  0.00    -0.153 C  
HETATM   21  H   UNL     1     -10.794   4.478  67.121  1.00  0.00     0.000 HD 
HETATM   22  C   UNL     1     -10.478   6.191  68.337  1.00  0.00    -0.231 A  
HETATM   23  C   UNL     1     -11.411   6.125  69.379  1.00  0.00    -0.401 A  
HETATM   24  C   UNL     1     -11.394   7.149  70.331  1.00  0.00    -0.325 A  
HETATM   25  C   UNL     1     -10.479   8.195  70.243  1.00  0.00    -0.219 A  
HETATM   26  C   UNL     1      -9.560   8.249  69.190  1.00  0.00    -0.160 A  
HETATM   27  C   UNL     1      -9.558   7.229  68.214  1.00  0.00    -0.150 A  
ENDBRANCH  16  17
ENDBRANCH  15  16
ENDBRANCH  13  15
ENDBRANCH  12  13
ENDBRANCH  10  12
ENDBRANCH   2   6
BRANCH   3  28
HETATM   28  N   UNL     1     -12.808  14.972  71.267  1.00  0.00    -0.336 NA 
HETATM   29  H   UNL     1     -11.986  15.512  71.541  1.00  0.00     0.000 HD 
HETATM   30  O   UNL     1     -14.020  15.536  70.842  1.00  0.00    -0.847 OA 
HETATM   31  H   UNL     1     -13.977  16.485  70.841  1.00  0.00     0.000 HD 
ENDBRANCH   3  28
TORSDOF 7
ENDMDL
MODEL      168
REMARK 921   NORMALIZED FREE ENERGY PREDICTED BY IDOCK:   -4.18 KCAL/MOL
REMARK 922        TOTAL FREE ENERGY PREDICTED BY IDOCK:   -8.52 KCAL/MOL
REMARK 923 INTER-LIGAND FREE ENERGY PREDICTED BY IDOCK:   -7.88 KCAL/MOL
REMARK 924 INTRA-LIGAND FREE ENERGY PREDICTED BY IDOCK:   -0.64 KCAL/MOL
REMARK 927      BINDING AFFINITY PREDICTED BY RF-SCORE:    0.00 PKD
ROOT
HETATM    1  C   UNL     1      -8.107   8.195  64.933  1.00  0.00    -0.153 C  
HETATM    2  C   UNL     1      -8.422   9.049  63.947  1.00  0.00    -0.171 C  
HETATM    3  C   UNL     1      -7.299   7.011  64.619  1.00  0.00    -0.090 C  
HETATM    4  H   UNL     1      -6.035   5.834  65.465  1.00  0.00     0.000 HD 
HETATM    5  O   UNL     1      -6.558   6.601  65.669  1.00  0.00    -0.048 OA 
ENDROOT
BRANCH   2   6
HETATM    6  C   UNL     1      -9.204  10.247  64.224  1.00  0.00    -0.300 A  
HETATM    7  C   UNL     1      -9.195  10.819  65.499  1.00  0.00    -0.230 A  
HETATM    8  C   UNL     1      -9.858  12.027  65.728  1.00  0.00    -0.263 A  
HETATM    9  C   UNL     1      -9.916  10.862  63.191  1.00  0.00    -0.368 A  
HETATM   10  C   UNL     1     -10.531  12.675  64.684  1.00  0.00    -0.361 A  
HETATM   11  C   UNL     1     -10.574  12.070  63.420  1.00  0.00    -0.478 A  
BRANCH  10  12
HETATM   12  C   UNL     1     -11.086  14.064  64.884  1.00  0.00    -0.375 C  
BRANCH  12  13
HETATM   13  N   UNL     1     -10.559  14.713  66.085  1.00  0.00    -0.303 NA 
HETATM   14  H   UNL     1     -10.377  15.703  65.925  1.00  0.00     0.000 HD 
BRANCH  13  15
HETATM   15  C   UNL     1     -11.447  14.509  67.243  1.00  0.00    -0.365 C  
BRANCH  15  16
HETATM   16  C   UNL     1     -10.699  14.405  68.581  1.00  0.00    -0.258 C  
BRANCH  16  17
HETATM   17  C   UNL     1     -11.507  13.728  69.645  1.00  0.00    -0.300 A  
HETATM   18  C   UNL     1     -11.902  12.400  69.690  1.00  0.00    -0.311 A  
HETATM   19  N   UNL     1     -12.672  12.235  70.815  1.00  0.00    -0.190 NA 
HETATM   20  C   UNL     1     -11.646  11.258  68.775  1.00  0.00    -0.383 C  
HETATM   21  H   UNL     1     -13.107  11.357  71.097  1.00  0.00     0.000 HD 
HETATM   22  C   UNL     1     -12.776  13.414  71.510  1.00  0.00    -0.293 A  
HETATM   23  C   UNL     1     -13.464  13.704  72.694  1.00  0.00    -0.608 A  
HETATM   24  C   UNL     1     -13.388  15.011  73.186  1.00  0.00    -0.525 A  
HETATM   25  C   UNL     1     -12.652  15.986  72.517  1.00  0.00    -0.535 A  
HETATM   26  C   UNL     1     -11.978  15.680  71.330  1.00  0.00    -0.476 A  
HETATM   27  C   UNL     1     -12.041  14.368  70.813  1.00  0.00    -0.408 A  
ENDBRANCH  16  17
ENDBRANCH  15  16
ENDBRANCH  13  15
ENDBRANCH  12  13
ENDBRANCH  10  12
ENDBRANCH   2   6
BRANCH   3  28
HETATM   28  N   UNL     1      -7.288   6.411  63.473  1.00  0.00    -0.060 NA 
HETATM   29  H   UNL     1      -7.688   6.796  62.617  1.00  0.00     0.000 HD 
HETATM   30  O   UNL     1      -6.654   5.162  63.559  1.00  0.00    -0.028 OA 
HETATM   31  H   UNL     1      -6.646   4.721  62.717  1.00  0.00     0.000 HD 
ENDBRANCH   3  28
TORSDOF 7
ENDMDL
MODEL      169
REMARK 921   NORMALIZED FREE ENERGY PREDICTED BY IDOCK:   -4.18 KCAL/MOL
REMARK 922        TOTAL FREE ENERGY PREDICTED BY IDOCK:   -8.52 KCAL/MOL
REMARK 923 INTER-LIGAND FREE ENERGY PREDICTED BY IDOCK:   -5.64 KCAL/MOL
REMARK 924 INTRA-LIGAND FREE ENERGY PREDICTED BY IDOCK:   -2.87 KCAL/MOL
REMARK 927      BINDING AFFINITY PREDICTED BY RF-SCORE:    0.00 PKD
ROOT
HETATM    1  C   UNL     1     -11.977   9.783  71.543  1.00  0.00    -0.488 C  
HETATM    2  C   UNL     1     -11.575   8.789  70.737  1.00  0.00    -0.288 C  
HETATM    3  C   UNL     1     -12.367  11.067  70.949  1.00  0.00    -0.402 C  
HETATM    4  H   UNL     1     -13.534  12.553  71.309  1.00  0.00     0.000 HD 
HETATM    5  O   UNL     1     -13.282  11.721  71.694  1.00  0.00    -0.411 OA 
ENDROOT
BRANCH   2   6
HETATM    6  C   UNL     1     -11.199   7.492  71.288  1.00  0.00    -0.274 A  
HETATM    7  C   UNL     1     -11.124   6.368  70.462  1.00  0.00    -0.388 A  
HETATM    8  C   UNL     1     -10.657   5.154  70.973  1.00  0.00    -0.201 A  
HETATM    9  C   UNL     1     -10.852   7.389  72.636  1.00  0.00    -0.349 A  
HETATM   10  C   UNL     1     -10.259   5.057  72.313  1.00  0.00    -0.257 A  
HETATM   11  C   UNL     1     -10.382   6.179  73.146  1.00  0.00    -0.235 A  
BRANCH  10  12
HETATM   12  C   UNL     1      -9.583   3.805  72.815  1.00  0.00    -0.130 C  
BRANCH  12  13
HETATM   13  N   UNL     1      -8.435   3.417  71.995  1.00  0.00    -0.080 NA 
HETATM   14  H   UNL     1      -8.649   3.480  71.000  1.00  0.00     0.000 HD 
BRANCH  13  15
HETATM   15  C   UNL     1      -7.236   4.199  72.338  1.00  0.00    -0.062 C  
BRANCH  15  16
HETATM   16  C   UNL     1      -6.357   4.542  71.126  1.00  0.00    -0.019 C  
BRANCH  16  17
HETATM   17  C   UNL     1      -7.044   5.447  70.150  1.00  0.00    -0.065 A  
HETATM   18  C   UNL     1      -7.500   5.131  68.880  1.00  0.00    -0.069 A  
HETATM   19  N   UNL     1      -8.010   6.279  68.325  1.00  0.00    -0.107 NA 
HETATM   20  C   UNL     1      -7.498   3.857  68.114  1.00  0.00    -0.062 C  
HETATM   21  H   UNL     1      -8.408   6.344  67.388  1.00  0.00     0.000 HD 
HETATM   22  C   UNL     1      -7.910   7.329  69.203  1.00  0.00    -0.117 A  
HETATM   23  C   UNL     1      -8.290   8.668  69.053  1.00  0.00    -0.119 A  
HETATM   24  C   UNL     1      -8.073   9.529  70.133  1.00  0.00    -0.186 A  
HETATM   25  C   UNL     1      -7.499   9.066  71.315  1.00  0.00    -0.098 A  
HETATM   26  C   UNL     1      -7.117   7.727  71.443  1.00  0.00    -0.058 A  
HETATM   27  C   UNL     1      -7.324   6.838  70.366  1.00  0.00    -0.081 A  
ENDBRANCH  16  17
ENDBRANCH  15  16
ENDBRANCH  13  15
ENDBRANCH  12  13
ENDBRANCH  10  12
ENDBRANCH   2   6
BRANCH   3  28
HETATM   28  N   UNL     1     -11.897  11.539  69.840  1.00  0.00    -0.328 NA 
HETATM   29  H   UNL     1     -11.183  12.266  69.781  1.00  0.00     0.000 HD 
HETATM   30  O   UNL     1     -12.493  10.923  68.730  1.00  0.00    -0.767 OA 
HETATM   31  H   UNL     1     -12.148  11.270  67.916  1.00  0.00     0.000 HD 
ENDBRANCH   3  28
TORSDOF 7
ENDMDL
MODEL      170
REMARK 921   NORMALIZED FREE ENERGY PREDICTED BY IDOCK:   -4.17 KCAL/MOL
REMARK 922        TOTAL FREE ENERGY PREDICTED BY IDOCK:   -8.51 KCAL/MOL
REMARK 923 INTER-LIGAND FREE ENERGY PREDICTED BY IDOCK:   -6.65 KCAL/MOL
REMARK 924 INTRA-LIGAND FREE ENERGY PREDICTED BY IDOCK:   -1.86 KCAL/MOL
REMARK 927      BINDING AFFINITY PREDICTED BY RF-SCORE:    0.00 PKD
ROOT
HETATM    1  C   UNL     1     -10.453   7.940  66.840  1.00  0.00    -0.388 C  
HETATM    2  C   UNL     1     -10.186   9.008  67.607  1.00  0.00    -0.300 C  
HETATM    3  C   UNL     1     -10.079   6.606  67.323  1.00  0.00    -0.170 C  
HETATM    4  H   UNL     1     -10.644   4.775  67.152  1.00  0.00     0.000 HD 
HETATM    5  O   UNL     1     -10.886   5.639  66.839  1.00  0.00    -0.286 OA 
ENDROOT
BRANCH   2   6
HETATM    6  C   UNL     1     -10.562  10.347  67.171  1.00  0.00    -0.319 A  
HETATM    7  C   UNL     1     -10.221  10.797  65.893  1.00  0.00    -0.319 A  
HETATM    8  C   UNL     1     -10.679  12.037  65.443  1.00  0.00    -0.330 A  
HETATM    9  C   UNL     1     -11.322  11.161  68.015  1.00  0.00    -0.380 A  
HETATM   10  C   UNL     1     -11.484  12.836  66.266  1.00  0.00    -0.405 A  
HETATM   11  C   UNL     1     -11.782  12.398  67.564  1.00  0.00    -0.425 A  
BRANCH  10  12
HETATM   12  C   UNL     1     -12.129  14.084  65.716  1.00  0.00    -0.427 C  
BRANCH  12  13
HETATM   13  N   UNL     1     -11.153  15.033  65.179  1.00  0.00    -0.380 NA 
HETATM   14  H   UNL     1     -11.574  15.645  64.479  1.00  0.00     0.000 HD 
BRANCH  13  15
HETATM   15  C   UNL     1     -10.504  15.806  66.251  1.00  0.00    -0.309 C  
BRANCH  15  16
HETATM   16  C   UNL     1      -8.980  15.916  66.094  1.00  0.00    -0.376 C  
BRANCH  16  17
HETATM   17  C   UNL     1      -8.249  15.736  67.389  1.00  0.00    -0.196 A  
HETATM   18  C   UNL     1      -7.868  16.720  68.287  1.00  0.00    -0.194 A  
HETATM   19  N   UNL     1      -7.175  16.108  69.303  1.00  0.00    -0.219 NA 
HETATM   20  C   UNL     1      -8.072  18.192  68.292  1.00  0.00    -0.306 C  
HETATM   21  H   UNL     1      -6.767  16.593  70.102  1.00  0.00     0.000 HD 
HETATM   22  C   UNL     1      -7.108  14.753  69.097  1.00  0.00    -0.143 A  
HETATM   23  C   UNL     1      -6.496  13.754  69.865  1.00  0.00    -0.059 A  
HETATM   24  C   UNL     1      -6.594  12.435  69.411  1.00  0.00    -0.072 A  
HETATM   25  C   UNL     1      -7.277  12.131  68.236  1.00  0.00    -0.095 A  
HETATM   26  C   UNL     1      -7.874  13.143  67.477  1.00  0.00    -0.173 A  
HETATM   27  C   UNL     1      -7.788  14.483  67.913  1.00  0.00    -0.153 A  
ENDBRANCH  16  17
ENDBRANCH  15  16
ENDBRANCH  13  15
ENDBRANCH  12  13
ENDBRANCH  10  12
ENDBRANCH   2   6
BRANCH   3  28
HETATM   28  N   UNL     1      -9.089   6.361  68.119  1.00  0.00    -0.115 NA 
HETATM   29  H   UNL     1      -8.299   6.991  68.266  1.00  0.00     0.000 HD 
HETATM   30  O   UNL     1      -9.240   5.119  68.754  1.00  0.00    -0.110 OA 
HETATM   31  H   UNL     1      -8.513   4.940  69.338  1.00  0.00     0.000 HD 
ENDBRANCH   3  28
TORSDOF 7
ENDMDL
MODEL      171
REMARK 921   NORMALIZED FREE ENERGY PREDICTED BY IDOCK:   -4.17 KCAL/MOL
REMARK 922        TOTAL FREE ENERGY PREDICTED BY IDOCK:   -8.51 KCAL/MOL
REMARK 923 INTER-LIGAND FREE ENERGY PREDICTED BY IDOCK:   -7.84 KCAL/MOL
REMARK 924 INTRA-LIGAND FREE ENERGY PREDICTED BY IDOCK:   -0.67 KCAL/MOL
REMARK 927      BINDING AFFINITY PREDICTED BY RF-SCORE:    0.00 PKD
ROOT
HETATM    1  C   UNL     1      -8.320   7.923  66.579  1.00  0.00    -0.127 C  
HETATM    2  C   UNL     1      -9.636   8.170  66.503  1.00  0.00    -0.303 C  
HETATM    3  C   UNL     1      -7.859   6.531  66.622  1.00  0.00    -0.104 C  
HETATM    4  H   UNL     1      -6.328   5.479  66.122  1.00  0.00     0.000 HD 
HETATM    5  O   UNL     1      -6.627   6.380  66.093  1.00  0.00    -0.045 OA 
ENDROOT
BRANCH   2   6
HETATM    6  C   UNL     1     -10.132   9.539  66.436  1.00  0.00    -0.328 A  
HETATM    7  C   UNL     1     -10.007  10.280  65.258  1.00  0.00    -0.387 A  
HETATM    8  C   UNL     1     -10.582  11.550  65.166  1.00  0.00    -0.350 A  
HETATM    9  C   UNL     1     -10.792  10.089  67.537  1.00  0.00    -0.326 A  
HETATM   10  C   UNL     1     -11.290  12.087  66.250  1.00  0.00    -0.415 A  
HETATM   11  C   UNL     1     -11.369  11.356  67.444  1.00  0.00    -0.359 A  
BRANCH  10  12
HETATM   12  C   UNL     1     -12.065  13.371  66.090  1.00  0.00    -0.429 C  
BRANCH  12  13
HETATM   13  N   UNL     1     -11.461  14.489  66.817  1.00  0.00    -0.357 NA 
HETATM   14  H   UNL     1     -11.962  14.685  67.683  1.00  0.00     0.000 HD 
BRANCH  13  15
HETATM   15  C   UNL     1     -10.027  14.260  67.064  1.00  0.00    -0.258 C  
BRANCH  15  16
HETATM   16  C   UNL     1      -9.643  14.314  68.551  1.00  0.00    -0.220 C  
BRANCH  16  17
HETATM   17  C   UNL     1     -10.642  15.060  69.381  1.00  0.00    -0.262 A  
HETATM   18  C   UNL     1     -10.769  16.433  69.517  1.00  0.00    -0.325 A  
HETATM   19  N   UNL     1     -11.779  16.668  70.419  1.00  0.00    -0.242 NA 
HETATM   20  C   UNL     1     -10.031  17.565  68.898  1.00  0.00    -0.313 C  
HETATM   21  H   UNL     1     -12.086  17.593  70.719  1.00  0.00     0.000 HD 
HETATM   22  C   UNL     1     -12.319  15.487  70.862  1.00  0.00    -0.422 A  
HETATM   23  C   UNL     1     -13.349  15.256  71.781  1.00  0.00    -0.540 A  
HETATM   24  C   UNL     1     -13.703  13.928  72.040  1.00  0.00    -0.577 A  
HETATM   25  C   UNL     1     -13.051  12.875  71.402  1.00  0.00    -0.331 A  
HETATM   26  C   UNL     1     -12.018  13.125  70.493  1.00  0.00    -0.303 A  
HETATM   27  C   UNL     1     -11.641  14.457  70.216  1.00  0.00    -0.311 A  
ENDBRANCH  16  17
ENDBRANCH  15  16
ENDBRANCH  13  15
ENDBRANCH  12  13
ENDBRANCH  10  12
ENDBRANCH   2   6
BRANCH   3  28
HETATM   28  N   UNL     1      -8.538   5.544  67.112  1.00  0.00    -0.110 NA 
HETATM   29  H   UNL     1      -9.049   4.862  66.550  1.00  0.00     0.000 HD 
HETATM   30  O   UNL     1      -8.482   5.533  68.513  1.00  0.00    -0.100 OA 
HETATM   31  H   UNL     1      -8.981   4.808  68.872  1.00  0.00     0.000 HD 
ENDBRANCH   3  28
TORSDOF 7
ENDMDL
MODEL      172
REMARK 921   NORMALIZED FREE ENERGY PREDICTED BY IDOCK:   -4.16 KCAL/MOL
REMARK 922        TOTAL FREE ENERGY PREDICTED BY IDOCK:   -8.50 KCAL/MOL
REMARK 923 INTER-LIGAND FREE ENERGY PREDICTED BY IDOCK:   -7.78 KCAL/MOL
REMARK 924 INTRA-LIGAND FREE ENERGY PREDICTED BY IDOCK:   -0.71 KCAL/MOL
REMARK 927      BINDING AFFINITY PREDICTED BY RF-SCORE:    0.00 PKD
ROOT
HETATM    1  C   UNL     1     -10.840  11.698  65.078  1.00  0.00    -0.346 C  
HETATM    2  C   UNL     1     -11.569  12.355  65.992  1.00  0.00    -0.455 C  
HETATM    3  C   UNL     1     -10.882  12.142  63.681  1.00  0.00    -0.464 C  
HETATM    4  H   UNL     1      -9.767  12.156  62.113  1.00  0.00     0.000 HD 
HETATM    5  O   UNL     1      -9.739  11.869  63.019  1.00  0.00    -0.367 OA 
ENDROOT
BRANCH   2   6
HETATM    6  C   UNL     1     -11.537  11.957  67.394  1.00  0.00    -0.367 A  
HETATM    7  C   UNL     1     -12.016  12.818  68.385  1.00  0.00    -0.275 A  
HETATM    8  C   UNL     1     -12.084  12.387  69.713  1.00  0.00    -0.292 A  
HETATM    9  C   UNL     1     -11.082  10.683  67.740  1.00  0.00    -0.385 A  
HETATM   10  C   UNL     1     -11.677  11.091  70.058  1.00  0.00    -0.437 A  
HETATM   11  C   UNL     1     -11.153  10.251  69.065  1.00  0.00    -0.277 A  
BRANCH  10  12
HETATM   12  C   UNL     1     -11.922  10.564  71.450  1.00  0.00    -0.230 C  
BRANCH  12  13
HETATM   13  N   UNL     1     -11.137   9.365  71.745  1.00  0.00    -0.342 NA 
HETATM   14  H   UNL     1     -10.412   9.555  72.437  1.00  0.00     0.000 HD 
BRANCH  13  15
HETATM   15  C   UNL     1     -11.997   8.244  72.161  1.00  0.00    -0.369 C  
BRANCH  15  16
HETATM   16  C   UNL     1     -11.813   6.979  71.309  1.00  0.00    -0.371 C  
BRANCH  16  17
HETATM   17  C   UNL     1     -10.694   6.110  71.796  1.00  0.00    -0.289 A  
HETATM   18  C   UNL     1     -10.763   5.084  72.725  1.00  0.00    -0.236 A  
HETATM   19  N   UNL     1      -9.489   4.604  72.907  1.00  0.00    -0.130 NA 
HETATM   20  C   UNL     1     -11.904   4.507  73.482  1.00  0.00     0.107 C  
HETATM   21  H   UNL     1      -9.240   3.848  73.545  1.00  0.00     0.000 HD 
HETATM   22  C   UNL     1      -8.597   5.278  72.112  1.00  0.00    -0.126 A  
HETATM   23  C   UNL     1      -7.211   5.128  71.985  1.00  0.00    -0.085 A  
HETATM   24  C   UNL     1      -6.548   5.961  71.078  1.00  0.00    -0.045 A  
HETATM   25  C   UNL     1      -7.247   6.905  70.330  1.00  0.00    -0.076 A  
HETATM   26  C   UNL     1      -8.631   7.048  70.477  1.00  0.00    -0.141 A  
HETATM   27  C   UNL     1      -9.322   6.220  71.388  1.00  0.00    -0.160 A  
ENDBRANCH  16  17
ENDBRANCH  15  16
ENDBRANCH  13  15
ENDBRANCH  12  13
ENDBRANCH  10  12
ENDBRANCH   2   6
BRANCH   3  28
HETATM   28  N   UNL     1     -11.893  12.728  63.124  1.00  0.00    -0.815 NA 
HETATM   29  H   UNL     1     -12.577  12.256  62.531  1.00  0.00     0.000 HD 
HETATM   30  O   UNL     1     -11.929  14.094  63.440  1.00  0.00    -0.812 OA 
HETATM   31  H   UNL     1     -12.671  14.523  63.032  1.00  0.00     0.000 HD 
ENDBRANCH   3  28
TORSDOF 7
ENDMDL
MODEL      173
REMARK 921   NORMALIZED FREE ENERGY PREDICTED BY IDOCK:   -4.16 KCAL/MOL
REMARK 922        TOTAL FREE ENERGY PREDICTED BY IDOCK:   -8.49 KCAL/MOL
REMARK 923 INTER-LIGAND FREE ENERGY PREDICTED BY IDOCK:   -7.76 KCAL/MOL
REMARK 924 INTRA-LIGAND FREE ENERGY PREDICTED BY IDOCK:   -0.73 KCAL/MOL
REMARK 927      BINDING AFFINITY PREDICTED BY RF-SCORE:    0.00 PKD
ROOT
HETATM    1  C   UNL     1     -10.355   5.427  71.266  1.00  0.00    -0.296 C  
HETATM    2  C   UNL     1     -11.066   6.184  70.418  1.00  0.00    -0.420 C  
HETATM    3  C   UNL     1     -10.998   4.931  72.488  1.00  0.00    -0.137 C  
HETATM    4  H   UNL     1     -10.885   3.443  73.703  1.00  0.00     0.000 HD 
HETATM    5  O   UNL     1     -10.469   3.764  72.911  1.00  0.00    -0.166 OA 
ENDROOT
BRANCH   2   6
HETATM    6  C   UNL     1     -10.469   6.678  69.183  1.00  0.00    -0.250 A  
HETATM    7  C   UNL     1     -10.990   6.296  67.944  1.00  0.00    -0.421 A  
HETATM    8  C   UNL     1     -10.484   6.858  66.770  1.00  0.00    -0.300 A  
HETATM    9  C   UNL     1      -9.411   7.588  69.243  1.00  0.00    -0.154 A  
HETATM   10  C   UNL     1      -9.456   7.810  66.825  1.00  0.00    -0.251 A  
HETATM   11  C   UNL     1      -8.909   8.152  68.070  1.00  0.00    -0.131 A  
BRANCH  10  12
HETATM   12  C   UNL     1      -9.040   8.552  65.580  1.00  0.00    -0.091 C  
BRANCH  12  13
HETATM   13  N   UNL     1     -10.078   9.460  65.091  1.00  0.00    -0.221 NA 
HETATM   14  H   UNL     1     -11.004   9.175  65.411  1.00  0.00     0.000 HD 
BRANCH  13  15
HETATM   15  C   UNL     1      -9.789  10.857  65.455  1.00  0.00    -0.246 C  
BRANCH  15  16
HETATM   16  C   UNL     1     -10.971  11.575  66.125  1.00  0.00    -0.320 C  
BRANCH  16  17
HETATM   17  C   UNL     1     -11.318  12.869  65.456  1.00  0.00    -0.340 A  
HETATM   18  C   UNL     1     -12.117  13.055  64.339  1.00  0.00    -0.411 A  
HETATM   19  N   UNL     1     -12.111  14.397  64.044  1.00  0.00    -0.803 NA 
HETATM   20  C   UNL     1     -12.884  12.100  63.498  1.00  0.00    -0.453 C  
HETATM   21  H   UNL     1     -12.610  14.821  63.262  1.00  0.00     0.000 HD 
HETATM   22  C   UNL     1     -11.342  15.089  64.946  1.00  0.00    -0.417 A  
HETATM   23  C   UNL     1     -11.052  16.457  65.020  1.00  0.00    -0.216 A  
HETATM   24  C   UNL     1     -10.233  16.891  66.067  1.00  0.00    -0.350 A  
HETATM   25  C   UNL     1      -9.728  15.990  67.002  1.00  0.00    -0.235 A  
HETATM   26  C   UNL     1     -10.021  14.626  66.907  1.00  0.00    -0.254 A  
HETATM   27  C   UNL     1     -10.844  14.162  65.857  1.00  0.00    -0.294 A  
ENDBRANCH  16  17
ENDBRANCH  15  16
ENDBRANCH  13  15
ENDBRANCH  12  13
ENDBRANCH  10  12
ENDBRANCH   2   6
BRANCH   3  28
HETATM   28  N   UNL     1     -11.961   5.531  73.110  1.00  0.00    -0.474 NA 
HETATM   29  H   UNL     1     -11.852   6.395  73.643  1.00  0.00     0.000 HD 
HETATM   30  O   UNL     1     -13.173   4.843  72.957  1.00  0.00    -0.111 OA 
HETATM   31  H   UNL     1     -13.880   5.285  73.413  1.00  0.00     0.000 HD 
ENDBRANCH   3  28
TORSDOF 7
ENDMDL
MODEL      174
REMARK 921   NORMALIZED FREE ENERGY PREDICTED BY IDOCK:   -4.16 KCAL/MOL
REMARK 922        TOTAL FREE ENERGY PREDICTED BY IDOCK:   -8.49 KCAL/MOL
REMARK 923 INTER-LIGAND FREE ENERGY PREDICTED BY IDOCK:   -7.44 KCAL/MOL
REMARK 924 INTRA-LIGAND FREE ENERGY PREDICTED BY IDOCK:   -1.06 KCAL/MOL
REMARK 927      BINDING AFFINITY PREDICTED BY RF-SCORE:    0.00 PKD
ROOT
HETATM    1  C   UNL     1     -10.285   5.156  66.377  1.00  0.00    -0.303 C  
HETATM    2  C   UNL     1     -10.278   5.057  67.715  1.00  0.00    -0.156 C  
HETATM    3  C   UNL     1     -10.138   3.938  65.572  1.00  0.00    -0.071 C  
HETATM    4  H   UNL     1     -10.653   3.249  63.852  1.00  0.00     0.000 HD 
HETATM    5  O   UNL     1     -10.748   4.038  64.373  1.00  0.00    -0.268 OA 
ENDROOT
BRANCH   2   6
HETATM    6  C   UNL     1     -10.442   6.242  68.548  1.00  0.00    -0.273 A  
HETATM    7  C   UNL     1      -9.814   7.442  68.203  1.00  0.00    -0.174 A  
HETATM    8  C   UNL     1     -10.065   8.600  68.943  1.00  0.00    -0.213 A  
HETATM    9  C   UNL     1     -11.282   6.192  69.662  1.00  0.00    -0.488 A  
HETATM   10  C   UNL     1     -10.946   8.569  70.031  1.00  0.00    -0.197 A  
HETATM   11  C   UNL     1     -11.535   7.350  70.399  1.00  0.00    -0.250 A  
BRANCH  10  12
HETATM   12  C   UNL     1     -11.359   9.850  70.712  1.00  0.00    -0.353 C  
BRANCH  12  13
HETATM   13  N   UNL     1     -10.640  11.017  70.199  1.00  0.00    -0.353 NA 
HETATM   14  H   UNL     1      -9.831  10.741  69.642  1.00  0.00     0.000 HD 
BRANCH  13  15
HETATM   15  C   UNL     1     -11.532  11.914  69.446  1.00  0.00    -0.302 C  
BRANCH  15  16
HETATM   16  C   UNL     1     -10.791  13.036  68.702  1.00  0.00    -0.287 C  
BRANCH  16  17
HETATM   17  C   UNL     1     -10.255  12.596  67.375  1.00  0.00    -0.219 A  
HETATM   18  C   UNL     1      -9.037  11.987  67.115  1.00  0.00    -0.186 A  
HETATM   19  N   UNL     1      -8.943  11.815  65.755  1.00  0.00    -0.399 NA 
HETATM   20  C   UNL     1      -7.932  11.556  68.010  1.00  0.00    -0.130 C  
HETATM   21  H   UNL     1      -8.144  11.397  65.277  1.00  0.00     0.000 HD 
HETATM   22  C   UNL     1     -10.070  12.282  65.126  1.00  0.00    -0.261 A  
HETATM   23  C   UNL     1     -10.393  12.316  63.765  1.00  0.00    -0.464 A  
HETATM   24  C   UNL     1     -11.635  12.850  63.405  1.00  0.00    -0.463 A  
HETATM   25  C   UNL     1     -12.515  13.329  64.372  1.00  0.00    -0.356 A  
HETATM   26  C   UNL     1     -12.171  13.295  65.728  1.00  0.00    -0.510 A  
HETATM   27  C   UNL     1     -10.923  12.763  66.116  1.00  0.00    -0.310 A  
ENDBRANCH  16  17
ENDBRANCH  15  16
ENDBRANCH  13  15
ENDBRANCH  12  13
ENDBRANCH  10  12
ENDBRANCH   2   6
BRANCH   3  28
HETATM   28  N   UNL     1      -9.498   2.879  65.949  1.00  0.00    -0.364 NA 
HETATM   29  H   UNL     1      -9.936   2.064  66.381  1.00  0.00     0.000 HD 
HETATM   30  O   UNL     1      -8.125   2.994  65.687  1.00  0.00    -0.085 OA 
HETATM   31  H   UNL     1      -7.655   2.216  65.964  1.00  0.00     0.000 HD 
ENDBRANCH   3  28
TORSDOF 7
ENDMDL
MODEL      175
REMARK 921   NORMALIZED FREE ENERGY PREDICTED BY IDOCK:   -4.16 KCAL/MOL
REMARK 922        TOTAL FREE ENERGY PREDICTED BY IDOCK:   -8.49 KCAL/MOL
REMARK 923 INTER-LIGAND FREE ENERGY PREDICTED BY IDOCK:   -6.74 KCAL/MOL
REMARK 924 INTRA-LIGAND FREE ENERGY PREDICTED BY IDOCK:   -1.75 KCAL/MOL
REMARK 927      BINDING AFFINITY PREDICTED BY RF-SCORE:    0.00 PKD
ROOT
HETATM    1  C   UNL     1     -11.700  12.462  70.115  1.00  0.00    -0.266 C  
HETATM    2  C   UNL     1     -11.382  12.836  68.866  1.00  0.00    -0.344 C  
HETATM    3  C   UNL     1     -12.456  13.388  70.964  1.00  0.00    -0.353 C  
HETATM    4  H   UNL     1     -13.706  13.346  72.426  1.00  0.00     0.000 HD 
HETATM    5  O   UNL     1     -13.217  12.746  71.875  1.00  0.00    -0.442 OA 
ENDROOT
BRANCH   2   6
HETATM    6  C   UNL     1     -10.650  11.935  67.984  1.00  0.00    -0.234 A  
HETATM    7  C   UNL     1      -9.385  12.286  67.507  1.00  0.00    -0.183 A  
HETATM    8  C   UNL     1      -8.643  11.372  66.754  1.00  0.00    -0.166 A  
HETATM    9  C   UNL     1     -11.191  10.686  67.668  1.00  0.00    -0.361 A  
HETATM   10  C   UNL     1      -9.159  10.099  66.476  1.00  0.00    -0.166 A  
HETATM   11  C   UNL     1     -10.449   9.773  66.920  1.00  0.00    -0.281 A  
BRANCH  10  12
HETATM   12  C   UNL     1      -8.289   9.052  65.826  1.00  0.00    -0.128 C  
BRANCH  12  13
HETATM   13  N   UNL     1      -7.273   8.521  66.736  1.00  0.00    -0.074 NA 
HETATM   14  H   UNL     1      -7.056   9.184  67.481  1.00  0.00     0.000 HD 
BRANCH  13  15
HETATM   15  C   UNL     1      -7.665   7.211  67.279  1.00  0.00    -0.109 C  
BRANCH  15  16
HETATM   16  C   UNL     1      -7.765   7.185  68.812  1.00  0.00    -0.116 C  
BRANCH  16  17
HETATM   17  C   UNL     1      -9.133   6.817  69.298  1.00  0.00    -0.139 A  
HETATM   18  C   UNL     1      -9.876   5.696  68.962  1.00  0.00    -0.158 A  
HETATM   19  N   UNL     1     -11.090   5.798  69.597  1.00  0.00    -0.338 NA 
HETATM   20  C   UNL     1      -9.576   4.532  68.089  1.00  0.00    -0.203 C  
HETATM   21  H   UNL     1     -11.844   5.115  69.522  1.00  0.00     0.000 HD 
HETATM   22  C   UNL     1     -11.152   6.946  70.346  1.00  0.00    -0.296 A  
HETATM   23  C   UNL     1     -12.190   7.450  71.138  1.00  0.00    -0.357 A  
HETATM   24  C   UNL     1     -11.969   8.659  71.806  1.00  0.00    -0.402 A  
HETATM   25  C   UNL     1     -10.756   9.332  71.686  1.00  0.00    -0.393 A  
HETATM   26  C   UNL     1      -9.733   8.818  70.883  1.00  0.00    -0.277 A  
HETATM   27  C   UNL     1      -9.932   7.601  70.196  1.00  0.00    -0.186 A  
ENDBRANCH  16  17
ENDBRANCH  15  16
ENDBRANCH  13  15
ENDBRANCH  12  13
ENDBRANCH  10  12
ENDBRANCH   2   6
BRANCH   3  28
HETATM   28  N   UNL     1     -12.410  14.678  70.871  1.00  0.00    -0.311 NA 
HETATM   29  H   UNL     1     -13.039  15.236  70.293  1.00  0.00     0.000 HD 
HETATM   30  O   UNL     1     -11.386  15.210  71.668  1.00  0.00    -0.451 OA 
HETATM   31  H   UNL     1     -11.352  16.157  71.599  1.00  0.00     0.000 HD 
ENDBRANCH   3  28
TORSDOF 7
ENDMDL
MODEL      176
REMARK 921   NORMALIZED FREE ENERGY PREDICTED BY IDOCK:   -4.15 KCAL/MOL
REMARK 922        TOTAL FREE ENERGY PREDICTED BY IDOCK:   -8.48 KCAL/MOL
REMARK 923 INTER-LIGAND FREE ENERGY PREDICTED BY IDOCK:   -7.33 KCAL/MOL
REMARK 924 INTRA-LIGAND FREE ENERGY PREDICTED BY IDOCK:   -1.15 KCAL/MOL
REMARK 927      BINDING AFFINITY PREDICTED BY RF-SCORE:    0.00 PKD
ROOT
HETATM    1  C   UNL     1     -11.699  15.078  69.482  1.00  0.00    -0.350 C  
HETATM    2  C   UNL     1     -12.356  14.234  68.672  1.00  0.00    -0.056 C  
HETATM    3  C   UNL     1     -12.269  15.390  70.797  1.00  0.00    -0.381 C  
HETATM    4  H   UNL     1     -11.691  15.900  72.560  1.00  0.00     0.000 HD 
HETATM    5  O   UNL     1     -11.322  15.698  71.708  1.00  0.00    -0.397 OA 
ENDROOT
BRANCH   2   6
HETATM    6  C   UNL     1     -11.811  13.883  67.366  1.00  0.00    -0.437 A  
HETATM    7  C   UNL     1     -10.431  13.766  67.184  1.00  0.00    -0.272 A  
HETATM    8  C   UNL     1      -9.922  13.322  65.960  1.00  0.00    -0.297 A  
HETATM    9  C   UNL     1     -12.679  13.601  66.309  1.00  0.00    -0.222 A  
HETATM   10  C   UNL     1     -10.790  12.988  64.912  1.00  0.00    -0.343 A  
HETATM   11  C   UNL     1     -12.171  13.154  65.089  1.00  0.00    -0.497 A  
BRANCH  10  12
HETATM   12  C   UNL     1     -10.255  12.336  63.662  1.00  0.00    -0.403 C  
BRANCH  12  13
HETATM   13  N   UNL     1      -9.041  11.556  63.909  1.00  0.00    -0.430 NA 
HETATM   14  H   UNL     1      -8.764  11.598  64.890  1.00  0.00     0.000 HD 
BRANCH  13  15
HETATM   15  C   UNL     1      -9.190  10.164  63.451  1.00  0.00    -0.291 C  
BRANCH  15  16
HETATM   16  C   UNL     1      -8.095   9.223  63.976  1.00  0.00    -0.150 C  
BRANCH  16  17
HETATM   17  C   UNL     1      -8.595   8.280  65.027  1.00  0.00    -0.102 A  
HETATM   18  C   UNL     1      -8.530   6.896  65.019  1.00  0.00     0.020 A  
HETATM   19  N   UNL     1      -9.161   6.446  66.154  1.00  0.00    -0.210 NA 
HETATM   20  C   UNL     1      -7.948   5.935  64.046  1.00  0.00    -0.121 C  
HETATM   21  H   UNL     1      -9.272   5.463  66.405  1.00  0.00     0.000 HD 
HETATM   22  C   UNL     1      -9.620   7.499  66.905  1.00  0.00    -0.187 A  
HETATM   23  C   UNL     1     -10.320   7.503  68.117  1.00  0.00    -0.244 A  
HETATM   24  C   UNL     1     -10.659   8.743  68.666  1.00  0.00    -0.174 A  
HETATM   25  C   UNL     1     -10.309   9.930  68.027  1.00  0.00    -0.244 A  
HETATM   26  C   UNL     1      -9.617   9.906  66.811  1.00  0.00    -0.231 A  
HETATM   27  C   UNL     1      -9.266   8.666  66.235  1.00  0.00    -0.257 A  
ENDBRANCH  16  17
ENDBRANCH  15  16
ENDBRANCH  13  15
ENDBRANCH  12  13
ENDBRANCH  10  12
ENDBRANCH   2   6
BRANCH   3  28
HETATM   28  N   UNL     1     -13.533  15.383  71.073  1.00  0.00    -0.651 NA 
HETATM   29  H   UNL     1     -14.272  15.574  70.396  1.00  0.00     0.000 HD 
HETATM   30  O   UNL     1     -13.757  15.077  72.424  1.00  0.00    -0.403 OA 
HETATM   31  H   UNL     1     -14.686  15.072  72.626  1.00  0.00     0.000 HD 
ENDBRANCH   3  28
TORSDOF 7
ENDMDL
MODEL      177
REMARK 921   NORMALIZED FREE ENERGY PREDICTED BY IDOCK:   -4.13 KCAL/MOL
REMARK 922        TOTAL FREE ENERGY PREDICTED BY IDOCK:   -8.46 KCAL/MOL
REMARK 923 INTER-LIGAND FREE ENERGY PREDICTED BY IDOCK:   -7.81 KCAL/MOL
REMARK 924 INTRA-LIGAND FREE ENERGY PREDICTED BY IDOCK:   -0.65 KCAL/MOL
REMARK 927      BINDING AFFINITY PREDICTED BY RF-SCORE:    0.00 PKD
ROOT
HETATM    1  C   UNL     1     -10.109   7.556  66.851  1.00  0.00    -0.336 C  
HETATM    2  C   UNL     1      -9.736   8.648  66.166  1.00  0.00    -0.292 C  
HETATM    3  C   UNL     1      -9.383   6.300  66.637  1.00  0.00    -0.148 C  
HETATM    4  H   UNL     1      -8.926   4.691  67.588  1.00  0.00     0.000 HD 
HETATM    5  O   UNL     1      -9.396   5.505  67.727  1.00  0.00    -0.111 OA 
ENDROOT
BRANCH   2   6
HETATM    6  C   UNL     1     -10.420   9.920  66.368  1.00  0.00    -0.197 A  
HETATM    7  C   UNL     1     -10.983  10.232  67.608  1.00  0.00    -0.356 A  
HETATM    8  C   UNL     1     -11.538  11.495  67.826  1.00  0.00    -0.338 A  
HETATM    9  C   UNL     1     -10.456  10.856  65.332  1.00  0.00    -0.291 A  
HETATM   10  C   UNL     1     -11.532  12.457  66.807  1.00  0.00    -0.423 A  
HETATM   11  C   UNL     1     -11.007  12.119  65.551  1.00  0.00    -0.343 A  
BRANCH  10  12
HETATM   12  C   UNL     1     -11.960  13.874  67.098  1.00  0.00    -0.420 C  
BRANCH  12  13
HETATM   13  N   UNL     1     -11.298  14.432  68.277  1.00  0.00    -0.273 NA 
HETATM   14  H   UNL     1     -10.296  14.240  68.269  1.00  0.00     0.000 HD 
BRANCH  13  15
HETATM   15  C   UNL     1     -11.569  15.872  68.419  1.00  0.00    -0.315 C  
BRANCH  15  16
HETATM   16  C   UNL     1     -10.688  16.563  69.471  1.00  0.00    -0.321 C  
BRANCH  16  17
HETATM   17  C   UNL     1      -9.442  17.155  68.886  1.00  0.00    -0.217 A  
HETATM   18  C   UNL     1      -8.164  16.620  68.903  1.00  0.00    -0.231 A  
HETATM   19  N   UNL     1      -7.327  17.529  68.302  1.00  0.00    -0.215 NA 
HETATM   20  C   UNL     1      -7.630  15.341  69.440  1.00  0.00    -0.219 C  
HETATM   21  H   UNL     1      -6.322  17.401  68.182  1.00  0.00     0.000 HD 
HETATM   22  C   UNL     1      -8.028  18.632  67.882  1.00  0.00    -0.259 A  
HETATM   23  C   UNL     1      -7.581  19.792  67.238  1.00  0.00    -0.290 A  
HETATM   24  C   UNL     1      -8.533  20.764  66.918  1.00  0.00    -0.117 A  
HETATM   25  C   UNL     1      -9.878  20.580  67.229  1.00  0.00    -0.581 A  
HETATM   26  C   UNL     1     -10.305  19.418  67.881  1.00  0.00    -0.542 A  
HETATM   27  C   UNL     1      -9.362  18.422  68.218  1.00  0.00    -0.342 A  
ENDBRANCH  16  17
ENDBRANCH  15  16
ENDBRANCH  13  15
ENDBRANCH  12  13
ENDBRANCH  10  12
ENDBRANCH   2   6
BRANCH   3  28
HETATM   28  N   UNL     1      -8.793   5.969  65.534  1.00  0.00    -0.291 NA 
HETATM   29  H   UNL     1      -7.911   6.368  65.210  1.00  0.00     0.000 HD 
HETATM   30  O   UNL     1      -9.520   4.990  64.840  1.00  0.00    -0.338 OA 
HETATM   31  H   UNL     1      -9.086   4.747  64.031  1.00  0.00     0.000 HD 
ENDBRANCH   3  28
TORSDOF 7
ENDMDL
MODEL      178
REMARK 921   NORMALIZED FREE ENERGY PREDICTED BY IDOCK:   -4.13 KCAL/MOL
REMARK 922        TOTAL FREE ENERGY PREDICTED BY IDOCK:   -8.45 KCAL/MOL
REMARK 923 INTER-LIGAND FREE ENERGY PREDICTED BY IDOCK:   -7.69 KCAL/MOL
REMARK 924 INTRA-LIGAND FREE ENERGY PREDICTED BY IDOCK:   -0.76 KCAL/MOL
REMARK 927      BINDING AFFINITY PREDICTED BY RF-SCORE:    0.00 PKD
ROOT
HETATM    1  C   UNL     1      -7.432  12.969  68.462  1.00  0.00    -0.123 C  
HETATM    2  C   UNL     1      -7.871  14.123  68.987  1.00  0.00    -0.010 C  
HETATM    3  C   UNL     1      -6.769  11.996  69.337  1.00  0.00    -0.070 C  
HETATM    4  H   UNL     1      -6.501  10.096  69.477  1.00  0.00     0.000 HD 
HETATM    5  O   UNL     1      -6.930  10.726  68.910  1.00  0.00    -0.065 OA 
ENDROOT
BRANCH   2   6
HETATM    6  C   UNL     1      -8.553  15.106  68.154  1.00  0.00    -0.158 A  
HETATM    7  C   UNL     1      -8.050  15.435  66.893  1.00  0.00    -0.259 A  
HETATM    8  C   UNL     1      -8.767  16.293  66.056  1.00  0.00    -0.285 A  
HETATM    9  C   UNL     1      -9.751  15.672  68.595  1.00  0.00    -0.204 A  
HETATM   10  C   UNL     1      -9.995  16.825  66.472  1.00  0.00    -0.308 A  
HETATM   11  C   UNL     1     -10.469  16.526  67.757  1.00  0.00    -0.308 A  
BRANCH  10  12
HETATM   12  C   UNL     1     -10.856  17.598  65.503  1.00  0.00     0.056 C  
BRANCH  12  13
HETATM   13  N   UNL     1     -11.401  16.755  64.438  1.00  0.00    -1.214 NA 
HETATM   14  H   UNL     1     -11.186  17.132  63.516  1.00  0.00     0.000 HD 
BRANCH  13  15
HETATM   15  C   UNL     1     -10.948  15.360  64.568  1.00  0.00    -0.203 C  
BRANCH  15  16
HETATM   16  C   UNL     1     -12.027  14.411  65.112  1.00  0.00    -0.391 C  
BRANCH  16  17
HETATM   17  C   UNL     1     -11.459  13.132  65.645  1.00  0.00    -0.351 A  
HETATM   18  C   UNL     1     -11.455  12.691  66.959  1.00  0.00    -0.346 A  
HETATM   19  N   UNL     1     -10.779  11.496  66.993  1.00  0.00    -0.245 NA 
HETATM   20  C   UNL     1     -12.010  13.281  68.205  1.00  0.00    -0.340 C  
HETATM   21  H   UNL     1     -10.614  10.946  67.837  1.00  0.00     0.000 HD 
HETATM   22  C   UNL     1     -10.356  11.141  65.737  1.00  0.00    -0.260 A  
HETATM   23  C   UNL     1      -9.630  10.020  65.314  1.00  0.00    -0.355 A  
HETATM   24  C   UNL     1      -9.341   9.912  63.950  1.00  0.00    -0.262 A  
HETATM   25  C   UNL     1      -9.763  10.886  63.048  1.00  0.00    -0.380 A  
HETATM   26  C   UNL     1     -10.479  12.003  63.491  1.00  0.00    -0.505 A  
HETATM   27  C   UNL     1     -10.781  12.137  64.863  1.00  0.00    -0.336 A  
ENDBRANCH  16  17
ENDBRANCH  15  16
ENDBRANCH  13  15
ENDBRANCH  12  13
ENDBRANCH  10  12
ENDBRANCH   2   6
BRANCH   3  28
HETATM   28  N   UNL     1      -6.097  12.299  70.400  1.00  0.00    -0.404 NA 
HETATM   29  H   UNL     1      -5.763  13.237  70.622  1.00  0.00     0.000 HD 
HETATM   30  O   UNL     1      -5.887  11.172  71.209  1.00  0.00    -0.363 OA 
HETATM   31  H   UNL     1      -5.393  11.395  71.990  1.00  0.00     0.000 HD 
ENDBRANCH   3  28
TORSDOF 7
ENDMDL
MODEL      179
REMARK 921   NORMALIZED FREE ENERGY PREDICTED BY IDOCK:   -4.13 KCAL/MOL
REMARK 922        TOTAL FREE ENERGY PREDICTED BY IDOCK:   -8.45 KCAL/MOL
REMARK 923 INTER-LIGAND FREE ENERGY PREDICTED BY IDOCK:   -5.98 KCAL/MOL
REMARK 924 INTRA-LIGAND FREE ENERGY PREDICTED BY IDOCK:   -2.47 KCAL/MOL
REMARK 927      BINDING AFFINITY PREDICTED BY RF-SCORE:    0.00 PKD
ROOT
HETATM    1  C   UNL     1     -10.909  11.699  65.113  1.00  0.00    -0.346 C  
HETATM    2  C   UNL     1     -11.118  12.109  66.373  1.00  0.00    -0.358 C  
HETATM    3  C   UNL     1     -10.944  12.686  64.028  1.00  0.00    -0.406 C  
HETATM    4  H   UNL     1     -10.182  12.973  62.285  1.00  0.00     0.000 HD 
HETATM    5  O   UNL     1     -10.160  12.334  62.988  1.00  0.00    -0.300 OA 
ENDROOT
BRANCH   2   6
HETATM    6  C   UNL     1     -11.071  11.162  67.480  1.00  0.00    -0.353 A  
HETATM    7  C   UNL     1     -10.928   9.794  67.235  1.00  0.00    -0.142 A  
HETATM    8  C   UNL     1     -10.772   8.905  68.301  1.00  0.00    -0.135 A  
HETATM    9  C   UNL     1     -11.106  11.634  68.794  1.00  0.00    -0.283 A  
HETATM   10  C   UNL     1     -10.755   9.377  69.620  1.00  0.00    -0.251 A  
HETATM   11  C   UNL     1     -10.946  10.746  69.859  1.00  0.00    -0.304 A  
BRANCH  10  12
HETATM   12  C   UNL     1     -10.403   8.448  70.755  1.00  0.00    -0.195 C  
BRANCH  12  13
HETATM   13  N   UNL     1      -8.982   8.499  71.104  1.00  0.00    -0.169 NA 
HETATM   14  H   UNL     1      -8.848   8.557  72.113  1.00  0.00     0.000 HD 
BRANCH  13  15
HETATM   15  C   UNL     1      -8.244   7.363  70.527  1.00  0.00    -0.127 C  
BRANCH  15  16
HETATM   16  C   UNL     1      -6.845   7.736  70.013  1.00  0.00    -0.049 C  
BRANCH  16  17
HETATM   17  C   UNL     1      -6.871   8.867  69.031  1.00  0.00    -0.059 A  
HETATM   18  C   UNL     1      -6.560  10.197  69.267  1.00  0.00    -0.053 A  
HETATM   19  N   UNL     1      -6.778  10.886  68.098  1.00  0.00    -0.062 NA 
HETATM   20  C   UNL     1      -6.089  10.906  70.485  1.00  0.00    -0.102 C  
HETATM   21  H   UNL     1      -6.639  11.890  67.982  1.00  0.00     0.000 HD 
HETATM   22  C   UNL     1      -7.208  10.039  67.107  1.00  0.00    -0.090 A  
HETATM   23  C   UNL     1      -7.554  10.310  65.778  1.00  0.00    -0.143 A  
HETATM   24  C   UNL     1      -7.956   9.235  64.980  1.00  0.00    -0.118 A  
HETATM   25  C   UNL     1      -8.009   7.941  65.494  1.00  0.00    -0.119 A  
HETATM   26  C   UNL     1      -7.668   7.691  66.828  1.00  0.00    -0.102 A  
HETATM   27  C   UNL     1      -7.260   8.760  67.654  1.00  0.00    -0.080 A  
ENDBRANCH  16  17
ENDBRANCH  15  16
ENDBRANCH  13  15
ENDBRANCH  12  13
ENDBRANCH  10  12
ENDBRANCH   2   6
BRANCH   3  28
HETATM   28  N   UNL     1     -11.643  13.774  64.044  1.00  0.00    -0.610 NA 
HETATM   29  H   UNL     1     -11.651  14.442  64.816  1.00  0.00     0.000 HD 
HETATM   30  O   UNL     1     -12.388  13.919  62.864  1.00  0.00    -1.023 OA 
HETATM   31  H   UNL     1     -12.901  14.718  62.876  1.00  0.00     0.000 HD 
ENDBRANCH   3  28
TORSDOF 7
ENDMDL
MODEL      180
REMARK 921   NORMALIZED FREE ENERGY PREDICTED BY IDOCK:   -4.12 KCAL/MOL
REMARK 922        TOTAL FREE ENERGY PREDICTED BY IDOCK:   -8.43 KCAL/MOL
REMARK 923 INTER-LIGAND FREE ENERGY PREDICTED BY IDOCK:   -5.51 KCAL/MOL
REMARK 924 INTRA-LIGAND FREE ENERGY PREDICTED BY IDOCK:   -2.92 KCAL/MOL
REMARK 927      BINDING AFFINITY PREDICTED BY RF-SCORE:    0.00 PKD
ROOT
HETATM    1  C   UNL     1      -9.943   9.426  66.208  1.00  0.00    -0.353 C  
HETATM    2  C   UNL     1      -9.668   8.231  66.752  1.00  0.00    -0.307 C  
HETATM    3  C   UNL     1      -9.379   9.756  64.895  1.00  0.00    -0.265 C  
HETATM    4  H   UNL     1      -9.788  10.833  63.354  1.00  0.00     0.000 HD 
HETATM    5  O   UNL     1     -10.153  10.619  64.204  1.00  0.00    -0.333 OA 
ENDROOT
BRANCH   2   6
HETATM    6  C   UNL     1     -10.227   7.858  68.046  1.00  0.00    -0.256 A  
HETATM    7  C   UNL     1     -10.061   8.691  69.155  1.00  0.00    -0.203 A  
HETATM    8  C   UNL     1     -10.692   8.382  70.362  1.00  0.00    -0.244 A  
HETATM    9  C   UNL     1     -10.988   6.691  68.159  1.00  0.00    -0.323 A  
HETATM   10  C   UNL     1     -11.498   7.240  70.469  1.00  0.00    -0.310 A  
HETATM   11  C   UNL     1     -11.621   6.386  69.364  1.00  0.00    -0.238 A  
BRANCH  10  12
HETATM   12  C   UNL     1     -12.325   7.007  71.709  1.00  0.00    -0.354 C  
BRANCH  12  13
HETATM   13  N   UNL     1     -11.751   5.984  72.584  1.00  0.00    -0.494 NA 
HETATM   14  H   UNL     1     -11.486   5.151  72.059  1.00  0.00     0.000 HD 
BRANCH  13  15
HETATM   15  C   UNL     1     -10.620   6.512  73.364  1.00  0.00    -0.285 C  
BRANCH  15  16
HETATM   16  C   UNL     1      -9.340   5.671  73.238  1.00  0.00    -0.135 C  
BRANCH  16  17
HETATM   17  C   UNL     1      -8.504   6.061  72.058  1.00  0.00    -0.121 A  
HETATM   18  C   UNL     1      -7.667   7.159  71.941  1.00  0.00    -0.091 A  
HETATM   19  N   UNL     1      -7.148   7.151  70.669  1.00  0.00    -0.065 NA 
HETATM   20  C   UNL     1      -7.307   8.238  72.897  1.00  0.00    -0.146 C  
HETATM   21  H   UNL     1      -6.504   7.851  70.301  1.00  0.00     0.000 HD 
HETATM   22  C   UNL     1      -7.612   6.070  69.962  1.00  0.00    -0.087 A  
HETATM   23  C   UNL     1      -7.355   5.679  68.643  1.00  0.00    -0.079 A  
HETATM   24  C   UNL     1      -7.969   4.511  68.181  1.00  0.00    -0.080 A  
HETATM   25  C   UNL     1      -8.806   3.766  69.008  1.00  0.00    -0.152 A  
HETATM   26  C   UNL     1      -9.059   4.177  70.321  1.00  0.00    -0.173 A  
HETATM   27  C   UNL     1      -8.453   5.355  70.810  1.00  0.00    -0.121 A  
ENDBRANCH  16  17
ENDBRANCH  15  16
ENDBRANCH  13  15
ENDBRANCH  12  13
ENDBRANCH  10  12
ENDBRANCH   2   6
BRANCH   3  28
HETATM   28  N   UNL     1      -8.264   9.289  64.433  1.00  0.00    -0.141 NA 
HETATM   29  H   UNL     1      -7.500   8.941  65.014  1.00  0.00     0.000 HD 
HETATM   30  O   UNL     1      -8.240   9.321  63.031  1.00  0.00    -0.155 OA 
HETATM   31  H   UNL     1      -7.422   8.977  62.692  1.00  0.00     0.000 HD 
ENDBRANCH   3  28
TORSDOF 7
ENDMDL
MODEL      181
REMARK 921   NORMALIZED FREE ENERGY PREDICTED BY IDOCK:   -4.12 KCAL/MOL
REMARK 922        TOTAL FREE ENERGY PREDICTED BY IDOCK:   -8.43 KCAL/MOL
REMARK 923 INTER-LIGAND FREE ENERGY PREDICTED BY IDOCK:   -7.62 KCAL/MOL
REMARK 924 INTRA-LIGAND FREE ENERGY PREDICTED BY IDOCK:   -0.81 KCAL/MOL
REMARK 927      BINDING AFFINITY PREDICTED BY RF-SCORE:    0.00 PKD
ROOT
HETATM    1  C   UNL     1     -10.876  16.250  68.025  1.00  0.00    -0.339 C  
HETATM    2  C   UNL     1     -11.078  16.216  69.351  1.00  0.00    -0.335 C  
HETATM    3  C   UNL     1     -10.169  17.396  67.443  1.00  0.00    -0.326 C  
HETATM    4  H   UNL     1      -9.047  17.814  65.937  1.00  0.00     0.000 HD 
HETATM    5  O   UNL     1      -9.505  17.071  66.314  1.00  0.00    -0.262 OA 
ENDROOT
BRANCH   2   6
HETATM    6  C   UNL     1     -11.758  15.084  69.969  1.00  0.00    -0.345 A  
HETATM    7  C   UNL     1     -11.703  13.818  69.380  1.00  0.00    -0.379 A  
HETATM    8  C   UNL     1     -12.262  12.718  70.034  1.00  0.00    -0.279 A  
HETATM    9  C   UNL     1     -12.413  15.255  71.191  1.00  0.00    -0.438 A  
HETATM   10  C   UNL     1     -12.877  12.874  71.284  1.00  0.00    -0.361 A  
HETATM   11  C   UNL     1     -12.968  14.156  71.846  1.00  0.00    -0.441 A  
BRANCH  10  12
HETATM   12  C   UNL     1     -13.313  11.664  72.072  1.00  0.00    -0.300 C  
BRANCH  12  13
HETATM   13  N   UNL     1     -13.354  10.447  71.259  1.00  0.00    -0.310 NA 
HETATM   14  H   UNL     1     -12.895  10.584  70.359  1.00  0.00     0.000 HD 
BRANCH  13  15
HETATM   15  C   UNL     1     -12.789   9.295  71.982  1.00  0.00    -0.415 C  
BRANCH  15  16
HETATM   16  C   UNL     1     -12.025   8.316  71.077  1.00  0.00    -0.260 C  
BRANCH  16  17
HETATM   17  C   UNL     1     -10.717   8.867  70.600  1.00  0.00    -0.282 A  
HETATM   18  C   UNL     1     -10.479   9.608  69.453  1.00  0.00    -0.220 A  
HETATM   19  N   UNL     1      -9.128   9.850  69.389  1.00  0.00    -0.192 NA 
HETATM   20  C   UNL     1     -11.387  10.109  68.390  1.00  0.00    -0.179 C  
HETATM   21  H   UNL     1      -8.666  10.368  68.642  1.00  0.00     0.000 HD 
HETATM   22  C   UNL     1      -8.484   9.299  70.469  1.00  0.00    -0.216 A  
HETATM   23  C   UNL     1      -7.123   9.293  70.800  1.00  0.00    -0.121 A  
HETATM   24  C   UNL     1      -6.746   8.652  71.984  1.00  0.00    -0.078 A  
HETATM   25  C   UNL     1      -7.694   8.043  72.802  1.00  0.00    -0.169 A  
HETATM   26  C   UNL     1      -9.048   8.051  72.451  1.00  0.00    -0.254 A  
HETATM   27  C   UNL     1      -9.454   8.690  71.259  1.00  0.00    -0.289 A  
ENDBRANCH  16  17
ENDBRANCH  15  16
ENDBRANCH  13  15
ENDBRANCH  12  13
ENDBRANCH  10  12
ENDBRANCH   2   6
BRANCH   3  28
HETATM   28  N   UNL     1     -10.172  18.592  67.936  1.00  0.00    -0.372 NA 
HETATM   29  H   UNL     1      -9.588  18.895  68.716  1.00  0.00     0.000 HD 
HETATM   30  O   UNL     1     -11.083  19.420  67.261  1.00  0.00    -0.458 OA 
HETATM   31  H   UNL     1     -11.085  20.298  67.623  1.00  0.00     0.000 HD 
ENDBRANCH   3  28
TORSDOF 7
ENDMDL
MODEL      182
REMARK 921   NORMALIZED FREE ENERGY PREDICTED BY IDOCK:   -4.10 KCAL/MOL
REMARK 922        TOTAL FREE ENERGY PREDICTED BY IDOCK:   -8.41 KCAL/MOL
REMARK 923 INTER-LIGAND FREE ENERGY PREDICTED BY IDOCK:   -7.14 KCAL/MOL
REMARK 924 INTRA-LIGAND FREE ENERGY PREDICTED BY IDOCK:   -1.27 KCAL/MOL
REMARK 927      BINDING AFFINITY PREDICTED BY RF-SCORE:    0.00 PKD
ROOT
HETATM    1  C   UNL     1     -10.046   5.295  71.290  1.00  0.00    -0.278 C  
HETATM    2  C   UNL     1     -10.796   6.143  70.570  1.00  0.00    -0.364 C  
HETATM    3  C   UNL     1     -10.588   4.752  72.540  1.00  0.00    -0.200 C  
HETATM    4  H   UNL     1     -10.437   3.183  73.642  1.00  0.00     0.000 HD 
HETATM    5  O   UNL     1     -10.086   3.534  72.832  1.00  0.00    -0.140 OA 
ENDROOT
BRANCH   2   6
HETATM    6  C   UNL     1     -10.301   6.688  69.311  1.00  0.00    -0.228 A  
HETATM    7  C   UNL     1     -10.995   6.458  68.120  1.00  0.00    -0.393 A  
HETATM    8  C   UNL     1     -10.577   7.074  66.938  1.00  0.00    -0.372 A  
HETATM    9  C   UNL     1      -9.162   7.496  69.309  1.00  0.00    -0.144 A  
HETATM   10  C   UNL     1      -9.464   7.926  66.938  1.00  0.00    -0.243 A  
HETATM   11  C   UNL     1      -8.747   8.113  68.129  1.00  0.00    -0.136 A  
BRANCH  10  12
HETATM   12  C   UNL     1      -9.126   8.733  65.709  1.00  0.00    -0.212 C  
BRANCH  12  13
HETATM   13  N   UNL     1     -10.184   9.675  65.345  1.00  0.00    -0.256 NA 
HETATM   14  H   UNL     1     -10.961   9.637  66.004  1.00  0.00     0.000 HD 
BRANCH  13  15
HETATM   15  C   UNL     1      -9.664  11.045  65.205  1.00  0.00    -0.239 C  
BRANCH  15  16
HETATM   16  C   UNL     1      -9.011  11.589  66.486  1.00  0.00    -0.190 C  
BRANCH  16  17
HETATM   17  C   UNL     1      -9.908  12.519  67.244  1.00  0.00    -0.204 A  
HETATM   18  C   UNL     1     -10.929  12.182  68.119  1.00  0.00    -0.230 A  
HETATM   19  N   UNL     1     -11.518  13.351  68.536  1.00  0.00    -0.287 NA 
HETATM   20  C   UNL     1     -11.428  10.869  68.603  1.00  0.00    -0.380 C  
HETATM   21  H   UNL     1     -12.307  13.405  69.181  1.00  0.00     0.000 HD 
HETATM   22  C   UNL     1     -10.900  14.437  67.968  1.00  0.00    -0.243 A  
HETATM   23  C   UNL     1     -11.176  15.803  68.103  1.00  0.00    -0.344 A  
HETATM   24  C   UNL     1     -10.366  16.701  67.401  1.00  0.00    -0.292 A  
HETATM   25  C   UNL     1      -9.322  16.247  66.597  1.00  0.00    -0.272 A  
HETATM   26  C   UNL     1      -9.068  14.878  66.467  1.00  0.00    -0.309 A  
HETATM   27  C   UNL     1      -9.873  13.951  67.164  1.00  0.00    -0.241 A  
ENDBRANCH  16  17
ENDBRANCH  15  16
ENDBRANCH  13  15
ENDBRANCH  12  13
ENDBRANCH  10  12
ENDBRANCH   2   6
BRANCH   3  28
HETATM   28  N   UNL     1     -11.446   5.358  73.296  1.00  0.00    -0.513 NA 
HETATM   29  H   UNL     1     -12.441   5.132  73.333  1.00  0.00     0.000 HD 
HETATM   30  O   UNL     1     -10.834   6.364  74.058  1.00  0.00    -0.428 OA 
HETATM   31  H   UNL     1     -11.465   6.808  74.613  1.00  0.00     0.000 HD 
ENDBRANCH   3  28
TORSDOF 7
ENDMDL
MODEL      183
REMARK 921   NORMALIZED FREE ENERGY PREDICTED BY IDOCK:   -4.09 KCAL/MOL
REMARK 922        TOTAL FREE ENERGY PREDICTED BY IDOCK:   -8.39 KCAL/MOL
REMARK 923 INTER-LIGAND FREE ENERGY PREDICTED BY IDOCK:   -5.33 KCAL/MOL
REMARK 924 INTRA-LIGAND FREE ENERGY PREDICTED BY IDOCK:   -3.06 KCAL/MOL
REMARK 927      BINDING AFFINITY PREDICTED BY RF-SCORE:    0.00 PKD
ROOT
HETATM    1  C   UNL     1      -9.948  11.739  66.693  1.00  0.00    -0.224 C  
HETATM    2  C   UNL     1     -10.561  10.579  66.416  1.00  0.00    -0.218 C  
HETATM    3  C   UNL     1      -9.969  12.811  65.692  1.00  0.00    -0.238 C  
HETATM    4  H   UNL     1      -9.915  14.732  65.601  1.00  0.00     0.000 HD 
HETATM    5  O   UNL     1      -9.902  14.038  66.250  1.00  0.00    -0.286 OA 
ENDROOT
BRANCH   2   6
HETATM    6  C   UNL     1     -10.581   9.497  67.394  1.00  0.00    -0.337 A  
HETATM    7  C   UNL     1     -10.783   9.773  68.749  1.00  0.00    -0.243 A  
HETATM    8  C   UNL     1     -10.911   8.725  69.664  1.00  0.00    -0.175 A  
HETATM    9  C   UNL     1     -10.461   8.174  66.963  1.00  0.00    -0.396 A  
HETATM   10  C   UNL     1     -10.842   7.394  69.231  1.00  0.00    -0.153 A  
HETATM   11  C   UNL     1     -10.593   7.128  67.876  1.00  0.00    -0.269 A  
BRANCH  10  12
HETATM   12  C   UNL     1     -11.164   6.268  70.182  1.00  0.00    -0.403 C  
BRANCH  12  13
HETATM   13  N   UNL     1     -10.290   6.255  71.355  1.00  0.00    -0.205 NA 
HETATM   14  H   UNL     1     -10.811   6.044  72.206  1.00  0.00     0.000 HD 
BRANCH  13  15
HETATM   15  C   UNL     1      -9.157   5.331  71.175  1.00  0.00    -0.144 C  
BRANCH  15  16
HETATM   16  C   UNL     1      -7.792   6.034  71.126  1.00  0.00    -0.111 C  
BRANCH  16  17
HETATM   17  C   UNL     1      -7.474   6.588  69.771  1.00  0.00    -0.088 A  
HETATM   18  C   UNL     1      -7.237   5.880  68.604  1.00  0.00    -0.083 A  
HETATM   19  N   UNL     1      -6.930   6.792  67.622  1.00  0.00    -0.080 NA 
HETATM   20  C   UNL     1      -7.252   4.425  68.305  1.00  0.00    -0.060 C  
HETATM   21  H   UNL     1      -6.701   6.551  66.658  1.00  0.00     0.000 HD 
HETATM   22  C   UNL     1      -6.976   8.071  68.116  1.00  0.00    -0.077 A  
HETATM   23  C   UNL     1      -6.726   9.292  67.478  1.00  0.00    -0.069 A  
HETATM   24  C   UNL     1      -6.856  10.459  68.237  1.00  0.00    -0.065 A  
HETATM   25  C   UNL     1      -7.222  10.404  69.580  1.00  0.00    -0.148 A  
HETATM   26  C   UNL     1      -7.458   9.174  70.203  1.00  0.00    -0.082 A  
HETATM   27  C   UNL     1      -7.331   7.981  69.459  1.00  0.00    -0.086 A  
ENDBRANCH  16  17
ENDBRANCH  15  16
ENDBRANCH  13  15
ENDBRANCH  12  13
ENDBRANCH  10  12
ENDBRANCH   2   6
BRANCH   3  28
HETATM   28  N   UNL     1     -10.038  12.624  64.413  1.00  0.00    -0.541 NA 
HETATM   29  H   UNL     1      -9.465  11.955  63.897  1.00  0.00     0.000 HD 
HETATM   30  O   UNL     1     -11.000  13.459  63.827  1.00  0.00    -0.550 OA 
HETATM   31  H   UNL     1     -11.051  13.322  62.888  1.00  0.00     0.000 HD 
ENDBRANCH   3  28
TORSDOF 7
ENDMDL
MODEL      184
REMARK 921   NORMALIZED FREE ENERGY PREDICTED BY IDOCK:   -4.08 KCAL/MOL
REMARK 922        TOTAL FREE ENERGY PREDICTED BY IDOCK:   -8.38 KCAL/MOL
REMARK 923 INTER-LIGAND FREE ENERGY PREDICTED BY IDOCK:   -6.12 KCAL/MOL
REMARK 924 INTRA-LIGAND FREE ENERGY PREDICTED BY IDOCK:   -2.26 KCAL/MOL
REMARK 927      BINDING AFFINITY PREDICTED BY RF-SCORE:    0.00 PKD
ROOT
HETATM    1  C   UNL     1     -10.801   8.773  70.947  1.00  0.00    -0.293 C  
HETATM    2  C   UNL     1      -9.829   9.460  70.328  1.00  0.00    -0.290 C  
HETATM    3  C   UNL     1     -10.471   7.997  72.147  1.00  0.00    -0.265 C  
HETATM    4  H   UNL     1     -11.304   7.378  73.767  1.00  0.00     0.000 HD 
HETATM    5  O   UNL     1     -11.518   7.882  72.990  1.00  0.00    -0.383 OA 
ENDROOT
BRANCH   2   6
HETATM    6  C   UNL     1     -10.122  10.260  69.145  1.00  0.00    -0.232 A  
HETATM    7  C   UNL     1      -9.296  10.188  68.020  1.00  0.00    -0.149 A  
HETATM    8  C   UNL     1      -9.644  10.871  66.853  1.00  0.00    -0.203 A  
HETATM    9  C   UNL     1     -11.271  11.054  69.116  1.00  0.00    -0.318 A  
HETATM   10  C   UNL     1     -10.822  11.629  66.800  1.00  0.00    -0.322 A  
HETATM   11  C   UNL     1     -11.620  11.733  67.948  1.00  0.00    -0.377 A  
BRANCH  10  12
HETATM   12  C   UNL     1     -11.292  12.212  65.490  1.00  0.00    -0.344 C  
BRANCH  12  13
HETATM   13  N   UNL     1     -10.249  12.982  64.810  1.00  0.00    -0.484 NA 
HETATM   14  H   UNL     1     -10.163  12.711  63.831  1.00  0.00     0.000 HD 
BRANCH  13  15
HETATM   15  C   UNL     1     -10.470  14.431  64.950  1.00  0.00    -0.423 C  
BRANCH  15  16
HETATM   16  C   UNL     1      -9.347  15.154  65.711  1.00  0.00    -0.207 C  
BRANCH  16  17
HETATM   17  C   UNL     1      -9.339  14.833  67.174  1.00  0.00    -0.233 A  
HETATM   18  C   UNL     1      -8.374  14.132  67.880  1.00  0.00    -0.162 A  
HETATM   19  N   UNL     1      -8.806  14.028  69.180  1.00  0.00    -0.357 NA 
HETATM   20  C   UNL     1      -7.082  13.529  67.462  1.00  0.00    -0.159 C  
HETATM   21  H   UNL     1      -8.296  13.552  69.924  1.00  0.00     0.000 HD 
HETATM   22  C   UNL     1     -10.017  14.653  69.341  1.00  0.00    -0.024 A  
HETATM   23  C   UNL     1     -10.819  14.783  70.481  1.00  0.00     0.016 A  
HETATM   24  C   UNL     1     -12.018  15.490  70.354  1.00  0.00    -0.398 A  
HETATM   25  C   UNL     1     -12.397  16.044  69.134  1.00  0.00     0.267 A  
HETATM   26  C   UNL     1     -11.588  15.896  68.003  1.00  0.00    -0.168 A  
HETATM   27  C   UNL     1     -10.373  15.185  68.105  1.00  0.00    -0.239 A  
ENDBRANCH  16  17
ENDBRANCH  15  16
ENDBRANCH  13  15
ENDBRANCH  12  13
ENDBRANCH  10  12
ENDBRANCH   2   6
BRANCH   3  28
HETATM   28  N   UNL     1      -9.314   7.470  72.389  1.00  0.00    -0.143 NA 
HETATM   29  H   UNL     1      -8.923   6.679  71.875  1.00  0.00     0.000 HD 
HETATM   30  O   UNL     1      -8.666   8.124  73.447  1.00  0.00    -0.233 OA 
HETATM   31  H   UNL     1      -7.817   7.736  73.624  1.00  0.00     0.000 HD 
ENDBRANCH   3  28
TORSDOF 7
ENDMDL
MODEL      185
REMARK 921   NORMALIZED FREE ENERGY PREDICTED BY IDOCK:   -4.08 KCAL/MOL
REMARK 922        TOTAL FREE ENERGY PREDICTED BY IDOCK:   -8.38 KCAL/MOL
REMARK 923 INTER-LIGAND FREE ENERGY PREDICTED BY IDOCK:   -7.46 KCAL/MOL
REMARK 924 INTRA-LIGAND FREE ENERGY PREDICTED BY IDOCK:   -0.92 KCAL/MOL
REMARK 927      BINDING AFFINITY PREDICTED BY RF-SCORE:    0.00 PKD
ROOT
HETATM    1  C   UNL     1      -9.644  10.763  64.028  1.00  0.00    -0.339 C  
HETATM    2  C   UNL     1      -9.115  11.425  65.068  1.00  0.00    -0.025 C  
HETATM    3  C   UNL     1      -8.751  10.252  62.982  1.00  0.00    -0.208 C  
HETATM    4  H   UNL     1      -8.666   8.821  61.699  1.00  0.00     0.000 HD 
HETATM    5  O   UNL     1      -9.244   9.152  62.377  1.00  0.00    -0.163 OA 
ENDROOT
BRANCH   2   6
HETATM    6  C   UNL     1      -9.967  11.929  66.138  1.00  0.00    -0.254 A  
HETATM    7  C   UNL     1      -9.530  11.896  67.465  1.00  0.00    -0.176 A  
HETATM    8  C   UNL     1     -10.304  12.480  68.471  1.00  0.00    -0.233 A  
HETATM    9  C   UNL     1     -11.200  12.506  65.826  1.00  0.00    -0.356 A  
HETATM   10  C   UNL     1     -11.518  13.105  68.157  1.00  0.00    -0.349 A  
HETATM   11  C   UNL     1     -11.971  13.092  66.830  1.00  0.00    -0.421 A  
BRANCH  10  12
HETATM   12  C   UNL     1     -12.260  13.894  69.208  1.00  0.00    -0.277 C  
BRANCH  12  13
HETATM   13  N   UNL     1     -12.372  15.314  68.870  1.00  0.00    -0.604 NA 
HETATM   14  H   UNL     1     -13.107  15.769  69.412  1.00  0.00     0.000 HD 
BRANCH  13  15
HETATM   15  C   UNL     1     -11.083  16.010  69.023  1.00  0.00    -0.320 C  
BRANCH  15  16
HETATM   16  C   UNL     1     -10.495  16.512  67.695  1.00  0.00    -0.305 C  
BRANCH  16  17
HETATM   17  C   UNL     1      -9.515  17.629  67.881  1.00  0.00    -0.276 A  
HETATM   18  C   UNL     1      -9.639  18.942  67.456  1.00  0.00    -0.305 A  
HETATM   19  N   UNL     1      -8.480  19.598  67.792  1.00  0.00    -0.312 NA 
HETATM   20  C   UNL     1     -10.733  19.656  66.747  1.00  0.00    -0.562 C  
HETATM   21  H   UNL     1      -8.290  20.580  67.591  1.00  0.00     0.000 HD 
HETATM   22  C   UNL     1      -7.612  18.752  68.436  1.00  0.00    -0.301 A  
HETATM   23  C   UNL     1      -6.328  18.991  68.940  1.00  0.00    -0.282 A  
HETATM   24  C   UNL     1      -5.668  17.929  69.565  1.00  0.00    -0.229 A  
HETATM   25  C   UNL     1      -6.271  16.679  69.680  1.00  0.00    -0.226 A  
HETATM   26  C   UNL     1      -7.551  16.456  69.162  1.00  0.00    -0.225 A  
HETATM   27  C   UNL     1      -8.238  17.512  68.525  1.00  0.00    -0.278 A  
ENDBRANCH  16  17
ENDBRANCH  15  16
ENDBRANCH  13  15
ENDBRANCH  12  13
ENDBRANCH  10  12
ENDBRANCH   2   6
BRANCH   3  28
HETATM   28  N   UNL     1      -7.618  10.785  62.656  1.00  0.00    -0.335 NA 
HETATM   29  H   UNL     1      -7.478  11.780  62.480  1.00  0.00     0.000 HD 
HETATM   30  O   UNL     1      -6.605   9.817  62.576  1.00  0.00    -0.101 OA 
HETATM   31  H   UNL     1      -5.773  10.209  62.336  1.00  0.00     0.000 HD 
ENDBRANCH   3  28
TORSDOF 7
ENDMDL
MODEL      186
REMARK 921   NORMALIZED FREE ENERGY PREDICTED BY IDOCK:   -4.05 KCAL/MOL
REMARK 922        TOTAL FREE ENERGY PREDICTED BY IDOCK:   -8.34 KCAL/MOL
REMARK 923 INTER-LIGAND FREE ENERGY PREDICTED BY IDOCK:   -6.97 KCAL/MOL
REMARK 924 INTRA-LIGAND FREE ENERGY PREDICTED BY IDOCK:   -1.37 KCAL/MOL
REMARK 927      BINDING AFFINITY PREDICTED BY RF-SCORE:    0.00 PKD
ROOT
HETATM    1  C   UNL     1     -11.891  12.711  66.341  1.00  0.00    -0.466 C  
HETATM    2  C   UNL     1     -11.240  11.539  66.288  1.00  0.00    -0.286 C  
HETATM    3  C   UNL     1     -11.998  13.521  65.123  1.00  0.00    -0.368 C  
HETATM    4  H   UNL     1     -13.179  14.811  64.321  1.00  0.00     0.000 HD 
HETATM    5  O   UNL     1     -13.110  14.286  65.110  1.00  0.00    -0.704 OA 
ENDROOT
BRANCH   2   6
HETATM    6  C   UNL     1     -11.131  10.696  67.472  1.00  0.00    -0.367 A  
HETATM    7  C   UNL     1     -10.629   9.396  67.371  1.00  0.00    -0.326 A  
HETATM    8  C   UNL     1     -10.424   8.634  68.524  1.00  0.00    -0.209 A  
HETATM    9  C   UNL     1     -11.470  11.215  68.724  1.00  0.00    -0.366 A  
HETATM   10  C   UNL     1     -10.714   9.167  69.787  1.00  0.00    -0.239 A  
HETATM   11  C   UNL     1     -11.261  10.455  69.875  1.00  0.00    -0.371 A  
BRANCH  10  12
HETATM   12  C   UNL     1     -10.320   8.419  71.036  1.00  0.00    -0.198 C  
BRANCH  12  13
HETATM   13  N   UNL     1      -9.190   9.037  71.729  1.00  0.00    -0.361 NA 
HETATM   14  H   UNL     1      -9.004   8.579  72.622  1.00  0.00     0.000 HD 
BRANCH  13  15
HETATM   15  C   UNL     1      -7.987   9.069  70.880  1.00  0.00    -0.164 C  
BRANCH  15  16
HETATM   16  C   UNL     1      -7.254   7.721  70.800  1.00  0.00    -0.057 C  
BRANCH  16  17
HETATM   17  C   UNL     1      -7.316   7.108  69.435  1.00  0.00    -0.090 A  
HETATM   18  C   UNL     1      -6.637   7.511  68.296  1.00  0.00    -0.050 A  
HETATM   19  N   UNL     1      -7.039   6.698  67.264  1.00  0.00    -0.078 NA 
HETATM   20  C   UNL     1      -5.650   8.597  68.062  1.00  0.00    -0.035 C  
HETATM   21  H   UNL     1      -6.707   6.774  66.303  1.00  0.00     0.000 HD 
HETATM   22  C   UNL     1      -7.950   5.770  67.704  1.00  0.00    -0.102 A  
HETATM   23  C   UNL     1      -8.621   4.764  67.000  1.00  0.00    -0.104 A  
HETATM   24  C   UNL     1      -9.501   3.946  67.716  1.00  0.00    -0.230 A  
HETATM   25  C   UNL     1      -9.698   4.131  69.083  1.00  0.00    -0.205 A  
HETATM   26  C   UNL     1      -9.024   5.148  69.768  1.00  0.00    -0.141 A  
HETATM   27  C   UNL     1      -8.133   5.987  69.066  1.00  0.00    -0.107 A  
ENDBRANCH  16  17
ENDBRANCH  15  16
ENDBRANCH  13  15
ENDBRANCH  12  13
ENDBRANCH  10  12
ENDBRANCH   2   6
BRANCH   3  28
HETATM   28  N   UNL     1     -11.134  13.521  64.160  1.00  0.00    -0.549 NA 
HETATM   29  H   UNL     1     -10.241  14.015  64.187  1.00  0.00     0.000 HD 
HETATM   30  O   UNL     1     -11.583  12.756  63.073  1.00  0.00    -0.800 OA 
HETATM   31  H   UNL     1     -10.948  12.756  62.366  1.00  0.00     0.000 HD 
ENDBRANCH   3  28
TORSDOF 7
ENDMDL
MODEL      187
REMARK 921   NORMALIZED FREE ENERGY PREDICTED BY IDOCK:   -4.05 KCAL/MOL
REMARK 922        TOTAL FREE ENERGY PREDICTED BY IDOCK:   -8.33 KCAL/MOL
REMARK 923 INTER-LIGAND FREE ENERGY PREDICTED BY IDOCK:   -6.37 KCAL/MOL
REMARK 924 INTRA-LIGAND FREE ENERGY PREDICTED BY IDOCK:   -1.96 KCAL/MOL
REMARK 927      BINDING AFFINITY PREDICTED BY RF-SCORE:    0.00 PKD
ROOT
HETATM    1  C   UNL     1      -8.331  10.946  65.955  1.00  0.00    -0.165 C  
HETATM    2  C   UNL     1      -7.855  11.425  67.115  1.00  0.00    -0.156 C  
HETATM    3  C   UNL     1      -8.152   9.523  65.646  1.00  0.00    -0.112 C  
HETATM    4  H   UNL     1      -9.014   8.122  64.648  1.00  0.00     0.000 HD 
HETATM    5  O   UNL     1      -9.130   9.044  64.849  1.00  0.00    -0.183 OA 
ENDROOT
BRANCH   2   6
HETATM    6  C   UNL     1      -8.031  12.829  67.467  1.00  0.00    -0.177 A  
HETATM    7  C   UNL     1      -8.419  13.758  66.498  1.00  0.00     0.299 A  
HETATM    8  C   UNL     1      -8.693  15.077  66.865  1.00  0.00    -0.285 A  
HETATM    9  C   UNL     1      -7.872  13.233  68.794  1.00  0.00     0.008 A  
HETATM   10  C   UNL     1      -8.585  15.478  68.204  1.00  0.00    -0.152 A  
HETATM   11  C   UNL     1      -8.149  14.550  69.161  1.00  0.00    -0.032 A  
BRANCH  10  12
HETATM   12  C   UNL     1      -9.058  16.846  68.628  1.00  0.00    -0.265 C  
BRANCH  12  13
HETATM   13  N   UNL     1     -10.313  16.800  69.378  1.00  0.00    -0.299 NA 
HETATM   14  H   UNL     1     -10.617  17.734  69.654  1.00  0.00     0.000 HD 
BRANCH  13  15
HETATM   15  C   UNL     1     -11.365  16.092  68.629  1.00  0.00    -0.365 C  
BRANCH  15  16
HETATM   16  C   UNL     1     -11.802  14.772  69.281  1.00  0.00    -0.352 C  
BRANCH  16  17
HETATM   17  C   UNL     1     -11.828  13.628  68.315  1.00  0.00    -0.404 A  
HETATM   18  C   UNL     1     -11.727  12.276  68.602  1.00  0.00    -0.328 A  
HETATM   19  N   UNL     1     -11.741  11.597  67.408  1.00  0.00    -0.606 NA 
HETATM   20  C   UNL     1     -11.603  11.542  69.888  1.00  0.00    -0.387 C  
HETATM   21  H   UNL     1     -11.671  10.583  67.316  1.00  0.00     0.000 HD 
HETATM   22  C   UNL     1     -11.862  12.468  66.354  1.00  0.00    -0.381 A  
HETATM   23  C   UNL     1     -11.907  12.217  64.978  1.00  0.00    -0.357 A  
HETATM   24  C   UNL     1     -12.044  13.314  64.122  1.00  0.00    -0.494 A  
HETATM   25  C   UNL     1     -12.134  14.609  64.626  1.00  0.00    -0.466 A  
HETATM   26  C   UNL     1     -12.078  14.842  66.004  1.00  0.00    -0.101 A  
HETATM   27  C   UNL     1     -11.937  13.751  66.889  1.00  0.00    -0.460 A  
ENDBRANCH  16  17
ENDBRANCH  15  16
ENDBRANCH  13  15
ENDBRANCH  12  13
ENDBRANCH  10  12
ENDBRANCH   2   6
BRANCH   3  28
HETATM   28  N   UNL     1      -7.174   8.793  66.075  1.00  0.00    -0.087 NA 
HETATM   29  H   UNL     1      -6.543   9.062  66.831  1.00  0.00     0.000 HD 
HETATM   30  O   UNL     1      -7.092   7.585  65.367  1.00  0.00    -0.061 OA 
HETATM   31  H   UNL     1      -6.374   7.049  65.682  1.00  0.00     0.000 HD 
ENDBRANCH   3  28
TORSDOF 7
ENDMDL
MODEL      188
REMARK 921   NORMALIZED FREE ENERGY PREDICTED BY IDOCK:   -4.04 KCAL/MOL
REMARK 922        TOTAL FREE ENERGY PREDICTED BY IDOCK:   -8.32 KCAL/MOL
REMARK 923 INTER-LIGAND FREE ENERGY PREDICTED BY IDOCK:   -7.56 KCAL/MOL
REMARK 924 INTRA-LIGAND FREE ENERGY PREDICTED BY IDOCK:   -0.76 KCAL/MOL
REMARK 927      BINDING AFFINITY PREDICTED BY RF-SCORE:    0.00 PKD
ROOT
HETATM    1  C   UNL     1     -11.866   9.814  71.069  1.00  0.00    -0.442 C  
HETATM    2  C   UNL     1     -12.454  10.082  69.894  1.00  0.00     0.174 C  
HETATM    3  C   UNL     1     -12.488   8.838  71.970  1.00  0.00    -0.386 C  
HETATM    4  H   UNL     1     -11.988   7.579  73.337  1.00  0.00     0.000 HD 
HETATM    5  O   UNL     1     -11.585   8.211  72.753  1.00  0.00    -0.411 OA 
ENDROOT
BRANCH   2   6
HETATM    6  C   UNL     1     -11.855  11.030  68.962  1.00  0.00    -0.399 A  
HETATM    7  C   UNL     1     -11.166  10.575  67.836  1.00  0.00    -0.358 A  
HETATM    8  C   UNL     1     -10.690  11.488  66.891  1.00  0.00    -0.304 A  
HETATM    9  C   UNL     1     -12.027  12.401  69.166  1.00  0.00    -0.291 A  
HETATM   10  C   UNL     1     -10.904  12.862  67.063  1.00  0.00    -0.282 A  
HETATM   11  C   UNL     1     -11.556  13.312  68.220  1.00  0.00    -0.369 A  
BRANCH  10  12
HETATM   12  C   UNL     1     -10.558  13.829  65.958  1.00  0.00    -0.290 C  
BRANCH  12  13
HETATM   13  N   UNL     1      -9.197  14.353  66.075  1.00  0.00    -0.521 NA 
HETATM   14  H   UNL     1      -8.608  14.039  65.304  1.00  0.00     0.000 HD 
BRANCH  13  15
HETATM   15  C   UNL     1      -9.191  15.821  66.194  1.00  0.00    -0.350 C  
BRANCH  15  16
HETATM   16  C   UNL     1      -7.783  16.422  66.326  1.00  0.00    -0.144 C  
BRANCH  16  17
HETATM   17  C   UNL     1      -7.270  16.392  67.733  1.00  0.00    -0.155 A  
HETATM   18  C   UNL     1      -7.296  17.418  68.664  1.00  0.00    -0.244 A  
HETATM   19  N   UNL     1      -6.667  16.964  69.798  1.00  0.00    -0.075 NA 
HETATM   20  C   UNL     1      -7.841  18.799  68.603  1.00  0.00    -0.361 C  
HETATM   21  H   UNL     1      -6.532  17.514  70.646  1.00  0.00     0.000 HD 
HETATM   22  C   UNL     1      -6.245  15.669  69.635  1.00  0.00    -0.164 A  
HETATM   23  C   UNL     1      -5.559  14.826  70.518  1.00  0.00    -0.144 A  
HETATM   24  C   UNL     1      -5.261  13.532  70.081  1.00  0.00    -0.099 A  
HETATM   25  C   UNL     1      -5.635  13.101  68.810  1.00  0.00    -0.073 A  
HETATM   26  C   UNL     1      -6.312  13.960  67.938  1.00  0.00    -0.167 A  
HETATM   27  C   UNL     1      -6.623  15.272  68.355  1.00  0.00    -0.110 A  
ENDBRANCH  16  17
ENDBRANCH  15  16
ENDBRANCH  13  15
ENDBRANCH  12  13
ENDBRANCH  10  12
ENDBRANCH   2   6
BRANCH   3  28
HETATM   28  N   UNL     1     -13.757   8.593  72.028  1.00  0.00    -0.402 NA 
HETATM   29  H   UNL     1     -14.310   8.231  71.250  1.00  0.00     0.000 HD 
HETATM   30  O   UNL     1     -14.276   8.889  73.297  1.00  0.00    -1.197 OA 
HETATM   31  H   UNL     1     -15.208   8.709  73.339  1.00  0.00     0.000 HD 
ENDBRANCH   3  28
TORSDOF 7
ENDMDL
MODEL      189
REMARK 921   NORMALIZED FREE ENERGY PREDICTED BY IDOCK:   -4.00 KCAL/MOL
REMARK 922        TOTAL FREE ENERGY PREDICTED BY IDOCK:   -8.27 KCAL/MOL
REMARK 923 INTER-LIGAND FREE ENERGY PREDICTED BY IDOCK:   -6.81 KCAL/MOL
REMARK 924 INTRA-LIGAND FREE ENERGY PREDICTED BY IDOCK:   -1.45 KCAL/MOL
REMARK 927      BINDING AFFINITY PREDICTED BY RF-SCORE:    0.00 PKD
ROOT
HETATM    1  C   UNL     1      -9.794  17.975  67.803  1.00  0.00    -0.306 C  
HETATM    2  C   UNL     1      -9.455  17.574  66.568  1.00  0.00    -0.285 C  
HETATM    3  C   UNL     1      -9.321  19.278  68.283  1.00  0.00    -0.351 C  
HETATM    4  H   UNL     1      -9.853  20.672  69.497  1.00  0.00     0.000 HD 
HETATM    5  O   UNL     1     -10.160  19.828  69.186  1.00  0.00    -0.438 OA 
ENDROOT
BRANCH   2   6
HETATM    6  C   UNL     1      -9.923  16.295  66.048  1.00  0.00    -0.370 A  
HETATM    7  C   UNL     1     -10.828  16.253  64.984  1.00  0.00    -0.337 A  
HETATM    8  C   UNL     1     -11.186  15.027  64.418  1.00  0.00    -0.173 A  
HETATM    9  C   UNL     1      -9.414  15.107  66.575  1.00  0.00    -0.308 A  
HETATM   10  C   UNL     1     -10.639  13.834  64.910  1.00  0.00    -0.427 A  
HETATM   11  C   UNL     1      -9.768  13.883  66.008  1.00  0.00    -0.270 A  
BRANCH  10  12
HETATM   12  C   UNL     1     -10.879  12.533  64.185  1.00  0.00    -0.382 C  
BRANCH  12  13
HETATM   13  N   UNL     1     -11.008  11.396  65.097  1.00  0.00    -0.235 NA 
HETATM   14  H   UNL     1     -11.948  10.999  65.068  1.00  0.00     0.000 HD 
BRANCH  13  15
HETATM   15  C   UNL     1      -9.984  10.372  64.832  1.00  0.00    -0.339 C  
BRANCH  15  16
HETATM   16  C   UNL     1      -9.572   9.576  66.081  1.00  0.00    -0.302 C  
BRANCH  16  17
HETATM   17  C   UNL     1      -9.162  10.458  67.220  1.00  0.00    -0.157 A  
HETATM   18  C   UNL     1      -9.958  10.932  68.250  1.00  0.00    -0.175 A  
HETATM   19  N   UNL     1      -9.178  11.748  69.034  1.00  0.00    -0.388 NA 
HETATM   20  C   UNL     1     -11.391  10.714  68.578  1.00  0.00    -0.348 C  
HETATM   21  H   UNL     1      -9.507  12.243  69.863  1.00  0.00     0.000 HD 
HETATM   22  C   UNL     1      -7.895  11.805  68.550  1.00  0.00    -0.144 A  
HETATM   23  C   UNL     1      -6.785  12.514  69.023  1.00  0.00    -0.098 A  
HETATM   24  C   UNL     1      -5.582  12.378  68.324  1.00  0.00    -0.057 A  
HETATM   25  C   UNL     1      -5.496  11.563  67.197  1.00  0.00    -0.093 A  
HETATM   26  C   UNL     1      -6.619  10.869  66.734  1.00  0.00    -0.116 A  
HETATM   27  C   UNL     1      -7.846  10.992  67.421  1.00  0.00    -0.118 A  
ENDBRANCH  16  17
ENDBRANCH  15  16
ENDBRANCH  13  15
ENDBRANCH  12  13
ENDBRANCH  10  12
ENDBRANCH   2   6
BRANCH   3  28
HETATM   28  N   UNL     1      -8.226  19.851  67.902  1.00  0.00    -0.296 NA 
HETATM   29  H   UNL     1      -8.174  20.575  67.184  1.00  0.00     0.000 HD 
HETATM   30  O   UNL     1      -7.118  19.349  68.600  1.00  0.00    -0.299 OA 
HETATM   31  H   UNL     1      -6.314  19.770  68.320  1.00  0.00     0.000 HD 
ENDBRANCH   3  28
TORSDOF 7
ENDMDL
MODEL      190
REMARK 921   NORMALIZED FREE ENERGY PREDICTED BY IDOCK:   -4.00 KCAL/MOL
REMARK 922        TOTAL FREE ENERGY PREDICTED BY IDOCK:   -8.26 KCAL/MOL
REMARK 923 INTER-LIGAND FREE ENERGY PREDICTED BY IDOCK:   -5.69 KCAL/MOL
REMARK 924 INTRA-LIGAND FREE ENERGY PREDICTED BY IDOCK:   -2.57 KCAL/MOL
REMARK 927      BINDING AFFINITY PREDICTED BY RF-SCORE:    0.00 PKD
ROOT
HETATM    1  C   UNL     1     -11.455   9.876  70.974  1.00  0.00    -0.466 C  
HETATM    2  C   UNL     1     -10.307   9.198  71.128  1.00  0.00    -0.387 C  
HETATM    3  C   UNL     1     -12.561   9.621  71.903  1.00  0.00    -0.396 C  
HETATM    4  H   UNL     1     -14.074  10.533  72.664  1.00  0.00     0.000 HD 
HETATM    5  O   UNL     1     -13.357  10.699  72.063  1.00  0.00    -0.440 OA 
ENDROOT
BRANCH   2   6
HETATM    6  C   UNL     1      -9.178   9.439  70.238  1.00  0.00    -0.285 A  
HETATM    7  C   UNL     1      -7.868   9.338  70.714  1.00  0.00    -0.174 A  
HETATM    8  C   UNL     1      -6.792   9.461  69.832  1.00  0.00    -0.061 A  
HETATM    9  C   UNL     1      -9.408   9.710  68.887  1.00  0.00    -0.151 A  
HETATM   10  C   UNL     1      -7.016   9.683  68.467  1.00  0.00    -0.065 A  
HETATM   11  C   UNL     1      -8.333   9.829  68.006  1.00  0.00    -0.110 A  
BRANCH  10  12
HETATM   12  C   UNL     1      -5.868   9.630  67.490  1.00  0.00    -0.047 C  
BRANCH  12  13
HETATM   13  N   UNL     1      -6.274   9.148  66.169  1.00  0.00    -0.063 NA 
HETATM   14  H   UNL     1      -6.229   9.889  65.471  1.00  0.00     0.000 HD 
BRANCH  13  15
HETATM   15  C   UNL     1      -5.489   7.972  65.758  1.00  0.00    -0.029 C  
BRANCH  15  16
HETATM   16  C   UNL     1      -5.944   6.664  66.424  1.00  0.00    -0.029 C  
BRANCH  16  17
HETATM   17  C   UNL     1      -7.415   6.422  66.281  1.00  0.00    -0.085 A  
HETATM   18  C   UNL     1      -8.158   6.400  65.111  1.00  0.00    -0.136 A  
HETATM   19  N   UNL     1      -9.472   6.200  65.459  1.00  0.00    -0.356 NA 
HETATM   20  C   UNL     1      -7.770   6.561  63.686  1.00  0.00    -0.114 C  
HETATM   21  H   UNL     1     -10.246   6.149  64.797  1.00  0.00     0.000 HD 
HETATM   22  C   UNL     1      -9.601   6.078  66.820  1.00  0.00    -0.149 A  
HETATM   23  C   UNL     1     -10.745   5.878  67.602  1.00  0.00    -0.352 A  
HETATM   24  C   UNL     1     -10.577   5.783  68.986  1.00  0.00    -0.351 A  
HETATM   25  C   UNL     1      -9.313   5.884  69.563  1.00  0.00    -0.156 A  
HETATM   26  C   UNL     1      -8.182   6.093  68.766  1.00  0.00    -0.108 A  
HETATM   27  C   UNL     1      -8.326   6.195  67.366  1.00  0.00    -0.108 A  
ENDBRANCH  16  17
ENDBRANCH  15  16
ENDBRANCH  13  15
ENDBRANCH  12  13
ENDBRANCH  10  12
ENDBRANCH   2   6
BRANCH   3  28
HETATM   28  N   UNL     1     -12.772   8.496  72.507  1.00  0.00    -0.566 NA 
HETATM   29  H   UNL     1     -12.146   8.091  73.204  1.00  0.00     0.000 HD 
HETATM   30  O   UNL     1     -13.971   7.906  72.081  1.00  0.00    -0.508 OA 
HETATM   31  H   UNL     1     -14.126   7.080  72.525  1.00  0.00     0.000 HD 
ENDBRANCH   3  28
TORSDOF 7
ENDMDL
MODEL      191
REMARK 921   NORMALIZED FREE ENERGY PREDICTED BY IDOCK:   -3.99 KCAL/MOL
REMARK 922        TOTAL FREE ENERGY PREDICTED BY IDOCK:   -8.26 KCAL/MOL
REMARK 923 INTER-LIGAND FREE ENERGY PREDICTED BY IDOCK:   -6.07 KCAL/MOL
REMARK 924 INTRA-LIGAND FREE ENERGY PREDICTED BY IDOCK:   -2.19 KCAL/MOL
REMARK 927      BINDING AFFINITY PREDICTED BY RF-SCORE:    0.00 PKD
ROOT
HETATM    1  C   UNL     1      -8.585  11.765  67.225  1.00  0.00    -0.162 C  
HETATM    2  C   UNL     1      -8.208  12.443  68.319  1.00  0.00    -0.170 C  
HETATM    3  C   UNL     1      -8.945  10.349  67.354  1.00  0.00    -0.135 C  
HETATM    4  H   UNL     1     -10.077   9.042  66.510  1.00  0.00     0.000 HD 
HETATM    5  O   UNL     1      -9.843   9.959  66.426  1.00  0.00    -0.199 OA 
ENDROOT
BRANCH   2   6
HETATM    6  C   UNL     1      -7.862  13.857  68.234  1.00  0.00    -0.146 A  
HETATM    7  C   UNL     1      -7.654  14.461  66.991  1.00  0.00     0.149 A  
HETATM    8  C   UNL     1      -7.433  15.838  66.911  1.00  0.00    -0.204 A  
HETATM    9  C   UNL     1      -7.802  14.625  69.399  1.00  0.00    -0.028 A  
HETATM   10  C   UNL     1      -7.422  16.622  68.072  1.00  0.00    -0.170 A  
HETATM   11  C   UNL     1      -7.585  16.000  69.318  1.00  0.00    -0.230 A  
BRANCH  10  12
HETATM   12  C   UNL     1      -7.369  18.126  67.971  1.00  0.00    -0.234 C  
BRANCH  12  13
HETATM   13  N   UNL     1      -8.687  18.747  68.115  1.00  0.00    -0.297 NA 
HETATM   14  H   UNL     1      -8.690  19.703  67.759  1.00  0.00     0.000 HD 
BRANCH  13  15
HETATM   15  C   UNL     1      -9.739  17.934  67.481  1.00  0.00    -0.278 C  
BRANCH  15  16
HETATM   16  C   UNL     1     -10.841  17.488  68.455  1.00  0.00    -0.190 C  
BRANCH  16  17
HETATM   17  C   UNL     1     -11.214  16.047  68.287  1.00  0.00    -0.350 A  
HETATM   18  C   UNL     1     -11.617  15.158  69.271  1.00  0.00    -0.324 A  
HETATM   19  N   UNL     1     -11.801  13.935  68.674  1.00  0.00    -0.356 NA 
HETATM   20  C   UNL     1     -11.839  15.328  70.731  1.00  0.00    -0.381 C  
HETATM   21  H   UNL     1     -12.090  13.088  69.164  1.00  0.00     0.000 HD 
HETATM   22  C   UNL     1     -11.541  14.006  67.329  1.00  0.00    -0.369 A  
HETATM   23  C   UNL     1     -11.590  13.009  66.347  1.00  0.00    -0.413 A  
HETATM   24  C   UNL     1     -11.278  13.374  65.035  1.00  0.00    -0.332 A  
HETATM   25  C   UNL     1     -10.931  14.686  64.719  1.00  0.00    -0.399 A  
HETATM   26  C   UNL     1     -10.878  15.667  65.715  1.00  0.00    -0.312 A  
HETATM   27  C   UNL     1     -11.187  15.323  67.048  1.00  0.00    -0.275 A  
ENDBRANCH  16  17
ENDBRANCH  15  16
ENDBRANCH  13  15
ENDBRANCH  12  13
ENDBRANCH  10  12
ENDBRANCH   2   6
BRANCH   3  28
HETATM   28  N   UNL     1      -8.466   9.545  68.248  1.00  0.00    -0.119 NA 
HETATM   29  H   UNL     1      -7.493   9.543  68.558  1.00  0.00     0.000 HD 
HETATM   30  O   UNL     1      -9.454   8.677  68.736  1.00  0.00    -0.142 OA 
HETATM   31  H   UNL     1      -9.101   8.087  69.392  1.00  0.00     0.000 HD 
ENDBRANCH   3  28
TORSDOF 7
ENDMDL
MODEL      192
REMARK 921   NORMALIZED FREE ENERGY PREDICTED BY IDOCK:   -3.99 KCAL/MOL
REMARK 922        TOTAL FREE ENERGY PREDICTED BY IDOCK:   -8.25 KCAL/MOL
REMARK 923 INTER-LIGAND FREE ENERGY PREDICTED BY IDOCK:   -7.92 KCAL/MOL
REMARK 924 INTRA-LIGAND FREE ENERGY PREDICTED BY IDOCK:   -0.33 KCAL/MOL
REMARK 927      BINDING AFFINITY PREDICTED BY RF-SCORE:    0.00 PKD
ROOT
HETATM    1  C   UNL     1      -9.193   3.458  68.415  1.00  0.00    -0.230 C  
HETATM    2  C   UNL     1      -9.116   3.877  69.687  1.00  0.00    -0.188 C  
HETATM    3  C   UNL     1      -8.307   2.378  67.966  1.00  0.00    -0.064 C  
HETATM    4  H   UNL     1      -8.273   0.952  66.675  1.00  0.00     0.000 HD 
HETATM    5  O   UNL     1      -8.847   1.652  66.965  1.00  0.00    -0.109 OA 
ENDROOT
BRANCH   2   6
HETATM    6  C   UNL     1      -9.994   4.933  70.175  1.00  0.00    -0.325 A  
HETATM    7  C   UNL     1     -10.696   5.741  69.277  1.00  0.00    -0.386 A  
HETATM    8  C   UNL     1     -11.619   6.676  69.752  1.00  0.00    -0.354 A  
HETATM    9  C   UNL     1     -10.182   5.094  71.550  1.00  0.00    -0.274 A  
HETATM   10  C   UNL     1     -11.850   6.808  71.128  1.00  0.00    -0.410 A  
HETATM   11  C   UNL     1     -11.107   6.026  72.023  1.00  0.00    -0.325 A  
BRANCH  10  12
HETATM   12  C   UNL     1     -12.974   7.681  71.629  1.00  0.00    -0.350 C  
BRANCH  12  13
HETATM   13  N   UNL     1     -12.511   8.999  72.066  1.00  0.00    -0.372 NA 
HETATM   14  H   UNL     1     -11.500   9.092  71.965  1.00  0.00     0.000 HD 
BRANCH  13  15
HETATM   15  C   UNL     1     -13.224  10.081  71.366  1.00  0.00    -0.395 C  
BRANCH  15  16
HETATM   16  C   UNL     1     -12.832  11.487  71.846  1.00  0.00    -0.372 C  
BRANCH  16  17
HETATM   17  C   UNL     1     -12.508  12.416  70.717  1.00  0.00    -0.356 A  
HETATM   18  C   UNL     1     -12.677  13.791  70.680  1.00  0.00    -0.260 A  
HETATM   19  N   UNL     1     -12.301  14.220  69.430  1.00  0.00    -0.516 NA 
HETATM   20  C   UNL     1     -13.171  14.758  71.694  1.00  0.00    -0.431 C  
HETATM   21  H   UNL     1     -12.330  15.190  69.117  1.00  0.00     0.000 HD 
HETATM   22  C   UNL     1     -11.880  13.165  68.660  1.00  0.00    -0.328 A  
HETATM   23  C   UNL     1     -11.424  13.141  67.336  1.00  0.00    -0.375 A  
HETATM   24  C   UNL     1     -11.048  11.905  66.802  1.00  0.00    -0.359 A  
HETATM   25  C   UNL     1     -11.126  10.741  67.563  1.00  0.00    -0.374 A  
HETATM   26  C   UNL     1     -11.592  10.783  68.881  1.00  0.00    -0.361 A  
HETATM   27  C   UNL     1     -11.980  12.019  69.443  1.00  0.00    -0.334 A  
ENDBRANCH  16  17
ENDBRANCH  15  16
ENDBRANCH  13  15
ENDBRANCH  12  13
ENDBRANCH  10  12
ENDBRANCH   2   6
BRANCH   3  28
HETATM   28  N   UNL     1      -7.135   2.134  68.457  1.00  0.00    -0.043 NA 
HETATM   29  H   UNL     1      -6.968   1.599  69.310  1.00  0.00     0.000 HD 
HETATM   30  O   UNL     1      -6.123   2.700  67.668  1.00  0.00    -0.026 OA 
HETATM   31  H   UNL     1      -5.263   2.521  68.029  1.00  0.00     0.000 HD 
ENDBRANCH   3  28
TORSDOF 7
ENDMDL
MODEL      193
REMARK 921   NORMALIZED FREE ENERGY PREDICTED BY IDOCK:   -3.96 KCAL/MOL
REMARK 922        TOTAL FREE ENERGY PREDICTED BY IDOCK:   -8.21 KCAL/MOL
REMARK 923 INTER-LIGAND FREE ENERGY PREDICTED BY IDOCK:   -6.74 KCAL/MOL
REMARK 924 INTRA-LIGAND FREE ENERGY PREDICTED BY IDOCK:   -1.48 KCAL/MOL
REMARK 927      BINDING AFFINITY PREDICTED BY RF-SCORE:    0.00 PKD
ROOT
HETATM    1  C   UNL     1      -8.897   8.761  66.554  1.00  0.00    -0.156 C  
HETATM    2  C   UNL     1      -9.510   9.480  65.602  1.00  0.00    -0.326 C  
HETATM    3  C   UNL     1      -8.102   7.592  66.162  1.00  0.00    -0.118 C  
HETATM    4  H   UNL     1      -6.581   6.584  66.772  1.00  0.00     0.000 HD 
HETATM    5  O   UNL     1      -7.096   7.342  67.026  1.00  0.00    -0.081 OA 
ENDROOT
BRANCH   2   6
HETATM    6  C   UNL     1     -10.292  10.660  65.950  1.00  0.00    -0.291 A  
HETATM    7  C   UNL     1     -10.875  10.774  67.214  1.00  0.00    -0.344 A  
HETATM    8  C   UNL     1     -11.529  11.954  67.579  1.00  0.00    -0.396 A  
HETATM    9  C   UNL     1     -10.404  11.709  65.035  1.00  0.00    -0.329 A  
HETATM   10  C   UNL     1     -11.601  13.030  66.684  1.00  0.00    -0.410 A  
HETATM   11  C   UNL     1     -11.053  12.889  65.401  1.00  0.00    -0.309 A  
BRANCH  10  12
HETATM   12  C   UNL     1     -12.140  14.363  67.141  1.00  0.00    -0.333 C  
BRANCH  12  13
HETATM   13  N   UNL     1     -11.082  15.342  67.390  1.00  0.00    -0.324 NA 
HETATM   14  H   UNL     1     -11.228  16.195  66.850  1.00  0.00     0.000 HD 
BRANCH  13  15
HETATM   15  C   UNL     1     -10.940  15.632  68.826  1.00  0.00    -0.281 C  
BRANCH  15  16
HETATM   16  C   UNL     1      -9.538  15.335  69.379  1.00  0.00    -0.245 C  
BRANCH  16  17
HETATM   17  C   UNL     1      -8.456  15.563  68.368  1.00  0.00    -0.163 A  
HETATM   18  C   UNL     1      -7.789  14.610  67.615  1.00  0.00    -0.181 A  
HETATM   19  N   UNL     1      -6.842  15.264  66.865  1.00  0.00    -0.258 NA 
HETATM   20  C   UNL     1      -7.933  13.134  67.530  1.00  0.00    -0.179 C  
HETATM   21  H   UNL     1      -6.195  14.808  66.221  1.00  0.00     0.000 HD 
HETATM   22  C   UNL     1      -6.884  16.616  67.099  1.00  0.00    -0.188 A  
HETATM   23  C   UNL     1      -6.103  17.648  66.565  1.00  0.00    -0.236 A  
HETATM   24  C   UNL     1      -6.377  18.953  66.985  1.00  0.00    -0.193 A  
HETATM   25  C   UNL     1      -7.394  19.212  67.902  1.00  0.00    -0.279 A  
HETATM   26  C   UNL     1      -8.158  18.167  68.431  1.00  0.00    -0.313 A  
HETATM   27  C   UNL     1      -7.899  16.840  68.025  1.00  0.00    -0.178 A  
ENDBRANCH  16  17
ENDBRANCH  15  16
ENDBRANCH  13  15
ENDBRANCH  12  13
ENDBRANCH  10  12
ENDBRANCH   2   6
BRANCH   3  28
HETATM   28  N   UNL     1      -8.324   6.867  65.114  1.00  0.00    -0.259 NA 
HETATM   29  H   UNL     1      -7.791   6.930  64.246  1.00  0.00     0.000 HD 
HETATM   30  O   UNL     1      -9.393   5.983  65.323  1.00  0.00    -0.362 OA 
HETATM   31  H   UNL     1      -9.557   5.451  64.553  1.00  0.00     0.000 HD 
ENDBRANCH   3  28
TORSDOF 7
ENDMDL
MODEL      194
REMARK 921   NORMALIZED FREE ENERGY PREDICTED BY IDOCK:   -3.96 KCAL/MOL
REMARK 922        TOTAL FREE ENERGY PREDICTED BY IDOCK:   -8.21 KCAL/MOL
REMARK 923 INTER-LIGAND FREE ENERGY PREDICTED BY IDOCK:   -7.52 KCAL/MOL
REMARK 924 INTRA-LIGAND FREE ENERGY PREDICTED BY IDOCK:   -0.68 KCAL/MOL
REMARK 927      BINDING AFFINITY PREDICTED BY RF-SCORE:    0.00 PKD
ROOT
HETATM    1  C   UNL     1      -9.440   8.928  66.517  1.00  0.00    -0.272 C  
HETATM    2  C   UNL     1     -10.519   9.015  67.310  1.00  0.00    -0.343 C  
HETATM    3  C   UNL     1      -8.989   7.605  66.072  1.00  0.00    -0.139 C  
HETATM    4  H   UNL     1      -8.069   6.793  64.590  1.00  0.00     0.000 HD 
HETATM    5  O   UNL     1      -8.362   7.650  64.878  1.00  0.00    -0.127 OA 
ENDROOT
BRANCH   2   6
HETATM    6  C   UNL     1     -11.011  10.314  67.755  1.00  0.00    -0.360 A  
HETATM    7  C   UNL     1     -11.255  10.550  69.110  1.00  0.00    -0.314 A  
HETATM    8  C   UNL     1     -11.620  11.828  69.542  1.00  0.00    -0.398 A  
HETATM    9  C   UNL     1     -11.177  11.344  66.827  1.00  0.00    -0.319 A  
HETATM   10  C   UNL     1     -11.739  12.879  68.623  1.00  0.00    -0.359 A  
HETATM   11  C   UNL     1     -11.538  12.621  67.259  1.00  0.00    -0.428 A  
BRANCH  10  12
HETATM   12  C   UNL     1     -11.949  14.292  69.108  1.00  0.00    -0.335 C  
BRANCH  12  13
HETATM   13  N   UNL     1     -11.080  14.636  70.234  1.00  0.00    -0.457 NA 
HETATM   14  H   UNL     1     -10.365  13.924  70.384  1.00  0.00     0.000 HD 
BRANCH  13  15
HETATM   15  C   UNL     1     -10.482  15.971  70.068  1.00  0.00    -0.258 C  
BRANCH  15  16
HETATM   16  C   UNL     1     -10.338  16.402  68.600  1.00  0.00    -0.273 C  
BRANCH  16  17
HETATM   17  C   UNL     1      -9.388  17.546  68.423  1.00  0.00    -0.287 A  
HETATM   18  C   UNL     1      -9.669  18.808  67.924  1.00  0.00    -0.329 A  
HETATM   19  N   UNL     1      -8.489  19.511  67.888  1.00  0.00    -0.309 NA 
HETATM   20  C   UNL     1     -10.934  19.432  67.459  1.00  0.00    -0.416 C  
HETATM   21  H   UNL     1      -8.395  20.471  67.554  1.00  0.00     0.000 HD 
HETATM   22  C   UNL     1      -7.453  18.746  68.361  1.00  0.00    -0.298 A  
HETATM   23  C   UNL     1      -6.093  19.053  68.492  1.00  0.00    -0.232 A  
HETATM   24  C   UNL     1      -5.253  18.068  69.021  1.00  0.00    -0.179 A  
HETATM   25  C   UNL     1      -5.757  16.826  69.403  1.00  0.00    -0.166 A  
HETATM   26  C   UNL     1      -7.117  16.535  69.256  1.00  0.00    -0.219 A  
HETATM   27  C   UNL     1      -7.985  17.512  68.723  1.00  0.00    -0.238 A  
ENDBRANCH  16  17
ENDBRANCH  15  16
ENDBRANCH  13  15
ENDBRANCH  12  13
ENDBRANCH  10  12
ENDBRANCH   2   6
BRANCH   3  28
HETATM   28  N   UNL     1      -9.158   6.507  66.736  1.00  0.00    -0.139 NA 
HETATM   29  H   UNL     1      -8.717   6.303  67.633  1.00  0.00     0.000 HD 
HETATM   30  O   UNL     1     -10.025   5.634  66.063  1.00  0.00    -0.331 OA 
HETATM   31  H   UNL     1     -10.149   4.828  66.551  1.00  0.00     0.000 HD 
ENDBRANCH   3  28
TORSDOF 7
ENDMDL
MODEL      195
REMARK 921   NORMALIZED FREE ENERGY PREDICTED BY IDOCK:   -3.96 KCAL/MOL
REMARK 922        TOTAL FREE ENERGY PREDICTED BY IDOCK:   -8.21 KCAL/MOL
REMARK 923 INTER-LIGAND FREE ENERGY PREDICTED BY IDOCK:   -6.41 KCAL/MOL
REMARK 924 INTRA-LIGAND FREE ENERGY PREDICTED BY IDOCK:   -1.80 KCAL/MOL
REMARK 927      BINDING AFFINITY PREDICTED BY RF-SCORE:    0.00 PKD
ROOT
HETATM    1  C   UNL     1     -10.184  12.956  65.069  1.00  0.00    -0.289 C  
HETATM    2  C   UNL     1     -10.145  14.289  65.212  1.00  0.00    -0.378 C  
HETATM    3  C   UNL     1     -11.174  12.367  64.161  1.00  0.00    -0.376 C  
HETATM    4  H   UNL     1     -11.398  10.815  63.046  1.00  0.00     0.000 HD 
HETATM    5  O   UNL     1     -10.756  11.197  63.634  1.00  0.00    -0.377 OA 
ENDROOT
BRANCH   2   6
HETATM    6  C   UNL     1      -9.162  14.914  66.089  1.00  0.00    -0.268 A  
HETATM    7  C   UNL     1      -8.598  14.194  67.145  1.00  0.00    -0.230 A  
HETATM    8  C   UNL     1      -7.578  14.761  67.912  1.00  0.00    -0.149 A  
HETATM    9  C   UNL     1      -8.736  16.219  65.830  1.00  0.00    -0.134 A  
HETATM   10  C   UNL     1      -7.110  16.051  67.626  1.00  0.00    -0.178 A  
HETATM   11  C   UNL     1      -7.714  16.783  66.594  1.00  0.00    -0.308 A  
BRANCH  10  12
HETATM   12  C   UNL     1      -5.889  16.589  68.330  1.00  0.00    -0.118 C  
BRANCH  12  13
HETATM   13  N   UNL     1      -6.225  17.513  69.414  1.00  0.00    -0.241 NA 
HETATM   14  H   UNL     1      -5.484  17.552  70.114  1.00  0.00     0.000 HD 
BRANCH  13  15
HETATM   15  C   UNL     1      -6.551  18.854  68.900  1.00  0.00    -0.276 C  
BRANCH  15  16
HETATM   16  C   UNL     1      -7.876  19.414  69.438  1.00  0.00    -0.057 C  
BRANCH  16  17
HETATM   17  C   UNL     1      -9.067  18.912  68.681  1.00  0.00    -0.386 A  
HETATM   18  C   UNL     1      -9.723  19.531  67.629  1.00  0.00    -0.344 A  
HETATM   19  N   UNL     1     -10.791  18.739  67.283  1.00  0.00    -0.419 NA 
HETATM   20  C   UNL     1      -9.464  20.807  66.912  1.00  0.00    -0.314 C  
HETATM   21  H   UNL     1     -11.457  18.956  66.541  1.00  0.00     0.000 HD 
HETATM   22  C   UNL     1     -10.839  17.617  68.071  1.00  0.00    -0.234 A  
HETATM   23  C   UNL     1     -11.754  16.556  68.073  1.00  0.00     0.326 A  
HETATM   24  C   UNL     1     -11.551  15.526  68.997  1.00  0.00    -0.377 A  
HETATM   25  C   UNL     1     -10.474  15.558  69.881  1.00  0.00    -0.323 A  
HETATM   26  C   UNL     1      -9.576  16.631  69.870  1.00  0.00     0.622 A  
HETATM   27  C   UNL     1      -9.761  17.684  68.948  1.00  0.00    -0.258 A  
ENDBRANCH  16  17
ENDBRANCH  15  16
ENDBRANCH  13  15
ENDBRANCH  12  13
ENDBRANCH  10  12
ENDBRANCH   2   6
BRANCH   3  28
HETATM   28  N   UNL     1     -12.325  12.890  63.885  1.00  0.00    -0.610 NA 
HETATM   29  H   UNL     1     -12.483  13.576  63.147  1.00  0.00     0.000 HD 
HETATM   30  O   UNL     1     -13.327  12.392  64.731  1.00  0.00    -0.718 OA 
HETATM   31  H   UNL     1     -14.172  12.776  64.528  1.00  0.00     0.000 HD 
ENDBRANCH   3  28
TORSDOF 7
ENDMDL
MODEL      196
REMARK 921   NORMALIZED FREE ENERGY PREDICTED BY IDOCK:   -3.95 KCAL/MOL
REMARK 922        TOTAL FREE ENERGY PREDICTED BY IDOCK:   -8.20 KCAL/MOL
REMARK 923 INTER-LIGAND FREE ENERGY PREDICTED BY IDOCK:   -8.10 KCAL/MOL
REMARK 924 INTRA-LIGAND FREE ENERGY PREDICTED BY IDOCK:   -0.10 KCAL/MOL
REMARK 927      BINDING AFFINITY PREDICTED BY RF-SCORE:    0.00 PKD
ROOT
HETATM    1  C   UNL     1     -10.464  14.768  65.277  1.00  0.00    -0.427 C  
HETATM    2  C   UNL     1     -11.173  13.670  64.973  1.00  0.00    -0.329 C  
HETATM    3  C   UNL     1     -10.960  16.078  64.843  1.00  0.00    -0.384 C  
HETATM    4  H   UNL     1     -10.893  17.923  65.384  1.00  0.00     0.000 HD 
HETATM    5  O   UNL     1     -10.572  17.074  65.665  1.00  0.00    -0.468 OA 
ENDROOT
BRANCH   2   6
HETATM    6  C   UNL     1     -10.724  12.353  65.406  1.00  0.00    -0.317 A  
HETATM    7  C   UNL     1     -11.064  11.870  66.672  1.00  0.00    -0.360 A  
HETATM    8  C   UNL     1     -10.724  10.565  67.037  1.00  0.00    -0.310 A  
HETATM    9  C   UNL     1     -10.003  11.545  64.523  1.00  0.00    -0.306 A  
HETATM   10  C   UNL     1     -10.046   9.731  66.138  1.00  0.00    -0.315 A  
HETATM   11  C   UNL     1      -9.668  10.240  64.887  1.00  0.00    -0.385 A  
BRANCH  10  12
HETATM   12  C   UNL     1      -9.845   8.271  66.459  1.00  0.00    -0.253 C  
BRANCH  12  13
HETATM   13  N   UNL     1      -8.580   8.016  67.149  1.00  0.00    -0.123 NA 
HETATM   14  H   UNL     1      -8.009   8.859  67.206  1.00  0.00     0.000 HD 
BRANCH  13  15
HETATM   15  C   UNL     1      -8.800   7.424  68.479  1.00  0.00    -0.126 C  
BRANCH  15  16
HETATM   16  C   UNL     1      -8.920   8.464  69.603  1.00  0.00    -0.145 C  
BRANCH  16  17
HETATM   17  C   UNL     1      -8.757   7.866  70.967  1.00  0.00    -0.138 A  
HETATM   18  C   UNL     1      -7.651   7.944  71.797  1.00  0.00    -0.086 A  
HETATM   19  N   UNL     1      -7.923   7.203  72.921  1.00  0.00    -0.100 NA 
HETATM   20  C   UNL     1      -6.343   8.634  71.646  1.00  0.00    -0.069 C  
HETATM   21  H   UNL     1      -7.280   7.075  73.702  1.00  0.00     0.000 HD 
HETATM   22  C   UNL     1      -9.180   6.657  72.851  1.00  0.00    -0.135 A  
HETATM   23  C   UNL     1      -9.857   5.833  73.758  1.00  0.00    -0.175 A  
HETATM   24  C   UNL     1     -11.153   5.427  73.424  1.00  0.00    -0.326 A  
HETATM   25  C   UNL     1     -11.745   5.830  72.229  1.00  0.00    -0.265 A  
HETATM   26  C   UNL     1     -11.049   6.646  71.330  1.00  0.00    -0.306 A  
HETATM   27  C   UNL     1      -9.739   7.068  71.644  1.00  0.00    -0.164 A  
ENDBRANCH  16  17
ENDBRANCH  15  16
ENDBRANCH  13  15
ENDBRANCH  12  13
ENDBRANCH  10  12
ENDBRANCH   2   6
BRANCH   3  28
HETATM   28  N   UNL     1     -11.686  16.280  63.791  1.00  0.00    -1.488 NA 
HETATM   29  H   UNL     1     -11.437  16.915  63.032  1.00  0.00     0.000 HD 
HETATM   30  O   UNL     1     -12.860  15.513  63.827  1.00  0.00    -0.605 OA 
HETATM   31  H   UNL     1     -13.393  15.661  63.054  1.00  0.00     0.000 HD 
ENDBRANCH   3  28
TORSDOF 7
ENDMDL
MODEL      197
REMARK 921   NORMALIZED FREE ENERGY PREDICTED BY IDOCK:   -3.93 KCAL/MOL
REMARK 922        TOTAL FREE ENERGY PREDICTED BY IDOCK:   -8.17 KCAL/MOL
REMARK 923 INTER-LIGAND FREE ENERGY PREDICTED BY IDOCK:   -5.95 KCAL/MOL
REMARK 924 INTRA-LIGAND FREE ENERGY PREDICTED BY IDOCK:   -2.22 KCAL/MOL
REMARK 927      BINDING AFFINITY PREDICTED BY RF-SCORE:    0.00 PKD
ROOT
HETATM    1  C   UNL     1      -8.516   9.642  67.505  1.00  0.00    -0.125 C  
HETATM    2  C   UNL     1      -9.519   9.996  68.322  1.00  0.00    -0.147 C  
HETATM    3  C   UNL     1      -8.534  10.106  66.114  1.00  0.00    -0.130 C  
HETATM    4  H   UNL     1      -7.305  10.537  64.697  1.00  0.00     0.000 HD 
HETATM    5  O   UNL     1      -7.293  10.237  65.599  1.00  0.00    -0.137 OA 
ENDROOT
BRANCH   2   6
HETATM    6  C   UNL     1      -9.526   9.573  69.717  1.00  0.00    -0.228 A  
HETATM    7  C   UNL     1     -10.725   9.512  70.432  1.00  0.00    -0.341 A  
HETATM    8  C   UNL     1     -10.739   9.000  71.732  1.00  0.00    -0.437 A  
HETATM    9  C   UNL     1      -8.335   9.165  70.321  1.00  0.00    -0.187 A  
HETATM   10  C   UNL     1      -9.555   8.542  72.325  1.00  0.00    -0.377 A  
HETATM   11  C   UNL     1      -8.350   8.650  71.618  1.00  0.00    -0.216 A  
BRANCH  10  12
HETATM   12  C   UNL     1      -9.599   7.821  73.650  1.00  0.00    -0.217 C  
BRANCH  12  13
HETATM   13  N   UNL     1     -10.599   6.753  73.677  1.00  0.00    -0.415 NA 
HETATM   14  H   UNL     1     -11.496   7.071  73.311  1.00  0.00     0.000 HD 
BRANCH  13  15
HETATM   15  C   UNL     1     -10.125   5.552  72.969  1.00  0.00    -0.181 C  
BRANCH  15  16
HETATM   16  C   UNL     1     -11.029   5.129  71.801  1.00  0.00    -0.078 C  
BRANCH  16  17
HETATM   17  C   UNL     1     -10.254   4.720  70.587  1.00  0.00    -0.250 A  
HETATM   18  C   UNL     1      -9.288   3.731  70.495  1.00  0.00    -0.158 A  
HETATM   19  N   UNL     1      -8.806   3.742  69.208  1.00  0.00    -0.089 NA 
HETATM   20  C   UNL     1      -8.750   2.773  71.495  1.00  0.00    -0.112 C  
HETATM   21  H   UNL     1      -8.075   3.122  68.857  1.00  0.00     0.000 HD 
HETATM   22  C   UNL     1      -9.441   4.700  68.459  1.00  0.00    -0.147 A  
HETATM   23  C   UNL     1      -9.260   5.062  67.119  1.00  0.00    -0.124 A  
HETATM   24  C   UNL     1     -10.065   6.086  66.609  1.00  0.00    -0.226 A  
HETATM   25  C   UNL     1     -11.012   6.720  67.410  1.00  0.00    -0.407 A  
HETATM   26  C   UNL     1     -11.171   6.351  68.750  1.00  0.00    -0.358 A  
HETATM   27  C   UNL     1     -10.369   5.321  69.289  1.00  0.00    -0.286 A  
ENDBRANCH  16  17
ENDBRANCH  15  16
ENDBRANCH  13  15
ENDBRANCH  12  13
ENDBRANCH  10  12
ENDBRANCH   2   6
BRANCH   3  28
HETATM   28  N   UNL     1      -9.606  10.363  65.436  1.00  0.00    -0.225 NA 
HETATM   29  H   UNL     1     -10.441   9.776  65.435  1.00  0.00     0.000 HD 
HETATM   30  O   UNL     1      -9.473  11.551  64.703  1.00  0.00    -0.348 OA 
HETATM   31  H   UNL     1     -10.260  11.740  64.206  1.00  0.00     0.000 HD 
ENDBRANCH   3  28
TORSDOF 7
ENDMDL
MODEL      198
REMARK 921   NORMALIZED FREE ENERGY PREDICTED BY IDOCK:   -3.93 KCAL/MOL
REMARK 922        TOTAL FREE ENERGY PREDICTED BY IDOCK:   -8.16 KCAL/MOL
REMARK 923 INTER-LIGAND FREE ENERGY PREDICTED BY IDOCK:   -7.55 KCAL/MOL
REMARK 924 INTRA-LIGAND FREE ENERGY PREDICTED BY IDOCK:   -0.62 KCAL/MOL
REMARK 927      BINDING AFFINITY PREDICTED BY RF-SCORE:    0.00 PKD
ROOT
HETATM    1  C   UNL     1     -12.188   9.935  71.091  1.00  0.00    -0.468 C  
HETATM    2  C   UNL     1     -11.231   9.018  71.299  1.00  0.00    -0.385 C  
HETATM    3  C   UNL     1     -13.193  10.163  72.135  1.00  0.00    -0.362 C  
HETATM    4  H   UNL     1     -14.326  11.572  72.795  1.00  0.00     0.000 HD 
HETATM    5  O   UNL     1     -13.674  11.424  72.119  1.00  0.00    -0.176 OA 
ENDROOT
BRANCH   2   6
HETATM    6  C   UNL     1     -10.202   8.778  70.294  1.00  0.00    -0.220 A  
HETATM    7  C   UNL     1     -10.529   8.174  69.078  1.00  0.00    -0.211 A  
HETATM    8  C   UNL     1      -9.562   8.047  68.077  1.00  0.00    -0.170 A  
HETATM    9  C   UNL     1      -8.895   9.212  70.526  1.00  0.00    -0.263 A  
HETATM   10  C   UNL     1      -8.262   8.527  68.284  1.00  0.00    -0.123 A  
HETATM   11  C   UNL     1      -7.931   9.089  69.526  1.00  0.00    -0.099 A  
BRANCH  10  12
HETATM   12  C   UNL     1      -7.274   8.559  67.145  1.00  0.00    -0.080 C  
BRANCH  12  13
HETATM   13  N   UNL     1      -7.063   9.909  66.621  1.00  0.00    -0.085 NA 
HETATM   14  H   UNL     1      -6.192   9.973  66.094  1.00  0.00     0.000 HD 
BRANCH  13  15
HETATM   15  C   UNL     1      -8.211  10.363  65.818  1.00  0.00    -0.156 C  
BRANCH  15  16
HETATM   16  C   UNL     1      -9.293  11.079  66.642  1.00  0.00    -0.196 C  
BRANCH  16  17
HETATM   17  C   UNL     1      -9.345  12.552  66.373  1.00  0.00    -0.209 A  
HETATM   18  C   UNL     1      -8.493  13.530  66.860  1.00  0.00    -0.048 A  
HETATM   19  N   UNL     1      -8.951  14.743  66.402  1.00  0.00    -0.451 NA 
HETATM   20  C   UNL     1      -7.290  13.456  67.729  1.00  0.00    -0.158 C  
HETATM   21  H   UNL     1      -8.520  15.643  66.613  1.00  0.00     0.000 HD 
HETATM   22  C   UNL     1     -10.067  14.577  65.621  1.00  0.00    -0.359 A  
HETATM   23  C   UNL     1     -10.857  15.529  64.966  1.00  0.00    -0.468 A  
HETATM   24  C   UNL     1     -11.948  15.067  64.223  1.00  0.00    -0.310 A  
HETATM   25  C   UNL     1     -12.233  13.706  64.139  1.00  0.00    -0.450 A  
HETATM   26  C   UNL     1     -11.438  12.770  64.808  1.00  0.00    -0.356 A  
HETATM   27  C   UNL     1     -10.332  13.212  65.567  1.00  0.00    -0.299 A  
ENDBRANCH  16  17
ENDBRANCH  15  16
ENDBRANCH  13  15
ENDBRANCH  12  13
ENDBRANCH  10  12
ENDBRANCH   2   6
BRANCH   3  28
HETATM   28  N   UNL     1     -13.591   9.271  72.983  1.00  0.00    -0.856 NA 
HETATM   29  H   UNL     1     -13.449   9.330  73.992  1.00  0.00     0.000 HD 
HETATM   30  O   UNL     1     -14.244   8.210  72.338  1.00  0.00    -0.585 OA 
HETATM   31  H   UNL     1     -14.537   7.555  72.960  1.00  0.00     0.000 HD 
ENDBRANCH   3  28
TORSDOF 7
ENDMDL
MODEL      199
REMARK 921   NORMALIZED FREE ENERGY PREDICTED BY IDOCK:   -3.93 KCAL/MOL
REMARK 922        TOTAL FREE ENERGY PREDICTED BY IDOCK:   -8.16 KCAL/MOL
REMARK 923 INTER-LIGAND FREE ENERGY PREDICTED BY IDOCK:   -6.96 KCAL/MOL
REMARK 924 INTRA-LIGAND FREE ENERGY PREDICTED BY IDOCK:   -1.21 KCAL/MOL
REMARK 927      BINDING AFFINITY PREDICTED BY RF-SCORE:    0.00 PKD
ROOT
HETATM    1  C   UNL     1     -11.797  14.808  68.797  1.00  0.00    -0.330 C  
HETATM    2  C   UNL     1     -11.957  13.527  68.433  1.00  0.00    -0.378 C  
HETATM    3  C   UNL     1     -12.223  15.225  70.138  1.00  0.00    -0.364 C  
HETATM    4  H   UNL     1     -11.779  16.535  71.474  1.00  0.00     0.000 HD 
HETATM    5  O   UNL     1     -11.502  16.265  70.606  1.00  0.00    -0.377 OA 
ENDROOT
BRANCH   2   6
HETATM    6  C   UNL     1     -11.527  13.070  67.117  1.00  0.00    -0.379 A  
HETATM    7  C   UNL     1     -10.940  13.962  66.215  1.00  0.00    -0.298 A  
HETATM    8  C   UNL     1     -10.430  13.495  65.001  1.00  0.00    -0.390 A  
HETATM    9  C   UNL     1     -11.644  11.719  66.782  1.00  0.00    -0.287 A  
HETATM   10  C   UNL     1     -10.499  12.132  64.681  1.00  0.00    -0.336 A  
HETATM   11  C   UNL     1     -11.132  11.252  65.572  1.00  0.00    -0.138 A  
BRANCH  10  12
HETATM   12  C   UNL     1      -9.787  11.601  63.462  1.00  0.00    -0.370 C  
BRANCH  12  13
HETATM   13  N   UNL     1      -8.414  11.185  63.749  1.00  0.00    -0.355 NA 
HETATM   14  H   UNL     1      -8.059  11.627  64.597  1.00  0.00     0.000 HD 
BRANCH  13  15
HETATM   15  C   UNL     1      -8.296   9.719  63.817  1.00  0.00    -0.170 C  
BRANCH  15  16
HETATM   16  C   UNL     1      -7.424   9.225  64.982  1.00  0.00    -0.106 C  
BRANCH  16  17
HETATM   17  C   UNL     1      -8.175   8.349  65.937  1.00  0.00    -0.123 A  
HETATM   18  C   UNL     1      -8.655   8.686  67.193  1.00  0.00    -0.121 A  
HETATM   19  N   UNL     1      -9.227   7.559  67.733  1.00  0.00    -0.135 NA 
HETATM   20  C   UNL     1      -8.623   9.959  67.959  1.00  0.00    -0.121 C  
HETATM   21  H   UNL     1      -9.655   7.512  68.658  1.00  0.00     0.000 HD 
HETATM   22  C   UNL     1      -9.145   6.505  66.858  1.00  0.00    -0.138 A  
HETATM   23  C   UNL     1      -9.583   5.183  66.997  1.00  0.00    -0.155 A  
HETATM   24  C   UNL     1      -9.370   4.312  65.924  1.00  0.00    -0.163 A  
HETATM   25  C   UNL     1      -8.744   4.750  64.759  1.00  0.00    -0.153 A  
HETATM   26  C   UNL     1      -8.304   6.073  64.642  1.00  0.00    -0.065 A  
HETATM   27  C   UNL     1      -8.506   6.971  65.713  1.00  0.00    -0.154 A  
ENDBRANCH  16  17
ENDBRANCH  15  16
ENDBRANCH  13  15
ENDBRANCH  12  13
ENDBRANCH  10  12
ENDBRANCH   2   6
BRANCH   3  28
HETATM   28  N   UNL     1     -13.181  14.674  70.811  1.00  0.00    -0.507 NA 
HETATM   29  H   UNL     1     -13.098  13.789  71.313  1.00  0.00     0.000 HD 
HETATM   30  O   UNL     1     -14.349  15.450  70.762  1.00  0.00    -0.842 OA 
HETATM   31  H   UNL     1     -15.052  15.046  71.257  1.00  0.00     0.000 HD 
ENDBRANCH   3  28
TORSDOF 7
ENDMDL
MODEL      200
REMARK 921   NORMALIZED FREE ENERGY PREDICTED BY IDOCK:   -3.90 KCAL/MOL
REMARK 922        TOTAL FREE ENERGY PREDICTED BY IDOCK:   -8.13 KCAL/MOL
REMARK 923 INTER-LIGAND FREE ENERGY PREDICTED BY IDOCK:   -6.49 KCAL/MOL
REMARK 924 INTRA-LIGAND FREE ENERGY PREDICTED BY IDOCK:   -1.64 KCAL/MOL
REMARK 927      BINDING AFFINITY PREDICTED BY RF-SCORE:    0.00 PKD
ROOT
HETATM    1  C   UNL     1      -9.152   4.993  66.595  1.00  0.00    -0.119 C  
HETATM    2  C   UNL     1      -9.156   6.063  65.786  1.00  0.00    -0.083 C  
HETATM    3  C   UNL     1      -9.531   3.685  66.048  1.00  0.00    -0.160 C  
HETATM    4  H   UNL     1      -9.178   1.817  66.340  1.00  0.00     0.000 HD 
HETATM    5  O   UNL     1      -8.932   2.664  66.695  1.00  0.00    -0.138 OA 
ENDROOT
BRANCH   2   6
HETATM    6  C   UNL     1      -8.766   7.375  66.288  1.00  0.00    -0.163 A  
HETATM    7  C   UNL     1      -9.236   8.537  65.671  1.00  0.00    -0.161 A  
HETATM    8  C   UNL     1      -8.949   9.787  66.224  1.00  0.00    -0.180 A  
HETATM    9  C   UNL     1      -7.969   7.468  67.431  1.00  0.00    -0.116 A  
HETATM   10  C   UNL     1      -8.192   9.885  67.399  1.00  0.00    -0.118 A  
HETATM   11  C   UNL     1      -7.685   8.716  67.985  1.00  0.00    -0.102 A  
BRANCH  10  12
HETATM   12  C   UNL     1      -8.039  11.215  68.095  1.00  0.00    -0.128 C  
BRANCH  12  13
HETATM   13  N   UNL     1      -8.940  11.358  69.239  1.00  0.00    -0.360 NA 
HETATM   14  H   UNL     1      -8.489  11.851  70.010  1.00  0.00     0.000 HD 
BRANCH  13  15
HETATM   15  C   UNL     1     -10.205  12.006  68.854  1.00  0.00    -0.058 C  
BRANCH  15  16
HETATM   16  C   UNL     1     -11.353  11.015  68.607  1.00  0.00    -0.346 C  
BRANCH  16  17
HETATM   17  C   UNL     1     -11.757  10.275  69.844  1.00  0.00    -0.298 A  
HETATM   18  C   UNL     1     -12.412  10.781  70.956  1.00  0.00    -0.420 A  
HETATM   19  N   UNL     1     -12.525   9.762  71.870  1.00  0.00    -0.382 NA 
HETATM   20  C   UNL     1     -12.938  12.136  71.265  1.00  0.00    -0.303 C  
HETATM   21  H   UNL     1     -12.960   9.852  72.788  1.00  0.00     0.000 HD 
HETATM   22  C   UNL     1     -11.975   8.605  71.378  1.00  0.00    -0.304 A  
HETATM   23  C   UNL     1     -11.861   7.340  71.967  1.00  0.00    -0.332 A  
HETATM   24  C   UNL     1     -11.250   6.328  71.220  1.00  0.00    -0.355 A  
HETATM   25  C   UNL     1     -10.773   6.575  69.934  1.00  0.00    -0.310 A  
HETATM   26  C   UNL     1     -10.887   7.849  69.366  1.00  0.00    -0.114 A  
HETATM   27  C   UNL     1     -11.498   8.887  70.101  1.00  0.00    -0.047 A  
ENDBRANCH  16  17
ENDBRANCH  15  16
ENDBRANCH  13  15
ENDBRANCH  12  13
ENDBRANCH  10  12
ENDBRANCH   2   6
BRANCH   3  28
HETATM   28  N   UNL     1     -10.347   3.509  65.060  1.00  0.00    -0.419 NA 
HETATM   29  H   UNL     1     -10.178   2.873  64.280  1.00  0.00     0.000 HD 
HETATM   30  O   UNL     1     -11.495   4.303  65.199  1.00  0.00    -0.974 OA 
HETATM   31  H   UNL     1     -12.095   4.173  64.473  1.00  0.00     0.000 HD 
ENDBRANCH   3  28
TORSDOF 7
ENDMDL
MODEL      201
REMARK 921   NORMALIZED FREE ENERGY PREDICTED BY IDOCK:   -3.89 KCAL/MOL
REMARK 922        TOTAL FREE ENERGY PREDICTED BY IDOCK:   -8.11 KCAL/MOL
REMARK 923 INTER-LIGAND FREE ENERGY PREDICTED BY IDOCK:   -6.93 KCAL/MOL
REMARK 924 INTRA-LIGAND FREE ENERGY PREDICTED BY IDOCK:   -1.18 KCAL/MOL
REMARK 927      BINDING AFFINITY PREDICTED BY RF-SCORE:    0.00 PKD
ROOT
HETATM    1  C   UNL     1     -10.585   7.865  71.072  1.00  0.00    -0.232 C  
HETATM    2  C   UNL     1     -10.702   8.152  69.767  1.00  0.00    -0.229 C  
HETATM    3  C   UNL     1     -11.450   6.832  71.654  1.00  0.00    -0.282 C  
HETATM    4  H   UNL     1     -11.436   5.545  73.083  1.00  0.00     0.000 HD 
HETATM    5  O   UNL     1     -10.876   6.213  72.707  1.00  0.00    -0.226 OA 
ENDROOT
BRANCH   2   6
HETATM    6  C   UNL     1      -9.845   9.157  69.149  1.00  0.00    -0.171 A  
HETATM    7  C   UNL     1      -8.894   9.841  69.910  1.00  0.00    -0.248 A  
HETATM    8  C   UNL     1      -8.004  10.721  69.290  1.00  0.00    -0.110 A  
HETATM    9  C   UNL     1      -9.935   9.389  67.774  1.00  0.00    -0.228 A  
HETATM   10  C   UNL     1      -8.055  10.921  67.904  1.00  0.00    -0.113 A  
HETATM   11  C   UNL     1      -9.043  10.265  67.155  1.00  0.00    -0.156 A  
BRANCH  10  12
HETATM   12  C   UNL     1      -6.981  11.723  67.212  1.00  0.00    -0.138 C  
BRANCH  12  13
HETATM   13  N   UNL     1      -6.532  12.866  68.007  1.00  0.00    -0.092 NA 
HETATM   14  H   UNL     1      -5.516  12.888  68.089  1.00  0.00     0.000 HD 
BRANCH  13  15
HETATM   15  C   UNL     1      -7.056  14.135  67.472  1.00  0.00    -0.163 C  
BRANCH  15  16
HETATM   16  C   UNL     1      -8.515  14.412  67.866  1.00  0.00    -0.165 C  
BRANCH  16  17
HETATM   17  C   UNL     1      -9.334  14.934  66.726  1.00  0.00    -0.270 A  
HETATM   18  C   UNL     1      -9.218  16.162  66.094  1.00  0.00    -0.347 A  
HETATM   19  N   UNL     1     -10.208  16.235  65.145  1.00  0.00    -0.558 NA 
HETATM   20  C   UNL     1      -8.278  17.296  66.294  1.00  0.00    -0.302 C  
HETATM   21  H   UNL     1     -10.367  17.035  64.532  1.00  0.00     0.000 HD 
HETATM   22  C   UNL     1     -10.955  15.084  65.132  1.00  0.00    -0.406 A  
HETATM   23  C   UNL     1     -12.057  14.733  64.343  1.00  0.00    -0.457 A  
HETATM   24  C   UNL     1     -12.624  13.471  64.544  1.00  0.00    -0.262 A  
HETATM   25  C   UNL     1     -12.107  12.597  65.497  1.00  0.00    -0.515 A  
HETATM   26  C   UNL     1     -11.011  12.968  66.283  1.00  0.00    -0.303 A  
HETATM   27  C   UNL     1     -10.422  14.238  66.101  1.00  0.00    -0.294 A  
ENDBRANCH  16  17
ENDBRANCH  15  16
ENDBRANCH  13  15
ENDBRANCH  12  13
ENDBRANCH  10  12
ENDBRANCH   2   6
BRANCH   3  28
HETATM   28  N   UNL     1     -12.633   6.534  71.224  1.00  0.00    -0.154 NA 
HETATM   29  H   UNL     1     -12.856   6.318  70.251  1.00  0.00     0.000 HD 
HETATM   30  O   UNL     1     -13.572   6.547  72.266  1.00  0.00    -0.509 OA 
HETATM   31  H   UNL     1     -14.441   6.328  71.950  1.00  0.00     0.000 HD 
ENDBRANCH   3  28
TORSDOF 7
ENDMDL
MODEL      202
REMARK 921   NORMALIZED FREE ENERGY PREDICTED BY IDOCK:   -3.86 KCAL/MOL
REMARK 922        TOTAL FREE ENERGY PREDICTED BY IDOCK:   -8.08 KCAL/MOL
REMARK 923 INTER-LIGAND FREE ENERGY PREDICTED BY IDOCK:   -7.50 KCAL/MOL
REMARK 924 INTRA-LIGAND FREE ENERGY PREDICTED BY IDOCK:   -0.57 KCAL/MOL
REMARK 927      BINDING AFFINITY PREDICTED BY RF-SCORE:    0.00 PKD
ROOT
HETATM    1  C   UNL     1     -10.265   5.032  65.990  1.00  0.00    -0.253 C  
HETATM    2  C   UNL     1     -10.140   5.005  67.326  1.00  0.00    -0.226 C  
HETATM    3  C   UNL     1     -10.205   3.770  65.245  1.00  0.00    -0.000 C  
HETATM    4  H   UNL     1     -10.879   2.997  63.617  1.00  0.00     0.000 HD 
HETATM    5  O   UNL     1     -10.918   3.814  64.100  1.00  0.00    -0.294 OA 
ENDROOT
BRANCH   2   6
HETATM    6  C   UNL     1     -10.216   6.236  68.103  1.00  0.00    -0.200 A  
HETATM    7  C   UNL     1      -9.443   7.345  67.749  1.00  0.00    -0.154 A  
HETATM    8  C   UNL     1      -9.602   8.555  68.429  1.00  0.00    -0.157 A  
HETATM    9  C   UNL     1     -11.113   6.326  69.170  1.00  0.00    -0.457 A  
HETATM   10  C   UNL     1     -10.537   8.666  69.467  1.00  0.00    -0.218 A  
HETATM   11  C   UNL     1     -11.274   7.535  69.847  1.00  0.00    -0.124 A  
BRANCH  10  12
HETATM   12  C   UNL     1     -10.841  10.013  70.075  1.00  0.00    -0.302 C  
BRANCH  12  13
HETATM   13  N   UNL     1     -10.445  11.124  69.209  1.00  0.00    -0.369 NA 
HETATM   14  H   UNL     1      -9.548  10.944  68.758  1.00  0.00     0.000 HD 
BRANCH  13  15
HETATM   15  C   UNL     1     -11.491  11.438  68.221  1.00  0.00    -0.299 C  
BRANCH  15  16
HETATM   16  C   UNL     1     -11.003  11.371  66.766  1.00  0.00    -0.347 C  
BRANCH  16  17
HETATM   17  C   UNL     1     -11.168  12.670  66.039  1.00  0.00    -0.345 A  
HETATM   18  C   UNL     1     -11.851  12.894  64.854  1.00  0.00    -0.366 A  
HETATM   19  N   UNL     1     -11.693  14.220  64.529  1.00  0.00    -0.477 NA 
HETATM   20  C   UNL     1     -12.635  11.988  63.974  1.00  0.00    -0.466 C  
HETATM   21  H   UNL     1     -12.083  14.664  63.697  1.00  0.00     0.000 HD 
HETATM   22  C   UNL     1     -10.939  14.865  65.476  1.00  0.00    -0.350 A  
HETATM   23  C   UNL     1     -10.526  16.202  65.541  1.00  0.00    -0.407 A  
HETATM   24  C   UNL     1      -9.758  16.591  66.643  1.00  0.00    -0.275 A  
HETATM   25  C   UNL     1      -9.419  15.677  67.638  1.00  0.00    -0.211 A  
HETATM   26  C   UNL     1      -9.833  14.344  67.551  1.00  0.00    -0.220 A  
HETATM   27  C   UNL     1     -10.607  13.926  66.448  1.00  0.00    -0.280 A  
ENDBRANCH  16  17
ENDBRANCH  15  16
ENDBRANCH  13  15
ENDBRANCH  12  13
ENDBRANCH  10  12
ENDBRANCH   2   6
BRANCH   3  28
HETATM   28  N   UNL     1      -9.545   2.722  65.621  1.00  0.00    -0.369 NA 
HETATM   29  H   UNL     1      -8.871   2.711  66.387  1.00  0.00     0.000 HD 
HETATM   30  O   UNL     1      -9.877   1.604  64.842  1.00  0.00    -0.334 OA 
HETATM   31  H   UNL     1      -9.392   0.835  65.119  1.00  0.00     0.000 HD 
ENDBRANCH   3  28
TORSDOF 7
ENDMDL
MODEL      203
REMARK 921   NORMALIZED FREE ENERGY PREDICTED BY IDOCK:   -3.85 KCAL/MOL
REMARK 922        TOTAL FREE ENERGY PREDICTED BY IDOCK:   -8.05 KCAL/MOL
REMARK 923 INTER-LIGAND FREE ENERGY PREDICTED BY IDOCK:   -6.93 KCAL/MOL
REMARK 924 INTRA-LIGAND FREE ENERGY PREDICTED BY IDOCK:   -1.12 KCAL/MOL
REMARK 927      BINDING AFFINITY PREDICTED BY RF-SCORE:    0.00 PKD
ROOT
HETATM    1  C   UNL     1      -8.463  18.696  66.593  1.00  0.00    -0.301 C  
HETATM    2  C   UNL     1      -8.731  17.764  67.520  1.00  0.00    -0.239 C  
HETATM    3  C   UNL     1      -7.626  19.844  66.960  1.00  0.00    -0.269 C  
HETATM    4  H   UNL     1      -6.399  21.082  66.146  1.00  0.00     0.000 HD 
HETATM    5  O   UNL     1      -6.940  20.338  65.909  1.00  0.00    -0.263 OA 
ENDROOT
BRANCH   2   6
HETATM    6  C   UNL     1      -9.541  16.598  67.187  1.00  0.00    -0.244 A  
HETATM    7  C   UNL     1     -10.609  16.222  68.006  1.00  0.00    -0.308 A  
HETATM    8  C   UNL     1     -11.447  15.173  67.623  1.00  0.00    -0.319 A  
HETATM    9  C   UNL     1      -9.285  15.893  66.009  1.00  0.00    -0.372 A  
HETATM   10  C   UNL     1     -11.227  14.493  66.418  1.00  0.00    -0.341 A  
HETATM   11  C   UNL     1     -10.125  14.847  65.626  1.00  0.00    -0.387 A  
BRANCH  10  12
HETATM   12  C   UNL     1     -12.235  13.490  65.916  1.00  0.00    -0.460 C  
BRANCH  12  13
HETATM   13  N   UNL     1     -11.963  12.132  66.391  1.00  0.00    -0.621 NA 
HETATM   14  H   UNL     1     -11.133  11.741  65.944  1.00  0.00     0.000 HD 
BRANCH  13  15
HETATM   15  C   UNL     1     -11.858  12.084  67.859  1.00  0.00    -0.250 C  
BRANCH  15  16
HETATM   16  C   UNL     1     -11.304  10.753  68.392  1.00  0.00    -0.367 C  
BRANCH  16  17
HETATM   17  C   UNL     1     -10.024  10.350  67.727  1.00  0.00    -0.203 A  
HETATM   18  C   UNL     1      -9.717   9.124  67.158  1.00  0.00    -0.182 A  
HETATM   19  N   UNL     1      -8.416   9.185  66.720  1.00  0.00    -0.122 NA 
HETATM   20  C   UNL     1     -10.514   7.881  66.990  1.00  0.00    -0.419 C  
HETATM   21  H   UNL     1      -7.920   8.418  66.267  1.00  0.00     0.000 HD 
HETATM   22  C   UNL     1      -7.875  10.419  66.976  1.00  0.00    -0.112 A  
HETATM   23  C   UNL     1      -6.591  10.912  66.712  1.00  0.00    -0.116 A  
HETATM   24  C   UNL     1      -6.314  12.232  67.081  1.00  0.00    -0.117 A  
HETATM   25  C   UNL     1      -7.285  13.025  67.688  1.00  0.00    -0.151 A  
HETATM   26  C   UNL     1      -8.560  12.513  67.953  1.00  0.00    -0.179 A  
HETATM   27  C   UNL     1      -8.863  11.182  67.592  1.00  0.00    -0.136 A  
ENDBRANCH  16  17
ENDBRANCH  15  16
ENDBRANCH  13  15
ENDBRANCH  12  13
ENDBRANCH  10  12
ENDBRANCH   2   6
BRANCH   3  28
HETATM   28  N   UNL     1      -7.543  20.345  68.150  1.00  0.00    -0.156 NA 
HETATM   29  H   UNL     1      -8.348  20.589  68.730  1.00  0.00     0.000 HD 
HETATM   30  O   UNL     1      -6.207  20.511  68.542  1.00  0.00    -0.298 OA 
HETATM   31  H   UNL     1      -6.146  20.879  69.416  1.00  0.00     0.000 HD 
ENDBRANCH   3  28
TORSDOF 7
ENDMDL
MODEL      204
REMARK 921   NORMALIZED FREE ENERGY PREDICTED BY IDOCK:   -3.85 KCAL/MOL
REMARK 922        TOTAL FREE ENERGY PREDICTED BY IDOCK:   -8.05 KCAL/MOL
REMARK 923 INTER-LIGAND FREE ENERGY PREDICTED BY IDOCK:   -7.34 KCAL/MOL
REMARK 924 INTRA-LIGAND FREE ENERGY PREDICTED BY IDOCK:   -0.71 KCAL/MOL
REMARK 927      BINDING AFFINITY PREDICTED BY RF-SCORE:    0.00 PKD
ROOT
HETATM    1  C   UNL     1     -11.972  12.847  66.274  1.00  0.00    -0.472 C  
HETATM    2  C   UNL     1     -11.077  11.860  66.115  1.00  0.00    -0.374 C  
HETATM    3  C   UNL     1     -12.079  13.883  65.241  1.00  0.00    -0.410 C  
HETATM    4  H   UNL     1     -13.388  15.082  64.500  1.00  0.00     0.000 HD 
HETATM    5  O   UNL     1     -13.318  14.411  65.168  1.00  0.00    -0.542 OA 
ENDROOT
BRANCH   2   6
HETATM    6  C   UNL     1     -10.955  10.801  67.110  1.00  0.00    -0.324 A  
HETATM    7  C   UNL     1     -10.282   9.616  66.802  1.00  0.00    -0.308 A  
HETATM    8  C   UNL     1     -10.074   8.652  67.792  1.00  0.00    -0.266 A  
HETATM    9  C   UNL     1     -11.460  11.000  68.397  1.00  0.00    -0.378 A  
HETATM   10  C   UNL     1     -10.533   8.868  69.098  1.00  0.00    -0.236 A  
HETATM   11  C   UNL     1     -11.248  10.040  69.386  1.00  0.00    -0.235 A  
BRANCH  10  12
HETATM   12  C   UNL     1     -10.148   7.919  70.205  1.00  0.00    -0.196 C  
BRANCH  12  13
HETATM   13  N   UNL     1     -11.106   6.824  70.366  1.00  0.00    -0.286 NA 
HETATM   14  H   UNL     1     -10.679   5.921  70.156  1.00  0.00     0.000 HD 
BRANCH  13  15
HETATM   15  C   UNL     1     -11.717   6.832  71.705  1.00  0.00    -0.312 C  
BRANCH  15  16
HETATM   16  C   UNL     1     -11.324   5.622  72.568  1.00  0.00    -0.349 C  
BRANCH  16  17
HETATM   17  C   UNL     1      -9.849   5.360  72.561  1.00  0.00    -0.192 A  
HETATM   18  C   UNL     1      -8.857   6.095  73.191  1.00  0.00    -0.130 A  
HETATM   19  N   UNL     1      -7.650   5.524  72.866  1.00  0.00    -0.096 NA 
HETATM   20  C   UNL     1      -8.915   7.296  74.063  1.00  0.00    -0.268 C  
HETATM   21  H   UNL     1      -6.743   5.865  73.184  1.00  0.00     0.000 HD 
HETATM   22  C   UNL     1      -7.831   4.432  72.055  1.00  0.00    -0.090 A  
HETATM   23  C   UNL     1      -6.889   3.568  71.483  1.00  0.00    -0.031 A  
HETATM   24  C   UNL     1      -7.367   2.518  70.693  1.00  0.00    -0.033 A  
HETATM   25  C   UNL     1      -8.733   2.341  70.486  1.00  0.00    -0.114 A  
HETATM   26  C   UNL     1      -9.659   3.220  71.058  1.00  0.00    -0.234 A  
HETATM   27  C   UNL     1      -9.202   4.289  71.858  1.00  0.00    -0.173 A  
ENDBRANCH  16  17
ENDBRANCH  15  16
ENDBRANCH  13  15
ENDBRANCH  12  13
ENDBRANCH  10  12
ENDBRANCH   2   6
BRANCH   3  28
HETATM   28  N   UNL     1     -11.107  14.266  64.478  1.00  0.00    -0.567 NA 
HETATM   29  H   UNL     1     -10.487  13.632  63.973  1.00  0.00     0.000 HD 
HETATM   30  O   UNL     1     -11.014  15.665  64.433  1.00  0.00    -0.727 OA 
HETATM   31  H   UNL     1     -10.301  15.946  63.873  1.00  0.00     0.000 HD 
ENDBRANCH   3  28
TORSDOF 7
ENDMDL
MODEL      205
REMARK 921   NORMALIZED FREE ENERGY PREDICTED BY IDOCK:   -3.84 KCAL/MOL
REMARK 922        TOTAL FREE ENERGY PREDICTED BY IDOCK:   -8.05 KCAL/MOL
REMARK 923 INTER-LIGAND FREE ENERGY PREDICTED BY IDOCK:   -5.57 KCAL/MOL
REMARK 924 INTRA-LIGAND FREE ENERGY PREDICTED BY IDOCK:   -2.48 KCAL/MOL
REMARK 927      BINDING AFFINITY PREDICTED BY RF-SCORE:    0.00 PKD
ROOT
HETATM    1  C   UNL     1     -10.131  11.988  67.343  1.00  0.00    -0.206 C  
HETATM    2  C   UNL     1     -11.142  11.143  67.592  1.00  0.00    -0.348 C  
HETATM    3  C   UNL     1     -10.428  13.303  66.765  1.00  0.00    -0.270 C  
HETATM    4  H   UNL     1      -9.714  15.090  66.743  1.00  0.00     0.000 HD 
HETATM    5  O   UNL     1      -9.522  14.238  67.119  1.00  0.00    -0.212 OA 
ENDROOT
BRANCH   2   6
HETATM    6  C   UNL     1     -10.889   9.836  68.186  1.00  0.00    -0.264 A  
HETATM    7  C   UNL     1     -10.985   9.657  69.569  1.00  0.00    -0.233 A  
HETATM    8  C   UNL     1     -10.850   8.381  70.120  1.00  0.00    -0.238 A  
HETATM    9  C   UNL     1     -10.612   8.744  67.361  1.00  0.00    -0.304 A  
HETATM   10  C   UNL     1     -10.622   7.273  69.293  1.00  0.00    -0.230 A  
HETATM   11  C   UNL     1     -10.481   7.469  67.911  1.00  0.00    -0.266 A  
BRANCH  10  12
HETATM   12  C   UNL     1     -10.662   5.877  69.864  1.00  0.00    -0.336 C  
BRANCH  12  13
HETATM   13  N   UNL     1     -10.235   5.829  71.263  1.00  0.00    -0.207 NA 
HETATM   14  H   UNL     1     -11.029   5.710  71.892  1.00  0.00     0.000 HD 
BRANCH  13  15
HETATM   15  C   UNL     1      -9.215   4.790  71.482  1.00  0.00    -0.142 C  
BRANCH  15  16
HETATM   16  C   UNL     1      -7.850   5.348  71.913  1.00  0.00    -0.112 C  
BRANCH  16  17
HETATM   17  C   UNL     1      -7.755   6.834  71.751  1.00  0.00    -0.096 A  
HETATM   18  C   UNL     1      -8.038   7.807  72.697  1.00  0.00    -0.121 A  
HETATM   19  N   UNL     1      -7.866   9.031  72.097  1.00  0.00    -0.326 NA 
HETATM   20  C   UNL     1      -8.469   7.715  74.116  1.00  0.00    -0.290 C  
HETATM   21  H   UNL     1      -8.015   9.929  72.557  1.00  0.00     0.000 HD 
HETATM   22  C   UNL     1      -7.467   8.881  70.793  1.00  0.00    -0.099 A  
HETATM   23  C   UNL     1      -7.190   9.847  69.818  1.00  0.00    -0.118 A  
HETATM   24  C   UNL     1      -6.790   9.399  68.555  1.00  0.00    -0.062 A  
HETATM   25  C   UNL     1      -6.672   8.039  68.282  1.00  0.00    -0.067 A  
HETATM   26  C   UNL     1      -6.962   7.087  69.265  1.00  0.00    -0.074 A  
HETATM   27  C   UNL     1      -7.370   7.514  70.547  1.00  0.00    -0.075 A  
ENDBRANCH  16  17
ENDBRANCH  15  16
ENDBRANCH  13  15
ENDBRANCH  12  13
ENDBRANCH  10  12
ENDBRANCH   2   6
BRANCH   3  28
HETATM   28  N   UNL     1     -11.436  13.559  65.995  1.00  0.00    -0.317 NA 
HETATM   29  H   UNL     1     -11.510  13.257  65.023  1.00  0.00     0.000 HD 
HETATM   30  O   UNL     1     -12.416  14.303  66.669  1.00  0.00    -0.559 OA 
HETATM   31  H   UNL     1     -13.156  14.491  66.104  1.00  0.00     0.000 HD 
ENDBRANCH   3  28
TORSDOF 7
ENDMDL
MODEL      206
REMARK 921   NORMALIZED FREE ENERGY PREDICTED BY IDOCK:   -3.83 KCAL/MOL
REMARK 922        TOTAL FREE ENERGY PREDICTED BY IDOCK:   -8.03 KCAL/MOL
REMARK 923 INTER-LIGAND FREE ENERGY PREDICTED BY IDOCK:   -7.21 KCAL/MOL
REMARK 924 INTRA-LIGAND FREE ENERGY PREDICTED BY IDOCK:   -0.81 KCAL/MOL
REMARK 927      BINDING AFFINITY PREDICTED BY RF-SCORE:    0.00 PKD
ROOT
HETATM    1  C   UNL     1     -11.873  12.478  65.342  1.00  0.00    -0.479 C  
HETATM    2  C   UNL     1     -10.541  12.328  65.291  1.00  0.00    -0.322 C  
HETATM    3  C   UNL     1     -12.428  13.725  65.879  1.00  0.00    -0.468 C  
HETATM    4  H   UNL     1     -13.990  14.833  65.693  1.00  0.00     0.000 HD 
HETATM    5  O   UNL     1     -13.630  14.025  65.345  1.00  0.00    -0.593 OA 
ENDROOT
BRANCH   2   6
HETATM    6  C   UNL     1      -9.951  11.112  64.744  1.00  0.00    -0.339 A  
HETATM    7  C   UNL     1      -9.513  11.072  63.418  1.00  0.00    -0.331 A  
HETATM    8  C   UNL     1      -8.850   9.942  62.934  1.00  0.00    -0.248 A  
HETATM    9  C   UNL     1      -9.766  10.002  65.572  1.00  0.00    -0.355 A  
HETATM   10  C   UNL     1      -8.615   8.845  63.774  1.00  0.00    -0.105 A  
HETATM   11  C   UNL     1      -9.100   8.875  65.090  1.00  0.00    -0.157 A  
BRANCH  10  12
HETATM   12  C   UNL     1      -7.740   7.706  63.310  1.00  0.00    -0.131 C  
BRANCH  12  13
HETATM   13  N   UNL     1      -8.497   6.659  62.623  1.00  0.00    -0.337 NA 
HETATM   14  H   UNL     1      -8.452   6.770  61.610  1.00  0.00     0.000 HD 
BRANCH  13  15
HETATM   15  C   UNL     1      -8.058   5.316  63.036  1.00  0.00    -0.103 C  
BRANCH  15  16
HETATM   16  C   UNL     1      -7.793   5.193  64.545  1.00  0.00    -0.096 C  
BRANCH  16  17
HETATM   17  C   UNL     1      -9.051   5.183  65.356  1.00  0.00    -0.145 A  
HETATM   18  C   UNL     1     -10.249   4.557  65.050  1.00  0.00    -0.072 A  
HETATM   19  N   UNL     1     -11.143   4.863  66.048  1.00  0.00    -0.756 NA 
HETATM   20  C   UNL     1     -10.659   3.704  63.905  1.00  0.00    -0.285 C  
HETATM   21  H   UNL     1     -12.111   4.543  66.078  1.00  0.00     0.000 HD 
HETATM   22  C   UNL     1     -10.555   5.658  67.000  1.00  0.00    -0.285 A  
HETATM   23  C   UNL     1     -11.091   6.209  68.170  1.00  0.00    -0.328 A  
HETATM   24  C   UNL     1     -10.247   6.986  68.968  1.00  0.00    -0.191 A  
HETATM   25  C   UNL     1      -8.918   7.201  68.608  1.00  0.00    -0.131 A  
HETATM   26  C   UNL     1      -8.403   6.651  67.429  1.00  0.00    -0.121 A  
HETATM   27  C   UNL     1      -9.236   5.864  66.606  1.00  0.00    -0.147 A  
ENDBRANCH  16  17
ENDBRANCH  15  16
ENDBRANCH  13  15
ENDBRANCH  12  13
ENDBRANCH  10  12
ENDBRANCH   2   6
BRANCH   3  28
HETATM   28  N   UNL     1     -11.850  14.467  66.768  1.00  0.00    -0.392 NA 
HETATM   29  H   UNL     1     -11.584  15.442  66.620  1.00  0.00     0.000 HD 
HETATM   30  O   UNL     1     -11.634  13.760  67.960  1.00  0.00    -0.293 OA 
HETATM   31  H   UNL     1     -11.209  14.305  68.612  1.00  0.00     0.000 HD 
ENDBRANCH   3  28
TORSDOF 7
ENDMDL
MODEL      207
REMARK 921   NORMALIZED FREE ENERGY PREDICTED BY IDOCK:   -3.82 KCAL/MOL
REMARK 922        TOTAL FREE ENERGY PREDICTED BY IDOCK:   -8.02 KCAL/MOL
REMARK 923 INTER-LIGAND FREE ENERGY PREDICTED BY IDOCK:   -7.25 KCAL/MOL
REMARK 924 INTRA-LIGAND FREE ENERGY PREDICTED BY IDOCK:   -0.77 KCAL/MOL
REMARK 927      BINDING AFFINITY PREDICTED BY RF-SCORE:    0.00 PKD
ROOT
HETATM    1  C   UNL     1      -9.580  17.979  67.116  1.00  0.00    -0.281 C  
HETATM    2  C   UNL     1     -10.198  17.438  66.055  1.00  0.00    -0.308 C  
HETATM    3  C   UNL     1      -9.448  19.438  67.195  1.00  0.00    -0.320 C  
HETATM    4  H   UNL     1      -9.316  20.827  68.519  1.00  0.00     0.000 HD 
HETATM    5  O   UNL     1      -9.402  19.882  68.468  1.00  0.00    -0.305 OA 
ENDROOT
BRANCH   2   6
HETATM    6  C   UNL     1     -10.368  15.993  65.952  1.00  0.00    -0.386 A  
HETATM    7  C   UNL     1     -11.097  15.441  64.896  1.00  0.00    -0.435 A  
HETATM    8  C   UNL     1     -11.162  14.054  64.741  1.00  0.00    -0.375 A  
HETATM    9  C   UNL     1      -9.744  15.156  66.879  1.00  0.00    -0.248 A  
HETATM   10  C   UNL     1     -10.496  13.209  65.639  1.00  0.00    -0.290 A  
HETATM   11  C   UNL     1      -9.806  13.772  66.723  1.00  0.00    -0.275 A  
BRANCH  10  12
HETATM   12  C   UNL     1     -10.411  11.728  65.368  1.00  0.00    -0.272 C  
BRANCH  12  13
HETATM   13  N   UNL     1      -9.034  11.267  65.184  1.00  0.00    -0.375 NA 
HETATM   14  H   UNL     1      -8.372  12.041  65.231  1.00  0.00     0.000 HD 
BRANCH  13  15
HETATM   15  C   UNL     1      -8.688  10.204  66.143  1.00  0.00    -0.142 C  
BRANCH  15  16
HETATM   16  C   UNL     1      -9.836   9.838  67.097  1.00  0.00    -0.238 C  
BRANCH  16  17
HETATM   17  C   UNL     1      -9.505   8.677  67.983  1.00  0.00    -0.154 A  
HETATM   18  C   UNL     1      -8.886   8.709  69.222  1.00  0.00    -0.137 A  
HETATM   19  N   UNL     1      -8.734   7.410  69.644  1.00  0.00    -0.137 NA 
HETATM   20  C   UNL     1      -8.402   9.837  70.060  1.00  0.00    -0.211 C  
HETATM   21  H   UNL     1      -8.298   7.133  70.523  1.00  0.00     0.000 HD 
HETATM   22  C   UNL     1      -9.250   6.536  68.720  1.00  0.00    -0.131 A  
HETATM   23  C   UNL     1      -9.300   5.137  68.733  1.00  0.00    -0.166 A  
HETATM   24  C   UNL     1      -9.900   4.499  67.643  1.00  0.00    -0.181 A  
HETATM   25  C   UNL     1     -10.429   5.234  66.584  1.00  0.00    -0.345 A  
HETATM   26  C   UNL     1     -10.361   6.631  66.584  1.00  0.00    -0.215 A  
HETATM   27  C   UNL     1      -9.758   7.299  67.672  1.00  0.00    -0.173 A  
ENDBRANCH  16  17
ENDBRANCH  15  16
ENDBRANCH  13  15
ENDBRANCH  12  13
ENDBRANCH  10  12
ENDBRANCH   2   6
BRANCH   3  28
HETATM   28  N   UNL     1      -9.376  20.227  66.172  1.00  0.00    -0.628 NA 
HETATM   29  H   UNL     1     -10.183  20.548  65.635  1.00  0.00     0.000 HD 
HETATM   30  O   UNL     1      -8.049  20.586  65.896  1.00  0.00    -0.523 OA 
HETATM   31  H   UNL     1      -7.997  21.166  65.146  1.00  0.00     0.000 HD 
ENDBRANCH   3  28
TORSDOF 7
ENDMDL
MODEL      208
REMARK 921   NORMALIZED FREE ENERGY PREDICTED BY IDOCK:   -3.81 KCAL/MOL
REMARK 922        TOTAL FREE ENERGY PREDICTED BY IDOCK:   -8.01 KCAL/MOL
REMARK 923 INTER-LIGAND FREE ENERGY PREDICTED BY IDOCK:   -7.30 KCAL/MOL
REMARK 924 INTRA-LIGAND FREE ENERGY PREDICTED BY IDOCK:   -0.71 KCAL/MOL
REMARK 927      BINDING AFFINITY PREDICTED BY RF-SCORE:    0.00 PKD
ROOT
HETATM    1  C   UNL     1     -11.998  12.813  66.337  1.00  0.00    -0.443 C  
HETATM    2  C   UNL     1     -11.277  11.682  66.362  1.00  0.00    -0.349 C  
HETATM    3  C   UNL     1     -12.073  13.582  65.090  1.00  0.00    -0.404 C  
HETATM    4  H   UNL     1     -13.273  14.775  64.174  1.00  0.00     0.000 HD 
HETATM    5  O   UNL     1     -13.224  14.276  64.982  1.00  0.00    -0.638 OA 
ENDROOT
BRANCH   2   6
HETATM    6  C   UNL     1     -11.196  10.879  67.576  1.00  0.00    -0.364 A  
HETATM    7  C   UNL     1     -10.690   9.578  67.531  1.00  0.00    -0.311 A  
HETATM    8  C   UNL     1     -10.512   8.855  68.714  1.00  0.00    -0.223 A  
HETATM    9  C   UNL     1     -11.567  11.440  68.800  1.00  0.00    -0.378 A  
HETATM   10  C   UNL     1     -10.835   9.430  69.950  1.00  0.00    -0.259 A  
HETATM   11  C   UNL     1     -11.386  10.720  69.981  1.00  0.00    -0.397 A  
BRANCH  10  12
HETATM   12  C   UNL     1     -10.472   8.726  71.234  1.00  0.00    -0.256 C  
BRANCH  12  13
HETATM   13  N   UNL     1      -9.172   9.147  71.759  1.00  0.00    -0.326 NA 
HETATM   14  H   UNL     1      -8.997   8.751  72.682  1.00  0.00     0.000 HD 
BRANCH  13  15
HETATM   15  C   UNL     1      -8.082   8.830  70.821  1.00  0.00    -0.138 C  
BRANCH  15  16
HETATM   16  C   UNL     1      -7.077   7.805  71.370  1.00  0.00    -0.058 C  
BRANCH  16  17
HETATM   17  C   UNL     1      -7.743   6.614  71.989  1.00  0.00    -0.097 A  
HETATM   18  C   UNL     1      -7.900   6.340  73.338  1.00  0.00    -0.098 A  
HETATM   19  N   UNL     1      -8.516   5.116  73.442  1.00  0.00    -0.110 NA 
HETATM   20  C   UNL     1      -7.521   7.102  74.556  1.00  0.00    -0.133 C  
HETATM   21  H   UNL     1      -8.749   4.657  74.323  1.00  0.00     0.000 HD 
HETATM   22  C   UNL     1      -8.774   4.595  72.200  1.00  0.00    -0.119 A  
HETATM   23  C   UNL     1      -9.372   3.381  71.839  1.00  0.00    -0.193 A  
HETATM   24  C   UNL     1      -9.516   3.109  70.475  1.00  0.00    -0.236 A  
HETATM   25  C   UNL     1      -9.080   4.017  69.513  1.00  0.00    -0.190 A  
HETATM   26  C   UNL     1      -8.477   5.221  69.893  1.00  0.00    -0.098 A  
HETATM   27  C   UNL     1      -8.318   5.518  71.263  1.00  0.00    -0.126 A  
ENDBRANCH  16  17
ENDBRANCH  15  16
ENDBRANCH  13  15
ENDBRANCH  12  13
ENDBRANCH  10  12
ENDBRANCH   2   6
BRANCH   3  28
HETATM   28  N   UNL     1     -11.149  13.609  64.184  1.00  0.00    -0.574 NA 
HETATM   29  H   UNL     1     -10.208  13.976  64.333  1.00  0.00     0.000 HD 
HETATM   30  O   UNL     1     -11.606  13.070  62.973  1.00  0.00    -0.783 OA 
HETATM   31  H   UNL     1     -10.927  13.090  62.308  1.00  0.00     0.000 HD 
ENDBRANCH   3  28
TORSDOF 7
ENDMDL
MODEL      209
REMARK 921   NORMALIZED FREE ENERGY PREDICTED BY IDOCK:   -3.81 KCAL/MOL
REMARK 922        TOTAL FREE ENERGY PREDICTED BY IDOCK:   -8.00 KCAL/MOL
REMARK 923 INTER-LIGAND FREE ENERGY PREDICTED BY IDOCK:   -7.10 KCAL/MOL
REMARK 924 INTRA-LIGAND FREE ENERGY PREDICTED BY IDOCK:   -0.90 KCAL/MOL
REMARK 927      BINDING AFFINITY PREDICTED BY RF-SCORE:    0.00 PKD
ROOT
HETATM    1  C   UNL     1      -9.830   5.391  68.488  1.00  0.00    -0.199 C  
HETATM    2  C   UNL     1      -9.657   6.385  67.604  1.00  0.00    -0.126 C  
HETATM    3  C   UNL     1      -9.601   4.007  68.058  1.00  0.00    -0.136 C  
HETATM    4  H   UNL     1      -9.055   2.316  68.794  1.00  0.00     0.000 HD 
HETATM    5  O   UNL     1      -9.203   3.212  69.072  1.00  0.00    -0.134 OA 
ENDROOT
BRANCH   2   6
HETATM    6  C   UNL     1      -9.853   7.774  67.999  1.00  0.00    -0.192 A  
HETATM    7  C   UNL     1     -10.409   8.692  67.104  1.00  0.00    -0.369 A  
HETATM    8  C   UNL     1     -10.696   9.993  67.526  1.00  0.00    -0.339 A  
HETATM    9  C   UNL     1      -9.544   8.172  69.302  1.00  0.00    -0.164 A  
HETATM   10  C   UNL     1     -10.435  10.384  68.846  1.00  0.00    -0.232 A  
HETATM   11  C   UNL     1      -9.835   9.469  69.723  1.00  0.00    -0.236 A  
BRANCH  10  12
HETATM   12  C   UNL     1     -10.914  11.722  69.351  1.00  0.00    -0.125 C  
BRANCH  12  13
HETATM   13  N   UNL     1     -10.418  12.838  68.545  1.00  0.00    -0.244 NA 
HETATM   14  H   UNL     1     -10.733  13.735  68.915  1.00  0.00     0.000 HD 
BRANCH  13  15
HETATM   15  C   UNL     1      -8.952  12.798  68.411  1.00  0.00    -0.120 C  
BRANCH  15  16
HETATM   16  C   UNL     1      -8.442  13.348  67.070  1.00  0.00    -0.137 C  
BRANCH  16  17
HETATM   17  C   UNL     1      -9.525  13.982  66.254  1.00  0.00    -0.249 A  
HETATM   18  C   UNL     1      -9.934  15.306  66.275  1.00  0.00    -0.284 A  
HETATM   19  N   UNL     1     -10.993  15.426  65.407  1.00  0.00    -0.362 NA 
HETATM   20  C   UNL     1      -9.446  16.483  67.039  1.00  0.00    -0.249 C  
HETATM   21  H   UNL     1     -11.501  16.292  65.228  1.00  0.00     0.000 HD 
HETATM   22  C   UNL     1     -11.273  14.222  64.813  1.00  0.00    -0.385 A  
HETATM   23  C   UNL     1     -12.263  13.885  63.882  1.00  0.00    -0.375 A  
HETATM   24  C   UNL     1     -12.312  12.561  63.436  1.00  0.00    -0.577 A  
HETATM   25  C   UNL     1     -11.404  11.613  63.904  1.00  0.00    -0.457 A  
HETATM   26  C   UNL     1     -10.427  11.966  64.841  1.00  0.00    -0.331 A  
HETATM   27  C   UNL     1     -10.359  13.296  65.308  1.00  0.00    -0.324 A  
ENDBRANCH  16  17
ENDBRANCH  15  16
ENDBRANCH  13  15
ENDBRANCH  12  13
ENDBRANCH  10  12
ENDBRANCH   2   6
BRANCH   3  28
HETATM   28  N   UNL     1      -9.761   3.576  66.848  1.00  0.00    -0.384 NA 
HETATM   29  H   UNL     1     -10.072   4.154  66.067  1.00  0.00     0.000 HD 
HETATM   30  O   UNL     1      -9.452   2.211  66.749  1.00  0.00    -0.371 OA 
HETATM   31  H   UNL     1      -9.570   1.895  65.861  1.00  0.00     0.000 HD 
ENDBRANCH   3  28
TORSDOF 7
ENDMDL
MODEL      210
REMARK 921   NORMALIZED FREE ENERGY PREDICTED BY IDOCK:   -3.81 KCAL/MOL
REMARK 922        TOTAL FREE ENERGY PREDICTED BY IDOCK:   -7.99 KCAL/MOL
REMARK 923 INTER-LIGAND FREE ENERGY PREDICTED BY IDOCK:   -7.26 KCAL/MOL
REMARK 924 INTRA-LIGAND FREE ENERGY PREDICTED BY IDOCK:   -0.74 KCAL/MOL
REMARK 927      BINDING AFFINITY PREDICTED BY RF-SCORE:    0.00 PKD
ROOT
HETATM    1  C   UNL     1     -11.055  12.724  68.586  1.00  0.00    -0.304 C  
HETATM    2  C   UNL     1     -12.016  12.556  69.506  1.00  0.00    -0.329 C  
HETATM    3  C   UNL     1     -11.067  13.935  67.758  1.00  0.00    -0.262 C  
HETATM    4  H   UNL     1      -9.838  15.079  66.819  1.00  0.00     0.000 HD 
HETATM    5  O   UNL     1      -9.830  14.295  67.356  1.00  0.00    -0.230 OA 
ENDROOT
BRANCH   2   6
HETATM    6  C   UNL     1     -12.027  11.376  70.363  1.00  0.00    -0.465 A  
HETATM    7  C   UNL     1     -13.019  11.215  71.333  1.00  0.00    -0.506 A  
HETATM    8  C   UNL     1     -13.087  10.032  72.074  1.00  0.00    -0.541 A  
HETATM    9  C   UNL     1     -11.075  10.372  70.167  1.00  0.00    -0.383 A  
HETATM   10  C   UNL     1     -12.167   9.000  71.847  1.00  0.00    -0.451 A  
HETATM   11  C   UNL     1     -11.146   9.190  70.904  1.00  0.00    -0.356 A  
BRANCH  10  12
HETATM   12  C   UNL     1     -12.352   7.658  72.510  1.00  0.00    -0.040 C  
BRANCH  12  13
HETATM   13  N   UNL     1     -11.283   7.347  73.460  1.00  0.00    -0.588 NA 
HETATM   14  H   UNL     1     -11.659   7.019  74.350  1.00  0.00     0.000 HD 
BRANCH  13  15
HETATM   15  C   UNL     1     -10.320   6.387  72.895  1.00  0.00    -0.208 C  
BRANCH  15  16
HETATM   16  C   UNL     1     -10.951   5.044  72.499  1.00  0.00    -0.241 C  
BRANCH  16  17
HETATM   17  C   UNL     1     -10.006   4.159  71.746  1.00  0.00    -0.246 A  
HETATM   18  C   UNL     1      -9.471   2.949  72.159  1.00  0.00    -0.128 A  
HETATM   19  N   UNL     1      -8.613   2.519  71.176  1.00  0.00    -0.061 NA 
HETATM   20  C   UNL     1      -9.666   2.148  73.395  1.00  0.00    -0.130 C  
HETATM   21  H   UNL     1      -8.070   1.656  71.217  1.00  0.00     0.000 HD 
HETATM   22  C   UNL     1      -8.587   3.408  70.131  1.00  0.00    -0.062 A  
HETATM   23  C   UNL     1      -7.854   3.375  68.939  1.00  0.00    -0.053 A  
HETATM   24  C   UNL     1      -8.033   4.428  68.037  1.00  0.00    -0.080 A  
HETATM   25  C   UNL     1      -8.912   5.471  68.319  1.00  0.00    -0.109 A  
HETATM   26  C   UNL     1      -9.630   5.492  69.520  1.00  0.00    -0.202 A  
HETATM   27  C   UNL     1      -9.464   4.441  70.448  1.00  0.00    -0.245 A  
ENDBRANCH  16  17
ENDBRANCH  15  16
ENDBRANCH  13  15
ENDBRANCH  12  13
ENDBRANCH  10  12
ENDBRANCH   2   6
BRANCH   3  28
HETATM   28  N   UNL     1     -12.131  14.595  67.433  1.00  0.00    -0.552 NA 
HETATM   29  H   UNL     1     -12.491  15.397  67.951  1.00  0.00     0.000 HD 
HETATM   30  O   UNL     1     -12.725  14.068  66.277  1.00  0.00    -0.488 OA 
HETATM   31  H   UNL     1     -13.507  14.554  66.039  1.00  0.00     0.000 HD 
ENDBRANCH   3  28
TORSDOF 7
ENDMDL
MODEL      211
REMARK 921   NORMALIZED FREE ENERGY PREDICTED BY IDOCK:   -3.78 KCAL/MOL
REMARK 922        TOTAL FREE ENERGY PREDICTED BY IDOCK:   -7.96 KCAL/MOL
REMARK 923 INTER-LIGAND FREE ENERGY PREDICTED BY IDOCK:   -4.84 KCAL/MOL
REMARK 924 INTRA-LIGAND FREE ENERGY PREDICTED BY IDOCK:   -3.12 KCAL/MOL
REMARK 927      BINDING AFFINITY PREDICTED BY RF-SCORE:    0.00 PKD
ROOT
HETATM    1  C   UNL     1      -8.255   4.335  66.276  1.00  0.00    -0.102 C  
HETATM    2  C   UNL     1      -7.932   3.883  67.497  1.00  0.00    -0.090 C  
HETATM    3  C   UNL     1      -8.279   3.394  65.151  1.00  0.00    -0.094 C  
HETATM    4  H   UNL     1      -9.170   3.149  63.464  1.00  0.00     0.000 HD 
HETATM    5  O   UNL     1      -9.155   3.759  64.193  1.00  0.00    -0.117 OA 
ENDROOT
BRANCH   2   6
HETATM    6  C   UNL     1      -7.919   4.784  68.643  1.00  0.00    -0.080 A  
HETATM    7  C   UNL     1      -8.588   4.441  69.820  1.00  0.00    -0.098 A  
HETATM    8  C   UNL     1      -8.479   5.256  70.950  1.00  0.00    -0.121 A  
HETATM    9  C   UNL     1      -7.178   5.967  68.583  1.00  0.00    -0.084 A  
HETATM   10  C   UNL     1      -7.697   6.418  70.912  1.00  0.00    -0.101 A  
HETATM   11  C   UNL     1      -7.067   6.779  69.712  1.00  0.00    -0.068 A  
BRANCH  10  12
HETATM   12  C   UNL     1      -7.429   7.195  72.177  1.00  0.00    -0.085 C  
BRANCH  12  13
HETATM   13  N   UNL     1      -8.077   8.507  72.179  1.00  0.00    -0.270 NA 
HETATM   14  H   UNL     1      -8.007   8.960  71.268  1.00  0.00     0.000 HD 
BRANCH  13  15
HETATM   15  C   UNL     1      -9.475   8.419  72.631  1.00  0.00    -0.265 C  
BRANCH  15  16
HETATM   16  C   UNL     1     -10.477   9.058  71.657  1.00  0.00    -0.426 C  
BRANCH  16  17
HETATM   17  C   UNL     1     -10.865   8.140  70.539  1.00  0.00    -0.247 A  
HETATM   18  C   UNL     1     -11.719   7.050  70.598  1.00  0.00    -0.338 A  
HETATM   19  N   UNL     1     -11.736   6.470  69.353  1.00  0.00    -0.632 NA 
HETATM   20  C   UNL     1     -12.521   6.478  71.709  1.00  0.00    -0.293 C  
HETATM   21  H   UNL     1     -12.275   5.639  69.107  1.00  0.00     0.000 HD 
HETATM   22  C   UNL     1     -10.928   7.159  68.484  1.00  0.00    -0.027 A  
HETATM   23  C   UNL     1     -10.642   6.917  67.135  1.00  0.00    -0.408 A  
HETATM   24  C   UNL     1      -9.775   7.802  66.486  1.00  0.00    -0.265 A  
HETATM   25  C   UNL     1      -9.218   8.885  67.163  1.00  0.00    -0.169 A  
HETATM   26  C   UNL     1      -9.508   9.105  68.514  1.00  0.00    -0.151 A  
HETATM   27  C   UNL     1     -10.379   8.225  69.191  1.00  0.00    -0.225 A  
ENDBRANCH  16  17
ENDBRANCH  15  16
ENDBRANCH  13  15
ENDBRANCH  12  13
ENDBRANCH  10  12
ENDBRANCH   2   6
BRANCH   3  28
HETATM   28  N   UNL     1      -7.547   2.330  65.066  1.00  0.00    -0.067 NA 
HETATM   29  H   UNL     1      -7.853   1.396  65.343  1.00  0.00     0.000 HD 
HETATM   30  O   UNL     1      -6.279   2.624  64.543  1.00  0.00    -0.018 OA 
HETATM   31  H   UNL     1      -5.742   1.843  64.480  1.00  0.00     0.000 HD 
ENDBRANCH   3  28
TORSDOF 7
ENDMDL
MODEL      212
REMARK 921   NORMALIZED FREE ENERGY PREDICTED BY IDOCK:   -3.77 KCAL/MOL
REMARK 922        TOTAL FREE ENERGY PREDICTED BY IDOCK:   -7.95 KCAL/MOL
REMARK 923 INTER-LIGAND FREE ENERGY PREDICTED BY IDOCK:   -5.77 KCAL/MOL
REMARK 924 INTRA-LIGAND FREE ENERGY PREDICTED BY IDOCK:   -2.18 KCAL/MOL
REMARK 927      BINDING AFFINITY PREDICTED BY RF-SCORE:    0.00 PKD
ROOT
HETATM    1  C   UNL     1      -6.326  11.993  68.969  1.00  0.00    -0.085 C  
HETATM    2  C   UNL     1      -7.140  13.035  69.196  1.00  0.00     0.030 C  
HETATM    3  C   UNL     1      -6.824  10.635  69.214  1.00  0.00    -0.086 C  
HETATM    4  H   UNL     1      -6.552   8.839  68.581  1.00  0.00     0.000 HD 
HETATM    5  O   UNL     1      -6.230   9.718  68.422  1.00  0.00    -0.050 OA 
ENDROOT
BRANCH   2   6
HETATM    6  C   UNL     1      -6.688  14.398  68.945  1.00  0.00    -0.098 A  
HETATM    7  C   UNL     1      -5.784  14.665  67.913  1.00  0.00    -0.129 A  
HETATM    8  C   UNL     1      -5.442  15.984  67.607  1.00  0.00    -0.158 A  
HETATM    9  C   UNL     1      -7.213  15.450  69.700  1.00  0.00    -0.174 A  
HETATM   10  C   UNL     1      -6.003  17.047  68.327  1.00  0.00    -0.134 A  
HETATM   11  C   UNL     1      -6.873  16.768  69.391  1.00  0.00    -0.202 A  
BRANCH  10  12
HETATM   12  C   UNL     1      -5.780  18.470  67.879  1.00  0.00    -0.168 C  
BRANCH  12  13
HETATM   13  N   UNL     1      -5.789  18.610  66.423  1.00  0.00    -0.150 NA 
HETATM   14  H   UNL     1      -4.949  18.211  66.004  1.00  0.00     0.000 HD 
BRANCH  13  15
HETATM   15  C   UNL     1      -7.009  18.035  65.832  1.00  0.00    -0.284 C  
BRANCH  15  16
HETATM   16  C   UNL     1      -8.283  18.833  66.153  1.00  0.00    -0.211 C  
BRANCH  16  17
HETATM   17  C   UNL     1      -9.238  18.074  67.021  1.00  0.00    -0.265 A  
HETATM   18  C   UNL     1     -10.030  18.573  68.043  1.00  0.00    -0.355 A  
HETATM   19  N   UNL     1     -10.702  17.513  68.602  1.00  0.00    -0.308 NA 
HETATM   20  C   UNL     1     -10.220  19.950  68.569  1.00  0.00    -0.529 C  
HETATM   21  H   UNL     1     -11.353  17.586  69.384  1.00  0.00     0.000 HD 
HETATM   22  C   UNL     1     -10.379  16.342  67.963  1.00  0.00    -0.288 A  
HETATM   23  C   UNL     1     -10.815  15.034  68.206  1.00  0.00    -0.259 A  
HETATM   24  C   UNL     1     -10.318  14.021  67.381  1.00  0.00    -0.259 A  
HETATM   25  C   UNL     1      -9.421  14.308  66.354  1.00  0.00    -0.297 A  
HETATM   26  C   UNL     1      -8.990  15.620  66.133  1.00  0.00    -0.362 A  
HETATM   27  C   UNL     1      -9.476  16.660  66.954  1.00  0.00    -0.248 A  
ENDBRANCH  16  17
ENDBRANCH  15  16
ENDBRANCH  13  15
ENDBRANCH  12  13
ENDBRANCH  10  12
ENDBRANCH   2   6
BRANCH   3  28
HETATM   28  N   UNL     1      -7.728  10.328  70.088  1.00  0.00    -0.374 NA 
HETATM   29  H   UNL     1      -8.729  10.472  69.956  1.00  0.00     0.000 HD 
HETATM   30  O   UNL     1      -7.154   9.770  71.240  1.00  0.00    -0.326 OA 
HETATM   31  H   UNL     1      -7.817   9.544  71.881  1.00  0.00     0.000 HD 
ENDBRANCH   3  28
TORSDOF 7
ENDMDL
MODEL      213
REMARK 921   NORMALIZED FREE ENERGY PREDICTED BY IDOCK:   -3.74 KCAL/MOL
REMARK 922        TOTAL FREE ENERGY PREDICTED BY IDOCK:   -7.91 KCAL/MOL
REMARK 923 INTER-LIGAND FREE ENERGY PREDICTED BY IDOCK:   -5.42 KCAL/MOL
REMARK 924 INTRA-LIGAND FREE ENERGY PREDICTED BY IDOCK:   -2.49 KCAL/MOL
REMARK 927      BINDING AFFINITY PREDICTED BY RF-SCORE:    0.00 PKD
ROOT
HETATM    1  C   UNL     1      -7.383   8.140  70.801  1.00  0.00    -0.058 C  
HETATM    2  C   UNL     1      -7.412   9.420  70.400  1.00  0.00    -0.141 C  
HETATM    3  C   UNL     1      -7.729   7.821  72.190  1.00  0.00    -0.094 C  
HETATM    4  H   UNL     1      -8.478   6.379  73.219  1.00  0.00     0.000 HD 
HETATM    5  O   UNL     1      -8.253   6.585  72.319  1.00  0.00    -0.106 OA 
ENDROOT
BRANCH   2   6
HETATM    6  C   UNL     1      -7.095   9.773  69.021  1.00  0.00    -0.067 A  
HETATM    7  C   UNL     1      -6.517   8.833  68.165  1.00  0.00    -0.060 A  
HETATM    8  C   UNL     1      -6.317   9.143  66.818  1.00  0.00    -0.066 A  
HETATM    9  C   UNL     1      -7.430  11.041  68.539  1.00  0.00    -0.106 A  
HETATM   10  C   UNL     1      -6.698  10.395  66.315  1.00  0.00    -0.112 A  
HETATM   11  C   UNL     1      -7.234  11.349  67.193  1.00  0.00    -0.134 A  
BRANCH  10  12
HETATM   12  C   UNL     1      -6.655  10.663  64.831  1.00  0.00     0.095 C  
BRANCH  12  13
HETATM   13  N   UNL     1      -7.980  10.930  64.270  1.00  0.00    -0.337 NA 
HETATM   14  H   UNL     1      -7.918  11.234  63.298  1.00  0.00     0.000 HD 
BRANCH  13  15
HETATM   15  C   UNL     1      -8.873   9.769  64.415  1.00  0.00    -0.227 C  
BRANCH  15  16
HETATM   16  C   UNL     1     -10.273  10.131  64.937  1.00  0.00    -0.160 C  
BRANCH  16  17
HETATM   17  C   UNL     1     -10.441   9.838  66.396  1.00  0.00    -0.190 A  
HETATM   18  C   UNL     1     -10.220   8.635  67.046  1.00  0.00    -0.290 A  
HETATM   19  N   UNL     1     -10.555   8.810  68.367  1.00  0.00    -0.378 NA 
HETATM   20  C   UNL     1      -9.736   7.317  66.559  1.00  0.00    -0.207 C  
HETATM   21  H   UNL     1     -10.500   8.084  69.081  1.00  0.00     0.000 HD 
HETATM   22  C   UNL     1     -10.975  10.097  68.595  1.00  0.00    -0.230 A  
HETATM   23  C   UNL     1     -11.415  10.705  69.776  1.00  0.00    -0.375 A  
HETATM   24  C   UNL     1     -11.779  12.054  69.716  1.00  0.00    -0.390 A  
HETATM   25  C   UNL     1     -11.703  12.763  68.519  1.00  0.00    -0.371 A  
HETATM   26  C   UNL     1     -11.269  12.136  67.346  1.00  0.00    -0.362 A  
HETATM   27  C   UNL     1     -10.898  10.775  67.382  1.00  0.00    -0.345 A  
ENDBRANCH  16  17
ENDBRANCH  15  16
ENDBRANCH  13  15
ENDBRANCH  12  13
ENDBRANCH  10  12
ENDBRANCH   2   6
BRANCH   3  28
HETATM   28  N   UNL     1      -7.557   8.619  73.194  1.00  0.00    -0.377 NA 
HETATM   29  H   UNL     1      -6.752   9.236  73.308  1.00  0.00     0.000 HD 
HETATM   30  O   UNL     1      -8.618   8.528  74.107  1.00  0.00    -0.327 OA 
HETATM   31  H   UNL     1      -8.491   9.113  74.844  1.00  0.00     0.000 HD 
ENDBRANCH   3  28
TORSDOF 7
ENDMDL
MODEL      214
REMARK 921   NORMALIZED FREE ENERGY PREDICTED BY IDOCK:   -3.72 KCAL/MOL
REMARK 922        TOTAL FREE ENERGY PREDICTED BY IDOCK:   -7.88 KCAL/MOL
REMARK 923 INTER-LIGAND FREE ENERGY PREDICTED BY IDOCK:   -7.09 KCAL/MOL
REMARK 924 INTRA-LIGAND FREE ENERGY PREDICTED BY IDOCK:   -0.79 KCAL/MOL
REMARK 927      BINDING AFFINITY PREDICTED BY RF-SCORE:    0.00 PKD
ROOT
HETATM    1  C   UNL     1      -9.575   8.358  66.698  1.00  0.00    -0.294 C  
HETATM    2  C   UNL     1     -10.739   9.020  66.608  1.00  0.00    -0.043 C  
HETATM    3  C   UNL     1      -9.594   6.894  66.778  1.00  0.00    -0.168 C  
HETATM    4  H   UNL     1      -8.491   5.387  66.313  1.00  0.00     0.000 HD 
HETATM    5  O   UNL     1      -8.479   6.336  66.261  1.00  0.00    -0.123 OA 
ENDROOT
BRANCH   2   6
HETATM    6  C   UNL     1     -10.760  10.474  66.505  1.00  0.00    -0.191 A  
HETATM    7  C   UNL     1     -11.072  11.257  67.620  1.00  0.00    -0.336 A  
HETATM    8  C   UNL     1     -10.983  12.649  67.544  1.00  0.00    -0.280 A  
HETATM    9  C   UNL     1     -10.405  11.087  65.302  1.00  0.00    -0.338 A  
HETATM   10  C   UNL     1     -10.578  13.269  66.354  1.00  0.00    -0.288 A  
HETATM   11  C   UNL     1     -10.312  12.477  65.227  1.00  0.00    -0.310 A  
BRANCH  10  12
HETATM   12  C   UNL     1     -10.303  14.752  66.326  1.00  0.00    -0.297 C  
BRANCH  12  13
HETATM   13  N   UNL     1     -10.954  15.466  67.424  1.00  0.00    -0.311 NA 
HETATM   14  H   UNL     1     -10.999  14.894  68.267  1.00  0.00     0.000 HD 
BRANCH  13  15
HETATM   15  C   UNL     1     -10.305  16.762  67.687  1.00  0.00    -0.309 C  
BRANCH  15  16
HETATM   16  C   UNL     1      -8.905  16.885  67.066  1.00  0.00    -0.231 C  
BRANCH  16  17
HETATM   17  C   UNL     1      -7.860  17.275  68.065  1.00  0.00    -0.205 A  
HETATM   18  C   UNL     1      -7.296  16.481  69.051  1.00  0.00    -0.228 A  
HETATM   19  N   UNL     1      -6.426  17.266  69.769  1.00  0.00    -0.166 NA 
HETATM   20  C   UNL     1      -7.494  15.052  69.409  1.00  0.00    -0.196 C  
HETATM   21  H   UNL     1      -5.876  16.945  70.565  1.00  0.00     0.000 HD 
HETATM   22  C   UNL     1      -6.400  18.544  69.268  1.00  0.00    -0.259 A  
HETATM   23  C   UNL     1      -5.673  19.663  69.693  1.00  0.00    -0.289 A  
HETATM   24  C   UNL     1      -5.840  20.854  68.979  1.00  0.00    -0.330 A  
HETATM   25  C   UNL     1      -6.699  20.919  67.885  1.00  0.00    -0.337 A  
HETATM   26  C   UNL     1      -7.425  19.793  67.481  1.00  0.00    -0.306 A  
HETATM   27  C   UNL     1      -7.275  18.580  68.187  1.00  0.00    -0.268 A  
ENDBRANCH  16  17
ENDBRANCH  15  16
ENDBRANCH  13  15
ENDBRANCH  12  13
ENDBRANCH  10  12
ENDBRANCH   2   6
BRANCH   3  28
HETATM   28  N   UNL     1     -10.557   6.195  67.286  1.00  0.00    -0.251 NA 
HETATM   29  H   UNL     1     -10.697   6.049  68.287  1.00  0.00     0.000 HD 
HETATM   30  O   UNL     1     -11.385   5.665  66.286  1.00  0.00    -0.734 OA 
HETATM   31  H   UNL     1     -12.092   5.152  66.659  1.00  0.00     0.000 HD 
ENDBRANCH   3  28
TORSDOF 7
ENDMDL
MODEL      215
REMARK 921   NORMALIZED FREE ENERGY PREDICTED BY IDOCK:   -3.71 KCAL/MOL
REMARK 922        TOTAL FREE ENERGY PREDICTED BY IDOCK:   -7.85 KCAL/MOL
REMARK 923 INTER-LIGAND FREE ENERGY PREDICTED BY IDOCK:   -5.13 KCAL/MOL
REMARK 924 INTRA-LIGAND FREE ENERGY PREDICTED BY IDOCK:   -2.73 KCAL/MOL
REMARK 927      BINDING AFFINITY PREDICTED BY RF-SCORE:    0.00 PKD
ROOT
HETATM    1  C   UNL     1      -9.935   9.563  70.510  1.00  0.00    -0.335 C  
HETATM    2  C   UNL     1      -9.198   8.751  69.737  1.00  0.00    -0.155 C  
HETATM    3  C   UNL     1     -10.910  10.457  69.875  1.00  0.00    -0.298 C  
HETATM    4  H   UNL     1     -12.586  11.313  70.272  1.00  0.00     0.000 HD 
HETATM    5  O   UNL     1     -11.955  10.734  70.683  1.00  0.00    -0.311 OA 
ENDROOT
BRANCH   2   6
HETATM    6  C   UNL     1      -8.233   7.833  70.332  1.00  0.00    -0.121 A  
HETATM    7  C   UNL     1      -8.221   7.618  71.712  1.00  0.00    -0.118 A  
HETATM    8  C   UNL     1      -7.370   6.656  72.262  1.00  0.00    -0.089 A  
HETATM    9  C   UNL     1      -7.360   7.119  69.508  1.00  0.00    -0.089 A  
HETATM   10  C   UNL     1      -6.528   5.900  71.436  1.00  0.00    -0.049 A  
HETATM   11  C   UNL     1      -6.514   6.156  70.057  1.00  0.00    -0.039 A  
BRANCH  10  12
HETATM   12  C   UNL     1      -5.749   4.739  72.003  1.00  0.00    -0.012 C  
BRANCH  12  13
HETATM   13  N   UNL     1      -6.615   3.666  72.494  1.00  0.00    -0.020 NA 
HETATM   14  H   UNL     1      -7.436   4.038  72.971  1.00  0.00     0.000 HD 
BRANCH  13  15
HETATM   15  C   UNL     1      -6.993   2.740  71.413  1.00  0.00    -0.032 C  
BRANCH  15  16
HETATM   16  C   UNL     1      -8.503   2.467  71.338  1.00  0.00    -0.090 C  
BRANCH  16  17
HETATM   17  C   UNL     1      -9.212   3.384  70.389  1.00  0.00    -0.221 A  
HETATM   18  C   UNL     1      -9.150   3.379  69.005  1.00  0.00    -0.143 A  
HETATM   19  N   UNL     1      -9.913   4.429  68.553  1.00  0.00    -0.061 NA 
HETATM   20  C   UNL     1      -8.434   2.498  68.047  1.00  0.00    -0.097 C  
HETATM   21  H   UNL     1     -10.041   4.672  67.570  1.00  0.00     0.000 HD 
HETATM   22  C   UNL     1     -10.479   5.106  69.603  1.00  0.00    -0.191 A  
HETATM   23  C   UNL     1     -11.312   6.232  69.606  1.00  0.00    -0.492 A  
HETATM   24  C   UNL     1     -11.753   6.710  70.843  1.00  0.00    -0.431 A  
HETATM   25  C   UNL     1     -11.375   6.085  72.029  1.00  0.00    -0.345 A  
HETATM   26  C   UNL     1     -10.535   4.966  72.008  1.00  0.00    -0.245 A  
HETATM   27  C   UNL     1     -10.075   4.465  70.771  1.00  0.00    -0.199 A  
ENDBRANCH  16  17
ENDBRANCH  15  16
ENDBRANCH  13  15
ENDBRANCH  12  13
ENDBRANCH  10  12
ENDBRANCH   2   6
BRANCH   3  28
HETATM   28  N   UNL     1     -10.798  10.940  68.680  1.00  0.00    -0.200 NA 
HETATM   29  H   UNL     1      -9.930  11.302  68.284  1.00  0.00     0.000 HD 
HETATM   30  O   UNL     1     -12.024  10.903  67.999  1.00  0.00    -0.744 OA 
HETATM   31  H   UNL     1     -11.941  11.257  67.121  1.00  0.00     0.000 HD 
ENDBRANCH   3  28
TORSDOF 7
ENDMDL
MODEL      216
REMARK 921   NORMALIZED FREE ENERGY PREDICTED BY IDOCK:   -3.68 KCAL/MOL
REMARK 922        TOTAL FREE ENERGY PREDICTED BY IDOCK:   -7.82 KCAL/MOL
REMARK 923 INTER-LIGAND FREE ENERGY PREDICTED BY IDOCK:   -6.69 KCAL/MOL
REMARK 924 INTRA-LIGAND FREE ENERGY PREDICTED BY IDOCK:   -1.13 KCAL/MOL
REMARK 927      BINDING AFFINITY PREDICTED BY RF-SCORE:    0.00 PKD
ROOT
HETATM    1  C   UNL     1      -7.597   6.857  65.060  1.00  0.00    -0.104 C  
HETATM    2  C   UNL     1      -8.527   6.453  65.939  1.00  0.00    -0.147 C  
HETATM    3  C   UNL     1      -7.057   5.889  64.100  1.00  0.00    -0.053 C  
HETATM    4  H   UNL     1      -6.304   5.844  62.330  1.00  0.00     0.000 HD 
HETATM    5  O   UNL     1      -6.654   6.472  62.952  1.00  0.00    -0.037 OA 
ENDROOT
BRANCH   2   6
HETATM    6  C   UNL     1      -9.103   7.392  66.894  1.00  0.00    -0.164 A  
HETATM    7  C   UNL     1      -9.951   8.413  66.458  1.00  0.00    -0.335 A  
HETATM    8  C   UNL     1     -10.587   9.239  67.389  1.00  0.00    -0.324 A  
HETATM    9  C   UNL     1      -8.855   7.228  68.259  1.00  0.00    -0.127 A  
HETATM   10  C   UNL     1     -10.382   9.048  68.762  1.00  0.00    -0.236 A  
HETATM   11  C   UNL     1      -9.493   8.051  69.188  1.00  0.00    -0.155 A  
BRANCH  10  12
HETATM   12  C   UNL     1     -11.207   9.813  69.766  1.00  0.00    -0.202 C  
BRANCH  12  13
HETATM   13  N   UNL     1     -12.222  10.657  69.135  1.00  0.00    -0.731 NA 
HETATM   14  H   UNL     1     -13.164  10.374  69.406  1.00  0.00     0.000 HD 
BRANCH  13  15
HETATM   15  C   UNL     1     -11.988  12.084  69.414  1.00  0.00    -0.275 C  
BRANCH  15  16
HETATM   16  C   UNL     1     -10.715  12.638  68.756  1.00  0.00    -0.240 C  
BRANCH  16  17
HETATM   17  C   UNL     1     -11.006  13.639  67.681  1.00  0.00    -0.283 A  
HETATM   18  C   UNL     1     -10.968  15.021  67.780  1.00  0.00    -0.298 A  
HETATM   19  N   UNL     1     -11.361  15.534  66.568  1.00  0.00    -0.108 NA 
HETATM   20  C   UNL     1     -10.613  15.925  68.904  1.00  0.00    -0.244 C  
HETATM   21  H   UNL     1     -11.436  16.529  66.355  1.00  0.00     0.000 HD 
HETATM   22  C   UNL     1     -11.640  14.525  65.680  1.00  0.00    -0.344 A  
HETATM   23  C   UNL     1     -12.078  14.589  64.352  1.00  0.00    -0.492 A  
HETATM   24  C   UNL     1     -12.277  13.381  63.676  1.00  0.00    -0.480 A  
HETATM   25  C   UNL     1     -12.045  12.161  64.305  1.00  0.00    -0.465 A  
HETATM   26  C   UNL     1     -11.616  12.116  65.636  1.00  0.00    -0.409 A  
HETATM   27  C   UNL     1     -11.410  13.322  66.341  1.00  0.00    -0.341 A  
ENDBRANCH  16  17
ENDBRANCH  15  16
ENDBRANCH  13  15
ENDBRANCH  12  13
ENDBRANCH  10  12
ENDBRANCH   2   6
BRANCH   3  28
HETATM   28  N   UNL     1      -6.963   4.616  64.312  1.00  0.00    -0.048 NA 
HETATM   29  H   UNL     1      -6.536   4.199  65.140  1.00  0.00     0.000 HD 
HETATM   30  O   UNL     1      -7.522   3.881  63.256  1.00  0.00    -0.050 OA 
HETATM   31  H   UNL     1      -7.453   2.946  63.412  1.00  0.00     0.000 HD 
ENDBRANCH   3  28
TORSDOF 7
ENDMDL
MODEL      217
REMARK 921   NORMALIZED FREE ENERGY PREDICTED BY IDOCK:   -3.67 KCAL/MOL
REMARK 922        TOTAL FREE ENERGY PREDICTED BY IDOCK:   -7.80 KCAL/MOL
REMARK 923 INTER-LIGAND FREE ENERGY PREDICTED BY IDOCK:   -6.47 KCAL/MOL
REMARK 924 INTRA-LIGAND FREE ENERGY PREDICTED BY IDOCK:   -1.33 KCAL/MOL
REMARK 927      BINDING AFFINITY PREDICTED BY RF-SCORE:    0.00 PKD
ROOT
HETATM    1  C   UNL     1     -10.918  12.278  65.365  1.00  0.00    -0.341 C  
HETATM    2  C   UNL     1     -10.058  11.456  64.746  1.00  0.00    -0.326 C  
HETATM    3  C   UNL     1     -12.034  12.847  64.602  1.00  0.00    -0.392 C  
HETATM    4  H   UNL     1     -13.829  13.478  64.883  1.00  0.00     0.000 HD 
HETATM    5  O   UNL     1     -13.106  13.110  65.377  1.00  0.00    -0.618 OA 
ENDROOT
BRANCH   2   6
HETATM    6  C   UNL     1      -8.948  10.855  65.476  1.00  0.00    -0.213 A  
HETATM    7  C   UNL     1      -8.518  11.405  66.686  1.00  0.00    -0.171 A  
HETATM    8  C   UNL     1      -7.529  10.760  67.434  1.00  0.00    -0.098 A  
HETATM    9  C   UNL     1      -8.356   9.686  64.993  1.00  0.00    -0.146 A  
HETATM   10  C   UNL     1      -6.966   9.560  66.980  1.00  0.00    -0.085 A  
HETATM   11  C   UNL     1      -7.372   9.041  65.742  1.00  0.00    -0.089 A  
BRANCH  10  12
HETATM   12  C   UNL     1      -6.039   8.771  67.871  1.00  0.00    -0.051 C  
BRANCH  12  13
HETATM   13  N   UNL     1      -6.481   7.389  68.061  1.00  0.00    -0.048 NA 
HETATM   14  H   UNL     1      -5.692   6.764  68.224  1.00  0.00     0.000 HD 
BRANCH  13  15
HETATM   15  C   UNL     1      -7.482   7.284  69.135  1.00  0.00    -0.093 C  
BRANCH  15  16
HETATM   16  C   UNL     1      -8.765   6.552  68.711  1.00  0.00    -0.123 C  
BRANCH  16  17
HETATM   17  C   UNL     1      -9.867   6.682  69.717  1.00  0.00    -0.174 A  
HETATM   18  C   UNL     1     -10.356   5.702  70.566  1.00  0.00    -0.258 A  
HETATM   19  N   UNL     1     -11.400   6.248  71.272  1.00  0.00    -0.297 NA 
HETATM   20  C   UNL     1      -9.957   4.287  70.781  1.00  0.00    -0.224 C  
HETATM   21  H   UNL     1     -11.955   5.749  71.967  1.00  0.00     0.000 HD 
HETATM   22  C   UNL     1     -11.593   7.559  70.916  1.00  0.00    -0.286 A  
HETATM   23  C   UNL     1     -12.540   8.486  71.369  1.00  0.00    -0.309 A  
HETATM   24  C   UNL     1     -12.499   9.774  70.828  1.00  0.00    -0.297 A  
HETATM   25  C   UNL     1     -11.546  10.120  69.873  1.00  0.00    -0.290 A  
HETATM   26  C   UNL     1     -10.613   9.178  69.425  1.00  0.00    -0.232 A  
HETATM   27  C   UNL     1     -10.636   7.870  69.955  1.00  0.00    -0.242 A  
ENDBRANCH  16  17
ENDBRANCH  15  16
ENDBRANCH  13  15
ENDBRANCH  12  13
ENDBRANCH  10  12
ENDBRANCH   2   6
BRANCH   3  28
HETATM   28  N   UNL     1     -12.013  13.081  63.330  1.00  0.00    -0.806 NA 
HETATM   29  H   UNL     1     -11.536  13.874  62.898  1.00  0.00     0.000 HD 
HETATM   30  O   UNL     1     -12.730  12.107  62.619  1.00  0.00    -0.265 OA 
HETATM   31  H   UNL     1     -12.714  12.280  61.685  1.00  0.00     0.000 HD 
ENDBRANCH   3  28
TORSDOF 7
ENDMDL
MODEL      218
REMARK 921   NORMALIZED FREE ENERGY PREDICTED BY IDOCK:   -3.67 KCAL/MOL
REMARK 922        TOTAL FREE ENERGY PREDICTED BY IDOCK:   -7.80 KCAL/MOL
REMARK 923 INTER-LIGAND FREE ENERGY PREDICTED BY IDOCK:   -6.03 KCAL/MOL
REMARK 924 INTRA-LIGAND FREE ENERGY PREDICTED BY IDOCK:   -1.77 KCAL/MOL
REMARK 927      BINDING AFFINITY PREDICTED BY RF-SCORE:    0.00 PKD
ROOT
HETATM    1  C   UNL     1      -7.196   9.875  69.789  1.00  0.00    -0.118 C  
HETATM    2  C   UNL     1      -7.513   9.059  68.772  1.00  0.00    -0.076 C  
HETATM    3  C   UNL     1      -6.639   9.298  71.017  1.00  0.00    -0.091 C  
HETATM    4  H   UNL     1      -5.466   9.782  72.463  1.00  0.00     0.000 HD 
HETATM    5  O   UNL     1      -5.826  10.156  71.667  1.00  0.00    -0.288 OA 
ENDROOT
BRANCH   2   6
HETATM    6  C   UNL     1      -8.049   9.598  67.527  1.00  0.00    -0.114 A  
HETATM    7  C   UNL     1      -7.188  10.050  66.524  1.00  0.00    -0.101 A  
HETATM    8  C   UNL     1      -7.704  10.461  65.293  1.00  0.00    -0.124 A  
HETATM    9  C   UNL     1      -9.429   9.601  67.313  1.00  0.00    -0.175 A  
HETATM   10  C   UNL     1      -9.084  10.419  65.053  1.00  0.00    -0.237 A  
HETATM   11  C   UNL     1      -9.944  10.008  66.082  1.00  0.00    -0.322 A  
BRANCH  10  12
HETATM   12  C   UNL     1      -9.623  10.684  63.670  1.00  0.00    -0.314 C  
BRANCH  12  13
HETATM   13  N   UNL     1      -9.798  12.111  63.397  1.00  0.00    -0.601 NA 
HETATM   14  H   UNL     1      -9.516  12.346  62.445  1.00  0.00     0.000 HD 
BRANCH  13  15
HETATM   15  C   UNL     1     -11.176  12.550  63.674  1.00  0.00    -0.483 C  
BRANCH  15  16
HETATM   16  C   UNL     1     -11.387  13.041  65.115  1.00  0.00    -0.320 C  
BRANCH  16  17
HETATM   17  C   UNL     1     -10.612  14.285  65.422  1.00  0.00    -0.367 A  
HETATM   18  C   UNL     1     -10.875  15.574  64.986  1.00  0.00    -0.450 A  
HETATM   19  N   UNL     1      -9.875  16.386  65.465  1.00  0.00    -0.533 NA 
HETATM   20  C   UNL     1     -11.966  16.134  64.147  1.00  0.00     0.338 C  
HETATM   21  H   UNL     1      -9.808  17.388  65.290  1.00  0.00     0.000 HD 
HETATM   22  C   UNL     1      -8.979  15.663  66.211  1.00  0.00    -0.342 A  
HETATM   23  C   UNL     1      -7.816  16.078  66.871  1.00  0.00    -0.284 A  
HETATM   24  C   UNL     1      -7.088  15.111  67.572  1.00  0.00    -0.225 A  
HETATM   25  C   UNL     1      -7.510  13.784  67.611  1.00  0.00    -0.187 A  
HETATM   26  C   UNL     1      -8.670  13.387  66.937  1.00  0.00    -0.154 A  
HETATM   27  C   UNL     1      -9.421  14.343  66.220  1.00  0.00    -0.297 A  
ENDBRANCH  16  17
ENDBRANCH  15  16
ENDBRANCH  13  15
ENDBRANCH  12  13
ENDBRANCH  10  12
ENDBRANCH   2   6
BRANCH   3  28
HETATM   28  N   UNL     1      -6.890   8.104  71.450  1.00  0.00    -0.052 NA 
HETATM   29  H   UNL     1      -6.299   7.291  71.272  1.00  0.00     0.000 HD 
HETATM   30  O   UNL     1      -8.079   8.071  72.194  1.00  0.00    -0.113 OA 
HETATM   31  H   UNL     1      -8.262   7.194  72.511  1.00  0.00     0.000 HD 
ENDBRANCH   3  28
TORSDOF 7
ENDMDL
MODEL      219
REMARK 921   NORMALIZED FREE ENERGY PREDICTED BY IDOCK:   -3.66 KCAL/MOL
REMARK 922        TOTAL FREE ENERGY PREDICTED BY IDOCK:   -7.79 KCAL/MOL
REMARK 923 INTER-LIGAND FREE ENERGY PREDICTED BY IDOCK:   -6.92 KCAL/MOL
REMARK 924 INTRA-LIGAND FREE ENERGY PREDICTED BY IDOCK:   -0.86 KCAL/MOL
REMARK 927      BINDING AFFINITY PREDICTED BY RF-SCORE:    0.00 PKD
ROOT
HETATM    1  C   UNL     1      -8.896   3.842  65.193  1.00  0.00    -0.126 C  
HETATM    2  C   UNL     1      -9.698   4.170  66.217  1.00  0.00    -0.219 C  
HETATM    3  C   UNL     1      -9.416   2.972  64.132  1.00  0.00    -0.139 C  
HETATM    4  H   UNL     1      -9.160   2.638  62.255  1.00  0.00     0.000 HD 
HETATM    5  O   UNL     1      -8.823   3.202  62.942  1.00  0.00    -0.091 OA 
ENDROOT
BRANCH   2   6
HETATM    6  C   UNL     1      -9.225   5.050  67.279  1.00  0.00    -0.127 A  
HETATM    7  C   UNL     1      -7.985   5.685  67.171  1.00  0.00    -0.102 A  
HETATM    8  C   UNL     1      -7.587   6.611  68.139  1.00  0.00    -0.104 A  
HETATM    9  C   UNL     1     -10.044   5.305  68.381  1.00  0.00    -0.224 A  
HETATM   10  C   UNL     1      -8.427   6.910  69.220  1.00  0.00    -0.129 A  
HETATM   11  C   UNL     1      -9.648   6.233  69.345  1.00  0.00    -0.157 A  
BRANCH  10  12
HETATM   12  C   UNL     1      -8.082   8.039  70.159  1.00  0.00    -0.114 C  
BRANCH  12  13
HETATM   13  N   UNL     1      -9.032   9.149  70.078  1.00  0.00    -0.171 NA 
HETATM   14  H   UNL     1      -8.882   9.825  70.827  1.00  0.00     0.000 HD 
BRANCH  13  15
HETATM   15  C   UNL     1      -8.998   9.795  68.755  1.00  0.00    -0.133 C  
BRANCH  15  16
HETATM   16  C   UNL     1     -10.225   9.483  67.886  1.00  0.00    -0.251 C  
BRANCH  16  17
HETATM   17  C   UNL     1     -10.854  10.713  67.307  1.00  0.00    -0.345 A  
HETATM   18  C   UNL     1     -11.622  11.659  67.966  1.00  0.00    -0.313 A  
HETATM   19  N   UNL     1     -12.035  12.580  67.033  1.00  0.00    -0.531 NA 
HETATM   20  C   UNL     1     -12.030  11.790  69.389  1.00  0.00    -0.361 C  
HETATM   21  H   UNL     1     -12.625  13.387  67.236  1.00  0.00     0.000 HD 
HETATM   22  C   UNL     1     -11.545  12.266  65.790  1.00  0.00    -0.388 A  
HETATM   23  C   UNL     1     -11.721  12.915  64.562  1.00  0.00    -0.416 A  
HETATM   24  C   UNL     1     -11.088  12.367  63.442  1.00  0.00    -0.465 A  
HETATM   25  C   UNL     1     -10.310  11.216  63.550  1.00  0.00    -0.446 A  
HETATM   26  C   UNL     1     -10.153  10.576  64.784  1.00  0.00    -0.406 A  
HETATM   27  C   UNL     1     -10.784  11.109  65.929  1.00  0.00    -0.261 A  
ENDBRANCH  16  17
ENDBRANCH  15  16
ENDBRANCH  13  15
ENDBRANCH  12  13
ENDBRANCH  10  12
ENDBRANCH   2   6
BRANCH   3  28
HETATM   28  N   UNL     1     -10.335   2.077  64.298  1.00  0.00    -0.347 NA 
HETATM   29  H   UNL     1     -10.240   1.259  64.900  1.00  0.00     0.000 HD 
HETATM   30  O   UNL     1     -11.480   2.376  63.543  1.00  0.00    -0.555 OA 
HETATM   31  H   UNL     1     -12.154   1.718  63.665  1.00  0.00     0.000 HD 
ENDBRANCH   3  28
TORSDOF 7
ENDMDL
MODEL      220
REMARK 921   NORMALIZED FREE ENERGY PREDICTED BY IDOCK:   -3.65 KCAL/MOL
REMARK 922        TOTAL FREE ENERGY PREDICTED BY IDOCK:   -7.78 KCAL/MOL
REMARK 923 INTER-LIGAND FREE ENERGY PREDICTED BY IDOCK:   -7.16 KCAL/MOL
REMARK 924 INTRA-LIGAND FREE ENERGY PREDICTED BY IDOCK:   -0.62 KCAL/MOL
REMARK 927      BINDING AFFINITY PREDICTED BY RF-SCORE:    0.00 PKD
ROOT
HETATM    1  C   UNL     1      -9.129  18.653  67.647  1.00  0.00    -0.294 C  
HETATM    2  C   UNL     1      -8.727  17.617  66.895  1.00  0.00    -0.262 C  
HETATM    3  C   UNL     1      -8.955  20.016  67.132  1.00  0.00    -0.346 C  
HETATM    4  H   UNL     1      -9.770  21.752  67.279  1.00  0.00     0.000 HD 
HETATM    5  O   UNL     1      -9.883  20.869  67.613  1.00  0.00    -0.364 OA 
ENDROOT
BRANCH   2   6
HETATM    6  C   UNL     1      -8.902  16.248  67.363  1.00  0.00    -0.198 A  
HETATM    7  C   UNL     1     -10.002  15.906  68.154  1.00  0.00    -0.222 A  
HETATM    8  C   UNL     1     -10.222  14.572  68.506  1.00  0.00    -0.240 A  
HETATM    9  C   UNL     1      -7.997  15.261  66.965  1.00  0.00    -0.243 A  
HETATM   10  C   UNL     1      -9.346  13.569  68.067  1.00  0.00    -0.213 A  
HETATM   11  C   UNL     1      -8.220  13.928  67.313  1.00  0.00    -0.176 A  
BRANCH  10  12
HETATM   12  C   UNL     1      -9.684  12.116  68.289  1.00  0.00    -0.216 C  
BRANCH  12  13
HETATM   13  N   UNL     1      -8.734  11.447  69.178  1.00  0.00    -0.374 NA 
HETATM   14  H   UNL     1      -9.213  10.890  69.885  1.00  0.00     0.000 HD 
BRANCH  13  15
HETATM   15  C   UNL     1      -7.764  10.637  68.422  1.00  0.00    -0.106 C  
BRANCH  15  16
HETATM   16  C   UNL     1      -7.714   9.166  68.864  1.00  0.00    -0.083 C  
BRANCH  16  17
HETATM   17  C   UNL     1      -9.075   8.579  69.079  1.00  0.00    -0.146 A  
HETATM   18  C   UNL     1     -10.063   8.365  68.131  1.00  0.00    -0.200 A  
HETATM   19  N   UNL     1     -11.162   7.863  68.785  1.00  0.00    -0.254 NA 
HETATM   20  C   UNL     1     -10.096   8.595  66.664  1.00  0.00    -0.364 C  
HETATM   21  H   UNL     1     -12.044   7.620  68.334  1.00  0.00     0.000 HD 
HETATM   22  C   UNL     1     -10.911   7.732  70.128  1.00  0.00    -0.241 A  
HETATM   23  C   UNL     1     -11.741   7.276  71.159  1.00  0.00    -0.334 A  
HETATM   24  C   UNL     1     -11.211   7.242  72.452  1.00  0.00    -0.321 A  
HETATM   25  C   UNL     1      -9.902   7.649  72.701  1.00  0.00    -0.262 A  
HETATM   26  C   UNL     1      -9.090   8.111  71.659  1.00  0.00    -0.214 A  
HETATM   27  C   UNL     1      -9.603   8.156  70.345  1.00  0.00    -0.171 A  
ENDBRANCH  16  17
ENDBRANCH  15  16
ENDBRANCH  13  15
ENDBRANCH  12  13
ENDBRANCH  10  12
ENDBRANCH   2   6
BRANCH   3  28
HETATM   28  N   UNL     1      -8.023  20.381  66.312  1.00  0.00    -0.522 NA 
HETATM   29  H   UNL     1      -7.911  20.012  65.367  1.00  0.00     0.000 HD 
HETATM   30  O   UNL     1      -7.187  21.348  66.889  1.00  0.00    -0.793 OA 
HETATM   31  H   UNL     1      -6.503  21.615  66.286  1.00  0.00     0.000 HD 
ENDBRANCH   3  28
TORSDOF 7
ENDMDL
MODEL      221
REMARK 921   NORMALIZED FREE ENERGY PREDICTED BY IDOCK:   -3.65 KCAL/MOL
REMARK 922        TOTAL FREE ENERGY PREDICTED BY IDOCK:   -7.78 KCAL/MOL
REMARK 923 INTER-LIGAND FREE ENERGY PREDICTED BY IDOCK:   -6.86 KCAL/MOL
REMARK 924 INTRA-LIGAND FREE ENERGY PREDICTED BY IDOCK:   -0.92 KCAL/MOL
REMARK 927      BINDING AFFINITY PREDICTED BY RF-SCORE:    0.00 PKD
ROOT
HETATM    1  C   UNL     1     -10.054   6.289  71.471  1.00  0.00    -0.218 C  
HETATM    2  C   UNL     1     -11.104   6.453  70.653  1.00  0.00    -0.376 C  
HETATM    3  C   UNL     1     -10.194   5.417  72.642  1.00  0.00    -0.185 C  
HETATM    4  H   UNL     1      -9.115   4.286  73.765  1.00  0.00     0.000 HD 
HETATM    5  O   UNL     1      -9.024   4.851  73.006  1.00  0.00    -0.113 OA 
ENDROOT
BRANCH   2   6
HETATM    6  C   UNL     1     -10.997   7.295  69.467  1.00  0.00    -0.182 A  
HETATM    7  C   UNL     1     -10.925   8.685  69.591  1.00  0.00    -0.099 A  
HETATM    8  C   UNL     1     -10.711   9.478  68.461  1.00  0.00    -0.222 A  
HETATM    9  C   UNL     1     -10.902   6.703  68.206  1.00  0.00    -0.322 A  
HETATM   10  C   UNL     1     -10.564   8.887  67.199  1.00  0.00    -0.301 A  
HETATM   11  C   UNL     1     -10.685   7.495  67.078  1.00  0.00    -0.367 A  
BRANCH  10  12
HETATM   12  C   UNL     1     -10.150   9.722  66.013  1.00  0.00    -0.251 C  
BRANCH  12  13
HETATM   13  N   UNL     1      -9.096  10.683  66.341  1.00  0.00    -0.161 NA 
HETATM   14  H   UNL     1      -8.284  10.566  65.735  1.00  0.00     0.000 HD 
BRANCH  13  15
HETATM   15  C   UNL     1      -9.598  12.067  66.309  1.00  0.00    -0.231 C  
BRANCH  15  16
HETATM   16  C   UNL     1      -8.889  13.001  67.301  1.00  0.00    -0.208 C  
BRANCH  16  17
HETATM   17  C   UNL     1      -9.763  14.125  67.765  1.00  0.00    -0.223 A  
HETATM   18  C   UNL     1      -9.767  15.435  67.312  1.00  0.00    -0.212 A  
HETATM   19  N   UNL     1     -10.690  16.128  68.058  1.00  0.00    -0.310 NA 
HETATM   20  C   UNL     1      -8.981  16.121  66.254  1.00  0.00    -0.379 C  
HETATM   21  H   UNL     1     -10.897  17.120  67.947  1.00  0.00     0.000 HD 
HETATM   22  C   UNL     1     -11.295  15.302  68.972  1.00  0.00    -0.300 A  
HETATM   23  C   UNL     1     -12.276  15.585  69.930  1.00  0.00    -0.351 A  
HETATM   24  C   UNL     1     -12.720  14.531  70.735  1.00  0.00    -0.425 A  
HETATM   25  C   UNL     1     -12.202  13.246  70.583  1.00  0.00    -0.417 A  
HETATM   26  C   UNL     1     -11.216  12.985  69.626  1.00  0.00    -0.080 A  
HETATM   27  C   UNL     1     -10.749  14.033  68.803  1.00  0.00    -0.272 A  
ENDBRANCH  16  17
ENDBRANCH  15  16
ENDBRANCH  13  15
ENDBRANCH  12  13
ENDBRANCH  10  12
ENDBRANCH   2   6
BRANCH   3  28
HETATM   28  N   UNL     1     -11.303   5.203  73.274  1.00  0.00    -0.446 NA 
HETATM   29  H   UNL     1     -12.040   5.899  73.395  1.00  0.00     0.000 HD 
HETATM   30  O   UNL     1     -11.363   3.893  73.770  1.00  0.00    -0.205 OA 
HETATM   31  H   UNL     1     -12.178   3.736  74.233  1.00  0.00     0.000 HD 
ENDBRANCH   3  28
TORSDOF 7
ENDMDL
MODEL      222
REMARK 921   NORMALIZED FREE ENERGY PREDICTED BY IDOCK:   -3.65 KCAL/MOL
REMARK 922        TOTAL FREE ENERGY PREDICTED BY IDOCK:   -7.77 KCAL/MOL
REMARK 923 INTER-LIGAND FREE ENERGY PREDICTED BY IDOCK:   -6.81 KCAL/MOL
REMARK 924 INTRA-LIGAND FREE ENERGY PREDICTED BY IDOCK:   -0.96 KCAL/MOL
REMARK 927      BINDING AFFINITY PREDICTED BY RF-SCORE:    0.00 PKD
ROOT
HETATM    1  C   UNL     1      -9.872   8.009  68.510  1.00  0.00    -0.185 C  
HETATM    2  C   UNL     1      -8.726   8.284  67.868  1.00  0.00    -0.135 C  
HETATM    3  C   UNL     1     -10.351   6.623  68.547  1.00  0.00    -0.192 C  
HETATM    4  H   UNL     1     -11.395   5.464  69.673  1.00  0.00     0.000 HD 
HETATM    5  O   UNL     1     -11.084   6.362  69.649  1.00  0.00    -0.327 OA 
ENDROOT
BRANCH   2   6
HETATM    6  C   UNL     1      -8.207   9.646  67.827  1.00  0.00    -0.114 A  
HETATM    7  C   UNL     1      -8.361  10.427  66.679  1.00  0.00    -0.127 A  
HETATM    8  C   UNL     1      -7.960  11.765  66.685  1.00  0.00    -0.070 A  
HETATM    9  C   UNL     1      -7.608  10.191  68.965  1.00  0.00    -0.096 A  
HETATM   10  C   UNL     1      -7.405  12.333  67.840  1.00  0.00    -0.111 A  
HETATM   11  C   UNL     1      -7.212  11.529  68.972  1.00  0.00    -0.106 A  
BRANCH  10  12
HETATM   12  C   UNL     1      -7.146  13.818  67.907  1.00  0.00    -0.158 C  
BRANCH  12  13
HETATM   13  N   UNL     1      -8.107  14.593  67.121  1.00  0.00    -0.280 NA 
HETATM   14  H   UNL     1      -8.376  14.101  66.270  1.00  0.00     0.000 HD 
BRANCH  13  15
HETATM   15  C   UNL     1      -9.284  14.966  67.923  1.00  0.00    -0.183 C  
BRANCH  15  16
HETATM   16  C   UNL     1     -10.568  14.231  67.508  1.00  0.00    -0.261 C  
BRANCH  16  17
HETATM   17  C   UNL     1     -11.251  13.561  68.661  1.00  0.00    -0.311 A  
HETATM   18  C   UNL     1     -11.532  12.212  68.808  1.00  0.00    -0.307 A  
HETATM   19  N   UNL     1     -12.216  12.059  69.990  1.00  0.00    -0.245 NA 
HETATM   20  C   UNL     1     -11.241  11.038  67.946  1.00  0.00    -0.375 C  
HETATM   21  H   UNL     1     -12.559  11.168  70.350  1.00  0.00     0.000 HD 
HETATM   22  C   UNL     1     -12.373  13.267  70.621  1.00  0.00    -0.339 A  
HETATM   23  C   UNL     1     -13.009  13.576  71.830  1.00  0.00    -0.439 A  
HETATM   24  C   UNL     1     -13.010  14.913  72.239  1.00  0.00    -0.423 A  
HETATM   25  C   UNL     1     -12.398  15.899  71.468  1.00  0.00    -0.503 A  
HETATM   26  C   UNL     1     -11.776  15.572  70.259  1.00  0.00    -0.367 A  
HETATM   27  C   UNL     1     -11.763  14.230  69.823  1.00  0.00    -0.367 A  
ENDBRANCH  16  17
ENDBRANCH  15  16
ENDBRANCH  13  15
ENDBRANCH  12  13
ENDBRANCH  10  12
ENDBRANCH   2   6
BRANCH   3  28
HETATM   28  N   UNL     1     -10.113   5.736  67.636  1.00  0.00    -0.157 NA 
HETATM   29  H   UNL     1      -9.382   5.026  67.700  1.00  0.00     0.000 HD 
HETATM   30  O   UNL     1     -10.988   5.875  66.548  1.00  0.00    -0.628 OA 
HETATM   31  H   UNL     1     -10.813   5.223  65.879  1.00  0.00     0.000 HD 
ENDBRANCH   3  28
TORSDOF 7
ENDMDL
MODEL      223
REMARK 921   NORMALIZED FREE ENERGY PREDICTED BY IDOCK:   -3.64 KCAL/MOL
REMARK 922        TOTAL FREE ENERGY PREDICTED BY IDOCK:   -7.76 KCAL/MOL
REMARK 923 INTER-LIGAND FREE ENERGY PREDICTED BY IDOCK:   -7.30 KCAL/MOL
REMARK 924 INTRA-LIGAND FREE ENERGY PREDICTED BY IDOCK:   -0.47 KCAL/MOL
REMARK 927      BINDING AFFINITY PREDICTED BY RF-SCORE:    0.00 PKD
ROOT
HETATM    1  C   UNL     1     -10.571  13.953  66.054  1.00  0.00    -0.293 C  
HETATM    2  C   UNL     1     -11.544  13.031  66.096  1.00  0.00    -0.412 C  
HETATM    3  C   UNL     1     -10.717  15.100  65.150  1.00  0.00    -0.422 C  
HETATM    4  H   UNL     1     -10.166  16.939  65.017  1.00  0.00     0.000 HD 
HETATM    5  O   UNL     1     -10.072  16.196  65.602  1.00  0.00    -0.359 OA 
ENDROOT
BRANCH   2   6
HETATM    6  C   UNL     1     -11.446  11.888  66.997  1.00  0.00    -0.384 A  
HETATM    7  C   UNL     1     -10.844  10.702  66.570  1.00  0.00    -0.168 A  
HETATM    8  C   UNL     1     -10.654   9.651  67.471  1.00  0.00    -0.339 A  
HETATM    9  C   UNL     1     -11.899  12.005  68.312  1.00  0.00    -0.351 A  
HETATM   10  C   UNL     1     -11.060   9.780  68.805  1.00  0.00    -0.140 A  
HETATM   11  C   UNL     1     -11.706  10.957  69.213  1.00  0.00    -0.395 A  
BRANCH  10  12
HETATM   12  C   UNL     1     -10.690   8.725  69.818  1.00  0.00    -0.218 C  
BRANCH  12  13
HETATM   13  N   UNL     1     -11.818   7.862  70.170  1.00  0.00    -0.441 NA 
HETATM   14  H   UNL     1     -12.653   8.103  69.637  1.00  0.00     0.000 HD 
BRANCH  13  15
HETATM   15  C   UNL     1     -11.476   6.437  70.021  1.00  0.00    -0.428 C  
BRANCH  15  16
HETATM   16  C   UNL     1     -11.186   6.023  68.570  1.00  0.00    -0.147 C  
BRANCH  16  17
HETATM   17  C   UNL     1      -9.787   5.523  68.378  1.00  0.00    -0.186 A  
HETATM   18  C   UNL     1      -8.739   6.167  67.741  1.00  0.00    -0.112 A  
HETATM   19  N   UNL     1      -7.661   5.315  67.752  1.00  0.00    -0.091 NA 
HETATM   20  C   UNL     1      -8.638   7.505  67.103  1.00  0.00    -0.121 C  
HETATM   21  H   UNL     1      -6.751   5.525  67.342  1.00  0.00     0.000 HD 
HETATM   22  C   UNL     1      -7.976   4.142  68.390  1.00  0.00    -0.073 A  
HETATM   23  C   UNL     1      -7.194   3.004  68.621  1.00  0.00    -0.049 A  
HETATM   24  C   UNL     1      -7.781   1.942  69.315  1.00  0.00    -0.045 A  
HETATM   25  C   UNL     1      -9.099   2.019  69.761  1.00  0.00    -0.166 A  
HETATM   26  C   UNL     1      -9.868   3.161  69.513  1.00  0.00     0.225 A  
HETATM   27  C   UNL     1      -9.298   4.245  68.812  1.00  0.00    -0.216 A  
ENDBRANCH  16  17
ENDBRANCH  15  16
ENDBRANCH  13  15
ENDBRANCH  12  13
ENDBRANCH  10  12
ENDBRANCH   2   6
BRANCH   3  28
HETATM   28  N   UNL     1     -11.380  15.083  64.039  1.00  0.00    -0.443 NA 
HETATM   29  H   UNL     1     -11.599  14.237  63.512  1.00  0.00     0.000 HD 
HETATM   30  O   UNL     1     -11.758  16.377  63.652  1.00  0.00    -1.520 OA 
HETATM   31  H   UNL     1     -12.245  16.365  62.837  1.00  0.00     0.000 HD 
ENDBRANCH   3  28
TORSDOF 7
ENDMDL
MODEL      224
REMARK 921   NORMALIZED FREE ENERGY PREDICTED BY IDOCK:   -3.64 KCAL/MOL
REMARK 922        TOTAL FREE ENERGY PREDICTED BY IDOCK:   -7.76 KCAL/MOL
REMARK 923 INTER-LIGAND FREE ENERGY PREDICTED BY IDOCK:   -6.99 KCAL/MOL
REMARK 924 INTRA-LIGAND FREE ENERGY PREDICTED BY IDOCK:   -0.77 KCAL/MOL
REMARK 927      BINDING AFFINITY PREDICTED BY RF-SCORE:    0.00 PKD
ROOT
HETATM    1  C   UNL     1      -9.158  16.945  67.464  1.00  0.00    -0.222 C  
HETATM    2  C   UNL     1     -10.348  16.357  67.267  1.00  0.00    -0.287 C  
HETATM    3  C   UNL     1      -8.947  18.308  66.964  1.00  0.00    -0.274 C  
HETATM    4  H   UNL     1      -7.909  19.875  67.376  1.00  0.00     0.000 HD 
HETATM    5  O   UNL     1      -8.046  18.992  67.700  1.00  0.00    -0.263 OA 
ENDROOT
BRANCH   2   6
HETATM    6  C   UNL     1     -10.603  15.012  67.767  1.00  0.00    -0.264 A  
HETATM    7  C   UNL     1     -11.910  14.587  68.021  1.00  0.00    -0.350 A  
HETATM    8  C   UNL     1     -12.155  13.263  68.393  1.00  0.00    -0.244 A  
HETATM    9  C   UNL     1      -9.538  14.123  67.932  1.00  0.00    -0.223 A  
HETATM   10  C   UNL     1     -11.096  12.353  68.511  1.00  0.00    -0.296 A  
HETATM   11  C   UNL     1      -9.784  12.800  68.300  1.00  0.00    -0.216 A  
BRANCH  10  12
HETATM   12  C   UNL     1     -11.376  10.887  68.730  1.00  0.00    -0.292 C  
BRANCH  12  13
HETATM   13  N   UNL     1     -12.366  10.654  69.783  1.00  0.00    -0.517 NA 
HETATM   14  H   UNL     1     -13.307  10.567  69.398  1.00  0.00     0.000 HD 
BRANCH  13  15
HETATM   15  C   UNL     1     -12.013   9.486  70.608  1.00  0.00    -0.197 C  
BRANCH  15  16
HETATM   16  C   UNL     1     -10.541   9.063  70.477  1.00  0.00    -0.274 C  
BRANCH  16  17
HETATM   17  C   UNL     1     -10.383   7.611  70.146  1.00  0.00    -0.217 A  
HETATM   18  C   UNL     1     -10.376   7.027  68.890  1.00  0.00    -0.190 A  
HETATM   19  N   UNL     1     -10.262   5.669  69.065  1.00  0.00    -0.200 NA 
HETATM   20  C   UNL     1     -10.479   7.607  67.525  1.00  0.00    -0.336 C  
HETATM   21  H   UNL     1     -10.240   4.986  68.308  1.00  0.00     0.000 HD 
HETATM   22  C   UNL     1     -10.181   5.356  70.399  1.00  0.00    -0.262 A  
HETATM   23  C   UNL     1     -10.067   4.110  71.027  1.00  0.00    -0.130 A  
HETATM   24  C   UNL     1      -9.997   4.091  72.423  1.00  0.00    -0.229 A  
HETATM   25  C   UNL     1     -10.037   5.273  73.159  1.00  0.00    -0.205 A  
HETATM   26  C   UNL     1     -10.161   6.509  72.515  1.00  0.00    -0.189 A  
HETATM   27  C   UNL     1     -10.236   6.554  71.106  1.00  0.00    -0.219 A  
ENDBRANCH  16  17
ENDBRANCH  15  16
ENDBRANCH  13  15
ENDBRANCH  12  13
ENDBRANCH  10  12
ENDBRANCH   2   6
BRANCH   3  28
HETATM   28  N   UNL     1      -9.543  18.817  65.935  1.00  0.00    -0.447 NA 
HETATM   29  H   UNL     1      -9.595  18.368  65.019  1.00  0.00     0.000 HD 
HETATM   30  O   UNL     1     -10.111  20.063  66.238  1.00  0.00    -0.449 OA 
HETATM   31  H   UNL     1     -10.549  20.436  65.481  1.00  0.00     0.000 HD 
ENDBRANCH   3  28
TORSDOF 7
ENDMDL
MODEL      225
REMARK 921   NORMALIZED FREE ENERGY PREDICTED BY IDOCK:   -3.64 KCAL/MOL
REMARK 922        TOTAL FREE ENERGY PREDICTED BY IDOCK:   -7.75 KCAL/MOL
REMARK 923 INTER-LIGAND FREE ENERGY PREDICTED BY IDOCK:   -6.63 KCAL/MOL
REMARK 924 INTRA-LIGAND FREE ENERGY PREDICTED BY IDOCK:   -1.12 KCAL/MOL
REMARK 927      BINDING AFFINITY PREDICTED BY RF-SCORE:    0.00 PKD
ROOT
HETATM    1  C   UNL     1      -8.440  18.782  66.399  1.00  0.00    -0.296 C  
HETATM    2  C   UNL     1      -8.632  17.885  67.378  1.00  0.00    -0.239 C  
HETATM    3  C   UNL     1      -7.585  19.946  66.657  1.00  0.00    -0.269 C  
HETATM    4  H   UNL     1      -6.430  21.155  65.706  1.00  0.00     0.000 HD 
HETATM    5  O   UNL     1      -6.983  20.401  65.538  1.00  0.00    -0.276 OA 
ENDROOT
BRANCH   2   6
HETATM    6  C   UNL     1      -9.458  16.705  67.153  1.00  0.00    -0.236 A  
HETATM    7  C   UNL     1     -10.521  16.412  68.010  1.00  0.00    -0.303 A  
HETATM    8  C   UNL     1     -11.375  15.343  67.725  1.00  0.00    -0.308 A  
HETATM    9  C   UNL     1      -9.221  15.899  66.037  1.00  0.00    -0.372 A  
HETATM   10  C   UNL     1     -11.173  14.562  66.579  1.00  0.00    -0.344 A  
HETATM   11  C   UNL     1     -10.075  14.834  65.750  1.00  0.00    -0.364 A  
BRANCH  10  12
HETATM   12  C   UNL     1     -12.197  13.531  66.173  1.00  0.00    -0.433 C  
BRANCH  12  13
HETATM   13  N   UNL     1     -11.993  12.243  66.837  1.00  0.00    -0.593 NA 
HETATM   14  H   UNL     1     -11.455  11.603  66.253  1.00  0.00     0.000 HD 
BRANCH  13  15
HETATM   15  C   UNL     1     -11.374  12.410  68.163  1.00  0.00    -0.291 C  
BRANCH  15  16
HETATM   16  C   UNL     1     -10.374  11.299  68.519  1.00  0.00    -0.217 C  
BRANCH  16  17
HETATM   17  C   UNL     1      -9.101  11.392  67.736  1.00  0.00    -0.158 A  
HETATM   18  C   UNL     1      -8.113  12.358  67.840  1.00  0.00    -0.161 A  
HETATM   19  N   UNL     1      -7.159  12.079  66.892  1.00  0.00    -0.338 NA 
HETATM   20  C   UNL     1      -7.969  13.538  68.733  1.00  0.00    -0.002 C  
HETATM   21  H   UNL     1      -6.317  12.634  66.734  1.00  0.00     0.000 HD 
HETATM   22  C   UNL     1      -7.492  10.952  66.184  1.00  0.00    -0.107 A  
HETATM   23  C   UNL     1      -6.822  10.318  65.131  1.00  0.00    -0.120 A  
HETATM   24  C   UNL     1      -7.399   9.162  64.597  1.00  0.00    -0.099 A  
HETATM   25  C   UNL     1      -8.598   8.662  65.099  1.00  0.00    -0.200 A  
HETATM   26  C   UNL     1      -9.258   9.314  66.145  1.00  0.00    -0.249 A  
HETATM   27  C   UNL     1      -8.697  10.484  66.700  1.00  0.00    -0.138 A  
ENDBRANCH  16  17
ENDBRANCH  15  16
ENDBRANCH  13  15
ENDBRANCH  12  13
ENDBRANCH  10  12
ENDBRANCH   2   6
BRANCH   3  28
HETATM   28  N   UNL     1      -7.417  20.493  67.817  1.00  0.00    -0.273 NA 
HETATM   29  H   UNL     1      -8.174  20.857  68.398  1.00  0.00     0.000 HD 
HETATM   30  O   UNL     1      -6.061  20.523  68.175  1.00  0.00    -0.246 OA 
HETATM   31  H   UNL     1      -5.938  20.925  69.027  1.00  0.00     0.000 HD 
ENDBRANCH   3  28
TORSDOF 7
ENDMDL
MODEL      226
REMARK 921   NORMALIZED FREE ENERGY PREDICTED BY IDOCK:   -3.63 KCAL/MOL
REMARK 922        TOTAL FREE ENERGY PREDICTED BY IDOCK:   -7.75 KCAL/MOL
REMARK 923 INTER-LIGAND FREE ENERGY PREDICTED BY IDOCK:   -7.81 KCAL/MOL
REMARK 924 INTRA-LIGAND FREE ENERGY PREDICTED BY IDOCK:    0.06 KCAL/MOL
REMARK 927      BINDING AFFINITY PREDICTED BY RF-SCORE:    0.00 PKD
ROOT
HETATM    1  C   UNL     1      -8.108  18.290  66.662  1.00  0.00    -0.281 C  
HETATM    2  C   UNL     1      -8.665  17.548  67.631  1.00  0.00    -0.223 C  
HETATM    3  C   UNL     1      -7.286  19.447  67.034  1.00  0.00    -0.213 C  
HETATM    4  H   UNL     1      -5.801  20.467  66.359  1.00  0.00     0.000 HD 
HETATM    5  O   UNL     1      -6.334  19.717  66.118  1.00  0.00    -0.177 OA 
ENDROOT
BRANCH   2   6
HETATM    6  C   UNL     1      -9.471  16.379  67.300  1.00  0.00    -0.231 A  
HETATM    7  C   UNL     1     -10.773  16.256  67.792  1.00  0.00    -0.325 A  
HETATM    8  C   UNL     1     -11.577  15.190  67.382  1.00  0.00    -0.251 A  
HETATM    9  C   UNL     1      -8.959  15.409  66.436  1.00  0.00    -0.351 A  
HETATM   10  C   UNL     1     -11.087  14.240  66.476  1.00  0.00    -0.323 A  
HETATM   11  C   UNL     1      -9.763  14.346  66.024  1.00  0.00    -0.320 A  
BRANCH  10  12
HETATM   12  C   UNL     1     -12.010  13.200  65.892  1.00  0.00    -0.427 C  
BRANCH  12  13
HETATM   13  N   UNL     1     -11.920  11.914  66.586  1.00  0.00    -0.564 NA 
HETATM   14  H   UNL     1     -11.241  11.297  66.140  1.00  0.00     0.000 HD 
BRANCH  13  15
HETATM   15  C   UNL     1     -11.627  12.092  68.018  1.00  0.00    -0.348 C  
BRANCH  15  16
HETATM   16  C   UNL     1     -11.924  10.846  68.866  1.00  0.00    -0.277 C  
BRANCH  16  17
HETATM   17  C   UNL     1     -10.716  10.336  69.590  1.00  0.00    -0.299 A  
HETATM   18  C   UNL     1      -9.387  10.619  69.320  1.00  0.00    -0.117 A  
HETATM   19  N   UNL     1      -8.621   9.890  70.198  1.00  0.00    -0.321 NA 
HETATM   20  C   UNL     1      -8.745  11.499  68.308  1.00  0.00    -0.162 C  
HETATM   21  H   UNL     1      -7.601   9.896  70.222  1.00  0.00     0.000 HD 
HETATM   22  C   UNL     1      -9.416   9.153  71.039  1.00  0.00    -0.274 A  
HETATM   23  C   UNL     1      -9.064   8.270  72.067  1.00  0.00    -0.267 A  
HETATM   24  C   UNL     1     -10.100   7.653  72.776  1.00  0.00    -0.311 A  
HETATM   25  C   UNL     1     -11.433   7.911  72.465  1.00  0.00    -0.455 A  
HETATM   26  C   UNL     1     -11.765   8.788  71.428  1.00  0.00    -0.369 A  
HETATM   27  C   UNL     1     -10.738   9.422  70.697  1.00  0.00    -0.353 A  
ENDBRANCH  16  17
ENDBRANCH  15  16
ENDBRANCH  13  15
ENDBRANCH  12  13
ENDBRANCH  10  12
ENDBRANCH   2   6
BRANCH   3  28
HETATM   28  N   UNL     1      -7.442  20.145  68.113  1.00  0.00    -0.267 NA 
HETATM   29  H   UNL     1      -8.347  20.436  68.484  1.00  0.00     0.000 HD 
HETATM   30  O   UNL     1      -6.208  20.449  68.706  1.00  0.00    -0.302 OA 
HETATM   31  H   UNL     1      -6.323  20.962  69.497  1.00  0.00     0.000 HD 
ENDBRANCH   3  28
TORSDOF 7
ENDMDL
MODEL      227
REMARK 921   NORMALIZED FREE ENERGY PREDICTED BY IDOCK:   -3.63 KCAL/MOL
REMARK 922        TOTAL FREE ENERGY PREDICTED BY IDOCK:   -7.75 KCAL/MOL
REMARK 923 INTER-LIGAND FREE ENERGY PREDICTED BY IDOCK:   -6.34 KCAL/MOL
REMARK 924 INTRA-LIGAND FREE ENERGY PREDICTED BY IDOCK:   -1.40 KCAL/MOL
REMARK 927      BINDING AFFINITY PREDICTED BY RF-SCORE:    0.00 PKD
ROOT
HETATM    1  C   UNL     1      -9.481   8.927  66.953  1.00  0.00    -0.230 C  
HETATM    2  C   UNL     1      -8.279   9.306  67.410  1.00  0.00    -0.117 C  
HETATM    3  C   UNL     1      -9.757   7.497  66.777  1.00  0.00    -0.216 C  
HETATM    4  H   UNL     1     -11.244   6.276  66.808  1.00  0.00     0.000 HD 
HETATM    5  O   UNL     1     -11.065   7.203  66.922  1.00  0.00    -0.327 OA 
ENDROOT
BRANCH   2   6
HETATM    6  C   UNL     1      -7.975  10.717  67.619  1.00  0.00    -0.110 A  
HETATM    7  C   UNL     1      -6.715  11.225  67.291  1.00  0.00    -0.104 A  
HETATM    8  C   UNL     1      -6.467  12.596  67.390  1.00  0.00    -0.150 A  
HETATM    9  C   UNL     1      -8.971  11.576  68.089  1.00  0.00    -0.172 A  
HETATM   10  C   UNL     1      -7.478  13.471  67.812  1.00  0.00    -0.168 A  
HETATM   11  C   UNL     1      -8.724  12.946  68.183  1.00  0.00    -0.190 A  
BRANCH  10  12
HETATM   12  C   UNL     1      -7.270  14.963  67.741  1.00  0.00    -0.172 C  
BRANCH  12  13
HETATM   13  N   UNL     1      -7.892  15.562  66.560  1.00  0.00    -0.262 NA 
HETATM   14  H   UNL     1      -8.688  15.012  66.237  1.00  0.00     0.000 HD 
BRANCH  13  15
HETATM   15  C   UNL     1      -8.271  16.965  66.801  1.00  0.00    -0.240 C  
BRANCH  15  16
HETATM   16  C   UNL     1      -9.783  17.219  66.705  1.00  0.00    -0.285 C  
BRANCH  16  17
HETATM   17  C   UNL     1     -10.596  15.992  66.983  1.00  0.00    -0.302 A  
HETATM   18  C   UNL     1     -11.146  15.116  66.060  1.00  0.00    -0.312 A  
HETATM   19  N   UNL     1     -11.855  14.170  66.760  1.00  0.00    -0.407 NA 
HETATM   20  C   UNL     1     -11.090  15.075  64.576  1.00  0.00    -0.248 C  
HETATM   21  H   UNL     1     -12.374  13.402  66.334  1.00  0.00     0.000 HD 
HETATM   22  C   UNL     1     -11.771  14.399  68.110  1.00  0.00    -0.342 A  
HETATM   23  C   UNL     1     -12.340  13.698  69.180  1.00  0.00    -0.115 A  
HETATM   24  C   UNL     1     -12.075  14.160  70.473  1.00  0.00    -0.420 A  
HETATM   25  C   UNL     1     -11.270  15.277  70.684  1.00  0.00    -0.353 A  
HETATM   26  C   UNL     1     -10.717  15.970  69.602  1.00  0.00    -0.316 A  
HETATM   27  C   UNL     1     -10.972  15.525  68.287  1.00  0.00    -0.305 A  
ENDBRANCH  16  17
ENDBRANCH  15  16
ENDBRANCH  13  15
ENDBRANCH  12  13
ENDBRANCH  10  12
ENDBRANCH   2   6
BRANCH   3  28
HETATM   28  N   UNL     1      -8.862   6.602  66.507  1.00  0.00    -0.134 NA 
HETATM   29  H   UNL     1      -7.979   6.501  67.009  1.00  0.00     0.000 HD 
HETATM   30  O   UNL     1      -9.260   5.788  65.436  1.00  0.00    -0.346 OA 
HETATM   31  H   UNL     1      -8.603   5.132  65.238  1.00  0.00     0.000 HD 
ENDBRANCH   3  28
TORSDOF 7
ENDMDL
MODEL      228
REMARK 921   NORMALIZED FREE ENERGY PREDICTED BY IDOCK:   -3.61 KCAL/MOL
REMARK 922        TOTAL FREE ENERGY PREDICTED BY IDOCK:   -7.72 KCAL/MOL
REMARK 923 INTER-LIGAND FREE ENERGY PREDICTED BY IDOCK:   -5.69 KCAL/MOL
REMARK 924 INTRA-LIGAND FREE ENERGY PREDICTED BY IDOCK:   -2.04 KCAL/MOL
REMARK 927      BINDING AFFINITY PREDICTED BY RF-SCORE:    0.00 PKD
ROOT
HETATM    1  C   UNL     1      -9.327   8.781  67.110  1.00  0.00    -0.188 C  
HETATM    2  C   UNL     1      -8.225   9.083  67.811  1.00  0.00    -0.109 C  
HETATM    3  C   UNL     1      -9.702   7.372  66.945  1.00  0.00    -0.205 C  
HETATM    4  H   UNL     1     -11.276   6.294  66.695  1.00  0.00     0.000 HD 
HETATM    5  O   UNL     1     -11.033   7.207  66.802  1.00  0.00    -0.305 OA 
ENDROOT
BRANCH   2   6
HETATM    6  C   UNL     1      -7.831  10.473  68.014  1.00  0.00    -0.105 A  
HETATM    7  C   UNL     1      -6.529  10.888  67.726  1.00  0.00    -0.063 A  
HETATM    8  C   UNL     1      -6.190  12.241  67.818  1.00  0.00    -0.101 A  
HETATM    9  C   UNL     1      -8.782  11.404  68.438  1.00  0.00    -0.157 A  
HETATM   10  C   UNL     1      -7.152  13.188  68.193  1.00  0.00    -0.109 A  
HETATM   11  C   UNL     1      -8.444  12.755  68.526  1.00  0.00    -0.044 A  
BRANCH  10  12
HETATM   12  C   UNL     1      -6.839  14.661  68.112  1.00  0.00    -0.124 C  
BRANCH  12  13
HETATM   13  N   UNL     1      -6.904  15.176  66.744  1.00  0.00    -0.142 NA 
HETATM   14  H   UNL     1      -7.438  14.555  66.137  1.00  0.00     0.000 HD 
BRANCH  13  15
HETATM   15  C   UNL     1      -7.434  16.550  66.708  1.00  0.00    -0.246 C  
BRANCH  15  16
HETATM   16  C   UNL     1      -8.778  16.672  65.973  1.00  0.00    -0.239 C  
BRANCH  16  17
HETATM   17  C   UNL     1      -9.888  15.948  66.669  1.00  0.00    -0.267 A  
HETATM   18  C   UNL     1     -10.586  16.354  67.795  1.00  0.00    -0.321 A  
HETATM   19  N   UNL     1     -11.473  15.354  68.116  1.00  0.00    -0.346 NA 
HETATM   20  C   UNL     1     -10.504  17.585  68.623  1.00  0.00    -0.338 C  
HETATM   21  H   UNL     1     -12.113  15.380  68.910  1.00  0.00     0.000 HD 
HETATM   22  C   UNL     1     -11.380  14.317  67.222  1.00  0.00    -0.334 A  
HETATM   23  C   UNL     1     -12.078  13.105  67.173  1.00  0.00    -0.343 A  
HETATM   24  C   UNL     1     -11.778  12.225  66.129  1.00  0.00    -0.440 A  
HETATM   25  C   UNL     1     -10.817  12.547  65.174  1.00  0.00    -0.323 A  
HETATM   26  C   UNL     1     -10.123  13.760  65.244  1.00  0.00    -0.312 A  
HETATM   27  C   UNL     1     -10.406  14.664  66.290  1.00  0.00    -0.301 A  
ENDBRANCH  16  17
ENDBRANCH  15  16
ENDBRANCH  13  15
ENDBRANCH  12  13
ENDBRANCH  10  12
ENDBRANCH   2   6
BRANCH   3  28
HETATM   28  N   UNL     1      -8.866   6.384  66.932  1.00  0.00    -0.117 NA 
HETATM   29  H   UNL     1      -8.110   6.278  66.254  1.00  0.00     0.000 HD 
HETATM   30  O   UNL     1      -9.132   5.477  67.969  1.00  0.00    -0.108 OA 
HETATM   31  H   UNL     1      -8.518   4.752  67.959  1.00  0.00     0.000 HD 
ENDBRANCH   3  28
TORSDOF 7
ENDMDL
MODEL      229
REMARK 921   NORMALIZED FREE ENERGY PREDICTED BY IDOCK:   -3.61 KCAL/MOL
REMARK 922        TOTAL FREE ENERGY PREDICTED BY IDOCK:   -7.71 KCAL/MOL
REMARK 923 INTER-LIGAND FREE ENERGY PREDICTED BY IDOCK:   -6.43 KCAL/MOL
REMARK 924 INTRA-LIGAND FREE ENERGY PREDICTED BY IDOCK:   -1.28 KCAL/MOL
REMARK 927      BINDING AFFINITY PREDICTED BY RF-SCORE:    0.00 PKD
ROOT
HETATM    1  C   UNL     1      -8.435   4.241  65.648  1.00  0.00    -0.114 C  
HETATM    2  C   UNL     1      -9.713   4.258  66.056  1.00  0.00    -0.216 C  
HETATM    3  C   UNL     1      -8.112   3.645  64.347  1.00  0.00    -0.086 C  
HETATM    4  H   UNL     1      -6.807   3.813  62.943  1.00  0.00     0.000 HD 
HETATM    5  O   UNL     1      -7.017   4.199  63.786  1.00  0.00    -0.043 OA 
ENDROOT
BRANCH   2   6
HETATM    6  C   UNL     1     -10.077   4.860  67.333  1.00  0.00    -0.196 A  
HETATM    7  C   UNL     1     -10.848   6.025  67.372  1.00  0.00    -0.394 A  
HETATM    8  C   UNL     1     -11.285   6.533  68.597  1.00  0.00    -0.302 A  
HETATM    9  C   UNL     1      -9.705   4.232  68.524  1.00  0.00    -0.164 A  
HETATM   10  C   UNL     1     -10.959   5.879  69.793  1.00  0.00    -0.452 A  
HETATM   11  C   UNL     1     -10.146   4.738  69.747  1.00  0.00    -0.289 A  
BRANCH  10  12
HETATM   12  C   UNL     1     -11.582   6.320  71.094  1.00  0.00    -0.275 C  
BRANCH  12  13
HETATM   13  N   UNL     1     -12.466   7.475  70.932  1.00  0.00    -0.533 NA 
HETATM   14  H   UNL     1     -13.447   7.208  71.011  1.00  0.00     0.000 HD 
BRANCH  13  15
HETATM   15  C   UNL     1     -12.125   8.553  71.876  1.00  0.00    -0.349 C  
BRANCH  15  16
HETATM   16  C   UNL     1     -10.617   8.829  71.975  1.00  0.00    -0.414 C  
BRANCH  16  17
HETATM   17  C   UNL     1     -10.046   9.394  70.712  1.00  0.00    -0.366 A  
HETATM   18  C   UNL     1      -8.927   8.958  70.021  1.00  0.00    -0.165 A  
HETATM   19  N   UNL     1      -8.743   9.804  68.954  1.00  0.00    -0.129 NA 
HETATM   20  C   UNL     1      -7.989   7.831  70.261  1.00  0.00    -0.100 C  
HETATM   21  H   UNL     1      -7.985   9.727  68.276  1.00  0.00     0.000 HD 
HETATM   22  C   UNL     1      -9.719  10.768  68.924  1.00  0.00    -0.198 A  
HETATM   23  C   UNL     1      -9.913  11.828  68.030  1.00  0.00    -0.191 A  
HETATM   24  C   UNL     1     -11.014  12.663  68.241  1.00  0.00    -0.275 A  
HETATM   25  C   UNL     1     -11.885  12.444  69.305  1.00  0.00    -0.361 A  
HETATM   26  C   UNL     1     -11.671  11.386  70.195  1.00  0.00    -0.414 A  
HETATM   27  C   UNL     1     -10.565  10.529  70.004  1.00  0.00    -0.223 A  
ENDBRANCH  16  17
ENDBRANCH  15  16
ENDBRANCH  13  15
ENDBRANCH  12  13
ENDBRANCH  10  12
ENDBRANCH   2   6
BRANCH   3  28
HETATM   28  N   UNL     1      -8.783   2.693  63.785  1.00  0.00    -0.086 NA 
HETATM   29  H   UNL     1      -8.819   1.733  64.129  1.00  0.00     0.000 HD 
HETATM   30  O   UNL     1      -9.456   3.149  62.642  1.00  0.00    -0.093 OA 
HETATM   31  H   UNL     1      -9.950   2.450  62.230  1.00  0.00     0.000 HD 
ENDBRANCH   3  28
TORSDOF 7
ENDMDL
MODEL      230
REMARK 921   NORMALIZED FREE ENERGY PREDICTED BY IDOCK:   -3.60 KCAL/MOL
REMARK 922        TOTAL FREE ENERGY PREDICTED BY IDOCK:   -7.70 KCAL/MOL
REMARK 923 INTER-LIGAND FREE ENERGY PREDICTED BY IDOCK:   -6.77 KCAL/MOL
REMARK 924 INTRA-LIGAND FREE ENERGY PREDICTED BY IDOCK:   -0.93 KCAL/MOL
REMARK 927      BINDING AFFINITY PREDICTED BY RF-SCORE:    0.00 PKD
ROOT
HETATM    1  C   UNL     1      -9.003   8.224  66.777  1.00  0.00    -0.174 C  
HETATM    2  C   UNL     1     -10.099   8.434  67.520  1.00  0.00    -0.279 C  
HETATM    3  C   UNL     1      -8.439   6.872  66.705  1.00  0.00    -0.118 C  
HETATM    4  H   UNL     1      -7.431   5.767  65.496  1.00  0.00     0.000 HD 
HETATM    5  O   UNL     1      -7.796   6.643  65.542  1.00  0.00    -0.095 OA 
ENDROOT
BRANCH   2   6
HETATM    6  C   UNL     1     -10.701   9.760  67.599  1.00  0.00    -0.334 A  
HETATM    7  C   UNL     1     -11.341  10.178  68.769  1.00  0.00    -0.172 A  
HETATM    8  C   UNL     1     -11.817  11.487  68.876  1.00  0.00    -0.406 A  
HETATM    9  C   UNL     1     -10.579  10.639  66.520  1.00  0.00    -0.257 A  
HETATM   10  C   UNL     1     -11.653  12.389  67.816  1.00  0.00    -0.413 A  
HETATM   11  C   UNL     1     -11.051  11.947  66.629  1.00  0.00    -0.360 A  
BRANCH  10  12
HETATM   12  C   UNL     1     -11.997  13.846  67.999  1.00  0.00    -0.355 C  
BRANCH  12  13
HETATM   13  N   UNL     1     -12.179  14.210  69.405  1.00  0.00    -0.443 NA 
HETATM   14  H   UNL     1     -11.706  13.551  70.025  1.00  0.00     0.000 HD 
BRANCH  13  15
HETATM   15  C   UNL     1     -11.752  15.595  69.665  1.00  0.00    -0.361 C  
BRANCH  15  16
HETATM   16  C   UNL     1     -11.286  16.341  68.406  1.00  0.00    -0.349 C  
BRANCH  16  17
HETATM   17  C   UNL     1      -9.908  16.913  68.548  1.00  0.00    -0.267 A  
HETATM   18  C   UNL     1      -9.531  18.243  68.450  1.00  0.00    -0.323 A  
HETATM   19  N   UNL     1      -8.166  18.297  68.591  1.00  0.00    -0.306 NA 
HETATM   20  C   UNL     1     -10.318  19.483  68.224  1.00  0.00    -0.524 C  
HETATM   21  H   UNL     1      -7.612  19.153  68.553  1.00  0.00     0.000 HD 
HETATM   22  C   UNL     1      -7.647  17.042  68.791  1.00  0.00    -0.243 A  
HETATM   23  C   UNL     1      -6.320  16.634  68.970  1.00  0.00    -0.183 A  
HETATM   24  C   UNL     1      -6.081  15.270  69.162  1.00  0.00    -0.102 A  
HETATM   25  C   UNL     1      -7.130  14.353  69.175  1.00  0.00    -0.127 A  
HETATM   26  C   UNL     1      -8.449  14.779  68.985  1.00  0.00    -0.140 A  
HETATM   27  C   UNL     1      -8.716  16.151  68.787  1.00  0.00    -0.240 A  
ENDBRANCH  16  17
ENDBRANCH  15  16
ENDBRANCH  13  15
ENDBRANCH  12  13
ENDBRANCH  10  12
ENDBRANCH   2   6
BRANCH   3  28
HETATM   28  N   UNL     1      -8.533   5.984  67.642  1.00  0.00    -0.108 NA 
HETATM   29  H   UNL     1      -9.188   6.038  68.423  1.00  0.00     0.000 HD 
HETATM   30  O   UNL     1      -7.620   4.938  67.446  1.00  0.00    -0.088 OA 
HETATM   31  H   UNL     1      -7.689   4.286  68.134  1.00  0.00     0.000 HD 
ENDBRANCH   3  28
TORSDOF 7
ENDMDL
MODEL      231
REMARK 921   NORMALIZED FREE ENERGY PREDICTED BY IDOCK:   -3.59 KCAL/MOL
REMARK 922        TOTAL FREE ENERGY PREDICTED BY IDOCK:   -7.69 KCAL/MOL
REMARK 923 INTER-LIGAND FREE ENERGY PREDICTED BY IDOCK:   -6.09 KCAL/MOL
REMARK 924 INTRA-LIGAND FREE ENERGY PREDICTED BY IDOCK:   -1.60 KCAL/MOL
REMARK 927      BINDING AFFINITY PREDICTED BY RF-SCORE:    0.00 PKD
ROOT
HETATM    1  C   UNL     1     -10.992  10.798  68.694  1.00  0.00    -0.285 C  
HETATM    2  C   UNL     1     -11.364  10.881  69.980  1.00  0.00    -0.386 C  
HETATM    3  C   UNL     1     -11.259  11.930  67.801  1.00  0.00    -0.267 C  
HETATM    4  H   UNL     1     -10.536  12.749  66.217  1.00  0.00     0.000 HD 
HETATM    5  O   UNL     1     -10.362  12.016  66.796  1.00  0.00    -0.204 OA 
ENDROOT
BRANCH   2   6
HETATM    6  C   UNL     1     -11.097   9.785  70.904  1.00  0.00    -0.428 A  
HETATM    7  C   UNL     1      -9.790   9.340  71.114  1.00  0.00    -0.342 A  
HETATM    8  C   UNL     1      -9.529   8.366  72.081  1.00  0.00    -0.360 A  
HETATM    9  C   UNL     1     -12.149   9.221  71.629  1.00  0.00    -0.451 A  
HETATM   10  C   UNL     1     -10.573   7.832  72.848  1.00  0.00    -0.428 A  
HETATM   11  C   UNL     1     -11.888   8.251  72.597  1.00  0.00    -0.382 A  
BRANCH  10  12
HETATM   12  C   UNL     1     -10.272   6.923  74.013  1.00  0.00    -0.350 C  
BRANCH  12  13
HETATM   13  N   UNL     1      -9.549   5.715  73.612  1.00  0.00    -0.139 NA 
HETATM   14  H   UNL     1      -8.837   5.461  74.297  1.00  0.00     0.000 HD 
BRANCH  13  15
HETATM   15  C   UNL     1     -10.469   4.595  73.352  1.00  0.00    -0.207 C  
BRANCH  15  16
HETATM   16  C   UNL     1     -10.068   3.737  72.142  1.00  0.00    -0.220 C  
BRANCH  16  17
HETATM   17  C   UNL     1      -9.254   4.495  71.139  1.00  0.00    -0.198 A  
HETATM   18  C   UNL     1      -9.712   5.368  70.165  1.00  0.00    -0.188 A  
HETATM   19  N   UNL     1      -8.623   5.785  69.438  1.00  0.00    -0.111 NA 
HETATM   20  C   UNL     1     -11.076   5.850  69.827  1.00  0.00    -0.422 C  
HETATM   21  H   UNL     1      -8.666   6.428  68.647  1.00  0.00     0.000 HD 
HETATM   22  C   UNL     1      -7.470   5.218  69.920  1.00  0.00    -0.065 A  
HETATM   23  C   UNL     1      -6.148   5.354  69.481  1.00  0.00    -0.021 A  
HETATM   24  C   UNL     1      -5.158   4.654  70.177  1.00  0.00     0.000 A  
HETATM   25  C   UNL     1      -5.481   3.852  71.269  1.00  0.00    -0.008 A  
HETATM   26  C   UNL     1      -6.810   3.721  71.688  1.00  0.00    -0.027 A  
HETATM   27  C   UNL     1      -7.828   4.416  71.000  1.00  0.00    -0.068 A  
ENDBRANCH  16  17
ENDBRANCH  15  16
ENDBRANCH  13  15
ENDBRANCH  12  13
ENDBRANCH  10  12
ENDBRANCH   2   6
BRANCH   3  28
HETATM   28  N   UNL     1     -12.240  12.762  67.939  1.00  0.00    -0.217 NA 
HETATM   29  H   UNL     1     -13.225  12.494  67.959  1.00  0.00     0.000 HD 
HETATM   30  O   UNL     1     -11.777  14.081  68.060  1.00  0.00    -0.319 OA 
HETATM   31  H   UNL     1     -12.497  14.692  68.161  1.00  0.00     0.000 HD 
ENDBRANCH   3  28
TORSDOF 7
ENDMDL
MODEL      232
REMARK 921   NORMALIZED FREE ENERGY PREDICTED BY IDOCK:   -3.57 KCAL/MOL
REMARK 922        TOTAL FREE ENERGY PREDICTED BY IDOCK:   -7.66 KCAL/MOL
REMARK 923 INTER-LIGAND FREE ENERGY PREDICTED BY IDOCK:   -6.96 KCAL/MOL
REMARK 924 INTRA-LIGAND FREE ENERGY PREDICTED BY IDOCK:   -0.71 KCAL/MOL
REMARK 927      BINDING AFFINITY PREDICTED BY RF-SCORE:    0.00 PKD
ROOT
HETATM    1  C   UNL     1      -9.878   4.597  64.598  1.00  0.00     0.060 C  
HETATM    2  C   UNL     1     -10.638   4.820  65.680  1.00  0.00    -0.220 C  
HETATM    3  C   UNL     1     -10.296   3.573  63.634  1.00  0.00    -0.237 C  
HETATM    4  H   UNL     1     -10.142   3.179  61.757  1.00  0.00     0.000 HD 
HETATM    5  O   UNL     1      -9.871   3.842  62.381  1.00  0.00    -0.111 OA 
ENDROOT
BRANCH   2   6
HETATM    6  C   UNL     1     -10.267   5.844  66.650  1.00  0.00    -0.258 A  
HETATM    7  C   UNL     1      -9.201   6.708  66.392  1.00  0.00    -0.180 A  
HETATM    8  C   UNL     1      -8.921   7.756  67.274  1.00  0.00    -0.136 A  
HETATM    9  C   UNL     1     -11.024   6.000  67.814  1.00  0.00    -0.333 A  
HETATM   10  C   UNL     1      -9.708   7.949  68.417  1.00  0.00    -0.170 A  
HETATM   11  C   UNL     1     -10.747   7.048  68.691  1.00  0.00    -0.225 A  
BRANCH  10  12
HETATM   12  C   UNL     1      -9.525   9.183  69.265  1.00  0.00    -0.158 C  
BRANCH  12  13
HETATM   13  N   UNL     1     -10.655  10.107  69.167  1.00  0.00    -0.210 NA 
HETATM   14  H   UNL     1     -10.820  10.591  70.049  1.00  0.00     0.000 HD 
BRANCH  13  15
HETATM   15  C   UNL     1     -10.481  11.058  68.056  1.00  0.00    -0.189 C  
BRANCH  15  16
HETATM   16  C   UNL     1     -11.731  11.905  67.769  1.00  0.00    -0.362 C  
BRANCH  16  17
HETATM   17  C   UNL     1     -11.583  13.326  68.218  1.00  0.00    -0.369 A  
HETATM   18  C   UNL     1     -11.883  13.854  69.464  1.00  0.00    -0.329 A  
HETATM   19  N   UNL     1     -11.647  15.206  69.408  1.00  0.00    -0.303 NA 
HETATM   20  C   UNL     1     -12.386  13.225  70.713  1.00  0.00    -0.425 C  
HETATM   21  H   UNL     1     -11.791  15.853  70.184  1.00  0.00     0.000 HD 
HETATM   22  C   UNL     1     -11.190  15.569  68.166  1.00  0.00    -0.343 A  
HETATM   23  C   UNL     1     -10.838  16.829  67.669  1.00  0.00    -0.252 A  
HETATM   24  C   UNL     1     -10.390  16.903  66.346  1.00  0.00    -0.302 A  
HETATM   25  C   UNL     1     -10.299  15.759  65.556  1.00  0.00    -0.430 A  
HETATM   26  C   UNL     1     -10.664  14.510  66.067  1.00  0.00    -0.306 A  
HETATM   27  C   UNL     1     -11.121  14.410  67.399  1.00  0.00    -0.317 A  
ENDBRANCH  16  17
ENDBRANCH  15  16
ENDBRANCH  13  15
ENDBRANCH  12  13
ENDBRANCH  10  12
ENDBRANCH   2   6
BRANCH   3  28
HETATM   28  N   UNL     1     -10.990   2.522  63.929  1.00  0.00    -0.519 NA 
HETATM   29  H   UNL     1     -12.000   2.443  63.801  1.00  0.00     0.000 HD 
HETATM   30  O   UNL     1     -10.177   1.504  64.449  1.00  0.00    -0.333 OA 
HETATM   31  H   UNL     1     -10.687   0.733  64.666  1.00  0.00     0.000 HD 
ENDBRANCH   3  28
TORSDOF 7
ENDMDL
MODEL      233
REMARK 921   NORMALIZED FREE ENERGY PREDICTED BY IDOCK:   -3.57 KCAL/MOL
REMARK 922        TOTAL FREE ENERGY PREDICTED BY IDOCK:   -7.66 KCAL/MOL
REMARK 923 INTER-LIGAND FREE ENERGY PREDICTED BY IDOCK:   -6.70 KCAL/MOL
REMARK 924 INTRA-LIGAND FREE ENERGY PREDICTED BY IDOCK:   -0.96 KCAL/MOL
REMARK 927      BINDING AFFINITY PREDICTED BY RF-SCORE:    0.00 PKD
ROOT
HETATM    1  C   UNL     1     -11.630   8.844  70.726  1.00  0.00    -0.301 C  
HETATM    2  C   UNL     1     -12.406   9.898  71.023  1.00  0.00    -0.451 C  
HETATM    3  C   UNL     1     -11.796   7.601  71.486  1.00  0.00    -0.295 C  
HETATM    4  H   UNL     1     -11.575   5.704  71.258  1.00  0.00     0.000 HD 
HETATM    5  O   UNL     1     -11.468   6.509  70.765  1.00  0.00    -0.318 OA 
ENDROOT
BRANCH   2   6
HETATM    6  C   UNL     1     -12.285  11.143  70.275  1.00  0.00    -0.436 A  
HETATM    7  C   UNL     1     -12.373  12.374  70.932  1.00  0.00    -0.358 A  
HETATM    8  C   UNL     1     -12.146  13.559  70.229  1.00  0.00    -0.425 A  
HETATM    9  C   UNL     1     -12.017  11.104  68.905  1.00  0.00    -0.367 A  
HETATM   10  C   UNL     1     -11.826  13.524  68.865  1.00  0.00    -0.384 A  
HETATM   11  C   UNL     1     -11.787  12.288  68.204  1.00  0.00    -0.372 A  
BRANCH  10  12
HETATM   12  C   UNL     1     -11.401  14.783  68.152  1.00  0.00    -0.307 C  
BRANCH  12  13
HETATM   13  N   UNL     1     -11.768  14.779  66.735  1.00  0.00    -0.341 NA 
HETATM   14  H   UNL     1     -12.691  15.187  66.588  1.00  0.00     0.000 HD 
BRANCH  13  15
HETATM   15  C   UNL     1     -10.747  15.448  65.910  1.00  0.00    -0.336 C  
BRANCH  15  16
HETATM   16  C   UNL     1      -9.913  14.478  65.059  1.00  0.00    -0.206 C  
BRANCH  16  17
HETATM   17  C   UNL     1      -9.212  13.441  65.881  1.00  0.00     0.181 A  
HETATM   18  C   UNL     1      -9.177  12.072  65.663  1.00  0.00    -0.003 A  
HETATM   19  N   UNL     1      -8.467  11.507  66.695  1.00  0.00    -0.171 NA 
HETATM   20  C   UNL     1      -9.754  11.223  64.589  1.00  0.00    -0.294 C  
HETATM   21  H   UNL     1      -8.289  10.508  66.798  1.00  0.00     0.000 HD 
HETATM   22  C   UNL     1      -8.028  12.471  67.568  1.00  0.00    -0.175 A  
HETATM   23  C   UNL     1      -7.287  12.347  68.749  1.00  0.00    -0.076 A  
HETATM   24  C   UNL     1      -6.971  13.518  69.444  1.00  0.00     0.046 A  
HETATM   25  C   UNL     1      -7.382  14.763  68.973  1.00  0.00    -0.139 A  
HETATM   26  C   UNL     1      -8.130  14.867  67.796  1.00  0.00    -0.162 A  
HETATM   27  C   UNL     1      -8.464  13.699  67.077  1.00  0.00    -0.141 A  
ENDBRANCH  16  17
ENDBRANCH  15  16
ENDBRANCH  13  15
ENDBRANCH  12  13
ENDBRANCH  10  12
ENDBRANCH   2   6
BRANCH   3  28
HETATM   28  N   UNL     1     -12.204   7.536  72.712  1.00  0.00    -0.544 NA 
HETATM   29  H   UNL     1     -13.149   7.267  72.991  1.00  0.00     0.000 HD 
HETATM   30  O   UNL     1     -11.183   7.883  73.609  1.00  0.00    -0.323 OA 
HETATM   31  H   UNL     1     -11.484   7.836  74.509  1.00  0.00     0.000 HD 
ENDBRANCH   3  28
TORSDOF 7
ENDMDL
MODEL      234
REMARK 921   NORMALIZED FREE ENERGY PREDICTED BY IDOCK:   -3.56 KCAL/MOL
REMARK 922        TOTAL FREE ENERGY PREDICTED BY IDOCK:   -7.65 KCAL/MOL
REMARK 923 INTER-LIGAND FREE ENERGY PREDICTED BY IDOCK:   -5.01 KCAL/MOL
REMARK 924 INTRA-LIGAND FREE ENERGY PREDICTED BY IDOCK:   -2.63 KCAL/MOL
REMARK 927      BINDING AFFINITY PREDICTED BY RF-SCORE:    0.00 PKD
ROOT
HETATM    1  C   UNL     1      -8.614   4.398  65.358  1.00  0.00    -0.122 C  
HETATM    2  C   UNL     1      -8.917   3.824  66.532  1.00  0.00    -0.143 C  
HETATM    3  C   UNL     1      -7.853   3.630  64.366  1.00  0.00    -0.085 C  
HETATM    4  H   UNL     1      -7.636   3.510  62.458  1.00  0.00     0.000 HD 
HETATM    5  O   UNL     1      -8.129   4.008  63.101  1.00  0.00    -0.078 OA 
ENDROOT
BRANCH   2   6
HETATM    6  C   UNL     1      -9.690   4.548  67.534  1.00  0.00    -0.213 A  
HETATM    7  C   UNL     1      -9.523   4.270  68.893  1.00  0.00    -0.236 A  
HETATM    8  C   UNL     1     -10.183   5.042  69.852  1.00  0.00    -0.340 A  
HETATM    9  C   UNL     1     -10.556   5.569  67.134  1.00  0.00    -0.313 A  
HETATM   10  C   UNL     1     -11.014   6.100  69.459  1.00  0.00    -0.463 A  
HETATM   11  C   UNL     1     -11.212   6.342  68.092  1.00  0.00    -0.270 A  
BRANCH  10  12
HETATM   12  C   UNL     1     -11.577   7.046  70.490  1.00  0.00    -0.319 C  
BRANCH  12  13
HETATM   13  N   UNL     1     -10.606   8.053  70.920  1.00  0.00    -0.211 NA 
HETATM   14  H   UNL     1      -9.654   7.783  70.673  1.00  0.00     0.000 HD 
BRANCH  13  15
HETATM   15  C   UNL     1     -10.941   9.387  70.394  1.00  0.00    -0.266 C  
BRANCH  15  16
HETATM   16  C   UNL     1      -9.740  10.127  69.786  1.00  0.00    -0.232 C  
BRANCH  16  17
HETATM   17  C   UNL     1      -9.578   9.865  68.320  1.00  0.00    -0.151 A  
HETATM   18  C   UNL     1     -10.286  10.438  67.276  1.00  0.00    -0.228 A  
HETATM   19  N   UNL     1      -9.845   9.860  66.110  1.00  0.00    -0.241 NA 
HETATM   20  C   UNL     1     -11.354  11.470  67.250  1.00  0.00    -0.359 C  
HETATM   21  H   UNL     1     -10.199  10.085  65.180  1.00  0.00     0.000 HD 
HETATM   22  C   UNL     1      -8.861   8.939  66.366  1.00  0.00    -0.152 A  
HETATM   23  C   UNL     1      -8.145   8.117  65.488  1.00  0.00    -0.130 A  
HETATM   24  C   UNL     1      -7.180   7.266  66.035  1.00  0.00    -0.074 A  
HETATM   25  C   UNL     1      -6.943   7.241  67.408  1.00  0.00    -0.079 A  
HETATM   26  C   UNL     1      -7.674   8.062  68.271  1.00  0.00    -0.117 A  
HETATM   27  C   UNL     1      -8.656   8.929  67.743  1.00  0.00    -0.125 A  
ENDBRANCH  16  17
ENDBRANCH  15  16
ENDBRANCH  13  15
ENDBRANCH  12  13
ENDBRANCH  10  12
ENDBRANCH   2   6
BRANCH   3  28
HETATM   28  N   UNL     1      -7.005   2.695  64.651  1.00  0.00    -0.047 NA 
HETATM   29  H   UNL     1      -7.176   1.699  64.506  1.00  0.00     0.000 HD 
HETATM   30  O   UNL     1      -5.821   3.226  65.183  1.00  0.00    -0.017 OA 
HETATM   31  H   UNL     1      -5.198   2.539  65.392  1.00  0.00     0.000 HD 
ENDBRANCH   3  28
TORSDOF 7
ENDMDL
MODEL      235
REMARK 921   NORMALIZED FREE ENERGY PREDICTED BY IDOCK:   -3.55 KCAL/MOL
REMARK 922        TOTAL FREE ENERGY PREDICTED BY IDOCK:   -7.64 KCAL/MOL
REMARK 923 INTER-LIGAND FREE ENERGY PREDICTED BY IDOCK:   -5.12 KCAL/MOL
REMARK 924 INTRA-LIGAND FREE ENERGY PREDICTED BY IDOCK:   -2.52 KCAL/MOL
REMARK 927      BINDING AFFINITY PREDICTED BY RF-SCORE:    0.00 PKD
ROOT
HETATM    1  C   UNL     1     -11.863  12.654  66.223  1.00  0.00    -0.471 C  
HETATM    2  C   UNL     1     -11.085  11.588  65.985  1.00  0.00    -0.289 C  
HETATM    3  C   UNL     1     -12.270  13.504  65.099  1.00  0.00    -0.428 C  
HETATM    4  H   UNL     1     -13.721  14.657  64.584  1.00  0.00     0.000 HD 
HETATM    5  O   UNL     1     -13.458  14.107  65.313  1.00  0.00    -0.606 OA 
ENDROOT
BRANCH   2   6
HETATM    6  C   UNL     1     -10.677  10.708  67.074  1.00  0.00    -0.317 A  
HETATM    7  C   UNL     1     -10.650   9.323  66.892  1.00  0.00    -0.239 A  
HETATM    8  C   UNL     1     -10.154   8.495  67.901  1.00  0.00    -0.258 A  
HETATM    9  C   UNL     1     -10.250  11.259  68.284  1.00  0.00    -0.198 A  
HETATM   10  C   UNL     1      -9.677   9.045  69.098  1.00  0.00    -0.167 A  
HETATM   11  C   UNL     1      -9.751  10.432  69.290  1.00  0.00    -0.231 A  
BRANCH  10  12
HETATM   12  C   UNL     1      -8.972   8.172  70.108  1.00  0.00    -0.146 C  
BRANCH  12  13
HETATM   13  N   UNL     1      -7.683   7.678  69.623  1.00  0.00    -0.097 NA 
HETATM   14  H   UNL     1      -7.593   7.799  68.614  1.00  0.00     0.000 HD 
BRANCH  13  15
HETATM   15  C   UNL     1      -6.560   8.303  70.342  1.00  0.00    -0.036 C  
BRANCH  15  16
HETATM   16  C   UNL     1      -5.506   8.926  69.414  1.00  0.00    -0.035 C  
BRANCH  16  17
HETATM   17  C   UNL     1      -6.113   9.671  68.265  1.00  0.00    -0.051 A  
HETATM   18  C   UNL     1      -6.380   9.191  66.993  1.00  0.00    -0.063 A  
HETATM   19  N   UNL     1      -6.882  10.235  66.253  1.00  0.00    -0.103 NA 
HETATM   20  C   UNL     1      -6.202   7.849  66.382  1.00  0.00    -0.046 C  
HETATM   21  H   UNL     1      -7.159  10.171  65.274  1.00  0.00     0.000 HD 
HETATM   22  C   UNL     1      -6.962  11.375  67.013  1.00  0.00    -0.135 A  
HETATM   23  C   UNL     1      -7.399  12.659  66.667  1.00  0.00     0.571 A  
HETATM   24  C   UNL     1      -7.377  13.642  67.662  1.00  0.00    -0.185 A  
HETATM   25  C   UNL     1      -6.935  13.348  68.950  1.00  0.00    -0.102 A  
HETATM   26  C   UNL     1      -6.492  12.061  69.274  1.00  0.00    -0.111 A  
HETATM   27  C   UNL     1      -6.503  11.052  68.287  1.00  0.00    -0.057 A  
ENDBRANCH  16  17
ENDBRANCH  15  16
ENDBRANCH  13  15
ENDBRANCH  12  13
ENDBRANCH  10  12
ENDBRANCH   2   6
BRANCH   3  28
HETATM   28  N   UNL     1     -11.582  13.673  64.016  1.00  0.00    -0.585 NA 
HETATM   29  H   UNL     1     -10.771  14.289  63.940  1.00  0.00     0.000 HD 
HETATM   30  O   UNL     1     -12.092  12.902  62.962  1.00  0.00    -0.731 OA 
HETATM   31  H   UNL     1     -11.586  13.026  62.167  1.00  0.00     0.000 HD 
ENDBRANCH   3  28
TORSDOF 7
ENDMDL
MODEL      236
REMARK 921   NORMALIZED FREE ENERGY PREDICTED BY IDOCK:   -3.55 KCAL/MOL
REMARK 922        TOTAL FREE ENERGY PREDICTED BY IDOCK:   -7.63 KCAL/MOL
REMARK 923 INTER-LIGAND FREE ENERGY PREDICTED BY IDOCK:   -6.50 KCAL/MOL
REMARK 924 INTRA-LIGAND FREE ENERGY PREDICTED BY IDOCK:   -1.14 KCAL/MOL
REMARK 927      BINDING AFFINITY PREDICTED BY RF-SCORE:    0.00 PKD
ROOT
HETATM    1  C   UNL     1      -8.722   9.688  65.169  1.00  0.00    -0.192 C  
HETATM    2  C   UNL     1      -8.391   9.581  66.465  1.00  0.00    -0.119 C  
HETATM    3  C   UNL     1      -7.711   9.385  64.150  1.00  0.00    -0.117 C  
HETATM    4  H   UNL     1      -7.603   8.735  62.342  1.00  0.00     0.000 HD 
HETATM    5  O   UNL     1      -8.258   8.931  63.003  1.00  0.00    -0.168 OA 
ENDROOT
BRANCH   2   6
HETATM    6  C   UNL     1      -9.374   9.853  67.507  1.00  0.00    -0.159 A  
HETATM    7  C   UNL     1      -9.055   9.645  68.851  1.00  0.00    -0.144 A  
HETATM    8  C   UNL     1      -9.960  10.012  69.850  1.00  0.00    -0.280 A  
HETATM    9  C   UNL     1     -10.618  10.385  67.161  1.00  0.00    -0.319 A  
HETATM   10  C   UNL     1     -11.190  10.593  69.512  1.00  0.00    -0.331 A  
HETATM   11  C   UNL     1     -11.520  10.755  68.159  1.00  0.00    -0.346 A  
BRANCH  10  12
HETATM   12  C   UNL     1     -12.085  11.157  70.588  1.00  0.00    -0.379 C  
BRANCH  12  13
HETATM   13  N   UNL     1     -12.647  12.459  70.227  1.00  0.00    -0.030 NA 
HETATM   14  H   UNL     1     -13.295  12.796  70.939  1.00  0.00     0.000 HD 
BRANCH  13  15
HETATM   15  C   UNL     1     -11.591  13.447  69.950  1.00  0.00    -0.200 C  
BRANCH  15  16
HETATM   16  C   UNL     1     -12.076  14.653  69.131  1.00  0.00    -0.283 C  
BRANCH  16  17
HETATM   17  C   UNL     1     -11.215  14.927  67.936  1.00  0.00    -0.324 A  
HETATM   18  C   UNL     1     -11.411  14.490  66.636  1.00  0.00    -0.366 A  
HETATM   19  N   UNL     1     -10.348  14.931  65.886  1.00  0.00    -0.295 NA 
HETATM   20  C   UNL     1     -12.492  13.683  66.013  1.00  0.00    -0.477 C  
HETATM   21  H   UNL     1     -10.224  14.747  64.890  1.00  0.00     0.000 HD 
HETATM   22  C   UNL     1      -9.474  15.653  66.660  1.00  0.00    -0.259 A  
HETATM   23  C   UNL     1      -8.267  16.273  66.316  1.00  0.00    -0.312 A  
HETATM   24  C   UNL     1      -7.578  16.957  67.322  1.00  0.00    -0.199 A  
HETATM   25  C   UNL     1      -8.081  17.018  68.620  1.00  0.00    -0.254 A  
HETATM   26  C   UNL     1      -9.285  16.385  68.947  1.00  0.00    -0.259 A  
HETATM   27  C   UNL     1      -9.997  15.686  67.949  1.00  0.00    -0.223 A  
ENDBRANCH  16  17
ENDBRANCH  15  16
ENDBRANCH  13  15
ENDBRANCH  12  13
ENDBRANCH  10  12
ENDBRANCH   2   6
BRANCH   3  28
HETATM   28  N   UNL     1      -6.436   9.533  64.309  1.00  0.00    -0.094 NA 
HETATM   29  H   UNL     1      -5.806   8.795  64.625  1.00  0.00     0.000 HD 
HETATM   30  O   UNL     1      -6.030  10.838  63.993  1.00  0.00    -0.368 OA 
HETATM   31  H   UNL     1      -5.094  10.946  64.110  1.00  0.00     0.000 HD 
ENDBRANCH   3  28
TORSDOF 7
ENDMDL
MODEL      237
REMARK 921   NORMALIZED FREE ENERGY PREDICTED BY IDOCK:   -3.54 KCAL/MOL
REMARK 922        TOTAL FREE ENERGY PREDICTED BY IDOCK:   -7.62 KCAL/MOL
REMARK 923 INTER-LIGAND FREE ENERGY PREDICTED BY IDOCK:   -5.65 KCAL/MOL
REMARK 924 INTRA-LIGAND FREE ENERGY PREDICTED BY IDOCK:   -1.97 KCAL/MOL
REMARK 927      BINDING AFFINITY PREDICTED BY RF-SCORE:    0.00 PKD
ROOT
HETATM    1  C   UNL     1     -10.118  12.916  64.792  1.00  0.00    -0.242 C  
HETATM    2  C   UNL     1     -10.857  14.021  64.616  1.00  0.00    -0.416 C  
HETATM    3  C   UNL     1     -10.598  11.644  64.241  1.00  0.00    -0.340 C  
HETATM    4  H   UNL     1      -9.900   9.980  63.572  1.00  0.00     0.000 HD 
HETATM    5  O   UNL     1      -9.589  10.805  63.929  1.00  0.00    -0.240 OA 
ENDROOT
BRANCH   2   6
HETATM    6  C   UNL     1     -10.403  15.308  65.130  1.00  0.00    -0.413 A  
HETATM    7  C   UNL     1      -9.100  15.457  65.612  1.00  0.00     0.128 A  
HETATM    8  C   UNL     1      -8.638  16.717  65.999  1.00  0.00    -0.229 A  
HETATM    9  C   UNL     1     -11.257  16.412  65.079  1.00  0.00    -0.138 A  
HETATM   10  C   UNL     1      -9.473  17.838  65.904  1.00  0.00     0.048 A  
HETATM   11  C   UNL     1     -10.793  17.671  65.462  1.00  0.00     0.056 A  
BRANCH  10  12
HETATM   12  C   UNL     1      -8.918  19.221  66.144  1.00  0.00    -0.255 C  
BRANCH  12  13
HETATM   13  N   UNL     1      -9.117  19.676  67.520  1.00  0.00    -0.311 NA 
HETATM   14  H   UNL     1      -9.152  20.694  67.575  1.00  0.00     0.000 HD 
BRANCH  13  15
HETATM   15  C   UNL     1     -10.312  19.063  68.125  1.00  0.00    -0.368 C  
BRANCH  15  16
HETATM   16  C   UNL     1     -10.027  18.340  69.451  1.00  0.00     0.055 C  
BRANCH  16  17
HETATM   17  C   UNL     1      -9.500  16.952  69.253  1.00  0.00    -0.051 A  
HETATM   18  C   UNL     1      -8.176  16.543  69.252  1.00  0.00    -0.072 A  
HETATM   19  N   UNL     1      -8.158  15.197  68.977  1.00  0.00    -0.177 NA 
HETATM   20  C   UNL     1      -6.908  17.286  69.470  1.00  0.00    -0.080 C  
HETATM   21  H   UNL     1      -7.313  14.631  68.904  1.00  0.00     0.000 HD 
HETATM   22  C   UNL     1      -9.434  14.718  68.812  1.00  0.00    -0.206 A  
HETATM   23  C   UNL     1      -9.879  13.425  68.513  1.00  0.00    -0.178 A  
HETATM   24  C   UNL     1     -11.258  13.220  68.409  1.00  0.00    -0.314 A  
HETATM   25  C   UNL     1     -12.154  14.270  68.600  1.00  0.00    -0.295 A  
HETATM   26  C   UNL     1     -11.691  15.557  68.889  1.00  0.00    -0.385 A  
HETATM   27  C   UNL     1     -10.302  15.790  68.996  1.00  0.00    -0.223 A  
ENDBRANCH  16  17
ENDBRANCH  15  16
ENDBRANCH  13  15
ENDBRANCH  12  13
ENDBRANCH  10  12
ENDBRANCH   2   6
BRANCH   3  28
HETATM   28  N   UNL     1     -11.844  11.338  64.070  1.00  0.00    -0.157 NA 
HETATM   29  H   UNL     1     -12.491  11.115  64.827  1.00  0.00     0.000 HD 
HETATM   30  O   UNL     1     -12.190  11.353  62.711  1.00  0.00    -0.847 OA 
HETATM   31  H   UNL     1     -13.105  11.129  62.585  1.00  0.00     0.000 HD 
ENDBRANCH   3  28
TORSDOF 7
ENDMDL
MODEL      238
REMARK 921   NORMALIZED FREE ENERGY PREDICTED BY IDOCK:   -3.53 KCAL/MOL
REMARK 922        TOTAL FREE ENERGY PREDICTED BY IDOCK:   -7.61 KCAL/MOL
REMARK 923 INTER-LIGAND FREE ENERGY PREDICTED BY IDOCK:   -6.07 KCAL/MOL
REMARK 924 INTRA-LIGAND FREE ENERGY PREDICTED BY IDOCK:   -1.54 KCAL/MOL
REMARK 927      BINDING AFFINITY PREDICTED BY RF-SCORE:    0.00 PKD
ROOT
HETATM    1  C   UNL     1      -9.132   7.072  67.926  1.00  0.00    -0.127 C  
HETATM    2  C   UNL     1      -8.059   7.689  67.409  1.00  0.00    -0.119 C  
HETATM    3  C   UNL     1      -9.298   5.631  67.707  1.00  0.00    -0.110 C  
HETATM    4  H   UNL     1     -10.090   4.101  68.563  1.00  0.00     0.000 HD 
HETATM    5  O   UNL     1      -9.983   5.034  68.705  1.00  0.00    -0.160 OA 
ENDROOT
BRANCH   2   6
HETATM    6  C   UNL     1      -7.848   9.116  67.623  1.00  0.00    -0.096 A  
HETATM    7  C   UNL     1      -7.715   9.982  66.535  1.00  0.00    -0.105 A  
HETATM    8  C   UNL     1      -7.625  11.360  66.745  1.00  0.00    -0.143 A  
HETATM    9  C   UNL     1      -7.844   9.626  68.923  1.00  0.00    -0.081 A  
HETATM   10  C   UNL     1      -7.671  11.883  68.044  1.00  0.00    -0.132 A  
HETATM   11  C   UNL     1      -7.757  11.003  69.132  1.00  0.00    -0.102 A  
BRANCH  10  12
HETATM   12  C   UNL     1      -7.760  13.373  68.260  1.00  0.00    -0.141 C  
BRANCH  12  13
HETATM   13  N   UNL     1      -9.091  13.800  68.693  1.00  0.00    -0.360 NA 
HETATM   14  H   UNL     1      -9.051  14.675  69.216  1.00  0.00     0.000 HD 
BRANCH  13  15
HETATM   15  C   UNL     1     -10.024  13.896  67.558  1.00  0.00    -0.240 C  
BRANCH  15  16
HETATM   16  C   UNL     1     -11.461  14.252  67.970  1.00  0.00    -0.342 C  
BRANCH  16  17
HETATM   17  C   UNL     1     -11.915  13.510  69.189  1.00  0.00    -0.378 A  
HETATM   18  C   UNL     1     -12.489  14.038  70.335  1.00  0.00    -0.350 A  
HETATM   19  N   UNL     1     -12.692  13.001  71.212  1.00  0.00    -0.348 NA 
HETATM   20  C   UNL     1     -12.860  15.428  70.709  1.00  0.00    -0.524 C  
HETATM   21  H   UNL     1     -13.094  13.099  72.144  1.00  0.00     0.000 HD 
HETATM   22  C   UNL     1     -12.279  11.812  70.664  1.00  0.00    -0.349 A  
HETATM   23  C   UNL     1     -12.290  10.520  71.201  1.00  0.00    -0.510 A  
HETATM   24  C   UNL     1     -11.807   9.480  70.401  1.00  0.00    -0.181 A  
HETATM   25  C   UNL     1     -11.334   9.726  69.114  1.00  0.00    -0.031 A  
HETATM   26  C   UNL     1     -11.322  11.026  68.597  1.00  0.00    -0.346 A  
HETATM   27  C   UNL     1     -11.802  12.093  69.386  1.00  0.00    -0.370 A  
ENDBRANCH  16  17
ENDBRANCH  15  16
ENDBRANCH  13  15
ENDBRANCH  12  13
ENDBRANCH  10  12
ENDBRANCH   2   6
BRANCH   3  28
HETATM   28  N   UNL     1      -8.850   4.985  66.679  1.00  0.00    -0.111 NA 
HETATM   29  H   UNL     1      -8.090   4.304  66.712  1.00  0.00     0.000 HD 
HETATM   30  O   UNL     1      -9.543   5.341  65.512  1.00  0.00    -0.311 OA 
HETATM   31  H   UNL     1      -9.214   4.867  64.758  1.00  0.00     0.000 HD 
ENDBRANCH   3  28
TORSDOF 7
ENDMDL
MODEL      239
REMARK 921   NORMALIZED FREE ENERGY PREDICTED BY IDOCK:   -3.53 KCAL/MOL
REMARK 922        TOTAL FREE ENERGY PREDICTED BY IDOCK:   -7.60 KCAL/MOL
REMARK 923 INTER-LIGAND FREE ENERGY PREDICTED BY IDOCK:   -4.95 KCAL/MOL
REMARK 924 INTRA-LIGAND FREE ENERGY PREDICTED BY IDOCK:   -2.66 KCAL/MOL
REMARK 927      BINDING AFFINITY PREDICTED BY RF-SCORE:    0.00 PKD
ROOT
HETATM    1  C   UNL     1     -10.840  10.798  66.332  1.00  0.00    -0.172 C  
HETATM    2  C   UNL     1      -9.903  10.225  67.102  1.00  0.00    -0.228 C  
HETATM    3  C   UNL     1     -10.518  12.044  65.627  1.00  0.00    -0.256 C  
HETATM    4  H   UNL     1     -11.010  12.991  64.027  1.00  0.00     0.000 HD 
HETATM    5  O   UNL     1     -11.219  12.184  64.483  1.00  0.00    -0.308 OA 
ENDROOT
BRANCH   2   6
HETATM    6  C   UNL     1     -10.180   8.976  67.801  1.00  0.00    -0.284 A  
HETATM    7  C   UNL     1     -10.885   7.950  67.166  1.00  0.00    -0.187 A  
HETATM    8  C   UNL     1     -11.049   6.717  67.801  1.00  0.00    -0.285 A  
HETATM    9  C   UNL     1      -9.680   8.781  69.091  1.00  0.00    -0.175 A  
HETATM   10  C   UNL     1     -10.507   6.498  69.074  1.00  0.00    -0.252 A  
HETATM   11  C   UNL     1      -9.841   7.548  69.723  1.00  0.00    -0.180 A  
BRANCH  10  12
HETATM   12  C   UNL     1     -10.523   5.117  69.680  1.00  0.00    -0.191 C  
BRANCH  12  13
HETATM   13  N   UNL     1      -9.227   4.444  69.582  1.00  0.00    -0.118 NA 
HETATM   14  H   UNL     1      -8.971   3.998  70.463  1.00  0.00     0.000 HD 
BRANCH  13  15
HETATM   15  C   UNL     1      -9.198   3.485  68.465  1.00  0.00    -0.166 C  
BRANCH  15  16
HETATM   16  C   UNL     1      -8.002   3.678  67.520  1.00  0.00    -0.082 C  
BRANCH  16  17
HETATM   17  C   UNL     1      -8.245   4.734  66.486  1.00  0.00    -0.107 A  
HETATM   18  C   UNL     1      -8.988   4.622  65.322  1.00  0.00    -0.148 A  
HETATM   19  N   UNL     1      -8.890   5.817  64.651  1.00  0.00    -0.362 NA 
HETATM   20  C   UNL     1      -9.779   3.499  64.754  1.00  0.00    -0.165 C  
HETATM   21  H   UNL     1      -9.333   6.017  63.754  1.00  0.00     0.000 HD 
HETATM   22  C   UNL     1      -8.117   6.707  65.353  1.00  0.00    -0.129 A  
HETATM   23  C   UNL     1      -7.747   8.021  65.043  1.00  0.00    -0.112 A  
HETATM   24  C   UNL     1      -6.945   8.704  65.961  1.00  0.00    -0.079 A  
HETATM   25  C   UNL     1      -6.530   8.094  67.143  1.00  0.00    -0.057 A  
HETATM   26  C   UNL     1      -6.901   6.777  67.432  1.00  0.00    -0.073 A  
HETATM   27  C   UNL     1      -7.709   6.065  66.520  1.00  0.00    -0.103 A  
ENDBRANCH  16  17
ENDBRANCH  15  16
ENDBRANCH  13  15
ENDBRANCH  12  13
ENDBRANCH  10  12
ENDBRANCH   2   6
BRANCH   3  28
HETATM   28  N   UNL     1      -9.663  12.924  66.039  1.00  0.00    -0.363 NA 
HETATM   29  H   UNL     1      -9.903  13.881  66.300  1.00  0.00     0.000 HD 
HETATM   30  O   UNL     1      -8.365  12.394  66.081  1.00  0.00    -0.367 OA 
HETATM   31  H   UNL     1      -7.738  13.040  66.384  1.00  0.00     0.000 HD 
ENDBRANCH   3  28
TORSDOF 7
ENDMDL
MODEL      240
REMARK 921   NORMALIZED FREE ENERGY PREDICTED BY IDOCK:   -3.53 KCAL/MOL
REMARK 922        TOTAL FREE ENERGY PREDICTED BY IDOCK:   -7.60 KCAL/MOL
REMARK 923 INTER-LIGAND FREE ENERGY PREDICTED BY IDOCK:   -6.97 KCAL/MOL
REMARK 924 INTRA-LIGAND FREE ENERGY PREDICTED BY IDOCK:   -0.63 KCAL/MOL
REMARK 927      BINDING AFFINITY PREDICTED BY RF-SCORE:    0.00 PKD
ROOT
HETATM    1  C   UNL     1      -8.991  17.599  67.786  1.00  0.00    -0.247 C  
HETATM    2  C   UNL     1     -10.120  17.118  67.244  1.00  0.00    -0.294 C  
HETATM    3  C   UNL     1      -8.602  18.986  67.508  1.00  0.00    -0.286 C  
HETATM    4  H   UNL     1      -7.629  20.428  68.330  1.00  0.00     0.000 HD 
HETATM    5  O   UNL     1      -7.881  19.529  68.511  1.00  0.00    -0.332 OA 
ENDROOT
BRANCH   2   6
HETATM    6  C   UNL     1     -10.550  15.751  67.514  1.00  0.00    -0.309 A  
HETATM    7  C   UNL     1     -11.608  15.188  66.796  1.00  0.00    -0.136 A  
HETATM    8  C   UNL     1     -11.942  13.845  66.982  1.00  0.00    -0.459 A  
HETATM    9  C   UNL     1      -9.857  14.982  68.452  1.00  0.00    -0.222 A  
HETATM   10  C   UNL     1     -11.218  13.053  67.884  1.00  0.00    -0.304 A  
HETATM   11  C   UNL     1     -10.189  13.639  68.634  1.00  0.00    -0.199 A  
BRANCH  10  12
HETATM   12  C   UNL     1     -11.456  11.565  67.948  1.00  0.00    -0.301 C  
BRANCH  12  13
HETATM   13  N   UNL     1     -11.832  11.112  69.288  1.00  0.00    -0.327 NA 
HETATM   14  H   UNL     1     -12.835  11.208  69.447  1.00  0.00     0.000 HD 
BRANCH  13  15
HETATM   15  C   UNL     1     -11.377   9.734  69.541  1.00  0.00    -0.083 C  
BRANCH  15  16
HETATM   16  C   UNL     1      -9.969   9.442  69.000  1.00  0.00    -0.182 C  
BRANCH  16  17
HETATM   17  C   UNL     1      -9.952   8.328  67.999  1.00  0.00    -0.224 A  
HETATM   18  C   UNL     1      -9.973   8.432  66.617  1.00  0.00    -0.284 A  
HETATM   19  N   UNL     1     -10.004   7.157  66.106  1.00  0.00    -0.425 NA 
HETATM   20  C   UNL     1      -9.982   9.610  65.712  1.00  0.00    -0.342 C  
HETATM   21  H   UNL     1     -10.033   6.931  65.112  1.00  0.00     0.000 HD 
HETATM   22  C   UNL     1      -9.989   6.228  67.116  1.00  0.00    -0.151 A  
HETATM   23  C   UNL     1     -10.019   4.830  67.054  1.00  0.00    -0.235 A  
HETATM   24  C   UNL     1      -9.985   4.126  68.262  1.00  0.00     0.011 A  
HETATM   25  C   UNL     1      -9.923   4.797  69.481  1.00  0.00    -0.287 A  
HETATM   26  C   UNL     1      -9.903   6.195  69.524  1.00  0.00    -0.193 A  
HETATM   27  C   UNL     1      -9.938   6.929  68.318  1.00  0.00    -0.162 A  
ENDBRANCH  16  17
ENDBRANCH  15  16
ENDBRANCH  13  15
ENDBRANCH  12  13
ENDBRANCH  10  12
ENDBRANCH   2   6
BRANCH   3  28
HETATM   28  N   UNL     1      -8.903  19.633  66.429  1.00  0.00    -0.365 NA 
HETATM   29  H   UNL     1      -8.801  19.258  65.485  1.00  0.00     0.000 HD 
HETATM   30  O   UNL     1      -9.387  20.917  66.722  1.00  0.00    -0.638 OA 
HETATM   31  H   UNL     1      -9.607  21.392  65.929  1.00  0.00     0.000 HD 
ENDBRANCH   3  28
TORSDOF 7
ENDMDL
MODEL      241
REMARK 921   NORMALIZED FREE ENERGY PREDICTED BY IDOCK:   -3.53 KCAL/MOL
REMARK 922        TOTAL FREE ENERGY PREDICTED BY IDOCK:   -7.60 KCAL/MOL
REMARK 923 INTER-LIGAND FREE ENERGY PREDICTED BY IDOCK:   -6.84 KCAL/MOL
REMARK 924 INTRA-LIGAND FREE ENERGY PREDICTED BY IDOCK:   -0.76 KCAL/MOL
REMARK 927      BINDING AFFINITY PREDICTED BY RF-SCORE:    0.00 PKD
ROOT
HETATM    1  C   UNL     1      -7.948   6.278  64.920  1.00  0.00    -0.124 C  
HETATM    2  C   UNL     1      -8.695   6.120  66.023  1.00  0.00    -0.157 C  
HETATM    3  C   UNL     1      -7.443   5.089  64.226  1.00  0.00    -0.064 C  
HETATM    4  H   UNL     1      -6.945   4.527  62.454  1.00  0.00     0.000 HD 
HETATM    5  O   UNL     1      -7.273   5.298  62.904  1.00  0.00    -0.040 OA 
ENDROOT
BRANCH   2   6
HETATM    6  C   UNL     1      -9.233   7.277  66.728  1.00  0.00    -0.187 A  
HETATM    7  C   UNL     1      -9.060   8.563  66.211  1.00  0.00    -0.232 A  
HETATM    8  C   UNL     1      -9.672   9.655  66.832  1.00  0.00    -0.240 A  
HETATM    9  C   UNL     1      -9.979   7.090  67.894  1.00  0.00    -0.183 A  
HETATM   10  C   UNL     1     -10.464   9.468  67.973  1.00  0.00    -0.279 A  
HETATM   11  C   UNL     1     -10.593   8.180  68.512  1.00  0.00    -0.142 A  
BRANCH  10  12
HETATM   12  C   UNL     1     -11.272  10.613  68.533  1.00  0.00    -0.282 C  
BRANCH  12  13
HETATM   13  N   UNL     1     -11.987  11.357  67.495  1.00  0.00    -0.601 NA 
HETATM   14  H   UNL     1     -12.950  11.033  67.400  1.00  0.00     0.000 HD 
BRANCH  13  15
HETATM   15  C   UNL     1     -11.929  12.809  67.734  1.00  0.00    -0.260 C  
BRANCH  15  16
HETATM   16  C   UNL     1     -10.582  13.442  67.349  1.00  0.00    -0.254 C  
BRANCH  16  17
HETATM   17  C   UNL     1     -10.740  14.680  66.521  1.00  0.00    -0.312 A  
HETATM   18  C   UNL     1     -11.044  14.761  65.172  1.00  0.00    -0.384 A  
HETATM   19  N   UNL     1     -11.030  16.090  64.823  1.00  0.00    -0.729 NA 
HETATM   20  C   UNL     1     -11.336  13.716  64.156  1.00  0.00    -0.330 C  
HETATM   21  H   UNL     1     -11.212  16.445  63.885  1.00  0.00     0.000 HD 
HETATM   22  C   UNL     1     -10.739  16.875  65.911  1.00  0.00    -0.149 A  
HETATM   23  C   UNL     1     -10.613  18.265  66.011  1.00  0.00    -0.318 A  
HETATM   24  C   UNL     1     -10.313  18.802  67.266  1.00  0.00    -0.469 A  
HETATM   25  C   UNL     1     -10.147  17.977  68.377  1.00  0.00    -0.392 A  
HETATM   26  C   UNL     1     -10.268  16.588  68.256  1.00  0.00    -0.268 A  
HETATM   27  C   UNL     1     -10.569  16.023  66.998  1.00  0.00    -0.302 A  
ENDBRANCH  16  17
ENDBRANCH  15  16
ENDBRANCH  13  15
ENDBRANCH  12  13
ENDBRANCH  10  12
ENDBRANCH   2   6
BRANCH   3  28
HETATM   28  N   UNL     1      -7.179   3.958  64.798  1.00  0.00    -0.065 NA 
HETATM   29  H   UNL     1      -6.437   3.819  65.484  1.00  0.00     0.000 HD 
HETATM   30  O   UNL     1      -8.045   2.948  64.353  1.00  0.00    -0.081 OA 
HETATM   31  H   UNL     1      -7.852   2.118  64.774  1.00  0.00     0.000 HD 
ENDBRANCH   3  28
TORSDOF 7
ENDMDL
MODEL      242
REMARK 921   NORMALIZED FREE ENERGY PREDICTED BY IDOCK:   -3.53 KCAL/MOL
REMARK 922        TOTAL FREE ENERGY PREDICTED BY IDOCK:   -7.60 KCAL/MOL
REMARK 923 INTER-LIGAND FREE ENERGY PREDICTED BY IDOCK:   -6.26 KCAL/MOL
REMARK 924 INTRA-LIGAND FREE ENERGY PREDICTED BY IDOCK:   -1.34 KCAL/MOL
REMARK 927      BINDING AFFINITY PREDICTED BY RF-SCORE:    0.00 PKD
ROOT
HETATM    1  C   UNL     1      -9.812   5.875  68.534  1.00  0.00    -0.166 C  
HETATM    2  C   UNL     1     -10.607   6.212  69.561  1.00  0.00    -0.350 C  
HETATM    3  C   UNL     1      -9.571   4.455  68.258  1.00  0.00    -0.138 C  
HETATM    4  H   UNL     1      -9.162   3.300  66.774  1.00  0.00     0.000 HD 
HETATM    5  O   UNL     1      -9.319   4.220  66.953  1.00  0.00    -0.140 OA 
ENDROOT
BRANCH   2   6
HETATM    6  C   UNL     1     -10.888   7.613  69.854  1.00  0.00    -0.241 A  
HETATM    7  C   UNL     1     -10.283   8.627  69.106  1.00  0.00    -0.215 A  
HETATM    8  C   UNL     1     -10.641   9.960  69.319  1.00  0.00    -0.245 A  
HETATM    9  C   UNL     1     -11.814   7.938  70.847  1.00  0.00    -0.242 A  
HETATM   10  C   UNL     1     -11.607  10.290  70.279  1.00  0.00    -0.396 A  
HETATM   11  C   UNL     1     -12.174   9.270  71.057  1.00  0.00    -0.322 A  
BRANCH  10  12
HETATM   12  C   UNL     1     -12.127  11.703  70.379  1.00  0.00    -0.373 C  
BRANCH  12  13
HETATM   13  N   UNL     1     -11.266  12.669  69.696  1.00  0.00    -0.478 NA 
HETATM   14  H   UNL     1     -10.308  12.327  69.621  1.00  0.00     0.000 HD 
BRANCH  13  15
HETATM   15  C   UNL     1     -11.809  13.040  68.379  1.00  0.00    -0.334 C  
BRANCH  15  16
HETATM   16  C   UNL     1     -10.841  13.876  67.527  1.00  0.00    -0.274 C  
BRANCH  16  17
HETATM   17  C   UNL     1      -9.541  13.176  67.272  1.00  0.00    -0.233 A  
HETATM   18  C   UNL     1      -8.274  13.576  67.666  1.00  0.00    -0.178 A  
HETATM   19  N   UNL     1      -7.378  12.663  67.167  1.00  0.00    -0.340 NA 
HETATM   20  C   UNL     1      -7.804  14.743  68.458  1.00  0.00    -0.130 C  
HETATM   21  H   UNL     1      -6.367  12.712  67.296  1.00  0.00     0.000 HD 
HETATM   22  C   UNL     1      -8.027  11.674  66.472  1.00  0.00    -0.053 A  
HETATM   23  C   UNL     1      -7.513  10.561  65.797  1.00  0.00    -0.139 A  
HETATM   24  C   UNL     1      -8.423   9.702  65.173  1.00  0.00    -0.159 A  
HETATM   25  C   UNL     1      -9.793   9.949  65.225  1.00  0.00    -0.373 A  
HETATM   26  C   UNL     1     -10.288  11.072  65.897  1.00  0.00    -0.315 A  
HETATM   27  C   UNL     1      -9.389  11.955  66.533  1.00  0.00    -0.222 A  
ENDBRANCH  16  17
ENDBRANCH  15  16
ENDBRANCH  13  15
ENDBRANCH  12  13
ENDBRANCH  10  12
ENDBRANCH   2   6
BRANCH   3  28
HETATM   28  N   UNL     1      -9.589   3.517  69.149  1.00  0.00    -0.144 NA 
HETATM   29  H   UNL     1     -10.415   3.248  69.686  1.00  0.00     0.000 HD 
HETATM   30  O   UNL     1      -8.328   2.917  69.284  1.00  0.00    -0.057 OA 
HETATM   31  H   UNL     1      -8.341   2.229  69.939  1.00  0.00     0.000 HD 
ENDBRANCH   3  28
TORSDOF 7
ENDMDL
MODEL      243
REMARK 921   NORMALIZED FREE ENERGY PREDICTED BY IDOCK:   -3.52 KCAL/MOL
REMARK 922        TOTAL FREE ENERGY PREDICTED BY IDOCK:   -7.59 KCAL/MOL
REMARK 923 INTER-LIGAND FREE ENERGY PREDICTED BY IDOCK:   -6.51 KCAL/MOL
REMARK 924 INTRA-LIGAND FREE ENERGY PREDICTED BY IDOCK:   -1.08 KCAL/MOL
REMARK 927      BINDING AFFINITY PREDICTED BY RF-SCORE:    0.00 PKD
ROOT
HETATM    1  C   UNL     1     -11.761  14.997  69.610  1.00  0.00    -0.353 C  
HETATM    2  C   UNL     1     -12.293  14.012  68.871  1.00  0.00    -0.106 C  
HETATM    3  C   UNL     1     -12.516  15.515  70.756  1.00  0.00    -0.440 C  
HETATM    4  H   UNL     1     -12.203  16.332  72.469  1.00  0.00     0.000 HD 
HETATM    5  O   UNL     1     -11.713  15.996  71.727  1.00  0.00    -0.450 OA 
ENDROOT
BRANCH   2   6
HETATM    6  C   UNL     1     -11.563  13.457  67.738  1.00  0.00    -0.375 A  
HETATM    7  C   UNL     1     -10.213  13.120  67.862  1.00  0.00    -0.233 A  
HETATM    8  C   UNL     1      -9.550  12.487  66.808  1.00  0.00    -0.231 A  
HETATM    9  C   UNL     1     -12.236  13.202  66.541  1.00  0.00    -0.358 A  
HETATM   10  C   UNL     1     -10.233  12.182  65.623  1.00  0.00    -0.285 A  
HETATM   11  C   UNL     1     -11.575  12.566  65.490  1.00  0.00    -0.429 A  
BRANCH  10  12
HETATM   12  C   UNL     1      -9.573  11.337  64.562  1.00  0.00    -0.227 C  
BRANCH  12  13
HETATM   13  N   UNL     1      -8.854  10.191  65.121  1.00  0.00    -0.170 NA 
HETATM   14  H   UNL     1      -8.437  10.417  66.024  1.00  0.00     0.000 HD 
BRANCH  13  15
HETATM   15  C   UNL     1      -9.718   9.002  65.211  1.00  0.00     0.205 C  
BRANCH  15  16
HETATM   16  C   UNL     1      -9.077   7.832  65.971  1.00  0.00    -0.169 C  
BRANCH  16  17
HETATM   17  C   UNL     1      -9.099   8.024  67.456  1.00  0.00    -0.146 A  
HETATM   18  C   UNL     1      -9.950   7.428  68.374  1.00  0.00    -0.164 A  
HETATM   19  N   UNL     1      -9.647   7.939  69.612  1.00  0.00    -0.164 NA 
HETATM   20  C   UNL     1     -11.038   6.429  68.213  1.00  0.00    -0.359 C  
HETATM   21  H   UNL     1     -10.124   7.684  70.477  1.00  0.00     0.000 HD 
HETATM   22  C   UNL     1      -8.615   8.840  69.528  1.00  0.00    -0.130 A  
HETATM   23  C   UNL     1      -7.997   9.599  70.529  1.00  0.00    -0.148 A  
HETATM   24  C   UNL     1      -6.949  10.442  70.150  1.00  0.00    -0.146 A  
HETATM   25  C   UNL     1      -6.536  10.521  68.822  1.00  0.00    -0.053 A  
HETATM   26  C   UNL     1      -7.172   9.762  67.833  1.00  0.00    -0.084 A  
HETATM   27  C   UNL     1      -8.234   8.904  68.190  1.00  0.00    -0.114 A  
ENDBRANCH  16  17
ENDBRANCH  15  16
ENDBRANCH  13  15
ENDBRANCH  12  13
ENDBRANCH  10  12
ENDBRANCH   2   6
BRANCH   3  28
HETATM   28  N   UNL     1     -13.807  15.524  70.844  1.00  0.00    -0.854 NA 
HETATM   29  H   UNL     1     -14.439  15.578  70.044  1.00  0.00     0.000 HD 
HETATM   30  O   UNL     1     -14.228  15.450  72.180  1.00  0.00    -0.528 OA 
HETATM   31  H   UNL     1     -15.176  15.456  72.244  1.00  0.00     0.000 HD 
ENDBRANCH   3  28
TORSDOF 7
ENDMDL
MODEL      244
REMARK 921   NORMALIZED FREE ENERGY PREDICTED BY IDOCK:   -3.52 KCAL/MOL
REMARK 922        TOTAL FREE ENERGY PREDICTED BY IDOCK:   -7.59 KCAL/MOL
REMARK 923 INTER-LIGAND FREE ENERGY PREDICTED BY IDOCK:   -7.16 KCAL/MOL
REMARK 924 INTRA-LIGAND FREE ENERGY PREDICTED BY IDOCK:   -0.43 KCAL/MOL
REMARK 927      BINDING AFFINITY PREDICTED BY RF-SCORE:    0.00 PKD
ROOT
HETATM    1  C   UNL     1     -10.348   6.460  67.419  1.00  0.00    -0.257 C  
HETATM    2  C   UNL     1      -9.974   7.418  66.558  1.00  0.00    -0.194 C  
HETATM    3  C   UNL     1     -10.105   5.056  67.071  1.00  0.00    -0.214 C  
HETATM    4  H   UNL     1      -9.776   3.368  67.934  1.00  0.00     0.000 HD 
HETATM    5  O   UNL     1      -9.933   4.278  68.160  1.00  0.00    -0.085 OA 
ENDROOT
BRANCH   2   6
HETATM    6  C   UNL     1     -10.179   8.826  66.878  1.00  0.00    -0.357 A  
HETATM    7  C   UNL     1      -9.758   9.821  65.992  1.00  0.00    -0.319 A  
HETATM    8  C   UNL     1     -10.056  11.161  66.253  1.00  0.00    -0.277 A  
HETATM    9  C   UNL     1     -10.857   9.177  68.048  1.00  0.00    -0.135 A  
HETATM   10  C   UNL     1     -10.780  11.515  67.399  1.00  0.00    -0.275 A  
HETATM   11  C   UNL     1     -11.158  10.514  68.306  1.00  0.00    -0.340 A  
BRANCH  10  12
HETATM   12  C   UNL     1     -11.261  12.933  67.586  1.00  0.00    -0.278 C  
BRANCH  12  13
HETATM   13  N   UNL     1     -10.756  13.839  66.554  1.00  0.00    -0.283 NA 
HETATM   14  H   UNL     1     -11.516  14.233  65.998  1.00  0.00     0.000 HD 
BRANCH  13  15
HETATM   15  C   UNL     1      -9.908  14.896  67.130  1.00  0.00    -0.231 C  
BRANCH  15  16
HETATM   16  C   UNL     1      -9.664  16.077  66.178  1.00  0.00    -0.353 C  
BRANCH  16  17
HETATM   17  C   UNL     1      -9.047  17.257  66.863  1.00  0.00    -0.250 A  
HETATM   18  C   UNL     1      -9.587  18.524  67.014  1.00  0.00    -0.298 A  
HETATM   19  N   UNL     1      -8.651  19.299  67.655  1.00  0.00    -0.290 NA 
HETATM   20  C   UNL     1     -10.894  19.101  66.607  1.00  0.00    -0.369 C  
HETATM   21  H   UNL     1      -8.776  20.284  67.890  1.00  0.00     0.000 HD 
HETATM   22  C   UNL     1      -7.525  18.567  67.937  1.00  0.00    -0.238 A  
HETATM   23  C   UNL     1      -6.334  18.952  68.564  1.00  0.00    -0.245 A  
HETATM   24  C   UNL     1      -5.342  17.980  68.727  1.00  0.00    -0.170 A  
HETATM   25  C   UNL     1      -5.538  16.675  68.281  1.00  0.00    -0.118 A  
HETATM   26  C   UNL     1      -6.731  16.311  67.648  1.00  0.00    -0.169 A  
HETATM   27  C   UNL     1      -7.746  17.275  67.469  1.00  0.00    -0.191 A  
ENDBRANCH  16  17
ENDBRANCH  15  16
ENDBRANCH  13  15
ENDBRANCH  12  13
ENDBRANCH  10  12
ENDBRANCH   2   6
BRANCH   3  28
HETATM   28  N   UNL     1     -10.062   4.593  65.863  1.00  0.00    -0.238 NA 
HETATM   29  H   UNL     1      -9.228   4.196  65.429  1.00  0.00     0.000 HD 
HETATM   30  O   UNL     1     -11.307   4.708  65.228  1.00  0.00    -0.980 OA 
HETATM   31  H   UNL     1     -11.275   4.368  64.341  1.00  0.00     0.000 HD 
ENDBRANCH   3  28
TORSDOF 7
ENDMDL
MODEL      245
REMARK 921   NORMALIZED FREE ENERGY PREDICTED BY IDOCK:   -3.48 KCAL/MOL
REMARK 922        TOTAL FREE ENERGY PREDICTED BY IDOCK:   -7.54 KCAL/MOL
REMARK 923 INTER-LIGAND FREE ENERGY PREDICTED BY IDOCK:   -4.93 KCAL/MOL
REMARK 924 INTRA-LIGAND FREE ENERGY PREDICTED BY IDOCK:   -2.61 KCAL/MOL
REMARK 927      BINDING AFFINITY PREDICTED BY RF-SCORE:    0.00 PKD
ROOT
HETATM    1  C   UNL     1     -10.294  12.965  68.052  1.00  0.00    -0.230 C  
HETATM    2  C   UNL     1     -11.185  11.967  67.956  1.00  0.00    -0.316 C  
HETATM    3  C   UNL     1     -10.773  14.323  68.330  1.00  0.00    -0.251 C  
HETATM    4  H   UNL     1     -10.171  15.946  69.170  1.00  0.00     0.000 HD 
HETATM    5  O   UNL     1      -9.860  15.066  68.990  1.00  0.00    -0.223 OA 
ENDROOT
BRANCH   2   6
HETATM    6  C   UNL     1     -10.745  10.600  67.702  1.00  0.00    -0.315 A  
HETATM    7  C   UNL     1     -10.722   9.661  68.736  1.00  0.00    -0.234 A  
HETATM    8  C   UNL     1     -10.406   8.328  68.462  1.00  0.00    -0.230 A  
HETATM    9  C   UNL     1     -10.407  10.214  66.403  1.00  0.00    -0.258 A  
HETATM   10  C   UNL     1     -10.115   7.923  67.153  1.00  0.00    -0.328 A  
HETATM   11  C   UNL     1     -10.095   8.882  66.129  1.00  0.00    -0.209 A  
BRANCH  10  12
HETATM   12  C   UNL     1      -9.957   6.459  66.828  1.00  0.00    -0.171 C  
BRANCH  12  13
HETATM   13  N   UNL     1      -9.209   5.731  67.854  1.00  0.00    -0.109 NA 
HETATM   14  H   UNL     1      -9.791   5.031  68.313  1.00  0.00     0.000 HD 
BRANCH  13  15
HETATM   15  C   UNL     1      -7.980   5.135  67.306  1.00  0.00    -0.100 C  
BRANCH  15  16
HETATM   16  C   UNL     1      -6.741   6.032  67.456  1.00  0.00    -0.058 C  
BRANCH  16  17
HETATM   17  C   UNL     1      -6.820   6.934  68.648  1.00  0.00    -0.070 A  
HETATM   18  C   UNL     1      -6.867   6.568  69.984  1.00  0.00    -0.054 A  
HETATM   19  N   UNL     1      -6.991   7.719  70.724  1.00  0.00    -0.046 NA 
HETATM   20  C   UNL     1      -6.821   5.241  70.651  1.00  0.00    -0.051 C  
HETATM   21  H   UNL     1      -7.058   7.749  71.742  1.00  0.00     0.000 HD 
HETATM   22  C   UNL     1      -7.012   8.822  69.909  1.00  0.00    -0.046 A  
HETATM   23  C   UNL     1      -7.134  10.179  70.232  1.00  0.00    -0.146 A  
HETATM   24  C   UNL     1      -7.118  11.100  69.180  1.00  0.00    -0.116 A  
HETATM   25  C   UNL     1      -6.983  10.678  67.859  1.00  0.00    -0.077 A  
HETATM   26  C   UNL     1      -6.872   9.317  67.555  1.00  0.00    -0.077 A  
HETATM   27  C   UNL     1      -6.888   8.367  68.599  1.00  0.00    -0.063 A  
ENDBRANCH  16  17
ENDBRANCH  15  16
ENDBRANCH  13  15
ENDBRANCH  12  13
ENDBRANCH  10  12
ENDBRANCH   2   6
BRANCH   3  28
HETATM   28  N   UNL     1     -11.935  14.779  67.988  1.00  0.00    -0.543 NA 
HETATM   29  H   UNL     1     -12.391  14.580  67.097  1.00  0.00     0.000 HD 
HETATM   30  O   UNL     1     -12.486  15.582  68.997  1.00  0.00    -0.607 OA 
HETATM   31  H   UNL     1     -13.338  15.916  68.745  1.00  0.00     0.000 HD 
ENDBRANCH   3  28
TORSDOF 7
ENDMDL
MODEL      246
REMARK 921   NORMALIZED FREE ENERGY PREDICTED BY IDOCK:   -3.48 KCAL/MOL
REMARK 922        TOTAL FREE ENERGY PREDICTED BY IDOCK:   -7.53 KCAL/MOL
REMARK 923 INTER-LIGAND FREE ENERGY PREDICTED BY IDOCK:   -4.86 KCAL/MOL
REMARK 924 INTRA-LIGAND FREE ENERGY PREDICTED BY IDOCK:   -2.67 KCAL/MOL
REMARK 927      BINDING AFFINITY PREDICTED BY RF-SCORE:    0.00 PKD
ROOT
HETATM    1  C   UNL     1     -11.780  14.922  68.626  1.00  0.00    -0.358 C  
HETATM    2  C   UNL     1     -12.147  13.746  68.095  1.00  0.00    -0.316 C  
HETATM    3  C   UNL     1     -12.129  15.213  70.021  1.00  0.00    -0.345 C  
HETATM    4  H   UNL     1     -11.474  16.238  71.512  1.00  0.00     0.000 HD 
HETATM    5  O   UNL     1     -11.248  16.050  70.608  1.00  0.00    -0.354 OA 
ENDROOT
BRANCH   2   6
HETATM    6  C   UNL     1     -11.801  13.412  66.719  1.00  0.00    -0.452 A  
HETATM    7  C   UNL     1     -11.158  14.347  65.905  1.00  0.00    -0.319 A  
HETATM    8  C   UNL     1     -10.730  13.984  64.626  1.00  0.00    -0.416 A  
HETATM    9  C   UNL     1     -12.058  12.127  66.235  1.00  0.00    -0.037 A  
HETATM   10  C   UNL     1     -10.939  12.682  64.152  1.00  0.00    -0.427 A  
HETATM   11  C   UNL     1     -11.627  11.764  64.959  1.00  0.00    -0.214 A  
BRANCH  10  12
HETATM   12  C   UNL     1     -10.317  12.237  62.852  1.00  0.00     0.559 C  
BRANCH  12  13
HETATM   13  N   UNL     1      -9.072  11.493  63.049  1.00  0.00    -0.546 NA 
HETATM   14  H   UNL     1      -8.527  11.876  63.822  1.00  0.00     0.000 HD 
BRANCH  13  15
HETATM   15  C   UNL     1      -9.325  10.054  63.229  1.00  0.00    -0.256 C  
BRANCH  15  16
HETATM   16  C   UNL     1      -8.429   9.400  64.292  1.00  0.00    -0.198 C  
BRANCH  16  17
HETATM   17  C   UNL     1      -8.966   9.559  65.680  1.00  0.00    -0.224 A  
HETATM   18  C   UNL     1      -9.773   8.676  66.380  1.00  0.00    -0.263 A  
HETATM   19  N   UNL     1     -10.068   9.255  67.591  1.00  0.00    -0.200 NA 
HETATM   20  C   UNL     1     -10.317   7.338  66.030  1.00  0.00     0.865 C  
HETATM   21  H   UNL     1     -10.655   8.830  68.309  1.00  0.00     0.000 HD 
HETATM   22  C   UNL     1      -9.465  10.482  67.702  1.00  0.00    -0.149 A  
HETATM   23  C   UNL     1      -9.501  11.412  68.748  1.00  0.00    -0.128 A  
HETATM   24  C   UNL     1      -8.773  12.595  68.590  1.00  0.00     0.049 A  
HETATM   25  C   UNL     1      -8.039  12.835  67.431  1.00  0.00    -0.185 A  
HETATM   26  C   UNL     1      -8.021  11.898  66.393  1.00  0.00     0.129 A  
HETATM   27  C   UNL     1      -8.750  10.697  66.527  1.00  0.00    -0.151 A  
ENDBRANCH  16  17
ENDBRANCH  15  16
ENDBRANCH  13  15
ENDBRANCH  12  13
ENDBRANCH  10  12
ENDBRANCH   2   6
BRANCH   3  28
HETATM   28  N   UNL     1     -13.161  14.736  70.638  1.00  0.00    -0.583 NA 
HETATM   29  H   UNL     1     -14.085  15.170  70.635  1.00  0.00     0.000 HD 
HETATM   30  O   UNL     1     -12.848  13.545  71.311  1.00  0.00    -0.346 OA 
HETATM   31  H   UNL     1     -13.607  13.195  71.763  1.00  0.00     0.000 HD 
ENDBRANCH   3  28
TORSDOF 7
ENDMDL
MODEL      247
REMARK 921   NORMALIZED FREE ENERGY PREDICTED BY IDOCK:   -3.47 KCAL/MOL
REMARK 922        TOTAL FREE ENERGY PREDICTED BY IDOCK:   -7.52 KCAL/MOL
REMARK 923 INTER-LIGAND FREE ENERGY PREDICTED BY IDOCK:   -6.28 KCAL/MOL
REMARK 924 INTRA-LIGAND FREE ENERGY PREDICTED BY IDOCK:   -1.24 KCAL/MOL
REMARK 927      BINDING AFFINITY PREDICTED BY RF-SCORE:    0.00 PKD
ROOT
HETATM    1  C   UNL     1      -9.553  14.748  68.157  1.00  0.00    -0.209 C  
HETATM    2  C   UNL     1     -10.537  13.851  68.319  1.00  0.00    -0.263 C  
HETATM    3  C   UNL     1      -9.824  16.161  68.444  1.00  0.00    -0.222 C  
HETATM    4  H   UNL     1      -8.895  17.741  69.028  1.00  0.00     0.000 HD 
HETATM    5  O   UNL     1      -8.719  16.826  68.843  1.00  0.00    -0.255 OA 
ENDROOT
BRANCH   2   6
HETATM    6  C   UNL     1     -10.301  12.435  68.065  1.00  0.00    -0.220 A  
HETATM    7  C   UNL     1     -11.358  11.523  68.110  1.00  0.00    -0.367 A  
HETATM    8  C   UNL     1     -11.145  10.188  67.757  1.00  0.00    -0.293 A  
HETATM    9  C   UNL     1      -9.022  12.001  67.712  1.00  0.00    -0.176 A  
HETATM   10  C   UNL     1      -9.875   9.756  67.353  1.00  0.00    -0.219 A  
HETATM   11  C   UNL     1      -8.810  10.669  67.356  1.00  0.00    -0.132 A  
BRANCH  10  12
HETATM   12  C   UNL     1      -9.686   8.367  66.797  1.00  0.00    -0.242 C  
BRANCH  12  13
HETATM   13  N   UNL     1     -10.861   7.517  66.994  1.00  0.00    -0.524 NA 
HETATM   14  H   UNL     1     -11.394   7.412  66.131  1.00  0.00     0.000 HD 
BRANCH  13  15
HETATM   15  C   UNL     1     -10.493   6.209  67.562  1.00  0.00    -0.240 C  
BRANCH  15  16
HETATM   16  C   UNL     1      -9.238   6.254  68.447  1.00  0.00    -0.112 C  
BRANCH  16  17
HETATM   17  C   UNL     1      -9.532   5.963  69.886  1.00  0.00    -0.180 A  
HETATM   18  C   UNL     1      -9.145   4.854  70.621  1.00  0.00    -0.128 A  
HETATM   19  N   UNL     1      -9.684   4.981  71.878  1.00  0.00    -0.155 NA 
HETATM   20  C   UNL     1      -8.326   3.666  70.266  1.00  0.00    -0.082 C  
HETATM   21  H   UNL     1      -9.569   4.301  72.630  1.00  0.00     0.000 HD 
HETATM   22  C   UNL     1     -10.399   6.147  71.985  1.00  0.00    -0.199 A  
HETATM   23  C   UNL     1     -11.115   6.669  73.069  1.00  0.00    -0.238 A  
HETATM   24  C   UNL     1     -11.751   7.901  72.894  1.00  0.00    -0.239 A  
HETATM   25  C   UNL     1     -11.671   8.583  71.681  1.00  0.00    -0.369 A  
HETATM   26  C   UNL     1     -10.959   8.042  70.606  1.00  0.00    -0.250 A  
HETATM   27  C   UNL     1     -10.309   6.798  70.757  1.00  0.00    -0.227 A  
ENDBRANCH  16  17
ENDBRANCH  15  16
ENDBRANCH  13  15
ENDBRANCH  12  13
ENDBRANCH  10  12
ENDBRANCH   2   6
BRANCH   3  28
HETATM   28  N   UNL     1     -10.981  16.728  68.330  1.00  0.00    -0.362 NA 
HETATM   29  H   UNL     1     -11.848  16.351  68.717  1.00  0.00     0.000 HD 
HETATM   30  O   UNL     1     -10.893  17.926  67.606  1.00  0.00    -0.375 OA 
HETATM   31  H   UNL     1     -11.744  18.342  67.523  1.00  0.00     0.000 HD 
ENDBRANCH   3  28
TORSDOF 7
ENDMDL
MODEL      248
REMARK 921   NORMALIZED FREE ENERGY PREDICTED BY IDOCK:   -3.47 KCAL/MOL
REMARK 922        TOTAL FREE ENERGY PREDICTED BY IDOCK:   -7.52 KCAL/MOL
REMARK 923 INTER-LIGAND FREE ENERGY PREDICTED BY IDOCK:   -6.69 KCAL/MOL
REMARK 924 INTRA-LIGAND FREE ENERGY PREDICTED BY IDOCK:   -0.83 KCAL/MOL
REMARK 927      BINDING AFFINITY PREDICTED BY RF-SCORE:    0.00 PKD
ROOT
HETATM    1  C   UNL     1     -10.276   5.384  71.256  1.00  0.00    -0.287 C  
HETATM    2  C   UNL     1     -10.892   6.220  70.406  1.00  0.00    -0.360 C  
HETATM    3  C   UNL     1     -10.949   5.019  72.508  1.00  0.00    -0.177 C  
HETATM    4  H   UNL     1     -11.024   3.560  73.759  1.00  0.00     0.000 HD 
HETATM    5  O   UNL     1     -10.588   3.796  72.948  1.00  0.00    -0.169 OA 
ENDROOT
BRANCH   2   6
HETATM    6  C   UNL     1     -10.264   6.590  69.143  1.00  0.00    -0.208 A  
HETATM    7  C   UNL     1     -10.941   6.401  67.936  1.00  0.00    -0.416 A  
HETATM    8  C   UNL     1     -10.380   6.859  66.741  1.00  0.00    -0.287 A  
HETATM    9  C   UNL     1      -9.005   7.194  69.148  1.00  0.00    -0.138 A  
HETATM   10  C   UNL     1      -9.140   7.512  66.745  1.00  0.00    -0.176 A  
HETATM   11  C   UNL     1      -8.447   7.655  67.956  1.00  0.00    -0.123 A  
BRANCH  10  12
HETATM   12  C   UNL     1      -8.623   8.168  65.489  1.00  0.00    -0.149 C  
BRANCH  12  13
HETATM   13  N   UNL     1      -9.272   9.450  65.215  1.00  0.00    -0.255 NA 
HETATM   14  H   UNL     1     -10.222   9.474  65.585  1.00  0.00     0.000 HD 
BRANCH  13  15
HETATM   15  C   UNL     1      -8.471  10.580  65.716  1.00  0.00    -0.175 C  
BRANCH  15  16
HETATM   16  C   UNL     1      -9.116  11.314  66.902  1.00  0.00    -0.172 C  
BRANCH  16  17
HETATM   17  C   UNL     1      -9.243  12.788  66.671  1.00  0.00    -0.212 A  
HETATM   18  C   UNL     1      -8.509  13.802  67.266  1.00  0.00    -0.194 A  
HETATM   19  N   UNL     1      -9.002  14.997  66.800  1.00  0.00    -0.249 NA 
HETATM   20  C   UNL     1      -7.392  13.776  68.245  1.00  0.00    -0.118 C  
HETATM   21  H   UNL     1      -8.655  15.916  67.078  1.00  0.00     0.000 HD 
HETATM   22  C   UNL     1     -10.026  14.788  65.910  1.00  0.00    -0.326 A  
HETATM   23  C   UNL     1     -10.813  15.709  65.209  1.00  0.00    -0.420 A  
HETATM   24  C   UNL     1     -11.794  15.203  64.351  1.00  0.00    -0.314 A  
HETATM   25  C   UNL     1     -11.977  13.831  64.201  1.00  0.00    -0.473 A  
HETATM   26  C   UNL     1     -11.187  12.925  64.918  1.00  0.00    -0.331 A  
HETATM   27  C   UNL     1     -10.192  13.411  65.792  1.00  0.00    -0.300 A  
ENDBRANCH  16  17
ENDBRANCH  15  16
ENDBRANCH  13  15
ENDBRANCH  12  13
ENDBRANCH  10  12
ENDBRANCH   2   6
BRANCH   3  28
HETATM   28  N   UNL     1     -11.793   5.771  73.137  1.00  0.00    -0.447 NA 
HETATM   29  H   UNL     1     -11.537   6.600  73.675  1.00  0.00     0.000 HD 
HETATM   30  O   UNL     1     -13.106   5.301  72.985  1.00  0.00    -0.213 OA 
HETATM   31  H   UNL     1     -13.726   5.854  73.447  1.00  0.00     0.000 HD 
ENDBRANCH   3  28
TORSDOF 7
ENDMDL
MODEL      249
REMARK 921   NORMALIZED FREE ENERGY PREDICTED BY IDOCK:   -3.47 KCAL/MOL
REMARK 922        TOTAL FREE ENERGY PREDICTED BY IDOCK:   -7.52 KCAL/MOL
REMARK 923 INTER-LIGAND FREE ENERGY PREDICTED BY IDOCK:   -6.88 KCAL/MOL
REMARK 924 INTRA-LIGAND FREE ENERGY PREDICTED BY IDOCK:   -0.64 KCAL/MOL
REMARK 927      BINDING AFFINITY PREDICTED BY RF-SCORE:    0.00 PKD
ROOT
HETATM    1  C   UNL     1      -9.343  18.500  67.212  1.00  0.00    -0.286 C  
HETATM    2  C   UNL     1      -9.038  17.484  66.391  1.00  0.00    -0.264 C  
HETATM    3  C   UNL     1      -9.147  19.876  66.744  1.00  0.00    -0.367 C  
HETATM    4  H   UNL     1      -9.875  21.635  67.021  1.00  0.00     0.000 HD 
HETATM    5  O   UNL     1     -10.002  20.744  67.324  1.00  0.00    -0.433 OA 
ENDROOT
BRANCH   2   6
HETATM    6  C   UNL     1      -9.238  16.102  66.813  1.00  0.00    -0.255 A  
HETATM    7  C   UNL     1     -10.528  15.608  67.024  1.00  0.00    -0.303 A  
HETATM    8  C   UNL     1     -10.718  14.256  67.320  1.00  0.00    -0.277 A  
HETATM    9  C   UNL     1      -8.137  15.253  66.943  1.00  0.00    -0.224 A  
HETATM   10  C   UNL     1      -9.621  13.387  67.402  1.00  0.00    -0.223 A  
HETATM   11  C   UNL     1      -8.328  13.903  67.235  1.00  0.00    -0.199 A  
BRANCH  10  12
HETATM   12  C   UNL     1      -9.838  11.901  67.536  1.00  0.00    -0.188 C  
BRANCH  12  13
HETATM   13  N   UNL     1      -9.811  11.451  68.928  1.00  0.00    -0.368 NA 
HETATM   14  H   UNL     1     -10.656  10.933  69.170  1.00  0.00     0.000 HD 
BRANCH  13  15
HETATM   15  C   UNL     1      -8.598  10.667  69.220  1.00  0.00    -0.085 C  
BRANCH  15  16
HETATM   16  C   UNL     1      -8.817   9.558  70.260  1.00  0.00    -0.281 C  
BRANCH  16  17
HETATM   17  C   UNL     1      -9.754   8.492  69.782  1.00  0.00    -0.179 A  
HETATM   18  C   UNL     1     -11.013   8.189  70.277  1.00  0.00    -0.240 A  
HETATM   19  N   UNL     1     -11.484   7.105  69.575  1.00  0.00    -0.514 NA 
HETATM   20  C   UNL     1     -11.828   8.801  71.358  1.00  0.00    -0.369 C  
HETATM   21  H   UNL     1     -12.387   6.659  69.735  1.00  0.00     0.000 HD 
HETATM   22  C   UNL     1     -10.573   6.705  68.630  1.00  0.00    -0.234 A  
HETATM   23  C   UNL     1     -10.633   5.651  67.711  1.00  0.00    -0.274 A  
HETATM   24  C   UNL     1      -9.545   5.479  66.849  1.00  0.00    -0.149 A  
HETATM   25  C   UNL     1      -8.444   6.330  66.906  1.00  0.00    -0.109 A  
HETATM   26  C   UNL     1      -8.398   7.373  67.837  1.00  0.00    -0.119 A  
HETATM   27  C   UNL     1      -9.482   7.566  68.720  1.00  0.00    -0.148 A  
ENDBRANCH  16  17
ENDBRANCH  15  16
ENDBRANCH  13  15
ENDBRANCH  12  13
ENDBRANCH  10  12
ENDBRANCH   2   6
BRANCH   3  28
HETATM   28  N   UNL     1      -8.259  20.240  65.876  1.00  0.00    -0.550 NA 
HETATM   29  H   UNL     1      -8.443  20.362  64.880  1.00  0.00     0.000 HD 
HETATM   30  O   UNL     1      -7.010  20.447  66.481  1.00  0.00    -0.240 OA 
HETATM   31  H   UNL     1      -6.358  20.714  65.844  1.00  0.00     0.000 HD 
ENDBRANCH   3  28
TORSDOF 7
ENDMDL
MODEL      250
REMARK 921   NORMALIZED FREE ENERGY PREDICTED BY IDOCK:   -3.47 KCAL/MOL
REMARK 922        TOTAL FREE ENERGY PREDICTED BY IDOCK:   -7.52 KCAL/MOL
REMARK 923 INTER-LIGAND FREE ENERGY PREDICTED BY IDOCK:   -8.00 KCAL/MOL
REMARK 924 INTRA-LIGAND FREE ENERGY PREDICTED BY IDOCK:    0.48 KCAL/MOL
REMARK 927      BINDING AFFINITY PREDICTED BY RF-SCORE:    0.00 PKD
ROOT
HETATM    1  C   UNL     1     -10.652  12.443  65.007  1.00  0.00    -0.330 C  
HETATM    2  C   UNL     1     -11.824  12.364  65.656  1.00  0.00    -0.468 C  
HETATM    3  C   UNL     1     -10.565  11.941  63.632  1.00  0.00    -0.446 C  
HETATM    4  H   UNL     1      -9.571  12.262  62.016  1.00  0.00     0.000 HD 
HETATM    5  O   UNL     1      -9.628  12.587  62.907  1.00  0.00     0.272 OA 
ENDROOT
BRANCH   2   6
HETATM    6  C   UNL     1     -11.955  12.872  67.016  1.00  0.00    -0.390 A  
HETATM    7  C   UNL     1     -11.728  12.032  68.109  1.00  0.00    -0.398 A  
HETATM    8  C   UNL     1     -11.747  12.551  69.406  1.00  0.00    -0.383 A  
HETATM    9  C   UNL     1     -12.249  14.221  67.225  1.00  0.00    -0.287 A  
HETATM   10  C   UNL     1     -11.990  13.914  69.620  1.00  0.00    -0.399 A  
HETATM   11  C   UNL     1     -12.264  14.740  68.520  1.00  0.00    -0.114 A  
BRANCH  10  12
HETATM   12  C   UNL     1     -11.828  14.508  70.997  1.00  0.00    -0.290 C  
BRANCH  12  13
HETATM   13  N   UNL     1     -11.932  15.968  70.996  1.00  0.00    -0.521 NA 
HETATM   14  H   UNL     1     -11.878  16.346  71.942  1.00  0.00     0.000 HD 
BRANCH  13  15
HETATM   15  C   UNL     1     -10.926  16.581  70.113  1.00  0.00    -0.207 C  
BRANCH  15  16
HETATM   16  C   UNL     1      -9.664  15.724  69.929  1.00  0.00    -0.089 C  
BRANCH  16  17
HETATM   17  C   UNL     1      -8.924  16.045  68.668  1.00  0.00    -0.210 A  
HETATM   18  C   UNL     1      -8.470  15.158  67.705  1.00  0.00    -0.160 A  
HETATM   19  N   UNL     1      -7.797  15.887  66.754  1.00  0.00    -0.247 NA 
HETATM   20  C   UNL     1      -8.586  13.682  67.583  1.00  0.00    -0.185 C  
HETATM   21  H   UNL     1      -7.347  15.489  65.929  1.00  0.00     0.000 HD 
HETATM   22  C   UNL     1      -7.814  17.223  67.065  1.00  0.00    -0.214 A  
HETATM   23  C   UNL     1      -7.250  18.312  66.389  1.00  0.00    -0.279 A  
HETATM   24  C   UNL     1      -7.433  19.584  66.941  1.00  0.00    -0.251 A  
HETATM   25  C   UNL     1      -8.153  19.756  68.121  1.00  0.00    -0.329 A  
HETATM   26  C   UNL     1      -8.702  18.655  68.787  1.00  0.00    -0.290 A  
HETATM   27  C   UNL     1      -8.528  17.361  68.251  1.00  0.00    -0.249 A  
ENDBRANCH  16  17
ENDBRANCH  15  16
ENDBRANCH  13  15
ENDBRANCH  12  13
ENDBRANCH  10  12
ENDBRANCH   2   6
BRANCH   3  28
HETATM   28  N   UNL     1     -11.291  10.986  63.148  1.00  0.00    -0.580 NA 
HETATM   29  H   UNL     1     -10.977  10.020  63.043  1.00  0.00     0.000 HD 
HETATM   30  O   UNL     1     -12.566  11.446  62.788  1.00  0.00    -0.952 OA 
HETATM   31  H   UNL     1     -13.099  10.745  62.433  1.00  0.00     0.000 HD 
ENDBRANCH   3  28
TORSDOF 7
ENDMDL
MODEL      251
REMARK 921   NORMALIZED FREE ENERGY PREDICTED BY IDOCK:   -3.46 KCAL/MOL
REMARK 922        TOTAL FREE ENERGY PREDICTED BY IDOCK:   -7.51 KCAL/MOL
REMARK 923 INTER-LIGAND FREE ENERGY PREDICTED BY IDOCK:   -6.10 KCAL/MOL
REMARK 924 INTRA-LIGAND FREE ENERGY PREDICTED BY IDOCK:   -1.41 KCAL/MOL
REMARK 927      BINDING AFFINITY PREDICTED BY RF-SCORE:    0.00 PKD
ROOT
HETATM    1  C   UNL     1      -8.871   7.026  67.017  1.00  0.00    -0.124 C  
HETATM    2  C   UNL     1      -9.722   7.584  67.891  1.00  0.00    -0.170 C  
HETATM    3  C   UNL     1      -8.444   5.638  67.225  1.00  0.00    -0.106 C  
HETATM    4  H   UNL     1      -7.863   4.115  66.203  1.00  0.00     0.000 HD 
HETATM    5  O   UNL     1      -8.140   5.014  66.068  1.00  0.00    -0.106 OA 
ENDROOT
BRANCH   2   6
HETATM    6  C   UNL     1     -10.185   8.954  67.706  1.00  0.00    -0.283 A  
HETATM    7  C   UNL     1     -10.106   9.563  66.452  1.00  0.00    -0.328 A  
HETATM    8  C   UNL     1     -10.652  10.834  66.256  1.00  0.00    -0.257 A  
HETATM    9  C   UNL     1     -10.769   9.636  68.776  1.00  0.00    -0.234 A  
HETATM   10  C   UNL     1     -11.285  11.503  67.312  1.00  0.00    -0.365 A  
HETATM   11  C   UNL     1     -11.318  10.903  68.580  1.00  0.00    -0.367 A  
BRANCH  10  12
HETATM   12  C   UNL     1     -12.035  12.787  67.058  1.00  0.00    -0.295 C  
BRANCH  12  13
HETATM   13  N   UNL     1     -12.288  13.019  65.635  1.00  0.00    -0.471 NA 
HETATM   14  H   UNL     1     -13.259  12.825  65.392  1.00  0.00     0.000 HD 
BRANCH  13  15
HETATM   15  C   UNL     1     -11.893  14.379  65.230  1.00  0.00    -0.373 C  
BRANCH  15  16
HETATM   16  C   UNL     1     -10.385  14.532  64.977  1.00  0.00    -0.442 C  
BRANCH  16  17
HETATM   17  C   UNL     1      -9.689  15.291  66.065  1.00  0.00    -0.367 A  
HETATM   18  C   UNL     1      -9.762  16.649  66.328  1.00  0.00    -0.304 A  
HETATM   19  N   UNL     1      -8.918  16.914  67.379  1.00  0.00    -0.208 NA 
HETATM   20  C   UNL     1     -10.534  17.744  65.685  1.00  0.00    -0.132 C  
HETATM   21  H   UNL     1      -8.765  17.839  67.781  1.00  0.00     0.000 HD 
HETATM   22  C   UNL     1      -8.311  15.763  67.816  1.00  0.00    -0.154 A  
HETATM   23  C   UNL     1      -7.380  15.570  68.844  1.00  0.00    -0.150 A  
HETATM   24  C   UNL     1      -6.930  14.267  69.076  1.00  0.00    -0.112 A  
HETATM   25  C   UNL     1      -7.394  13.201  68.308  1.00  0.00    -0.116 A  
HETATM   26  C   UNL     1      -8.318  13.415  67.279  1.00  0.00    -0.183 A  
HETATM   27  C   UNL     1      -8.786  14.722  67.024  1.00  0.00    -0.258 A  
ENDBRANCH  16  17
ENDBRANCH  15  16
ENDBRANCH  13  15
ENDBRANCH  12  13
ENDBRANCH  10  12
ENDBRANCH   2   6
BRANCH   3  28
HETATM   28  N   UNL     1      -8.358   5.059  68.379  1.00  0.00    -0.089 NA 
HETATM   29  H   UNL     1      -7.886   5.460  69.191  1.00  0.00     0.000 HD 
HETATM   30  O   UNL     1      -8.996   3.810  68.372  1.00  0.00    -0.104 OA 
HETATM   31  H   UNL     1      -8.933   3.385  69.219  1.00  0.00     0.000 HD 
ENDBRANCH   3  28
TORSDOF 7
ENDMDL
MODEL      252
REMARK 921   NORMALIZED FREE ENERGY PREDICTED BY IDOCK:   -3.46 KCAL/MOL
REMARK 922        TOTAL FREE ENERGY PREDICTED BY IDOCK:   -7.51 KCAL/MOL
REMARK 923 INTER-LIGAND FREE ENERGY PREDICTED BY IDOCK:   -6.47 KCAL/MOL
REMARK 924 INTRA-LIGAND FREE ENERGY PREDICTED BY IDOCK:   -1.04 KCAL/MOL
REMARK 927      BINDING AFFINITY PREDICTED BY RF-SCORE:    0.00 PKD
ROOT
HETATM    1  C   UNL     1      -7.371   9.159  67.023  1.00  0.00    -0.090 C  
HETATM    2  C   UNL     1      -8.478   9.067  67.775  1.00  0.00    -0.117 C  
HETATM    3  C   UNL     1      -6.487   7.993  66.913  1.00  0.00    -0.056 C  
HETATM    4  H   UNL     1      -5.245   7.209  65.671  1.00  0.00     0.000 HD 
HETATM    5  O   UNL     1      -5.818   7.963  65.742  1.00  0.00    -0.037 OA 
ENDROOT
BRANCH   2   6
HETATM    6  C   UNL     1      -9.392  10.197  67.891  1.00  0.00    -0.151 A  
HETATM    7  C   UNL     1      -8.899  11.486  68.110  1.00  0.00    -0.165 A  
HETATM    8  C   UNL     1      -9.771  12.577  68.110  1.00  0.00    -0.222 A  
HETATM    9  C   UNL     1     -10.764   9.996  67.719  1.00  0.00    -0.333 A  
HETATM   10  C   UNL     1     -11.142  12.389  67.887  1.00  0.00    -0.283 A  
HETATM   11  C   UNL     1     -11.634  11.087  67.715  1.00  0.00    -0.277 A  
BRANCH  10  12
HETATM   12  C   UNL     1     -12.052  13.578  67.702  1.00  0.00    -0.283 C  
BRANCH  12  13
HETATM   13  N   UNL     1     -11.318  14.808  67.402  1.00  0.00    -0.340 NA 
HETATM   14  H   UNL     1     -10.382  14.792  67.809  1.00  0.00     0.000 HD 
BRANCH  13  15
HETATM   15  C   UNL     1     -11.270  15.070  65.954  1.00  0.00    -0.313 C  
BRANCH  15  16
HETATM   16  C   UNL     1      -9.861  15.390  65.433  1.00  0.00    -0.314 C  
BRANCH  16  17
HETATM   17  C   UNL     1      -9.129  16.366  66.302  1.00  0.00    -0.362 A  
HETATM   18  C   UNL     1      -8.040  16.117  67.121  1.00  0.00    -0.192 A  
HETATM   19  N   UNL     1      -7.735  17.287  67.773  1.00  0.00    -0.187 NA 
HETATM   20  C   UNL     1      -7.251  14.883  67.374  1.00  0.00    -0.213 C  
HETATM   21  H   UNL     1      -6.979  17.395  68.449  1.00  0.00     0.000 HD 
HETATM   22  C   UNL     1      -8.587  18.293  67.390  1.00  0.00    -0.249 A  
HETATM   23  C   UNL     1      -8.647  19.629  67.803  1.00  0.00    -0.366 A  
HETATM   24  C   UNL     1      -9.630  20.442  67.230  1.00  0.00    -0.592 A  
HETATM   25  C   UNL     1     -10.515  19.936  66.282  1.00  0.00    -0.590 A  
HETATM   26  C   UNL     1     -10.446  18.595  65.888  1.00  0.00    -0.395 A  
HETATM   27  C   UNL     1      -9.464  17.753  66.453  1.00  0.00    -0.277 A  
ENDBRANCH  16  17
ENDBRANCH  15  16
ENDBRANCH  13  15
ENDBRANCH  12  13
ENDBRANCH  10  12
ENDBRANCH   2   6
BRANCH   3  28
HETATM   28  N   UNL     1      -6.346   7.087  67.826  1.00  0.00    -0.041 NA 
HETATM   29  H   UNL     1      -6.808   6.177  67.810  1.00  0.00     0.000 HD 
HETATM   30  O   UNL     1      -5.476   7.515  68.840  1.00  0.00    -0.021 OA 
HETATM   31  H   UNL     1      -5.373   6.849  69.510  1.00  0.00     0.000 HD 
ENDBRANCH   3  28
TORSDOF 7
ENDMDL
MODEL      253
REMARK 921   NORMALIZED FREE ENERGY PREDICTED BY IDOCK:   -3.45 KCAL/MOL
REMARK 922        TOTAL FREE ENERGY PREDICTED BY IDOCK:   -7.49 KCAL/MOL
REMARK 923 INTER-LIGAND FREE ENERGY PREDICTED BY IDOCK:   -6.88 KCAL/MOL
REMARK 924 INTRA-LIGAND FREE ENERGY PREDICTED BY IDOCK:   -0.61 KCAL/MOL
REMARK 927      BINDING AFFINITY PREDICTED BY RF-SCORE:    0.00 PKD
ROOT
HETATM    1  C   UNL     1      -9.990   6.365  66.446  1.00  0.00    -0.096 C  
HETATM    2  C   UNL     1     -10.386   7.078  67.512  1.00  0.00    -0.288 C  
HETATM    3  C   UNL     1     -10.008   4.901  66.523  1.00  0.00    -0.232 C  
HETATM    4  H   UNL     1     -10.210   3.376  65.367  1.00  0.00     0.000 HD 
HETATM    5  O   UNL     1     -10.198   4.325  65.317  1.00  0.00    -0.229 OA 
ENDROOT
BRANCH   2   6
HETATM    6  C   UNL     1     -10.402   8.535  67.467  1.00  0.00    -0.334 A  
HETATM    7  C   UNL     1     -10.800   9.273  68.585  1.00  0.00    -0.120 A  
HETATM    8  C   UNL     1     -10.707  10.666  68.572  1.00  0.00    -0.252 A  
HETATM    9  C   UNL     1      -9.956   9.195  66.320  1.00  0.00    -0.352 A  
HETATM   10  C   UNL     1     -10.213  11.333  67.443  1.00  0.00    -0.217 A  
HETATM   11  C   UNL     1      -9.860  10.587  66.309  1.00  0.00    -0.269 A  
BRANCH  10  12
HETATM   12  C   UNL     1      -9.939  12.816  67.495  1.00  0.00    -0.210 C  
BRANCH  12  13
HETATM   13  N   UNL     1      -9.065  13.187  68.609  1.00  0.00    -0.387 NA 
HETATM   14  H   UNL     1      -8.377  12.459  68.803  1.00  0.00     0.000 HD 
BRANCH  13  15
HETATM   15  C   UNL     1      -8.418  14.490  68.377  1.00  0.00    -0.163 C  
BRANCH  15  16
HETATM   16  C   UNL     1      -9.316  15.691  68.713  1.00  0.00    -0.213 C  
BRANCH  16  17
HETATM   17  C   UNL     1      -9.257  16.767  67.674  1.00  0.00    -0.223 A  
HETATM   18  C   UNL     1      -9.869  16.775  66.430  1.00  0.00    -0.297 A  
HETATM   19  N   UNL     1      -9.495  17.933  65.792  1.00  0.00    -0.459 NA 
HETATM   20  C   UNL     1     -10.764  15.798  65.758  1.00  0.00    -0.337 C  
HETATM   21  H   UNL     1      -9.791  18.200  64.853  1.00  0.00     0.000 HD 
HETATM   22  C   UNL     1      -8.671  18.684  66.592  1.00  0.00    -0.302 A  
HETATM   23  C   UNL     1      -8.054  19.916  66.345  1.00  0.00    -0.357 A  
HETATM   24  C   UNL     1      -7.260  20.460  67.360  1.00  0.00    -0.351 A  
HETATM   25  C   UNL     1      -7.093  19.795  68.573  1.00  0.00    -0.353 A  
HETATM   26  C   UNL     1      -7.710  18.560  68.798  1.00  0.00    -0.305 A  
HETATM   27  C   UNL     1      -8.515  17.990  67.788  1.00  0.00    -0.247 A  
ENDBRANCH  16  17
ENDBRANCH  15  16
ENDBRANCH  13  15
ENDBRANCH  12  13
ENDBRANCH  10  12
ENDBRANCH   2   6
BRANCH   3  28
HETATM   28  N   UNL     1      -9.857   4.217  67.611  1.00  0.00    -0.138 NA 
HETATM   29  H   UNL     1     -10.226   4.495  68.521  1.00  0.00     0.000 HD 
HETATM   30  O   UNL     1      -9.121   3.046  67.380  1.00  0.00    -0.148 OA 
HETATM   31  H   UNL     1      -9.011   2.545  68.179  1.00  0.00     0.000 HD 
ENDBRANCH   3  28
TORSDOF 7
ENDMDL
MODEL      254
REMARK 921   NORMALIZED FREE ENERGY PREDICTED BY IDOCK:   -3.41 KCAL/MOL
REMARK 922        TOTAL FREE ENERGY PREDICTED BY IDOCK:   -7.44 KCAL/MOL
REMARK 923 INTER-LIGAND FREE ENERGY PREDICTED BY IDOCK:   -6.70 KCAL/MOL
REMARK 924 INTRA-LIGAND FREE ENERGY PREDICTED BY IDOCK:   -0.75 KCAL/MOL
REMARK 927      BINDING AFFINITY PREDICTED BY RF-SCORE:    0.00 PKD
ROOT
HETATM    1  C   UNL     1     -10.231  18.043  68.264  1.00  0.00    -0.402 C  
HETATM    2  C   UNL     1      -9.857  17.414  67.140  1.00  0.00    -0.278 C  
HETATM    3  C   UNL     1      -9.657  19.358  68.568  1.00  0.00    -0.405 C  
HETATM    4  H   UNL     1     -10.118  20.978  69.498  1.00  0.00     0.000 HD 
HETATM    5  O   UNL     1     -10.490  20.126  69.302  1.00  0.00    -0.218 OA 
ENDROOT
BRANCH   2   6
HETATM    6  C   UNL     1     -10.421  16.114  66.793  1.00  0.00    -0.294 A  
HETATM    7  C   UNL     1     -10.558  15.737  65.455  1.00  0.00    -0.424 A  
HETATM    8  C   UNL     1     -10.995  14.450  65.133  1.00  0.00    -0.380 A  
HETATM    9  C   UNL     1     -10.766  15.219  67.808  1.00  0.00    -0.286 A  
HETATM   10  C   UNL     1     -11.294  13.529  66.146  1.00  0.00    -0.325 A  
HETATM   11  C   UNL     1     -11.198  13.932  67.486  1.00  0.00    -0.323 A  
BRANCH  10  12
HETATM   12  C   UNL     1     -11.585  12.089  65.802  1.00  0.00    -0.290 C  
BRANCH  12  13
HETATM   13  N   UNL     1     -11.973  11.298  66.970  1.00  0.00    -0.175 NA 
HETATM   14  H   UNL     1     -12.923  10.940  66.880  1.00  0.00     0.000 HD 
BRANCH  13  15
HETATM   15  C   UNL     1     -11.011  10.214  67.233  1.00  0.00    -0.183 C  
BRANCH  15  16
HETATM   16  C   UNL     1     -10.287  10.347  68.581  1.00  0.00    -0.202 C  
BRANCH  16  17
HETATM   17  C   UNL     1      -9.432   9.160  68.899  1.00  0.00    -0.151 A  
HETATM   18  C   UNL     1      -8.092   8.978  68.595  1.00  0.00    -0.107 A  
HETATM   19  N   UNL     1      -7.737   7.722  69.025  1.00  0.00    -0.106 NA 
HETATM   20  C   UNL     1      -7.099   9.856  67.924  1.00  0.00    -0.086 C  
HETATM   21  H   UNL     1      -6.807   7.315  68.922  1.00  0.00     0.000 HD 
HETATM   22  C   UNL     1      -8.803   7.089  69.612  1.00  0.00    -0.141 A  
HETATM   23  C   UNL     1      -8.895   5.810  70.173  1.00  0.00    -0.144 A  
HETATM   24  C   UNL     1     -10.125   5.425  70.715  1.00  0.00    -0.287 A  
HETATM   25  C   UNL     1     -11.218   6.288  70.695  1.00  0.00    -0.401 A  
HETATM   26  C   UNL     1     -11.111   7.559  70.122  1.00  0.00    -0.246 A  
HETATM   27  C   UNL     1      -9.880   7.971  69.566  1.00  0.00    -0.181 A  
ENDBRANCH  16  17
ENDBRANCH  15  16
ENDBRANCH  13  15
ENDBRANCH  12  13
ENDBRANCH  10  12
ENDBRANCH   2   6
BRANCH   3  28
HETATM   28  N   UNL     1      -8.486  19.757  68.188  1.00  0.00    -0.309 NA 
HETATM   29  H   UNL     1      -8.314  20.336  67.365  1.00  0.00     0.000 HD 
HETATM   30  O   UNL     1      -7.484  19.293  69.053  1.00  0.00    -0.352 OA 
HETATM   31  H   UNL     1      -6.625  19.586  68.774  1.00  0.00     0.000 HD 
ENDBRANCH   3  28
TORSDOF 7
ENDMDL
MODEL      255
REMARK 921   NORMALIZED FREE ENERGY PREDICTED BY IDOCK:   -3.41 KCAL/MOL
REMARK 922        TOTAL FREE ENERGY PREDICTED BY IDOCK:   -7.44 KCAL/MOL
REMARK 923 INTER-LIGAND FREE ENERGY PREDICTED BY IDOCK:   -6.31 KCAL/MOL
REMARK 924 INTRA-LIGAND FREE ENERGY PREDICTED BY IDOCK:   -1.13 KCAL/MOL
REMARK 927      BINDING AFFINITY PREDICTED BY RF-SCORE:    0.00 PKD
ROOT
HETATM    1  C   UNL     1     -10.340   5.247  71.097  1.00  0.00    -0.291 C  
HETATM    2  C   UNL     1      -9.244   5.007  70.361  1.00  0.00    -0.198 C  
HETATM    3  C   UNL     1     -10.543   4.492  72.338  1.00  0.00    -0.135 C  
HETATM    4  H   UNL     1     -11.389   4.695  74.054  1.00  0.00     0.000 HD 
HETATM    5  O   UNL     1     -11.256   5.184  73.250  1.00  0.00    -0.308 OA 
ENDROOT
BRANCH   2   6
HETATM    6  C   UNL     1      -8.996   5.753  69.133  1.00  0.00    -0.120 A  
HETATM    7  C   UNL     1      -7.704   6.174  68.810  1.00  0.00    -0.096 A  
HETATM    8  C   UNL     1      -7.456   6.790  67.581  1.00  0.00    -0.098 A  
HETATM    9  C   UNL     1     -10.047   5.990  68.245  1.00  0.00    -0.194 A  
HETATM   10  C   UNL     1      -8.497   6.985  66.664  1.00  0.00    -0.121 A  
HETATM   11  C   UNL     1      -9.799   6.601  67.016  1.00  0.00    -0.207 A  
BRANCH  10  12
HETATM   12  C   UNL     1      -8.198   7.477  65.269  1.00  0.00    -0.129 C  
BRANCH  12  13
HETATM   13  N   UNL     1      -7.269   8.607  65.258  1.00  0.00    -0.082 NA 
HETATM   14  H   UNL     1      -6.506   8.457  64.597  1.00  0.00     0.000 HD 
BRANCH  13  15
HETATM   15  C   UNL     1      -7.965   9.878  64.996  1.00  0.00    -0.137 C  
BRANCH  15  16
HETATM   16  C   UNL     1      -9.489   9.728  64.864  1.00  0.00    -0.331 C  
BRANCH  16  17
HETATM   17  C   UNL     1     -10.242  10.779  65.620  1.00  0.00    -0.320 A  
HETATM   18  C   UNL     1     -10.405  10.880  66.992  1.00  0.00    -0.231 A  
HETATM   19  N   UNL     1     -11.214  11.964  67.234  1.00  0.00    -0.296 NA 
HETATM   20  C   UNL     1      -9.891  10.054  68.115  1.00  0.00    -0.162 C  
HETATM   21  H   UNL     1     -11.510  12.271  68.161  1.00  0.00     0.000 HD 
HETATM   22  C   UNL     1     -11.569  12.578  66.060  1.00  0.00    -0.406 A  
HETATM   23  C   UNL     1     -12.381  13.697  65.837  1.00  0.00    -0.516 A  
HETATM   24  C   UNL     1     -12.567  14.111  64.515  1.00  0.00    -0.242 A  
HETATM   25  C   UNL     1     -11.963  13.432  63.459  1.00  0.00    -0.467 A  
HETATM   26  C   UNL     1     -11.163  12.310  63.700  1.00  0.00    -0.539 A  
HETATM   27  C   UNL     1     -10.962  11.870  65.026  1.00  0.00    -0.365 A  
ENDBRANCH  16  17
ENDBRANCH  15  16
ENDBRANCH  13  15
ENDBRANCH  12  13
ENDBRANCH  10  12
ENDBRANCH   2   6
BRANCH   3  28
HETATM   28  N   UNL     1     -10.102   3.295  72.553  1.00  0.00    -0.156 NA 
HETATM   29  H   UNL     1      -9.327   2.867  72.044  1.00  0.00     0.000 HD 
HETATM   30  O   UNL     1     -10.825   2.660  73.574  1.00  0.00    -0.160 OA 
HETATM   31  H   UNL     1     -10.500   1.781  73.731  1.00  0.00     0.000 HD 
ENDBRANCH   3  28
TORSDOF 7
ENDMDL
MODEL      256
REMARK 921   NORMALIZED FREE ENERGY PREDICTED BY IDOCK:   -3.41 KCAL/MOL
REMARK 922        TOTAL FREE ENERGY PREDICTED BY IDOCK:   -7.44 KCAL/MOL
REMARK 923 INTER-LIGAND FREE ENERGY PREDICTED BY IDOCK:   -7.01 KCAL/MOL
REMARK 924 INTRA-LIGAND FREE ENERGY PREDICTED BY IDOCK:   -0.42 KCAL/MOL
REMARK 927      BINDING AFFINITY PREDICTED BY RF-SCORE:    0.00 PKD
ROOT
HETATM    1  C   UNL     1     -10.328   4.947  72.255  1.00  0.00    -0.267 C  
HETATM    2  C   UNL     1      -9.416   4.695  71.304  1.00  0.00    -0.221 C  
HETATM    3  C   UNL     1     -10.336   4.124  73.469  1.00  0.00    -0.170 C  
HETATM    4  H   UNL     1     -10.814   4.261  75.328  1.00  0.00     0.000 HD 
HETATM    5  O   UNL     1     -10.808   4.794  74.541  1.00  0.00    -0.347 OA 
ENDROOT
BRANCH   2   6
HETATM    6  C   UNL     1      -9.363   5.504  70.092  1.00  0.00    -0.185 A  
HETATM    7  C   UNL     1      -8.167   6.107  69.697  1.00  0.00    -0.116 A  
HETATM    8  C   UNL     1      -8.096   6.788  68.479  1.00  0.00    -0.120 A  
HETATM    9  C   UNL     1     -10.501   5.623  69.291  1.00  0.00    -0.356 A  
HETATM   10  C   UNL     1      -9.220   6.868  67.646  1.00  0.00    -0.119 A  
HETATM   11  C   UNL     1     -10.429   6.299  68.073  1.00  0.00    -0.278 A  
BRANCH  10  12
HETATM   12  C   UNL     1      -9.096   7.438  66.255  1.00  0.00    -0.156 C  
BRANCH  12  13
HETATM   13  N   UNL     1      -7.837   8.155  66.051  1.00  0.00    -0.090 NA 
HETATM   14  H   UNL     1      -7.277   7.724  65.316  1.00  0.00     0.000 HD 
BRANCH  13  15
HETATM   15  C   UNL     1      -8.066   9.585  65.784  1.00  0.00    -0.111 C  
BRANCH  15  16
HETATM   16  C   UNL     1      -9.499  10.047  66.091  1.00  0.00    -0.242 C  
BRANCH  16  17
HETATM   17  C   UNL     1     -10.107  10.833  64.972  1.00  0.00    -0.377 A  
HETATM   18  C   UNL     1      -9.936  10.637  63.611  1.00  0.00    -0.301 A  
HETATM   19  N   UNL     1     -10.634  11.625  62.959  1.00  0.00    -0.677 NA 
HETATM   20  C   UNL     1      -9.169   9.622  62.843  1.00  0.00    -0.163 C  
HETATM   21  H   UNL     1     -10.679  11.732  61.946  1.00  0.00     0.000 HD 
HETATM   22  C   UNL     1     -11.266  12.448  63.858  1.00  0.00    -0.422 A  
HETATM   23  C   UNL     1     -12.068  13.574  63.639  1.00  0.00    -0.459 A  
HETATM   24  C   UNL     1     -12.593  14.225  64.759  1.00  0.00    -0.310 A  
HETATM   25  C   UNL     1     -12.326  13.763  66.046  1.00  0.00    -0.499 A  
HETATM   26  C   UNL     1     -11.515  12.641  66.246  1.00  0.00    -0.415 A  
HETATM   27  C   UNL     1     -10.970  11.969  65.131  1.00  0.00    -0.359 A  
ENDBRANCH  16  17
ENDBRANCH  15  16
ENDBRANCH  13  15
ENDBRANCH  12  13
ENDBRANCH  10  12
ENDBRANCH   2   6
BRANCH   3  28
HETATM   28  N   UNL     1      -9.943   2.893  73.528  1.00  0.00    -0.101 NA 
HETATM   29  H   UNL     1      -9.055   2.590  73.929  1.00  0.00     0.000 HD 
HETATM   30  O   UNL     1     -10.895   2.027  72.969  1.00  0.00    -0.151 OA 
HETATM   31  H   UNL     1     -10.606   1.123  73.012  1.00  0.00     0.000 HD 
ENDBRANCH   3  28
TORSDOF 7
ENDMDL
MODEL      257
REMARK 921   NORMALIZED FREE ENERGY PREDICTED BY IDOCK:   -3.39 KCAL/MOL
REMARK 922        TOTAL FREE ENERGY PREDICTED BY IDOCK:   -7.41 KCAL/MOL
REMARK 923 INTER-LIGAND FREE ENERGY PREDICTED BY IDOCK:   -5.88 KCAL/MOL
REMARK 924 INTRA-LIGAND FREE ENERGY PREDICTED BY IDOCK:   -1.53 KCAL/MOL
REMARK 927      BINDING AFFINITY PREDICTED BY RF-SCORE:    0.00 PKD
ROOT
HETATM    1  C   UNL     1      -9.028   7.892  66.378  1.00  0.00    -0.200 C  
HETATM    2  C   UNL     1      -8.636   8.668  65.355  1.00  0.00    -0.206 C  
HETATM    3  C   UNL     1      -8.123   6.846  66.865  1.00  0.00    -0.109 C  
HETATM    4  H   UNL     1      -7.719   5.898  68.489  1.00  0.00     0.000 HD 
HETATM    5  O   UNL     1      -8.305   6.577  68.174  1.00  0.00    -0.116 OA 
ENDROOT
BRANCH   2   6
HETATM    6  C   UNL     1      -9.499   9.732  64.857  1.00  0.00    -0.331 A  
HETATM    7  C   UNL     1     -10.500  10.270  65.670  1.00  0.00    -0.152 A  
HETATM    8  C   UNL     1     -11.249  11.362  65.227  1.00  0.00    -0.144 A  
HETATM    9  C   UNL     1      -9.280  10.259  63.582  1.00  0.00    -0.315 A  
HETATM   10  C   UNL     1     -11.000  11.928  63.969  1.00  0.00    -0.445 A  
HETATM   11  C   UNL     1     -10.026  11.353  63.142  1.00  0.00    -0.402 A  
BRANCH  10  12
HETATM   12  C   UNL     1     -11.676  13.216  63.569  1.00  0.00    -0.415 C  
BRANCH  12  13
HETATM   13  N   UNL     1     -12.423  13.826  64.670  1.00  0.00    -0.608 NA 
HETATM   14  H   UNL     1     -12.489  13.197  65.470  1.00  0.00     0.000 HD 
BRANCH  13  15
HETATM   15  C   UNL     1     -11.851  15.128  65.054  1.00  0.00    -0.180 C  
BRANCH  15  16
HETATM   16  C   UNL     1     -10.345  15.245  64.775  1.00  0.00    -0.132 C  
BRANCH  16  17
HETATM   17  C   UNL     1      -9.544  15.507  66.012  1.00  0.00    -0.380 A  
HETATM   18  C   UNL     1      -9.258  16.734  66.590  1.00  0.00    -0.256 A  
HETATM   19  N   UNL     1      -8.448  16.502  67.676  1.00  0.00    -0.172 NA 
HETATM   20  C   UNL     1      -9.653  18.119  66.224  1.00  0.00    -0.246 C  
HETATM   21  H   UNL     1      -8.074  17.228  68.286  1.00  0.00     0.000 HD 
HETATM   22  C   UNL     1      -8.212  15.159  67.828  1.00  0.00    -0.150 A  
HETATM   23  C   UNL     1      -7.443  14.481  68.782  1.00  0.00    -0.132 A  
HETATM   24  C   UNL     1      -7.385  13.087  68.698  1.00  0.00    -0.097 A  
HETATM   25  C   UNL     1      -8.071  12.400  67.699  1.00  0.00    -0.168 A  
HETATM   26  C   UNL     1      -8.827  13.095  66.748  1.00  0.00    -0.140 A  
HETATM   27  C   UNL     1      -8.899  14.503  66.810  1.00  0.00    -0.248 A  
ENDBRANCH  16  17
ENDBRANCH  15  16
ENDBRANCH  13  15
ENDBRANCH  12  13
ENDBRANCH  10  12
ENDBRANCH   2   6
BRANCH   3  28
HETATM   28  N   UNL     1      -7.245   6.234  66.137  1.00  0.00    -0.074 NA 
HETATM   29  H   UNL     1      -6.893   6.582  65.245  1.00  0.00     0.000 HD 
HETATM   30  O   UNL     1      -6.840   5.030  66.732  1.00  0.00    -0.059 OA 
HETATM   31  H   UNL     1      -6.196   4.580  66.198  1.00  0.00     0.000 HD 
ENDBRANCH   3  28
TORSDOF 7
ENDMDL
MODEL      258
REMARK 921   NORMALIZED FREE ENERGY PREDICTED BY IDOCK:   -3.37 KCAL/MOL
REMARK 922        TOTAL FREE ENERGY PREDICTED BY IDOCK:   -7.39 KCAL/MOL
REMARK 923 INTER-LIGAND FREE ENERGY PREDICTED BY IDOCK:   -7.00 KCAL/MOL
REMARK 924 INTRA-LIGAND FREE ENERGY PREDICTED BY IDOCK:   -0.38 KCAL/MOL
REMARK 927      BINDING AFFINITY PREDICTED BY RF-SCORE:    0.00 PKD
ROOT
HETATM    1  C   UNL     1     -10.750  12.549  68.187  1.00  0.00    -0.246 C  
HETATM    2  C   UNL     1     -11.604  12.637  69.218  1.00  0.00    -0.376 C  
HETATM    3  C   UNL     1     -10.543  13.724  67.334  1.00  0.00    -0.260 C  
HETATM    4  H   UNL     1      -9.178  14.508  66.228  1.00  0.00     0.000 HD 
HETATM    5  O   UNL     1      -9.312  13.748  66.781  1.00  0.00    -0.253 OA 
ENDROOT
BRANCH   2   6
HETATM    6  C   UNL     1     -11.821  11.497  70.102  1.00  0.00    -0.440 A  
HETATM    7  C   UNL     1     -12.874  11.504  71.019  1.00  0.00    -0.358 A  
HETATM    8  C   UNL     1     -13.143  10.367  71.784  1.00  0.00    -0.567 A  
HETATM    9  C   UNL     1     -11.008  10.368  69.984  1.00  0.00    -0.370 A  
HETATM   10  C   UNL     1     -12.363   9.212  71.634  1.00  0.00    -0.434 A  
HETATM   11  C   UNL     1     -11.279   9.230  70.745  1.00  0.00    -0.351 A  
BRANCH  10  12
HETATM   12  C   UNL     1     -12.766   7.930  72.319  1.00  0.00    -0.158 C  
BRANCH  12  13
HETATM   13  N   UNL     1     -11.710   7.396  73.181  1.00  0.00    -0.546 NA 
HETATM   14  H   UNL     1     -12.056   7.206  74.121  1.00  0.00     0.000 HD 
BRANCH  13  15
HETATM   15  C   UNL     1     -11.079   6.205  72.588  1.00  0.00    -0.272 C  
BRANCH  15  16
HETATM   16  C   UNL     1      -9.877   6.530  71.687  1.00  0.00    -0.180 C  
BRANCH  16  17
HETATM   17  C   UNL     1      -9.557   5.426  70.727  1.00  0.00    -0.228 A  
HETATM   18  C   UNL     1     -10.105   5.213  69.472  1.00  0.00    -0.246 A  
HETATM   19  N   UNL     1      -9.560   4.054  68.973  1.00  0.00    -0.173 NA 
HETATM   20  C   UNL     1     -11.105   5.978  68.683  1.00  0.00    -0.293 C  
HETATM   21  H   UNL     1      -9.789   3.649  68.066  1.00  0.00     0.000 HD 
HETATM   22  C   UNL     1      -8.664   3.517  69.863  1.00  0.00    -0.079 A  
HETATM   23  C   UNL     1      -7.895   2.351  69.773  1.00  0.00    -0.050 A  
HETATM   24  C   UNL     1      -7.049   2.047  70.844  1.00  0.00    -0.033 A  
HETATM   25  C   UNL     1      -6.978   2.879  71.960  1.00  0.00    -0.033 A  
HETATM   26  C   UNL     1      -7.761   4.035  72.036  1.00  0.00    -0.071 A  
HETATM   27  C   UNL     1      -8.625   4.362  70.968  1.00  0.00    -0.113 A  
ENDBRANCH  16  17
ENDBRANCH  15  16
ENDBRANCH  13  15
ENDBRANCH  12  13
ENDBRANCH  10  12
ENDBRANCH   2   6
BRANCH   3  28
HETATM   28  N   UNL     1     -11.427  14.644  67.118  1.00  0.00    -0.357 NA 
HETATM   29  H   UNL     1     -11.251  15.645  67.210  1.00  0.00     0.000 HD 
HETATM   30  O   UNL     1     -12.658  14.088  66.740  1.00  0.00    -0.517 OA 
HETATM   31  H   UNL     1     -13.307  14.764  66.582  1.00  0.00     0.000 HD 
ENDBRANCH   3  28
TORSDOF 7
ENDMDL
MODEL      259
REMARK 921   NORMALIZED FREE ENERGY PREDICTED BY IDOCK:   -3.36 KCAL/MOL
REMARK 922        TOTAL FREE ENERGY PREDICTED BY IDOCK:   -7.37 KCAL/MOL
REMARK 923 INTER-LIGAND FREE ENERGY PREDICTED BY IDOCK:   -6.62 KCAL/MOL
REMARK 924 INTRA-LIGAND FREE ENERGY PREDICTED BY IDOCK:   -0.75 KCAL/MOL
REMARK 927      BINDING AFFINITY PREDICTED BY RF-SCORE:    0.00 PKD
ROOT
HETATM    1  C   UNL     1     -11.687  13.055  65.341  1.00  0.00    -0.401 C  
HETATM    2  C   UNL     1     -10.555  12.426  64.991  1.00  0.00    -0.330 C  
HETATM    3  C   UNL     1     -11.963  14.385  64.788  1.00  0.00    -0.447 C  
HETATM    4  H   UNL     1     -13.464  15.498  64.328  1.00  0.00     0.000 HD 
HETATM    5  O   UNL     1     -13.285  14.636  64.687  1.00  0.00    -0.199 OA 
ENDROOT
BRANCH   2   6
HETATM    6  C   UNL     1     -10.256  11.094  65.504  1.00  0.00    -0.319 A  
HETATM    7  C   UNL     1      -9.383  10.250  64.813  1.00  0.00    -0.313 A  
HETATM    8  C   UNL     1      -9.015   9.021  65.365  1.00  0.00    -0.249 A  
HETATM    9  C   UNL     1     -10.796  10.687  66.726  1.00  0.00    -0.233 A  
HETATM   10  C   UNL     1      -9.513   8.629  66.615  1.00  0.00    -0.267 A  
HETATM   11  C   UNL     1     -10.425   9.462  67.279  1.00  0.00    -0.332 A  
BRANCH  10  12
HETATM   12  C   UNL     1      -8.975   7.394  67.294  1.00  0.00    -0.124 C  
BRANCH  12  13
HETATM   13  N   UNL     1      -7.649   7.605  67.877  1.00  0.00    -0.114 NA 
HETATM   14  H   UNL     1      -7.209   8.447  67.507  1.00  0.00     0.000 HD 
BRANCH  13  15
HETATM   15  C   UNL     1      -7.703   7.627  69.348  1.00  0.00    -0.107 C  
BRANCH  15  16
HETATM   16  C   UNL     1      -8.709   6.629  69.942  1.00  0.00    -0.141 C  
BRANCH  16  17
HETATM   17  C   UNL     1      -8.050   5.412  70.513  1.00  0.00    -0.106 A  
HETATM   18  C   UNL     1      -7.431   4.383  69.821  1.00  0.00    -0.050 A  
HETATM   19  N   UNL     1      -7.019   3.452  70.745  1.00  0.00    -0.033 NA 
HETATM   20  C   UNL     1      -7.192   4.165  68.371  1.00  0.00    -0.056 C  
HETATM   21  H   UNL     1      -6.540   2.581  70.516  1.00  0.00     0.000 HD 
HETATM   22  C   UNL     1      -7.341   3.854  72.016  1.00  0.00    -0.059 A  
HETATM   23  C   UNL     1      -7.123   3.218  73.245  1.00  0.00    -0.041 A  
HETATM   24  C   UNL     1      -7.556   3.874  74.401  1.00  0.00    -0.074 A  
HETATM   25  C   UNL     1      -8.182   5.116  74.329  1.00  0.00    -0.106 A  
HETATM   26  C   UNL     1      -8.400   5.732  73.092  1.00  0.00    -0.117 A  
HETATM   27  C   UNL     1      -7.973   5.089  71.909  1.00  0.00    -0.111 A  
ENDBRANCH  16  17
ENDBRANCH  15  16
ENDBRANCH  13  15
ENDBRANCH  12  13
ENDBRANCH  10  12
ENDBRANCH   2   6
BRANCH   3  28
HETATM   28  N   UNL     1     -11.058  15.238  64.434  1.00  0.00    -0.685 NA 
HETATM   29  H   UNL     1     -10.056  15.109  64.582  1.00  0.00     0.000 HD 
HETATM   30  O   UNL     1     -11.629  16.363  63.821  1.00  0.00    -1.605 OA 
HETATM   31  H   UNL     1     -10.963  16.990  63.561  1.00  0.00     0.000 HD 
ENDBRANCH   3  28
TORSDOF 7
ENDMDL
MODEL      260
REMARK 921   NORMALIZED FREE ENERGY PREDICTED BY IDOCK:   -3.36 KCAL/MOL
REMARK 922        TOTAL FREE ENERGY PREDICTED BY IDOCK:   -7.36 KCAL/MOL
REMARK 923 INTER-LIGAND FREE ENERGY PREDICTED BY IDOCK:   -6.91 KCAL/MOL
REMARK 924 INTRA-LIGAND FREE ENERGY PREDICTED BY IDOCK:   -0.45 KCAL/MOL
REMARK 927      BINDING AFFINITY PREDICTED BY RF-SCORE:    0.00 PKD
ROOT
HETATM    1  C   UNL     1      -8.290   6.184  64.784  1.00  0.00    -0.070 C  
HETATM    2  C   UNL     1      -7.935   7.068  65.729  1.00  0.00    -0.116 C  
HETATM    3  C   UNL     1      -7.911   4.776  64.948  1.00  0.00    -0.098 C  
HETATM    4  H   UNL     1      -8.534   3.025  64.452  1.00  0.00     0.000 HD 
HETATM    5  O   UNL     1      -8.779   3.937  64.346  1.00  0.00    -0.114 OA 
ENDROOT
BRANCH   2   6
HETATM    6  C   UNL     1      -8.311   8.472  65.611  1.00  0.00    -0.154 A  
HETATM    7  C   UNL     1      -9.014   8.924  64.492  1.00  0.00     0.001 A  
HETATM    8  C   UNL     1      -9.466  10.245  64.437  1.00  0.00    -0.360 A  
HETATM    9  C   UNL     1      -8.021   9.354  66.654  1.00  0.00    -0.108 A  
HETATM   10  C   UNL     1      -9.224  11.121  65.503  1.00  0.00    -0.236 A  
HETATM   11  C   UNL     1      -8.477  10.671  66.601  1.00  0.00    -0.137 A  
BRANCH  10  12
HETATM   12  C   UNL     1      -9.869  12.485  65.527  1.00  0.00    -0.183 C  
BRANCH  12  13
HETATM   13  N   UNL     1     -11.103  12.510  66.314  1.00  0.00    -0.283 NA 
HETATM   14  H   UNL     1     -11.510  11.579  66.399  1.00  0.00     0.000 HD 
BRANCH  13  15
HETATM   15  C   UNL     1     -10.890  13.127  67.633  1.00  0.00    -0.254 C  
BRANCH  15  16
HETATM   16  C   UNL     1     -12.167  13.724  68.246  1.00  0.00    -0.177 C  
BRANCH  16  17
HETATM   17  C   UNL     1     -11.880  14.744  69.304  1.00  0.00    -0.352 A  
HETATM   18  C   UNL     1     -11.180  15.932  69.165  1.00  0.00    -0.334 A  
HETATM   19  N   UNL     1     -11.113  16.521  70.405  1.00  0.00    -0.420 NA 
HETATM   20  C   UNL     1     -10.545  16.577  67.987  1.00  0.00    -0.328 C  
HETATM   21  H   UNL     1     -10.646  17.406  70.602  1.00  0.00     0.000 HD 
HETATM   22  C   UNL     1     -11.762  15.756  71.342  1.00  0.00    -0.445 A  
HETATM   23  C   UNL     1     -11.932  15.967  72.715  1.00  0.00    -0.616 A  
HETATM   24  C   UNL     1     -12.656  15.010  73.434  1.00  0.00    -0.641 A  
HETATM   25  C   UNL     1     -13.188  13.890  72.800  1.00  0.00    -0.543 A  
HETATM   26  C   UNL     1     -13.000  13.691  71.428  1.00  0.00    -0.427 A  
HETATM   27  C   UNL     1     -12.271  14.642  70.681  1.00  0.00    -0.394 A  
ENDBRANCH  16  17
ENDBRANCH  15  16
ENDBRANCH  13  15
ENDBRANCH  12  13
ENDBRANCH  10  12
ENDBRANCH   2   6
BRANCH   3  28
HETATM   28  N   UNL     1      -6.866   4.364  65.590  1.00  0.00    -0.056 NA 
HETATM   29  H   UNL     1      -5.904   4.546  65.301  1.00  0.00     0.000 HD 
HETATM   30  O   UNL     1      -7.225   3.635  66.734  1.00  0.00    -0.065 OA 
HETATM   31  H   UNL     1      -6.457   3.333  67.205  1.00  0.00     0.000 HD 
ENDBRANCH   3  28
TORSDOF 7
ENDMDL
MODEL      261
REMARK 921   NORMALIZED FREE ENERGY PREDICTED BY IDOCK:   -3.36 KCAL/MOL
REMARK 922        TOTAL FREE ENERGY PREDICTED BY IDOCK:   -7.36 KCAL/MOL
REMARK 923 INTER-LIGAND FREE ENERGY PREDICTED BY IDOCK:   -6.75 KCAL/MOL
REMARK 924 INTRA-LIGAND FREE ENERGY PREDICTED BY IDOCK:   -0.61 KCAL/MOL
REMARK 927      BINDING AFFINITY PREDICTED BY RF-SCORE:    0.00 PKD
ROOT
HETATM    1  C   UNL     1      -9.675  17.979  66.747  1.00  0.00    -0.323 C  
HETATM    2  C   UNL     1      -9.178  16.898  67.368  1.00  0.00    -0.224 C  
HETATM    3  C   UNL     1      -8.873  19.206  66.703  1.00  0.00    -0.324 C  
HETATM    4  H   UNL     1      -8.620  20.751  65.584  1.00  0.00     0.000 HD 
HETATM    5  O   UNL     1      -9.139  19.955  65.613  1.00  0.00    -0.298 OA 
ENDROOT
BRANCH   2   6
HETATM    6  C   UNL     1      -9.937  15.654  67.415  1.00  0.00    -0.232 A  
HETATM    7  C   UNL     1      -9.385  14.470  66.920  1.00  0.00    -0.258 A  
HETATM    8  C   UNL     1     -10.072  13.263  67.068  1.00  0.00    -0.242 A  
HETATM    9  C   UNL     1     -11.197  15.636  68.017  1.00  0.00    -0.339 A  
HETATM   10  C   UNL     1     -11.313  13.229  67.716  1.00  0.00    -0.327 A  
HETATM   11  C   UNL     1     -11.881  14.429  68.168  1.00  0.00    -0.362 A  
BRANCH  10  12
HETATM   12  C   UNL     1     -11.966  11.908  68.040  1.00  0.00    -0.133 C  
BRANCH  12  13
HETATM   13  N   UNL     1     -11.033  10.783  67.954  1.00  0.00    -0.266 NA 
HETATM   14  H   UNL     1     -10.211  11.022  67.399  1.00  0.00     0.000 HD 
BRANCH  13  15
HETATM   15  C   UNL     1     -10.657  10.289  69.289  1.00  0.00    -0.230 C  
BRANCH  15  16
HETATM   16  C   UNL     1      -9.703   9.085  69.253  1.00  0.00    -0.168 C  
BRANCH  16  17
HETATM   17  C   UNL     1      -8.990   8.871  70.552  1.00  0.00    -0.224 A  
HETATM   18  C   UNL     1      -7.689   9.225  70.870  1.00  0.00    -0.103 A  
HETATM   19  N   UNL     1      -7.441   8.785  72.148  1.00  0.00    -0.323 NA 
HETATM   20  C   UNL     1      -6.633   9.926  70.094  1.00  0.00    -0.102 C  
HETATM   21  H   UNL     1      -6.555   8.902  72.640  1.00  0.00     0.000 HD 
HETATM   22  C   UNL     1      -8.548   8.169  72.674  1.00  0.00    -0.200 A  
HETATM   23  C   UNL     1      -8.738   7.570  73.925  1.00  0.00    -0.280 A  
HETATM   24  C   UNL     1      -9.993   7.017  74.197  1.00  0.00    -0.305 A  
HETATM   25  C   UNL     1     -11.016   7.063  73.253  1.00  0.00    -0.296 A  
HETATM   26  C   UNL     1     -10.805   7.657  72.003  1.00  0.00    -0.282 A  
HETATM   27  C   UNL     1      -9.546   8.220  71.704  1.00  0.00    -0.261 A  
ENDBRANCH  16  17
ENDBRANCH  15  16
ENDBRANCH  13  15
ENDBRANCH  12  13
ENDBRANCH  10  12
ENDBRANCH   2   6
BRANCH   3  28
HETATM   28  N   UNL     1      -8.005  19.552  67.598  1.00  0.00    -0.278 NA 
HETATM   29  H   UNL     1      -7.660  18.935  68.334  1.00  0.00     0.000 HD 
HETATM   30  O   UNL     1      -7.601  20.884  67.428  1.00  0.00    -0.366 OA 
HETATM   31  H   UNL     1      -6.964  21.138  68.086  1.00  0.00     0.000 HD 
ENDBRANCH   3  28
TORSDOF 7
ENDMDL
MODEL      262
REMARK 921   NORMALIZED FREE ENERGY PREDICTED BY IDOCK:   -3.35 KCAL/MOL
REMARK 922        TOTAL FREE ENERGY PREDICTED BY IDOCK:   -7.36 KCAL/MOL
REMARK 923 INTER-LIGAND FREE ENERGY PREDICTED BY IDOCK:   -6.68 KCAL/MOL
REMARK 924 INTRA-LIGAND FREE ENERGY PREDICTED BY IDOCK:   -0.67 KCAL/MOL
REMARK 927      BINDING AFFINITY PREDICTED BY RF-SCORE:    0.00 PKD
ROOT
HETATM    1  C   UNL     1      -9.867   7.619  67.744  1.00  0.00    -0.196 C  
HETATM    2  C   UNL     1      -8.623   7.751  67.259  1.00  0.00    -0.128 C  
HETATM    3  C   UNL     1     -10.540   6.320  67.634  1.00  0.00    -0.271 C  
HETATM    4  H   UNL     1     -11.870   5.277  68.553  1.00  0.00     0.000 HD 
HETATM    5  O   UNL     1     -11.434   6.119  68.624  1.00  0.00    -0.223 OA 
ENDROOT
BRANCH   2   6
HETATM    6  C   UNL     1      -7.914   9.020  67.368  1.00  0.00    -0.100 A  
HETATM    7  C   UNL     1      -7.195   9.524  66.281  1.00  0.00    -0.093 A  
HETATM    8  C   UNL     1      -6.611  10.791  66.356  1.00  0.00    -0.128 A  
HETATM    9  C   UNL     1      -8.007   9.764  68.546  1.00  0.00    -0.089 A  
HETATM   10  C   UNL     1      -6.744  11.564  67.517  1.00  0.00    -0.087 A  
HETATM   11  C   UNL     1      -7.427  11.030  68.620  1.00  0.00    -0.112 A  
BRANCH  10  12
HETATM   12  C   UNL     1      -6.276  12.998  67.532  1.00  0.00    -0.139 C  
BRANCH  12  13
HETATM   13  N   UNL     1      -7.339  13.934  67.901  1.00  0.00    -0.135 NA 
HETATM   14  H   UNL     1      -7.827  13.630  68.743  1.00  0.00     0.000 HD 
BRANCH  13  15
HETATM   15  C   UNL     1      -6.826  15.307  68.042  1.00  0.00    -0.140 C  
BRANCH  15  16
HETATM   16  C   UNL     1      -7.489  16.097  69.180  1.00  0.00    -0.221 C  
BRANCH  16  17
HETATM   17  C   UNL     1      -8.776  16.740  68.766  1.00  0.00    -0.258 A  
HETATM   18  C   UNL     1     -10.049  16.196  68.822  1.00  0.00    -0.237 A  
HETATM   19  N   UNL     1     -10.918  17.117  68.288  1.00  0.00    -0.309 NA 
HETATM   20  C   UNL     1     -10.547  14.885  69.315  1.00  0.00    -0.248 C  
HETATM   21  H   UNL     1     -11.924  16.978  68.193  1.00  0.00     0.000 HD 
HETATM   22  C   UNL     1     -10.247  18.249  67.899  1.00  0.00    -0.384 A  
HETATM   23  C   UNL     1     -10.728  19.421  67.304  1.00  0.00    -0.603 A  
HETATM   24  C   UNL     1      -9.803  20.431  67.019  1.00  0.00    -0.594 A  
HETATM   25  C   UNL     1      -8.453  20.271  67.320  1.00  0.00    -0.415 A  
HETATM   26  C   UNL     1      -7.989  19.089  67.906  1.00  0.00    -0.307 A  
HETATM   27  C   UNL     1      -8.902  18.054  68.201  1.00  0.00    -0.277 A  
ENDBRANCH  16  17
ENDBRANCH  15  16
ENDBRANCH  13  15
ENDBRANCH  12  13
ENDBRANCH  10  12
ENDBRANCH   2   6
BRANCH   3  28
HETATM   28  N   UNL     1     -10.320   5.453  66.700  1.00  0.00    -0.248 NA 
HETATM   29  H   UNL     1      -9.482   4.872  66.638  1.00  0.00     0.000 HD 
HETATM   30  O   UNL     1     -11.380   5.412  65.782  1.00  0.00    -0.743 OA 
HETATM   31  H   UNL     1     -11.218   4.775  65.096  1.00  0.00     0.000 HD 
ENDBRANCH   3  28
TORSDOF 7
ENDMDL
MODEL      263
REMARK 921   NORMALIZED FREE ENERGY PREDICTED BY IDOCK:   -3.35 KCAL/MOL
REMARK 922        TOTAL FREE ENERGY PREDICTED BY IDOCK:   -7.35 KCAL/MOL
REMARK 923 INTER-LIGAND FREE ENERGY PREDICTED BY IDOCK:   -5.90 KCAL/MOL
REMARK 924 INTRA-LIGAND FREE ENERGY PREDICTED BY IDOCK:   -1.45 KCAL/MOL
REMARK 927      BINDING AFFINITY PREDICTED BY RF-SCORE:    0.00 PKD
ROOT
HETATM    1  C   UNL     1      -7.473  11.528  68.425  1.00  0.00    -0.109 C  
HETATM    2  C   UNL     1      -7.014  12.592  69.102  1.00  0.00    -0.019 C  
HETATM    3  C   UNL     1      -7.201  10.184  68.945  1.00  0.00    -0.079 C  
HETATM    4  H   UNL     1      -7.978   8.424  68.933  1.00  0.00     0.000 HD 
HETATM    5  O   UNL     1      -8.154   9.295  68.596  1.00  0.00    -0.102 OA 
ENDROOT
BRANCH   2   6
HETATM    6  C   UNL     1      -7.282  13.945  68.628  1.00  0.00    -0.108 A  
HETATM    7  C   UNL     1      -7.454  14.196  67.265  1.00  0.00    -0.068 A  
HETATM    8  C   UNL     1      -7.820  15.472  66.830  1.00  0.00    -0.162 A  
HETATM    9  C   UNL     1      -7.430  14.983  69.551  1.00  0.00    -0.194 A  
HETATM   10  C   UNL     1      -8.020  16.506  67.754  1.00  0.00    -0.171 A  
HETATM   11  C   UNL     1      -7.798  16.256  69.117  1.00  0.00    -0.231 A  
BRANCH  10  12
HETATM   12  C   UNL     1      -8.592  17.827  67.305  1.00  0.00    -0.233 C  
BRANCH  12  13
HETATM   13  N   UNL     1     -10.051  17.871  67.404  1.00  0.00    -0.326 NA 
HETATM   14  H   UNL     1     -10.462  18.391  66.628  1.00  0.00     0.000 HD 
BRANCH  13  15
HETATM   15  C   UNL     1     -10.627  16.520  67.510  1.00  0.00    -0.313 C  
BRANCH  15  16
HETATM   16  C   UNL     1     -11.446  16.300  68.791  1.00  0.00    -0.289 C  
BRANCH  16  17
HETATM   17  C   UNL     1     -11.534  14.857  69.182  1.00  0.00    -0.324 A  
HETATM   18  C   UNL     1     -11.825  14.336  70.433  1.00  0.00    -0.305 A  
HETATM   19  N   UNL     1     -11.740  12.968  70.343  1.00  0.00    -0.540 NA 
HETATM   20  C   UNL     1     -12.165  14.989  71.724  1.00  0.00    -0.417 C  
HETATM   21  H   UNL     1     -11.897  12.324  71.118  1.00  0.00     0.000 HD 
HETATM   22  C   UNL     1     -11.415  12.585  69.066  1.00  0.00    -0.304 A  
HETATM   23  C   UNL     1     -11.217  11.306  68.532  1.00  0.00    -0.311 A  
HETATM   24  C   UNL     1     -10.896  11.211  67.174  1.00  0.00    -0.326 A  
HETATM   25  C   UNL     1     -10.781  12.353  66.384  1.00  0.00    -0.277 A  
HETATM   26  C   UNL     1     -10.974  13.623  66.937  1.00  0.00    -0.296 A  
HETATM   27  C   UNL     1     -11.296  13.745  68.306  1.00  0.00    -0.317 A  
ENDBRANCH  16  17
ENDBRANCH  15  16
ENDBRANCH  13  15
ENDBRANCH  12  13
ENDBRANCH  10  12
ENDBRANCH   2   6
BRANCH   3  28
HETATM   28  N   UNL     1      -6.168   9.863  69.655  1.00  0.00    -0.044 NA 
HETATM   29  H   UNL     1      -6.062  10.078  70.647  1.00  0.00     0.000 HD 
HETATM   30  O   UNL     1      -5.212   9.182  68.887  1.00  0.00    -0.036 OA 
HETATM   31  H   UNL     1      -4.454   8.947  69.409  1.00  0.00     0.000 HD 
ENDBRANCH   3  28
TORSDOF 7
ENDMDL
MODEL      264
REMARK 921   NORMALIZED FREE ENERGY PREDICTED BY IDOCK:   -3.33 KCAL/MOL
REMARK 922        TOTAL FREE ENERGY PREDICTED BY IDOCK:   -7.32 KCAL/MOL
REMARK 923 INTER-LIGAND FREE ENERGY PREDICTED BY IDOCK:   -4.35 KCAL/MOL
REMARK 924 INTRA-LIGAND FREE ENERGY PREDICTED BY IDOCK:   -2.97 KCAL/MOL
REMARK 927      BINDING AFFINITY PREDICTED BY RF-SCORE:    0.00 PKD
ROOT
HETATM    1  C   UNL     1     -12.163   7.054  70.729  1.00  0.00    -0.343 C  
HETATM    2  C   UNL     1     -11.478   6.105  71.385  1.00  0.00    -0.317 C  
HETATM    3  C   UNL     1     -13.066   7.930  71.484  1.00  0.00    -0.311 C  
HETATM    4  H   UNL     1     -13.784   9.713  71.402  1.00  0.00     0.000 HD 
HETATM    5  O   UNL     1     -13.199   9.146  70.914  1.00  0.00    -0.108 OA 
ENDROOT
BRANCH   2   6
HETATM    6  C   UNL     1     -10.556   5.229  70.674  1.00  0.00    -0.263 A  
HETATM    7  C   UNL     1     -10.089   4.057  71.273  1.00  0.00    -0.133 A  
HETATM    8  C   UNL     1      -9.294   3.167  70.545  1.00  0.00    -0.227 A  
HETATM    9  C   UNL     1     -10.187   5.534  69.361  1.00  0.00    -0.329 A  
HETATM   10  C   UNL     1      -8.963   3.442  69.212  1.00  0.00    -0.178 A  
HETATM   11  C   UNL     1      -9.397   4.644  68.633  1.00  0.00    -0.193 A  
BRANCH  10  12
HETATM   12  C   UNL     1      -8.266   2.401  68.372  1.00  0.00    -0.057 C  
BRANCH  12  13
HETATM   13  N   UNL     1      -6.859   2.724  68.129  1.00  0.00    -0.047 NA 
HETATM   14  H   UNL     1      -6.725   3.725  67.987  1.00  0.00     0.000 HD 
BRANCH  13  15
HETATM   15  C   UNL     1      -5.993   2.212  69.204  1.00  0.00    -0.024 C  
BRANCH  15  16
HETATM   16  C   UNL     1      -5.154   3.302  69.889  1.00  0.00    -0.004 C  
BRANCH  16  17
HETATM   17  C   UNL     1      -5.865   3.941  71.042  1.00  0.00    -0.013 A  
HETATM   18  C   UNL     1      -6.109   3.394  72.292  1.00  0.00    -0.013 A  
HETATM   19  N   UNL     1      -6.839   4.311  73.010  1.00  0.00    -0.055 NA 
HETATM   20  C   UNL     1      -5.741   2.085  72.892  1.00  0.00    -0.004 C  
HETATM   21  H   UNL     1      -7.168   4.171  73.965  1.00  0.00     0.000 HD 
HETATM   22  C   UNL     1      -7.063   5.443  72.266  1.00  0.00    -0.086 A  
HETATM   23  C   UNL     1      -7.761   6.611  72.592  1.00  0.00    -0.101 A  
HETATM   24  C   UNL     1      -7.824   7.621  71.627  1.00  0.00    -0.089 A  
HETATM   25  C   UNL     1      -7.211   7.465  70.386  1.00  0.00    -0.068 A  
HETATM   26  C   UNL     1      -6.525   6.286  70.074  1.00  0.00    -0.043 A  
HETATM   27  C   UNL     1      -6.450   5.251  71.031  1.00  0.00    -0.034 A  
ENDBRANCH  16  17
ENDBRANCH  15  16
ENDBRANCH  13  15
ENDBRANCH  12  13
ENDBRANCH  10  12
ENDBRANCH   2   6
BRANCH   3  28
HETATM   28  N   UNL     1     -13.679   7.595  72.573  1.00  0.00    -0.325 NA 
HETATM   29  H   UNL     1     -13.933   6.637  72.819  1.00  0.00     0.000 HD 
HETATM   30  O   UNL     1     -13.948   8.715  73.373  1.00  0.00    -0.985 OA 
HETATM   31  H   UNL     1     -14.398   8.468  74.172  1.00  0.00     0.000 HD 
ENDBRANCH   3  28
TORSDOF 7
ENDMDL
MODEL      265
REMARK 921   NORMALIZED FREE ENERGY PREDICTED BY IDOCK:   -3.32 KCAL/MOL
REMARK 922        TOTAL FREE ENERGY PREDICTED BY IDOCK:   -7.31 KCAL/MOL
REMARK 923 INTER-LIGAND FREE ENERGY PREDICTED BY IDOCK:   -6.15 KCAL/MOL
REMARK 924 INTRA-LIGAND FREE ENERGY PREDICTED BY IDOCK:   -1.16 KCAL/MOL
REMARK 927      BINDING AFFINITY PREDICTED BY RF-SCORE:    0.00 PKD
ROOT
HETATM    1  C   UNL     1     -12.104  12.721  66.426  1.00  0.00    -0.370 C  
HETATM    2  C   UNL     1     -11.400  11.594  66.244  1.00  0.00    -0.293 C  
HETATM    3  C   UNL     1     -12.476  13.525  65.257  1.00  0.00    -0.482 C  
HETATM    4  H   UNL     1     -13.859  14.737  64.692  1.00  0.00     0.000 HD 
HETATM    5  O   UNL     1     -13.618  14.216  65.449  1.00  0.00    -0.568 OA 
ENDROOT
BRANCH   2   6
HETATM    6  C   UNL     1     -11.030  10.757  67.379  1.00  0.00    -0.361 A  
HETATM    7  C   UNL     1     -10.236   9.622  67.193  1.00  0.00    -0.305 A  
HETATM    8  C   UNL     1      -9.795   8.889  68.297  1.00  0.00    -0.187 A  
HETATM    9  C   UNL     1     -11.420  11.129  68.668  1.00  0.00    -0.363 A  
HETATM   10  C   UNL     1     -10.140   9.286  69.595  1.00  0.00    -0.208 A  
HETATM   11  C   UNL     1     -10.976  10.399  69.770  1.00  0.00    -0.345 A  
BRANCH  10  12
HETATM   12  C   UNL     1      -9.515   8.608  70.789  1.00  0.00    -0.190 C  
BRANCH  12  13
HETATM   13  N   UNL     1      -8.501   9.439  71.441  1.00  0.00    -0.271 NA 
HETATM   14  H   UNL     1      -8.213   9.042  72.335  1.00  0.00     0.000 HD 
BRANCH  13  15
HETATM   15  C   UNL     1      -7.346   9.673  70.559  1.00  0.00    -0.131 C  
BRANCH  15  16
HETATM   16  C   UNL     1      -6.361   8.495  70.507  1.00  0.00    -0.036 C  
BRANCH  16  17
HETATM   17  C   UNL     1      -6.350   7.807  69.177  1.00  0.00    -0.036 A  
HETATM   18  C   UNL     1      -6.284   6.444  68.931  1.00  0.00    -0.033 A  
HETATM   19  N   UNL     1      -6.242   6.272  67.568  1.00  0.00    -0.027 NA 
HETATM   20  C   UNL     1      -6.242   5.272  69.843  1.00  0.00    -0.026 C  
HETATM   21  H   UNL     1      -6.181   5.368  67.100  1.00  0.00     0.000 HD 
HETATM   22  C   UNL     1      -6.292   7.482  66.923  1.00  0.00    -0.049 A  
HETATM   23  C   UNL     1      -6.264   7.775  65.554  1.00  0.00    -0.038 A  
HETATM   24  C   UNL     1      -6.338   9.119  65.177  1.00  0.00    -0.068 A  
HETATM   25  C   UNL     1      -6.437  10.127  66.132  1.00  0.00    -0.096 A  
HETATM   26  C   UNL     1      -6.454   9.816  67.496  1.00  0.00    -0.068 A  
HETATM   27  C   UNL     1      -6.378   8.466  67.903  1.00  0.00    -0.056 A  
ENDBRANCH  16  17
ENDBRANCH  15  16
ENDBRANCH  13  15
ENDBRANCH  12  13
ENDBRANCH  10  12
ENDBRANCH   2   6
BRANCH   3  28
HETATM   28  N   UNL     1     -11.797  13.583  64.157  1.00  0.00    -0.442 NA 
HETATM   29  H   UNL     1     -10.856  13.204  64.040  1.00  0.00     0.000 HD 
HETATM   30  O   UNL     1     -12.519  14.234  63.146  1.00  0.00    -1.102 OA 
HETATM   31  H   UNL     1     -12.020  14.276  62.338  1.00  0.00     0.000 HD 
ENDBRANCH   3  28
TORSDOF 7
ENDMDL
MODEL      266
REMARK 921   NORMALIZED FREE ENERGY PREDICTED BY IDOCK:   -3.31 KCAL/MOL
REMARK 922        TOTAL FREE ENERGY PREDICTED BY IDOCK:   -7.29 KCAL/MOL
REMARK 923 INTER-LIGAND FREE ENERGY PREDICTED BY IDOCK:   -4.57 KCAL/MOL
REMARK 924 INTRA-LIGAND FREE ENERGY PREDICTED BY IDOCK:   -2.73 KCAL/MOL
REMARK 927      BINDING AFFINITY PREDICTED BY RF-SCORE:    0.00 PKD
ROOT
HETATM    1  C   UNL     1     -11.198   8.860  70.989  1.00  0.00    -0.342 C  
HETATM    2  C   UNL     1     -10.889   8.756  69.688  1.00  0.00    -0.175 C  
HETATM    3  C   UNL     1     -12.522   9.363  71.368  1.00  0.00    -0.352 C  
HETATM    4  H   UNL     1     -13.799   9.196  72.798  1.00  0.00     0.000 HD 
HETATM    5  O   UNL     1     -12.941   8.869  72.552  1.00  0.00    -0.418 OA 
ENDROOT
BRANCH   2   6
HETATM    6  C   UNL     1      -9.590   8.241  69.272  1.00  0.00    -0.164 A  
HETATM    7  C   UNL     1      -8.429   8.619  69.950  1.00  0.00    -0.129 A  
HETATM    8  C   UNL     1      -7.204   8.036  69.617  1.00  0.00    -0.066 A  
HETATM    9  C   UNL     1      -9.517   7.314  68.229  1.00  0.00    -0.141 A  
HETATM   10  C   UNL     1      -7.131   7.068  68.606  1.00  0.00    -0.092 A  
HETATM   11  C   UNL     1      -8.294   6.730  67.899  1.00  0.00    -0.120 A  
BRANCH  10  12
HETATM   12  C   UNL     1      -5.849   6.307  68.373  1.00  0.00    -0.016 C  
BRANCH  12  13
HETATM   13  N   UNL     1      -5.400   5.585  69.564  1.00  0.00    -0.004 NA 
HETATM   14  H   UNL     1      -5.521   6.144  70.408  1.00  0.00     0.000 HD 
BRANCH  13  15
HETATM   15  C   UNL     1      -6.064   4.276  69.685  1.00  0.00    -0.023 C  
BRANCH  15  16
HETATM   16  C   UNL     1      -6.512   3.944  71.117  1.00  0.00    -0.026 C  
BRANCH  16  17
HETATM   17  C   UNL     1      -7.686   4.762  71.561  1.00  0.00    -0.092 A  
HETATM   18  C   UNL     1      -8.985   4.705  71.082  1.00  0.00    -0.123 A  
HETATM   19  N   UNL     1      -9.710   5.671  71.737  1.00  0.00    -0.156 NA 
HETATM   20  C   UNL     1      -9.627   3.844  70.056  1.00  0.00    -0.269 C  
HETATM   21  H   UNL     1     -10.699   5.863  71.576  1.00  0.00     0.000 HD 
HETATM   22  C   UNL     1      -8.922   6.344  72.637  1.00  0.00    -0.132 A  
HETATM   23  C   UNL     1      -9.240   7.400  73.500  1.00  0.00    -0.275 A  
HETATM   24  C   UNL     1      -8.224   7.892  74.324  1.00  0.00    -0.303 A  
HETATM   25  C   UNL     1      -6.943   7.349  74.285  1.00  0.00    -0.107 A  
HETATM   26  C   UNL     1      -6.641   6.300  73.409  1.00  0.00    -0.074 A  
HETATM   27  C   UNL     1      -7.649   5.787  72.565  1.00  0.00    -0.101 A  
ENDBRANCH  16  17
ENDBRANCH  15  16
ENDBRANCH  13  15
ENDBRANCH  12  13
ENDBRANCH  10  12
ENDBRANCH   2   6
BRANCH   3  28
HETATM   28  N   UNL     1     -13.226  10.191  70.665  1.00  0.00    -0.575 NA 
HETATM   29  H   UNL     1     -13.962   9.913  70.015  1.00  0.00     0.000 HD 
HETATM   30  O   UNL     1     -12.846  11.519  70.910  1.00  0.00    -0.294 OA 
HETATM   31  H   UNL     1     -13.363  12.126  70.393  1.00  0.00     0.000 HD 
ENDBRANCH   3  28
TORSDOF 7
ENDMDL
MODEL      267
REMARK 921   NORMALIZED FREE ENERGY PREDICTED BY IDOCK:   -3.30 KCAL/MOL
REMARK 922        TOTAL FREE ENERGY PREDICTED BY IDOCK:   -7.28 KCAL/MOL
REMARK 923 INTER-LIGAND FREE ENERGY PREDICTED BY IDOCK:   -7.38 KCAL/MOL
REMARK 924 INTRA-LIGAND FREE ENERGY PREDICTED BY IDOCK:    0.10 KCAL/MOL
REMARK 927      BINDING AFFINITY PREDICTED BY RF-SCORE:    0.00 PKD
ROOT
HETATM    1  C   UNL     1     -10.019   6.833  70.402  1.00  0.00    -0.193 C  
HETATM    2  C   UNL     1      -8.908   7.416  69.928  1.00  0.00    -0.141 C  
HETATM    3  C   UNL     1      -9.891   5.646  71.255  1.00  0.00    -0.175 C  
HETATM    4  H   UNL     1     -10.831   4.758  72.680  1.00  0.00     0.000 HD 
HETATM    5  O   UNL     1     -10.913   5.527  72.128  1.00  0.00    -0.240 OA 
ENDROOT
BRANCH   2   6
HETATM    6  C   UNL     1      -8.994   8.610  69.095  1.00  0.00    -0.142 A  
HETATM    7  C   UNL     1      -7.860   9.099  68.442  1.00  0.00    -0.102 A  
HETATM    8  C   UNL     1      -7.972  10.176  67.559  1.00  0.00    -0.106 A  
HETATM    9  C   UNL     1     -10.231   9.228  68.899  1.00  0.00    -0.217 A  
HETATM   10  C   UNL     1      -9.218  10.769  67.319  1.00  0.00    -0.158 A  
HETATM   11  C   UNL     1     -10.343  10.301  68.014  1.00  0.00    -0.215 A  
BRANCH  10  12
HETATM   12  C   UNL     1      -9.371  11.804  66.232  1.00  0.00    -0.225 C  
BRANCH  12  13
HETATM   13  N   UNL     1      -8.986  13.145  66.673  1.00  0.00    -0.403 NA 
HETATM   14  H   UNL     1      -8.520  13.663  65.928  1.00  0.00     0.000 HD 
BRANCH  13  15
HETATM   15  C   UNL     1     -10.138  13.890  67.208  1.00  0.00    -0.242 C  
BRANCH  15  16
HETATM   16  C   UNL     1      -9.773  15.281  67.747  1.00  0.00    -0.215 C  
BRANCH  16  17
HETATM   17  C   UNL     1     -10.181  16.387  66.822  1.00  0.00    -0.285 A  
HETATM   18  C   UNL     1     -10.711  16.269  65.547  1.00  0.00    -0.313 A  
HETATM   19  N   UNL     1     -10.880  17.539  65.051  1.00  0.00    -0.754 NA 
HETATM   20  C   UNL     1     -11.066  15.083  64.726  1.00  0.00    -0.388 C  
HETATM   21  H   UNL     1     -11.247  17.755  64.124  1.00  0.00     0.000 HD 
HETATM   22  C   UNL     1     -10.490  18.477  65.972  1.00  0.00    -0.400 A  
HETATM   23  C   UNL     1     -10.481  19.875  65.887  1.00  0.00    -0.567 A  
HETATM   24  C   UNL     1     -10.029  20.590  67.000  1.00  0.00    -0.489 A  
HETATM   25  C   UNL     1      -9.606  19.931  68.152  1.00  0.00    -0.463 A  
HETATM   26  C   UNL     1      -9.613  18.534  68.216  1.00  0.00    -0.370 A  
HETATM   27  C   UNL     1     -10.062  17.789  67.104  1.00  0.00    -0.338 A  
ENDBRANCH  16  17
ENDBRANCH  15  16
ENDBRANCH  13  15
ENDBRANCH  12  13
ENDBRANCH  10  12
ENDBRANCH   2   6
BRANCH   3  28
HETATM   28  N   UNL     1      -8.920   4.794  71.191  1.00  0.00    -0.128 NA 
HETATM   29  H   UNL     1      -8.726   4.201  70.384  1.00  0.00     0.000 HD 
HETATM   30  O   UNL     1      -8.166   4.791  72.374  1.00  0.00    -0.111 OA 
HETATM   31  H   UNL     1      -7.452   4.166  72.327  1.00  0.00     0.000 HD 
ENDBRANCH   3  28
TORSDOF 7
ENDMDL
MODEL      268
REMARK 921   NORMALIZED FREE ENERGY PREDICTED BY IDOCK:   -3.30 KCAL/MOL
REMARK 922        TOTAL FREE ENERGY PREDICTED BY IDOCK:   -7.28 KCAL/MOL
REMARK 923 INTER-LIGAND FREE ENERGY PREDICTED BY IDOCK:   -4.77 KCAL/MOL
REMARK 924 INTRA-LIGAND FREE ENERGY PREDICTED BY IDOCK:   -2.52 KCAL/MOL
REMARK 927      BINDING AFFINITY PREDICTED BY RF-SCORE:    0.00 PKD
ROOT
HETATM    1  C   UNL     1     -10.763  10.381  65.444  1.00  0.00     0.052 C  
HETATM    2  C   UNL     1      -9.900   9.967  66.383  1.00  0.00    -0.283 C  
HETATM    3  C   UNL     1     -10.278  11.249  64.365  1.00  0.00    -0.320 C  
HETATM    4  H   UNL     1     -10.672  11.662  62.528  1.00  0.00     0.000 HD 
HETATM    5  O   UNL     1     -10.986  11.099  63.226  1.00  0.00    -0.242 OA 
ENDROOT
BRANCH   2   6
HETATM    6  C   UNL     1     -10.339   9.086  67.459  1.00  0.00    -0.328 A  
HETATM    7  C   UNL     1     -10.842   7.815  67.171  1.00  0.00    -0.227 A  
HETATM    8  C   UNL     1     -11.157   6.936  68.210  1.00  0.00    -0.152 A  
HETATM    9  C   UNL     1     -10.195   9.493  68.787  1.00  0.00    -0.215 A  
HETATM   10  C   UNL     1     -10.967   7.319  69.545  1.00  0.00    -0.182 A  
HETATM   11  C   UNL     1     -10.505   8.614  69.825  1.00  0.00    -0.220 A  
BRANCH  10  12
HETATM   12  C   UNL     1     -11.129   6.311  70.655  1.00  0.00    -0.327 C  
BRANCH  12  13
HETATM   13  N   UNL     1      -9.846   5.836  71.176  1.00  0.00    -0.175 NA 
HETATM   14  H   UNL     1      -9.889   5.675  72.182  1.00  0.00     0.000 HD 
BRANCH  13  15
HETATM   15  C   UNL     1      -9.381   4.638  70.458  1.00  0.00    -0.155 C  
BRANCH  15  16
HETATM   16  C   UNL     1      -7.921   4.730  69.988  1.00  0.00    -0.069 C  
BRANCH  16  17
HETATM   17  C   UNL     1      -7.734   5.704  68.866  1.00  0.00    -0.089 A  
HETATM   18  C   UNL     1      -7.243   6.997  68.943  1.00  0.00    -0.091 A  
HETATM   19  N   UNL     1      -7.300   7.537  67.681  1.00  0.00    -0.100 NA 
HETATM   20  C   UNL     1      -6.734   7.799  70.085  1.00  0.00    -0.041 C  
HETATM   21  H   UNL     1      -7.010   8.486  67.442  1.00  0.00     0.000 HD 
HETATM   22  C   UNL     1      -7.800   6.627  66.784  1.00  0.00    -0.107 A  
HETATM   23  C   UNL     1      -8.038   6.752  65.410  1.00  0.00    -0.129 A  
HETATM   24  C   UNL     1      -8.554   5.641  64.737  1.00  0.00    -0.061 A  
HETATM   25  C   UNL     1      -8.820   4.452  65.414  1.00  0.00    -0.133 A  
HETATM   26  C   UNL     1      -8.585   4.349  66.789  1.00  0.00    -0.107 A  
HETATM   27  C   UNL     1      -8.066   5.458  67.492  1.00  0.00    -0.101 A  
ENDBRANCH  16  17
ENDBRANCH  15  16
ENDBRANCH  13  15
ENDBRANCH  12  13
ENDBRANCH  10  12
ENDBRANCH   2   6
BRANCH   3  28
HETATM   28  N   UNL     1      -9.289  12.077  64.473  1.00  0.00    -0.425 NA 
HETATM   29  H   UNL     1      -8.329  11.865  64.200  1.00  0.00     0.000 HD 
HETATM   30  O   UNL     1      -9.706  13.302  65.014  1.00  0.00    -0.539 OA 
HETATM   31  H   UNL     1      -8.980  13.909  65.093  1.00  0.00     0.000 HD 
ENDBRANCH   3  28
TORSDOF 7
ENDMDL
MODEL      269
REMARK 921   NORMALIZED FREE ENERGY PREDICTED BY IDOCK:   -3.27 KCAL/MOL
REMARK 922        TOTAL FREE ENERGY PREDICTED BY IDOCK:   -7.24 KCAL/MOL
REMARK 923 INTER-LIGAND FREE ENERGY PREDICTED BY IDOCK:   -6.57 KCAL/MOL
REMARK 924 INTRA-LIGAND FREE ENERGY PREDICTED BY IDOCK:   -0.67 KCAL/MOL
REMARK 927      BINDING AFFINITY PREDICTED BY RF-SCORE:    0.00 PKD
ROOT
HETATM    1  C   UNL     1      -7.867  17.394  66.987  1.00  0.00    -0.238 C  
HETATM    2  C   UNL     1      -9.111  17.597  66.528  1.00  0.00    -0.284 C  
HETATM    3  C   UNL     1      -6.963  18.542  67.122  1.00  0.00    -0.202 C  
HETATM    4  H   UNL     1      -5.466  19.109  68.188  1.00  0.00     0.000 HD 
HETATM    5  O   UNL     1      -6.052  18.366  68.101  1.00  0.00    -0.179 OA 
ENDROOT
BRANCH   2   6
HETATM    6  C   UNL     1     -10.045  16.485  66.399  1.00  0.00    -0.323 A  
HETATM    7  C   UNL     1     -10.267  15.888  65.156  1.00  0.00    -0.198 A  
HETATM    8  C   UNL     1     -11.078  14.754  65.060  1.00  0.00    -0.412 A  
HETATM    9  C   UNL     1     -10.673  15.975  67.538  1.00  0.00    -0.314 A  
HETATM   10  C   UNL     1     -11.670  14.207  66.207  1.00  0.00    -0.402 A  
HETATM   11  C   UNL     1     -11.479  14.841  67.443  1.00  0.00    -0.376 A  
BRANCH  10  12
HETATM   12  C   UNL     1     -12.389  12.883  66.132  1.00  0.00    -0.196 C  
BRANCH  12  13
HETATM   13  N   UNL     1     -11.634  11.796  66.756  1.00  0.00    -0.536 NA 
HETATM   14  H   UNL     1     -12.251  11.136  67.229  1.00  0.00     0.000 HD 
BRANCH  13  15
HETATM   15  C   UNL     1     -10.762  11.115  65.784  1.00  0.00    -0.188 C  
BRANCH  15  16
HETATM   16  C   UNL     1      -9.337  10.870  66.303  1.00  0.00    -0.203 C  
BRANCH  16  17
HETATM   17  C   UNL     1      -8.850   9.481  66.024  1.00  0.00    -0.183 A  
HETATM   18  C   UNL     1      -7.759   9.106  65.256  1.00  0.00    -0.099 A  
HETATM   19  N   UNL     1      -7.723   7.732  65.231  1.00  0.00    -0.095 NA 
HETATM   20  C   UNL     1      -6.741   9.902  64.523  1.00  0.00    -0.124 C  
HETATM   21  H   UNL     1      -7.028   7.180  64.730  1.00  0.00     0.000 HD 
HETATM   22  C   UNL     1      -8.752   7.206  65.971  1.00  0.00    -0.147 A  
HETATM   23  C   UNL     1      -9.099   5.870  66.208  1.00  0.00    -0.157 A  
HETATM   24  C   UNL     1     -10.210   5.623  67.020  1.00  0.00    -0.265 A  
HETATM   25  C   UNL     1     -10.942   6.672  67.573  1.00  0.00    -0.416 A  
HETATM   26  C   UNL     1     -10.585   8.000  67.317  1.00  0.00    -0.360 A  
HETATM   27  C   UNL     1      -9.469   8.276  66.498  1.00  0.00    -0.284 A  
ENDBRANCH  16  17
ENDBRANCH  15  16
ENDBRANCH  13  15
ENDBRANCH  12  13
ENDBRANCH  10  12
ENDBRANCH   2   6
BRANCH   3  28
HETATM   28  N   UNL     1      -7.012  19.609  66.392  1.00  0.00    -0.216 NA 
HETATM   29  H   UNL     1      -7.786  20.275  66.397  1.00  0.00     0.000 HD 
HETATM   30  O   UNL     1      -5.867  19.734  65.592  1.00  0.00    -0.168 OA 
HETATM   31  H   UNL     1      -5.903  20.518  65.057  1.00  0.00     0.000 HD 
ENDBRANCH   3  28
TORSDOF 7
ENDMDL
MODEL      270
REMARK 921   NORMALIZED FREE ENERGY PREDICTED BY IDOCK:   -3.26 KCAL/MOL
REMARK 922        TOTAL FREE ENERGY PREDICTED BY IDOCK:   -7.23 KCAL/MOL
REMARK 923 INTER-LIGAND FREE ENERGY PREDICTED BY IDOCK:   -6.39 KCAL/MOL
REMARK 924 INTRA-LIGAND FREE ENERGY PREDICTED BY IDOCK:   -0.84 KCAL/MOL
REMARK 927      BINDING AFFINITY PREDICTED BY RF-SCORE:    0.00 PKD
ROOT
HETATM    1  C   UNL     1      -9.749   5.909  68.495  1.00  0.00    -0.151 C  
HETATM    2  C   UNL     1     -10.497   6.156  69.581  1.00  0.00    -0.312 C  
HETATM    3  C   UNL     1      -9.463   4.517  68.130  1.00  0.00    -0.149 C  
HETATM    4  H   UNL     1      -9.091   3.459  66.566  1.00  0.00     0.000 HD 
HETATM    5  O   UNL     1      -9.277   4.360  66.803  1.00  0.00    -0.122 OA 
ENDROOT
BRANCH   2   6
HETATM    6  C   UNL     1     -10.820   7.525  69.963  1.00  0.00    -0.260 A  
HETATM    7  C   UNL     1     -10.359   8.601  69.200  1.00  0.00    -0.227 A  
HETATM    8  C   UNL     1     -10.764   9.902  69.508  1.00  0.00    -0.265 A  
HETATM    9  C   UNL     1     -11.649   7.757  71.063  1.00  0.00    -0.301 A  
HETATM   10  C   UNL     1     -11.636  10.137  70.579  1.00  0.00    -0.411 A  
HETATM   11  C   UNL     1     -12.057   9.056  71.368  1.00  0.00    -0.392 A  
BRANCH  10  12
HETATM   12  C   UNL     1     -12.218  11.511  70.796  1.00  0.00    -0.363 C  
BRANCH  12  13
HETATM   13  N   UNL     1     -11.488  12.553  70.074  1.00  0.00    -0.526 NA 
HETATM   14  H   UNL     1     -10.515  12.288  69.919  1.00  0.00     0.000 HD 
BRANCH  13  15
HETATM   15  C   UNL     1     -12.157  12.907  68.811  1.00  0.00    -0.139 C  
BRANCH  15  16
HETATM   16  C   UNL     1     -11.452  14.029  68.034  1.00  0.00    -0.342 C  
BRANCH  16  17
HETATM   17  C   UNL     1     -10.036  13.691  67.683  1.00  0.00    -0.242 A  
HETATM   18  C   UNL     1      -9.589  12.654  66.880  1.00  0.00    -0.232 A  
HETATM   19  N   UNL     1      -8.216  12.689  66.883  1.00  0.00    -0.373 NA 
HETATM   20  C   UNL     1     -10.316  11.611  66.110  1.00  0.00    -0.280 C  
HETATM   21  H   UNL     1      -7.617  12.034  66.381  1.00  0.00     0.000 HD 
HETATM   22  C   UNL     1      -7.759  13.728  67.655  1.00  0.00    -0.179 A  
HETATM   23  C   UNL     1      -6.448  14.126  67.944  1.00  0.00    -0.174 A  
HETATM   24  C   UNL     1      -6.276  15.243  68.767  1.00  0.00    -0.090 A  
HETATM   25  C   UNL     1      -7.373  15.934  69.277  1.00  0.00    -0.221 A  
HETATM   26  C   UNL     1      -8.675  15.515  68.985  1.00  0.00    -0.235 A  
HETATM   27  C   UNL     1      -8.875  14.389  68.158  1.00  0.00    -0.180 A  
ENDBRANCH  16  17
ENDBRANCH  15  16
ENDBRANCH  13  15
ENDBRANCH  12  13
ENDBRANCH  10  12
ENDBRANCH   2   6
BRANCH   3  28
HETATM   28  N   UNL     1      -9.388   3.535  68.970  1.00  0.00    -0.163 NA 
HETATM   29  H   UNL     1     -10.168   3.204  69.539  1.00  0.00     0.000 HD 
HETATM   30  O   UNL     1      -8.098   2.986  68.998  1.00  0.00    -0.055 OA 
HETATM   31  H   UNL     1      -8.043   2.265  69.615  1.00  0.00     0.000 HD 
ENDBRANCH   3  28
TORSDOF 7
ENDMDL
MODEL      271
REMARK 921   NORMALIZED FREE ENERGY PREDICTED BY IDOCK:   -3.25 KCAL/MOL
REMARK 922        TOTAL FREE ENERGY PREDICTED BY IDOCK:   -7.21 KCAL/MOL
REMARK 923 INTER-LIGAND FREE ENERGY PREDICTED BY IDOCK:   -4.66 KCAL/MOL
REMARK 924 INTRA-LIGAND FREE ENERGY PREDICTED BY IDOCK:   -2.55 KCAL/MOL
REMARK 927      BINDING AFFINITY PREDICTED BY RF-SCORE:    0.00 PKD
ROOT
HETATM    1  C   UNL     1     -11.322   8.561  71.183  1.00  0.00    -0.319 C  
HETATM    2  C   UNL     1     -10.930   8.197  69.953  1.00  0.00    -0.168 C  
HETATM    3  C   UNL     1     -12.554   9.344  71.334  1.00  0.00    -0.348 C  
HETATM    4  H   UNL     1     -13.955   9.636  72.619  1.00  0.00     0.000 HD 
HETATM    5  O   UNL     1     -13.158   9.129  72.521  1.00  0.00    -0.429 OA 
ENDROOT
BRANCH   2   6
HETATM    6  C   UNL     1      -9.723   7.401  69.764  1.00  0.00    -0.170 A  
HETATM    7  C   UNL     1      -8.477   7.905  70.143  1.00  0.00    -0.129 A  
HETATM    8  C   UNL     1      -7.341   7.096  70.062  1.00  0.00    -0.080 A  
HETATM    9  C   UNL     1      -9.824   6.102  69.259  1.00  0.00    -0.182 A  
HETATM   10  C   UNL     1      -7.443   5.775  69.604  1.00  0.00    -0.075 A  
HETATM   11  C   UNL     1      -8.691   5.293  69.182  1.00  0.00    -0.106 A  
BRANCH  10  12
HETATM   12  C   UNL     1      -6.257   4.847  69.692  1.00  0.00    -0.029 C  
BRANCH  12  13
HETATM   13  N   UNL     1      -5.489   5.030  70.924  1.00  0.00    -0.004 NA 
HETATM   14  H   UNL     1      -5.576   5.981  71.280  1.00  0.00     0.000 HD 
BRANCH  13  15
HETATM   15  C   UNL     1      -5.860   4.036  71.945  1.00  0.00    -0.009 C  
BRANCH  15  16
HETATM   16  C   UNL     1      -5.941   4.615  73.366  1.00  0.00    -0.021 C  
BRANCH  16  17
HETATM   17  C   UNL     1      -7.104   5.542  73.548  1.00  0.00    -0.086 A  
HETATM   18  C   UNL     1      -7.075   6.861  73.973  1.00  0.00    -0.092 A  
HETATM   19  N   UNL     1      -8.374   7.300  74.048  1.00  0.00    -0.150 NA 
HETATM   20  C   UNL     1      -5.950   7.762  74.334  1.00  0.00    -0.081 C  
HETATM   21  H   UNL     1      -8.654   8.236  74.343  1.00  0.00     0.000 HD 
HETATM   22  C   UNL     1      -9.245   6.309  73.671  1.00  0.00    -0.129 A  
HETATM   23  C   UNL     1     -10.644   6.315  73.607  1.00  0.00    -0.280 A  
HETATM   24  C   UNL     1     -11.279   5.147  73.174  1.00  0.00    -0.398 A  
HETATM   25  C   UNL     1     -10.541   4.020  72.818  1.00  0.00    -0.218 A  
HETATM   26  C   UNL     1      -9.144   4.030  72.897  1.00  0.00    -0.122 A  
HETATM   27  C   UNL     1      -8.480   5.196  73.333  1.00  0.00    -0.110 A  
ENDBRANCH  16  17
ENDBRANCH  15  16
ENDBRANCH  13  15
ENDBRANCH  12  13
ENDBRANCH  10  12
ENDBRANCH   2   6
BRANCH   3  28
HETATM   28  N   UNL     1     -13.024  10.157  70.444  1.00  0.00    -0.585 NA 
HETATM   29  H   UNL     1     -13.748   9.915  69.767  1.00  0.00     0.000 HD 
HETATM   30  O   UNL     1     -12.411  11.416  70.529  1.00  0.00    -0.342 OA 
HETATM   31  H   UNL     1     -12.756  12.013  69.876  1.00  0.00     0.000 HD 
ENDBRANCH   3  28
TORSDOF 7
ENDMDL
MODEL      272
REMARK 921   NORMALIZED FREE ENERGY PREDICTED BY IDOCK:   -3.24 KCAL/MOL
REMARK 922        TOTAL FREE ENERGY PREDICTED BY IDOCK:   -7.20 KCAL/MOL
REMARK 923 INTER-LIGAND FREE ENERGY PREDICTED BY IDOCK:   -5.64 KCAL/MOL
REMARK 924 INTRA-LIGAND FREE ENERGY PREDICTED BY IDOCK:   -1.56 KCAL/MOL
REMARK 927      BINDING AFFINITY PREDICTED BY RF-SCORE:    0.00 PKD
ROOT
HETATM    1  C   UNL     1     -11.977  10.039  70.923  1.00  0.00    -0.453 C  
HETATM    2  C   UNL     1     -11.480   8.796  70.832  1.00  0.00    -0.330 C  
HETATM    3  C   UNL     1     -13.146  10.277  71.777  1.00  0.00    -0.465 C  
HETATM    4  H   UNL     1     -13.932  11.686  72.824  1.00  0.00     0.000 HD 
HETATM    5  O   UNL     1     -13.174  11.532  72.272  1.00  0.00    -0.425 OA 
ENDROOT
BRANCH   2   6
HETATM    6  C   UNL     1     -10.306   8.524  70.011  1.00  0.00    -0.213 A  
HETATM    7  C   UNL     1      -9.030   8.867  70.464  1.00  0.00    -0.224 A  
HETATM    8  C   UNL     1      -7.903   8.504  69.723  1.00  0.00    -0.094 A  
HETATM    9  C   UNL     1     -10.456   7.858  68.792  1.00  0.00    -0.198 A  
HETATM   10  C   UNL     1      -8.044   7.791  68.524  1.00  0.00    -0.123 A  
HETATM   11  C   UNL     1      -9.330   7.492  68.054  1.00  0.00    -0.142 A  
BRANCH  10  12
HETATM   12  C   UNL     1      -6.828   7.239  67.822  1.00  0.00    -0.070 C  
BRANCH  12  13
HETATM   13  N   UNL     1      -7.156   6.600  66.547  1.00  0.00    -0.066 NA 
HETATM   14  H   UNL     1      -6.425   6.756  65.853  1.00  0.00     0.000 HD 
BRANCH  13  15
HETATM   15  C   UNL     1      -7.438   5.165  66.719  1.00  0.00    -0.087 C  
BRANCH  15  16
HETATM   16  C   UNL     1      -6.898   4.585  68.036  1.00  0.00    -0.055 C  
BRANCH  16  17
HETATM   17  C   UNL     1      -7.964   3.936  68.863  1.00  0.00    -0.061 A  
HETATM   18  C   UNL     1      -8.718   2.817  68.544  1.00  0.00    -0.095 A  
HETATM   19  N   UNL     1      -9.611   2.613  69.568  1.00  0.00    -0.055 NA 
HETATM   20  C   UNL     1      -8.702   1.914  67.363  1.00  0.00    -0.128 C  
HETATM   21  H   UNL     1     -10.300   1.861  69.596  1.00  0.00     0.000 HD 
HETATM   22  C   UNL     1      -9.449   3.559  70.549  1.00  0.00    -0.179 A  
HETATM   23  C   UNL     1     -10.143   3.736  71.752  1.00  0.00    -0.174 A  
HETATM   24  C   UNL     1      -9.754   4.797  72.575  1.00  0.00    -0.191 A  
HETATM   25  C   UNL     1      -8.711   5.645  72.207  1.00  0.00    -0.132 A  
HETATM   26  C   UNL     1      -8.036   5.458  70.996  1.00  0.00    -0.105 A  
HETATM   27  C   UNL     1      -8.411   4.395  70.147  1.00  0.00    -0.091 A  
ENDBRANCH  16  17
ENDBRANCH  15  16
ENDBRANCH  13  15
ENDBRANCH  12  13
ENDBRANCH  10  12
ENDBRANCH   2   6
BRANCH   3  28
HETATM   28  N   UNL     1     -14.060   9.399  72.036  1.00  0.00    -0.248 NA 
HETATM   29  H   UNL     1     -14.703   9.015  71.343  1.00  0.00     0.000 HD 
HETATM   30  O   UNL     1     -14.054   9.041  73.393  1.00  0.00    -1.231 OA 
HETATM   31  H   UNL     1     -14.725   8.397  73.583  1.00  0.00     0.000 HD 
ENDBRANCH   3  28
TORSDOF 7
ENDMDL
MODEL      273
REMARK 921   NORMALIZED FREE ENERGY PREDICTED BY IDOCK:   -3.24 KCAL/MOL
REMARK 922        TOTAL FREE ENERGY PREDICTED BY IDOCK:   -7.19 KCAL/MOL
REMARK 923 INTER-LIGAND FREE ENERGY PREDICTED BY IDOCK:   -5.46 KCAL/MOL
REMARK 924 INTRA-LIGAND FREE ENERGY PREDICTED BY IDOCK:   -1.73 KCAL/MOL
REMARK 927      BINDING AFFINITY PREDICTED BY RF-SCORE:    0.00 PKD
ROOT
HETATM    1  C   UNL     1      -8.200  17.996  67.088  1.00  0.00    -0.231 C  
HETATM    2  C   UNL     1      -9.476  17.996  66.675  1.00  0.00    -0.300 C  
HETATM    3  C   UNL     1      -7.708  19.129  67.880  1.00  0.00    -0.275 C  
HETATM    4  H   UNL     1      -6.393  19.510  69.231  1.00  0.00     0.000 HD 
HETATM    5  O   UNL     1      -6.711  18.776  68.718  1.00  0.00    -0.251 OA 
ENDROOT
BRANCH   2   6
HETATM    6  C   UNL     1     -10.007  16.878  65.904  1.00  0.00    -0.274 A  
HETATM    7  C   UNL     1      -9.253  15.713  65.737  1.00  0.00    -0.247 A  
HETATM    8  C   UNL     1      -9.811  14.606  65.092  1.00  0.00    -0.156 A  
HETATM    9  C   UNL     1     -11.301  16.950  65.383  1.00  0.00     0.489 A  
HETATM   10  C   UNL     1     -11.127  14.654  64.612  1.00  0.00    -0.345 A  
HETATM   11  C   UNL     1     -11.859  15.844  64.743  1.00  0.00     0.066 A  
BRANCH  10  12
HETATM   12  C   UNL     1     -11.789  13.406  64.085  1.00  0.00    -0.442 C  
BRANCH  12  13
HETATM   13  N   UNL     1     -11.354  12.198  64.788  1.00  0.00    -0.319 NA 
HETATM   14  H   UNL     1     -10.350  12.050  64.688  1.00  0.00     0.000 HD 
BRANCH  13  15
HETATM   15  C   UNL     1     -11.757  12.222  66.204  1.00  0.00    -0.376 C  
BRANCH  15  16
HETATM   16  C   UNL     1     -10.813  11.432  67.125  1.00  0.00    -0.316 C  
BRANCH  16  17
HETATM   17  C   UNL     1      -9.408  11.950  67.097  1.00  0.00    -0.180 A  
HETATM   18  C   UNL     1      -8.334  11.441  66.384  1.00  0.00    -0.140 A  
HETATM   19  N   UNL     1      -7.231  12.195  66.702  1.00  0.00    -0.374 NA 
HETATM   20  C   UNL     1      -8.223  10.303  65.435  1.00  0.00    -0.156 C  
HETATM   21  H   UNL     1      -6.294  12.040  66.329  1.00  0.00     0.000 HD 
HETATM   22  C   UNL     1      -7.561  13.188  67.591  1.00  0.00    -0.171 A  
HETATM   23  C   UNL     1      -6.757  14.168  68.185  1.00  0.00    -0.125 A  
HETATM   24  C   UNL     1      -7.372  15.068  69.061  1.00  0.00    -0.151 A  
HETATM   25  C   UNL     1      -8.737  14.988  69.328  1.00  0.00    -0.161 A  
HETATM   26  C   UNL     1      -9.522  13.996  68.732  1.00  0.00    -0.076 A  
HETATM   27  C   UNL     1      -8.924  13.074  67.846  1.00  0.00    -0.200 A  
ENDBRANCH  16  17
ENDBRANCH  15  16
ENDBRANCH  13  15
ENDBRANCH  12  13
ENDBRANCH  10  12
ENDBRANCH   2   6
BRANCH   3  28
HETATM   28  N   UNL     1      -8.162  20.337  67.798  1.00  0.00    -0.269 NA 
HETATM   29  H   UNL     1      -9.140  20.596  67.937  1.00  0.00     0.000 HD 
HETATM   30  O   UNL     1      -7.139  21.247  67.493  1.00  0.00    -0.482 OA 
HETATM   31  H   UNL     1      -7.473  22.134  67.433  1.00  0.00     0.000 HD 
ENDBRANCH   3  28
TORSDOF 7
ENDMDL
MODEL      274
REMARK 921   NORMALIZED FREE ENERGY PREDICTED BY IDOCK:   -3.22 KCAL/MOL
REMARK 922        TOTAL FREE ENERGY PREDICTED BY IDOCK:   -7.17 KCAL/MOL
REMARK 923 INTER-LIGAND FREE ENERGY PREDICTED BY IDOCK:   -6.60 KCAL/MOL
REMARK 924 INTRA-LIGAND FREE ENERGY PREDICTED BY IDOCK:   -0.58 KCAL/MOL
REMARK 927      BINDING AFFINITY PREDICTED BY RF-SCORE:    0.00 PKD
ROOT
HETATM    1  C   UNL     1     -12.046  14.682  70.929  1.00  0.00    -0.393 C  
HETATM    2  C   UNL     1     -12.547  13.438  70.895  1.00  0.00    -0.406 C  
HETATM    3  C   UNL     1     -12.636  15.663  71.845  1.00  0.00    -0.438 C  
HETATM    4  H   UNL     1     -12.129  17.230  72.839  1.00  0.00     0.000 HD 
HETATM    5  O   UNL     1     -11.746  16.595  72.245  1.00  0.00    -0.460 OA 
ENDROOT
BRANCH   2   6
HETATM    6  C   UNL     1     -11.973  12.429  70.013  1.00  0.00    -0.372 A  
HETATM    7  C   UNL     1     -11.438  12.794  68.775  1.00  0.00    -0.347 A  
HETATM    8  C   UNL     1     -10.791  11.841  67.984  1.00  0.00    -0.256 A  
HETATM    9  C   UNL     1     -11.902  11.100  70.437  1.00  0.00    -0.462 A  
HETATM   10  C   UNL     1     -10.671  10.517  68.426  1.00  0.00    -0.262 A  
HETATM   11  C   UNL     1     -11.252  10.150  69.649  1.00  0.00    -0.310 A  
BRANCH  10  12
HETATM   12  C   UNL     1      -9.816   9.536  67.664  1.00  0.00    -0.165 C  
BRANCH  12  13
HETATM   13  N   UNL     1     -10.403   9.159  66.377  1.00  0.00    -0.223 NA 
HETATM   14  H   UNL     1     -11.421   9.207  66.403  1.00  0.00     0.000 HD 
BRANCH  13  15
HETATM   15  C   UNL     1      -9.854   9.968  65.275  1.00  0.00    -0.318 C  
BRANCH  15  16
HETATM   16  C   UNL     1      -8.903   9.188  64.354  1.00  0.00    -0.156 C  
BRANCH  16  17
HETATM   17  C   UNL     1      -7.809   8.494  65.105  1.00  0.00    -0.116 A  
HETATM   18  C   UNL     1      -6.661   9.058  65.638  1.00  0.00    -0.068 A  
HETATM   19  N   UNL     1      -5.917   8.041  66.188  1.00  0.00    -0.041 NA 
HETATM   20  C   UNL     1      -6.170  10.460  65.678  1.00  0.00    -0.126 C  
HETATM   21  H   UNL     1      -5.014   8.165  66.644  1.00  0.00     0.000 HD 
HETATM   22  C   UNL     1      -6.556   6.836  66.038  1.00  0.00    -0.051 A  
HETATM   23  C   UNL     1      -6.162   5.552  66.433  1.00  0.00    -0.034 A  
HETATM   24  C   UNL     1      -7.029   4.492  66.153  1.00  0.00    -0.063 A  
HETATM   25  C   UNL     1      -8.242   4.711  65.505  1.00  0.00    -0.115 A  
HETATM   26  C   UNL     1      -8.615   5.999  65.109  1.00  0.00    -0.073 A  
HETATM   27  C   UNL     1      -7.756   7.086  65.378  1.00  0.00    -0.111 A  
ENDBRANCH  16  17
ENDBRANCH  15  16
ENDBRANCH  13  15
ENDBRANCH  12  13
ENDBRANCH  10  12
ENDBRANCH   2   6
BRANCH   3  28
HETATM   28  N   UNL     1     -13.870  15.656  72.237  1.00  0.00    -0.506 NA 
HETATM   29  H   UNL     1     -14.632  15.202  71.731  1.00  0.00     0.000 HD 
HETATM   30  O   UNL     1     -14.026  16.353  73.444  1.00  0.00    -0.727 OA 
HETATM   31  H   UNL     1     -14.931  16.348  73.731  1.00  0.00     0.000 HD 
ENDBRANCH   3  28
TORSDOF 7
ENDMDL
MODEL      275
REMARK 921   NORMALIZED FREE ENERGY PREDICTED BY IDOCK:   -3.22 KCAL/MOL
REMARK 922        TOTAL FREE ENERGY PREDICTED BY IDOCK:   -7.16 KCAL/MOL
REMARK 923 INTER-LIGAND FREE ENERGY PREDICTED BY IDOCK:   -6.08 KCAL/MOL
REMARK 924 INTRA-LIGAND FREE ENERGY PREDICTED BY IDOCK:   -1.08 KCAL/MOL
REMARK 927      BINDING AFFINITY PREDICTED BY RF-SCORE:    0.00 PKD
ROOT
HETATM    1  C   UNL     1     -11.524  12.649  65.947  1.00  0.00    -0.407 C  
HETATM    2  C   UNL     1     -11.003  11.434  65.721  1.00  0.00    -0.256 C  
HETATM    3  C   UNL     1     -12.592  13.140  65.069  1.00  0.00    -0.438 C  
HETATM    4  H   UNL     1     -14.112  14.318  65.129  1.00  0.00     0.000 HD 
HETATM    5  O   UNL     1     -13.420  14.000  65.698  1.00  0.00    -0.604 OA 
ENDROOT
BRANCH   2   6
HETATM    6  C   UNL     1      -9.955  10.903  66.584  1.00  0.00    -0.250 A  
HETATM    7  C   UNL     1      -9.470  11.659  67.655  1.00  0.00    -0.177 A  
HETATM    8  C   UNL     1      -8.547  11.101  68.543  1.00  0.00    -0.157 A  
HETATM    9  C   UNL     1      -9.479   9.606  66.376  1.00  0.00    -0.244 A  
HETATM   10  C   UNL     1      -8.103   9.784  68.369  1.00  0.00    -0.104 A  
HETATM   11  C   UNL     1      -8.560   9.049  67.265  1.00  0.00    -0.115 A  
BRANCH  10  12
HETATM   12  C   UNL     1      -7.254   9.122  69.426  1.00  0.00    -0.067 C  
BRANCH  12  13
HETATM   13  N   UNL     1      -7.723   7.778  69.765  1.00  0.00    -0.095 NA 
HETATM   14  H   UNL     1      -6.947   7.120  69.838  1.00  0.00     0.000 HD 
BRANCH  13  15
HETATM   15  C   UNL     1      -8.541   7.784  70.990  1.00  0.00    -0.127 C  
BRANCH  15  16
HETATM   16  C   UNL     1      -9.962   7.238  70.783  1.00  0.00    -0.187 C  
BRANCH  16  17
HETATM   17  C   UNL     1      -9.996   6.030  69.899  1.00  0.00    -0.225 A  
HETATM   18  C   UNL     1     -10.552   5.924  68.634  1.00  0.00    -0.256 A  
HETATM   19  N   UNL     1     -10.402   4.621  68.224  1.00  0.00     0.079 NA 
HETATM   20  C   UNL     1     -11.229   6.918  67.761  1.00  0.00    -0.124 C  
HETATM   21  H   UNL     1     -10.729   4.253  67.330  1.00  0.00     0.000 HD 
HETATM   22  C   UNL     1      -9.753   3.882  69.181  1.00  0.00    -0.073 A  
HETATM   23  C   UNL     1      -9.403   2.526  69.188  1.00  0.00    -0.194 A  
HETATM   24  C   UNL     1      -8.729   2.036  70.311  1.00  0.00    -0.117 A  
HETATM   25  C   UNL     1      -8.418   2.872  71.381  1.00  0.00    -0.092 A  
HETATM   26  C   UNL     1      -8.784   4.222  71.360  1.00  0.00    -0.139 A  
HETATM   27  C   UNL     1      -9.467   4.740  70.239  1.00  0.00    -0.243 A  
ENDBRANCH  16  17
ENDBRANCH  15  16
ENDBRANCH  13  15
ENDBRANCH  12  13
ENDBRANCH  10  12
ENDBRANCH   2   6
BRANCH   3  28
HETATM   28  N   UNL     1     -12.741  12.802  63.829  1.00  0.00    -0.725 NA 
HETATM   29  H   UNL     1     -13.366  12.064  63.504  1.00  0.00     0.000 HD 
HETATM   30  O   UNL     1     -11.931  13.581  62.989  1.00  0.00    -0.747 OA 
HETATM   31  H   UNL     1     -12.040  13.332  62.078  1.00  0.00     0.000 HD 
ENDBRANCH   3  28
TORSDOF 7
ENDMDL
MODEL      276
REMARK 921   NORMALIZED FREE ENERGY PREDICTED BY IDOCK:   -3.21 KCAL/MOL
REMARK 922        TOTAL FREE ENERGY PREDICTED BY IDOCK:   -7.15 KCAL/MOL
REMARK 923 INTER-LIGAND FREE ENERGY PREDICTED BY IDOCK:   -5.68 KCAL/MOL
REMARK 924 INTRA-LIGAND FREE ENERGY PREDICTED BY IDOCK:   -1.47 KCAL/MOL
REMARK 927      BINDING AFFINITY PREDICTED BY RF-SCORE:    0.00 PKD
ROOT
HETATM    1  C   UNL     1      -6.060  10.714  70.129  1.00  0.00    -0.110 C  
HETATM    2  C   UNL     1      -5.902   9.676  69.294  1.00  0.00    -0.034 C  
HETATM    3  C   UNL     1      -5.555  10.606  71.502  1.00  0.00     0.156 C  
HETATM    4  H   UNL     1      -4.882  11.733  72.908  1.00  0.00     0.000 HD 
HETATM    5  O   UNL     1      -5.208  11.803  72.018  1.00  0.00    -0.350 OA 
ENDROOT
BRANCH   2   6
HETATM    6  C   UNL     1      -6.371   9.753  67.916  1.00  0.00    -0.056 A  
HETATM    7  C   UNL     1      -5.750  10.611  67.005  1.00  0.00    -0.049 A  
HETATM    8  C   UNL     1      -6.132  10.599  65.661  1.00  0.00    -0.124 A  
HETATM    9  C   UNL     1      -7.406   8.917  67.491  1.00  0.00    -0.081 A  
HETATM   10  C   UNL     1      -7.134   9.726  65.217  1.00  0.00    -0.119 A  
HETATM   11  C   UNL     1      -7.784   8.902  66.148  1.00  0.00    -0.098 A  
BRANCH  10  12
HETATM   12  C   UNL     1      -7.416   9.580  63.743  1.00  0.00    -0.116 C  
BRANCH  12  13
HETATM   13  N   UNL     1      -7.665  10.864  63.087  1.00  0.00    -0.359 NA 
HETATM   14  H   UNL     1      -7.195  10.919  62.184  1.00  0.00     0.000 HD 
BRANCH  13  15
HETATM   15  C   UNL     1      -9.107  11.136  62.960  1.00  0.00    -0.271 C  
BRANCH  15  16
HETATM   16  C   UNL     1      -9.940  10.593  64.131  1.00  0.00    -0.406 C  
BRANCH  16  17
HETATM   17  C   UNL     1     -10.726  11.661  64.828  1.00  0.00    -0.365 A  
HETATM   18  C   UNL     1     -11.915  12.241  64.414  1.00  0.00    -0.394 A  
HETATM   19  N   UNL     1     -12.243  13.211  65.330  1.00  0.00    -0.435 NA 
HETATM   20  C   UNL     1     -12.782  11.993  63.234  1.00  0.00    -0.437 C  
HETATM   21  H   UNL     1     -13.069  13.808  65.273  1.00  0.00     0.000 HD 
HETATM   22  C   UNL     1     -11.308  13.268  66.333  1.00  0.00    -0.312 A  
HETATM   23  C   UNL     1     -11.239  14.105  67.454  1.00  0.00    -0.334 A  
HETATM   24  C   UNL     1     -10.160  13.933  68.327  1.00  0.00    -0.241 A  
HETATM   25  C   UNL     1      -9.192  12.961  68.086  1.00  0.00    -0.212 A  
HETATM   26  C   UNL     1      -9.272  12.141  66.956  1.00  0.00    -0.202 A  
HETATM   27  C   UNL     1     -10.351  12.296  66.059  1.00  0.00    -0.273 A  
ENDBRANCH  16  17
ENDBRANCH  15  16
ENDBRANCH  13  15
ENDBRANCH  12  13
ENDBRANCH  10  12
ENDBRANCH   2   6
BRANCH   3  28
HETATM   28  N   UNL     1      -5.451   9.499  72.164  1.00  0.00    -0.155 NA 
HETATM   29  H   UNL     1      -4.566   9.043  72.389  1.00  0.00     0.000 HD 
HETATM   30  O   UNL     1      -6.711   9.005  72.533  1.00  0.00    -0.307 OA 
HETATM   31  H   UNL     1      -6.634   8.192  73.019  1.00  0.00     0.000 HD 
ENDBRANCH   3  28
TORSDOF 7
ENDMDL
MODEL      277
REMARK 921   NORMALIZED FREE ENERGY PREDICTED BY IDOCK:   -3.19 KCAL/MOL
REMARK 922        TOTAL FREE ENERGY PREDICTED BY IDOCK:   -7.13 KCAL/MOL
REMARK 923 INTER-LIGAND FREE ENERGY PREDICTED BY IDOCK:   -6.10 KCAL/MOL
REMARK 924 INTRA-LIGAND FREE ENERGY PREDICTED BY IDOCK:   -1.03 KCAL/MOL
REMARK 927      BINDING AFFINITY PREDICTED BY RF-SCORE:    0.00 PKD
ROOT
HETATM    1  C   UNL     1      -8.777   9.043  67.324  1.00  0.00    -0.122 C  
HETATM    2  C   UNL     1      -9.911   9.018  66.607  1.00  0.00    -0.349 C  
HETATM    3  C   UNL     1      -8.358   7.831  68.035  1.00  0.00    -0.124 C  
HETATM    4  H   UNL     1      -6.746   6.970  68.638  1.00  0.00     0.000 HD 
HETATM    5  O   UNL     1      -7.018   7.755  68.177  1.00  0.00    -0.074 OA 
ENDROOT
BRANCH   2   6
HETATM    6  C   UNL     1     -10.350  10.197  65.870  1.00  0.00    -0.221 A  
HETATM    7  C   UNL     1     -11.092  11.194  66.507  1.00  0.00    -0.233 A  
HETATM    8  C   UNL     1     -11.414  12.370  65.825  1.00  0.00    -0.416 A  
HETATM    9  C   UNL     1      -9.971  10.357  64.535  1.00  0.00    -0.401 A  
HETATM   10  C   UNL     1     -10.993  12.559  64.502  1.00  0.00    -0.359 A  
HETATM   11  C   UNL     1     -10.289  11.533  63.856  1.00  0.00    -0.422 A  
BRANCH  10  12
HETATM   12  C   UNL     1     -11.178  13.897  63.831  1.00  0.00     0.149 C  
BRANCH  12  13
HETATM   13  N   UNL     1     -11.573  14.949  64.769  1.00  0.00    -0.434 NA 
HETATM   14  H   UNL     1     -12.064  14.563  65.576  1.00  0.00     0.000 HD 
BRANCH  13  15
HETATM   15  C   UNL     1     -10.420  15.767  65.181  1.00  0.00    -0.366 C  
BRANCH  15  16
HETATM   16  C   UNL     1     -10.664  16.571  66.467  1.00  0.00    -0.144 C  
BRANCH  16  17
HETATM   17  C   UNL     1     -10.021  15.951  67.669  1.00  0.00    -0.237 A  
HETATM   18  C   UNL     1     -10.648  15.425  68.787  1.00  0.00    -0.235 A  
HETATM   19  N   UNL     1      -9.668  15.019  69.659  1.00  0.00    -0.437 NA 
HETATM   20  C   UNL     1     -12.084  15.270  69.138  1.00  0.00    -0.266 C  
HETATM   21  H   UNL     1      -9.841  14.600  70.573  1.00  0.00     0.000 HD 
HETATM   22  C   UNL     1      -8.422  15.255  69.135  1.00  0.00    -0.234 A  
HETATM   23  C   UNL     1      -7.155  15.011  69.677  1.00  0.00    -0.193 A  
HETATM   24  C   UNL     1      -6.041  15.351  68.904  1.00  0.00    -0.098 A  
HETATM   25  C   UNL     1      -6.192  15.910  67.637  1.00  0.00    -0.182 A  
HETATM   26  C   UNL     1      -7.466  16.155  67.115  1.00  0.00    -0.248 A  
HETATM   27  C   UNL     1      -8.607  15.823  67.878  1.00  0.00    -0.160 A  
ENDBRANCH  16  17
ENDBRANCH  15  16
ENDBRANCH  13  15
ENDBRANCH  12  13
ENDBRANCH  10  12
ENDBRANCH   2   6
BRANCH   3  28
HETATM   28  N   UNL     1      -9.164   6.925  68.487  1.00  0.00    -0.130 NA 
HETATM   29  H   UNL     1      -9.397   6.063  67.993  1.00  0.00     0.000 HD 
HETATM   30  O   UNL     1      -9.677   7.281  69.743  1.00  0.00    -0.166 OA 
HETATM   31  H   UNL     1     -10.269   6.615  70.075  1.00  0.00     0.000 HD 
ENDBRANCH   3  28
TORSDOF 7
ENDMDL
MODEL      278
REMARK 921   NORMALIZED FREE ENERGY PREDICTED BY IDOCK:   -3.17 KCAL/MOL
REMARK 922        TOTAL FREE ENERGY PREDICTED BY IDOCK:   -7.09 KCAL/MOL
REMARK 923 INTER-LIGAND FREE ENERGY PREDICTED BY IDOCK:   -6.78 KCAL/MOL
REMARK 924 INTRA-LIGAND FREE ENERGY PREDICTED BY IDOCK:   -0.31 KCAL/MOL
REMARK 927      BINDING AFFINITY PREDICTED BY RF-SCORE:    0.00 PKD
ROOT
HETATM    1  C   UNL     1      -9.651  16.060  67.373  1.00  0.00    -0.225 C  
HETATM    2  C   UNL     1     -10.778  15.360  67.574  1.00  0.00    -0.295 C  
HETATM    3  C   UNL     1      -9.737  17.380  66.738  1.00  0.00    -0.290 C  
HETATM    4  H   UNL     1      -8.798  19.059  66.717  1.00  0.00     0.000 HD 
HETATM    5  O   UNL     1      -8.743  18.204  67.128  1.00  0.00    -0.240 OA 
ENDROOT
BRANCH   2   6
HETATM    6  C   UNL     1     -10.735  14.054  68.221  1.00  0.00    -0.262 A  
HETATM    7  C   UNL     1     -11.684  13.713  69.189  1.00  0.00    -0.376 A  
HETATM    8  C   UNL     1     -11.704  12.423  69.724  1.00  0.00    -0.361 A  
HETATM    9  C   UNL     1      -9.779  13.117  67.824  1.00  0.00    -0.218 A  
HETATM   10  C   UNL     1     -10.780  11.463  69.292  1.00  0.00    -0.195 A  
HETATM   11  C   UNL     1      -9.802  11.828  68.355  1.00  0.00    -0.199 A  
BRANCH  10  12
HETATM   12  C   UNL     1     -10.918  10.025  69.729  1.00  0.00    -0.276 C  
BRANCH  12  13
HETATM   13  N   UNL     1     -12.021   9.826  70.670  1.00  0.00    -0.358 NA 
HETATM   14  H   UNL     1     -12.803   9.340  70.231  1.00  0.00     0.000 HD 
BRANCH  13  15
HETATM   15  C   UNL     1     -11.573   9.132  71.889  1.00  0.00    -0.360 C  
BRANCH  15  16
HETATM   16  C   UNL     1     -10.051   8.928  71.957  1.00  0.00    -0.351 C  
BRANCH  16  17
HETATM   17  C   UNL     1      -9.658   7.796  72.854  1.00  0.00    -0.302 A  
HETATM   18  C   UNL     1      -8.556   7.725  73.692  1.00  0.00    -0.241 A  
HETATM   19  N   UNL     1      -8.562   6.483  74.279  1.00  0.00    -0.133 NA 
HETATM   20  C   UNL     1      -7.477   8.700  73.996  1.00  0.00    -0.045 C  
HETATM   21  H   UNL     1      -7.859   6.150  74.939  1.00  0.00     0.000 HD 
HETATM   22  C   UNL     1      -9.643   5.751  73.858  1.00  0.00    -0.148 A  
HETATM   23  C   UNL     1     -10.033   4.447  74.188  1.00  0.00    -0.200 A  
HETATM   24  C   UNL     1     -11.202   3.951  73.604  1.00  0.00    -0.294 A  
HETATM   25  C   UNL     1     -11.951   4.732  72.726  1.00  0.00     0.143 A  
HETATM   26  C   UNL     1     -11.541   6.029  72.400  1.00  0.00    -0.349 A  
HETATM   27  C   UNL     1     -10.363   6.551  72.975  1.00  0.00    -0.239 A  
ENDBRANCH  16  17
ENDBRANCH  15  16
ENDBRANCH  13  15
ENDBRANCH  12  13
ENDBRANCH  10  12
ENDBRANCH   2   6
BRANCH   3  28
HETATM   28  N   UNL     1     -10.652  17.733  65.894  1.00  0.00    -0.449 NA 
HETATM   29  H   UNL     1     -11.349  17.100  65.502  1.00  0.00     0.000 HD 
HETATM   30  O   UNL     1     -10.562  19.099  65.587  1.00  0.00    -0.523 OA 
HETATM   31  H   UNL     1     -11.234  19.358  64.967  1.00  0.00     0.000 HD 
ENDBRANCH   3  28
TORSDOF 7
ENDMDL
MODEL      279
REMARK 921   NORMALIZED FREE ENERGY PREDICTED BY IDOCK:   -3.16 KCAL/MOL
REMARK 922        TOTAL FREE ENERGY PREDICTED BY IDOCK:   -7.09 KCAL/MOL
REMARK 923 INTER-LIGAND FREE ENERGY PREDICTED BY IDOCK:   -6.37 KCAL/MOL
REMARK 924 INTRA-LIGAND FREE ENERGY PREDICTED BY IDOCK:   -0.72 KCAL/MOL
REMARK 927      BINDING AFFINITY PREDICTED BY RF-SCORE:    0.00 PKD
ROOT
HETATM    1  C   UNL     1      -9.148   3.761  65.735  1.00  0.00    -0.149 C  
HETATM    2  C   UNL     1      -8.741   4.964  65.300  1.00  0.00    -0.146 C  
HETATM    3  C   UNL     1      -8.649   2.556  65.064  1.00  0.00    -0.102 C  
HETATM    4  H   UNL     1      -8.275   0.710  65.456  1.00  0.00     0.000 HD 
HETATM    5  O   UNL     1      -8.597   1.491  65.891  1.00  0.00    -0.096 OA 
ENDROOT
BRANCH   2   6
HETATM    6  C   UNL     1      -9.198   6.184  65.955  1.00  0.00    -0.068 A  
HETATM    7  C   UNL     1     -10.323   6.163  66.783  1.00  0.00    -0.292 A  
HETATM    8  C   UNL     1     -10.689   7.309  67.494  1.00  0.00    -0.326 A  
HETATM    9  C   UNL     1      -8.468   7.365  65.801  1.00  0.00    -0.149 A  
HETATM   10  C   UNL     1      -9.931   8.483  67.384  1.00  0.00    -0.275 A  
HETATM   11  C   UNL     1      -8.832   8.508  66.513  1.00  0.00    -0.165 A  
BRANCH  10  12
HETATM   12  C   UNL     1     -10.214   9.657  68.287  1.00  0.00    -0.186 C  
BRANCH  12  13
HETATM   13  N   UNL     1     -10.967   9.278  69.484  1.00  0.00    -0.377 NA 
HETATM   14  H   UNL     1     -10.511   8.517  69.986  1.00  0.00     0.000 HD 
BRANCH  13  15
HETATM   15  C   UNL     1     -11.205  10.436  70.362  1.00  0.00    -0.321 C  
BRANCH  15  16
HETATM   16  C   UNL     1     -12.440  11.261  69.971  1.00  0.00    -0.251 C  
BRANCH  16  17
HETATM   17  C   UNL     1     -12.242  12.732  70.169  1.00  0.00    -0.320 A  
HETATM   18  C   UNL     1     -12.763  13.527  71.178  1.00  0.00    -0.344 A  
HETATM   19  N   UNL     1     -12.367  14.820  70.932  1.00  0.00    -0.295 NA 
HETATM   20  C   UNL     1     -13.612  13.207  72.354  1.00  0.00    -0.667 C  
HETATM   21  H   UNL     1     -12.615  15.622  71.511  1.00  0.00     0.000 HD 
HETATM   22  C   UNL     1     -11.593  14.885  69.801  1.00  0.00    -0.303 A  
HETATM   23  C   UNL     1     -10.993  15.988  69.182  1.00  0.00    -0.297 A  
HETATM   24  C   UNL     1     -10.242  15.755  68.026  1.00  0.00    -0.229 A  
HETATM   25  C   UNL     1     -10.099  14.468  67.512  1.00  0.00    -0.228 A  
HETATM   26  C   UNL     1     -10.714  13.379  68.138  1.00  0.00    -0.267 A  
HETATM   27  C   UNL     1     -11.479  13.589  69.306  1.00  0.00    -0.345 A  
ENDBRANCH  16  17
ENDBRANCH  15  16
ENDBRANCH  13  15
ENDBRANCH  12  13
ENDBRANCH  10  12
ENDBRANCH   2   6
BRANCH   3  28
HETATM   28  N   UNL     1      -8.298   2.497  63.820  1.00  0.00    -0.082 NA 
HETATM   29  H   UNL     1      -7.338   2.592  63.488  1.00  0.00     0.000 HD 
HETATM   30  O   UNL     1      -9.407   2.285  62.987  1.00  0.00    -0.091 OA 
HETATM   31  H   UNL     1      -9.148   2.242  62.074  1.00  0.00     0.000 HD 
ENDBRANCH   3  28
TORSDOF 7
ENDMDL
MODEL      280
REMARK 921   NORMALIZED FREE ENERGY PREDICTED BY IDOCK:   -3.16 KCAL/MOL
REMARK 922        TOTAL FREE ENERGY PREDICTED BY IDOCK:   -7.08 KCAL/MOL
REMARK 923 INTER-LIGAND FREE ENERGY PREDICTED BY IDOCK:   -5.84 KCAL/MOL
REMARK 924 INTRA-LIGAND FREE ENERGY PREDICTED BY IDOCK:   -1.24 KCAL/MOL
REMARK 927      BINDING AFFINITY PREDICTED BY RF-SCORE:    0.00 PKD
ROOT
HETATM    1  C   UNL     1      -8.825   9.735  64.703  1.00  0.00    -0.244 C  
HETATM    2  C   UNL     1      -8.447   9.570  65.980  1.00  0.00    -0.132 C  
HETATM    3  C   UNL     1      -7.834   9.545  63.638  1.00  0.00    -0.132 C  
HETATM    4  H   UNL     1      -7.751   9.010  61.792  1.00  0.00     0.000 HD 
HETATM    5  O   UNL     1      -8.393   9.132  62.482  1.00  0.00    -0.163 OA 
ENDROOT
BRANCH   2   6
HETATM    6  C   UNL     1      -9.408   9.729  67.065  1.00  0.00    -0.178 A  
HETATM    7  C   UNL     1      -9.070   9.359  68.369  1.00  0.00    -0.128 A  
HETATM    8  C   UNL     1      -9.954   9.617  69.420  1.00  0.00    -0.207 A  
HETATM    9  C   UNL     1     -10.651  10.313  66.807  1.00  0.00    -0.252 A  
HETATM   10  C   UNL     1     -11.180  10.249  69.176  1.00  0.00    -0.268 A  
HETATM   11  C   UNL     1     -11.531  10.574  67.857  1.00  0.00    -0.190 A  
BRANCH  10  12
HETATM   12  C   UNL     1     -12.048  10.693  70.327  1.00  0.00    -0.338 C  
BRANCH  12  13
HETATM   13  N   UNL     1     -12.765  11.937  70.044  1.00  0.00     0.133 NA 
HETATM   14  H   UNL     1     -13.546  12.072  70.687  1.00  0.00     0.000 HD 
BRANCH  13  15
HETATM   15  C   UNL     1     -11.858  13.097  70.047  1.00  0.00    -0.290 C  
BRANCH  15  16
HETATM   16  C   UNL     1     -12.521  14.398  69.569  1.00  0.00    -0.164 C  
BRANCH  16  17
HETATM   17  C   UNL     1     -11.718  15.108  68.524  1.00  0.00    -0.347 A  
HETATM   18  C   UNL     1     -10.858  16.180  68.703  1.00  0.00    -0.311 A  
HETATM   19  N   UNL     1     -10.384  16.541  67.465  1.00  0.00    -0.288 NA 
HETATM   20  C   UNL     1     -10.435  16.921  69.919  1.00  0.00     0.018 C  
HETATM   21  H   UNL     1      -9.736  17.310  67.293  1.00  0.00     0.000 HD 
HETATM   22  C   UNL     1     -10.901  15.727  66.489  1.00  0.00    -0.230 A  
HETATM   23  C   UNL     1     -10.701  15.741  65.104  1.00  0.00    -0.455 A  
HETATM   24  C   UNL     1     -11.362  14.772  64.342  1.00  0.00    -0.224 A  
HETATM   25  C   UNL     1     -12.188  13.827  64.946  1.00  0.00    -0.443 A  
HETATM   26  C   UNL     1     -12.383  13.834  66.331  1.00  0.00    -0.460 A  
HETATM   27  C   UNL     1     -11.729  14.804  67.121  1.00  0.00    -0.351 A  
ENDBRANCH  16  17
ENDBRANCH  15  16
ENDBRANCH  13  15
ENDBRANCH  12  13
ENDBRANCH  10  12
ENDBRANCH   2   6
BRANCH   3  28
HETATM   28  N   UNL     1      -6.563   9.750  63.769  1.00  0.00    -0.114 NA 
HETATM   29  H   UNL     1      -5.870   9.009  63.888  1.00  0.00     0.000 HD 
HETATM   30  O   UNL     1      -6.259  11.118  63.728  1.00  0.00    -0.080 OA 
HETATM   31  H   UNL     1      -5.326  11.268  63.824  1.00  0.00     0.000 HD 
ENDBRANCH   3  28
TORSDOF 7
ENDMDL
MODEL      281
REMARK 921   NORMALIZED FREE ENERGY PREDICTED BY IDOCK:   -3.16 KCAL/MOL
REMARK 922        TOTAL FREE ENERGY PREDICTED BY IDOCK:   -7.08 KCAL/MOL
REMARK 923 INTER-LIGAND FREE ENERGY PREDICTED BY IDOCK:   -6.31 KCAL/MOL
REMARK 924 INTRA-LIGAND FREE ENERGY PREDICTED BY IDOCK:   -0.77 KCAL/MOL
REMARK 927      BINDING AFFINITY PREDICTED BY RF-SCORE:    0.00 PKD
ROOT
HETATM    1  C   UNL     1      -9.159   5.210  65.474  1.00  0.00    -0.157 C  
HETATM    2  C   UNL     1      -8.885   5.853  66.618  1.00  0.00    -0.123 C  
HETATM    3  C   UNL     1      -8.725   3.817  65.318  1.00  0.00    -0.116 C  
HETATM    4  H   UNL     1      -9.245   2.215  64.389  1.00  0.00     0.000 HD 
HETATM    5  O   UNL     1      -9.527   3.117  64.490  1.00  0.00    -0.138 OA 
ENDROOT
BRANCH   2   6
HETATM    6  C   UNL     1      -9.319   7.231  66.818  1.00  0.00    -0.203 A  
HETATM    7  C   UNL     1      -9.146   8.181  65.808  1.00  0.00    -0.139 A  
HETATM    8  C   UNL     1      -9.663   9.469  65.964  1.00  0.00    -0.341 A  
HETATM    9  C   UNL     1      -9.970   7.585  68.002  1.00  0.00    -0.204 A  
HETATM   10  C   UNL     1     -10.361   9.816  67.128  1.00  0.00    -0.311 A  
HETATM   11  C   UNL     1     -10.490   8.870  68.156  1.00  0.00    -0.254 A  
BRANCH  10  12
HETATM   12  C   UNL     1     -11.077  11.141  67.218  1.00  0.00    -0.302 C  
BRANCH  12  13
HETATM   13  N   UNL     1     -11.270  11.767  65.909  1.00  0.00    -0.316 NA 
HETATM   14  H   UNL     1     -12.251  11.987  65.742  1.00  0.00     0.000 HD 
BRANCH  13  15
HETATM   15  C   UNL     1     -10.416  12.956  65.748  1.00  0.00    -0.278 C  
BRANCH  15  16
HETATM   16  C   UNL     1      -9.725  13.398  67.047  1.00  0.00    -0.239 C  
BRANCH  16  17
HETATM   17  C   UNL     1     -10.232  14.713  67.554  1.00  0.00    -0.225 A  
HETATM   18  C   UNL     1     -11.300  14.933  68.410  1.00  0.00    -0.303 A  
HETATM   19  N   UNL     1     -11.438  16.292  68.558  1.00  0.00    -0.340 NA 
HETATM   20  C   UNL     1     -12.225  13.999  69.103  1.00  0.00    -0.299 C  
HETATM   21  H   UNL     1     -12.153  16.743  69.129  1.00  0.00     0.000 HD 
HETATM   22  C   UNL     1     -10.483  16.960  67.834  1.00  0.00    -0.344 A  
HETATM   23  C   UNL     1     -10.261  18.334  67.687  1.00  0.00    -0.397 A  
HETATM   24  C   UNL     1      -9.192  18.736  66.880  1.00  0.00    -0.316 A  
HETATM   25  C   UNL     1      -8.380  17.798  66.246  1.00  0.00    -0.240 A  
HETATM   26  C   UNL     1      -8.624  16.429  66.397  1.00  0.00    -0.358 A  
HETATM   27  C   UNL     1      -9.698  15.998  67.205  1.00  0.00    -0.232 A  
ENDBRANCH  16  17
ENDBRANCH  15  16
ENDBRANCH  13  15
ENDBRANCH  12  13
ENDBRANCH  10  12
ENDBRANCH   2   6
BRANCH   3  28
HETATM   28  N   UNL     1      -7.689   3.300  65.897  1.00  0.00    -0.081 NA 
HETATM   29  H   UNL     1      -7.303   3.625  66.784  1.00  0.00     0.000 HD 
HETATM   30  O   UNL     1      -7.167   2.234  65.149  1.00  0.00    -0.055 OA 
HETATM   31  H   UNL     1      -6.407   1.855  65.574  1.00  0.00     0.000 HD 
ENDBRANCH   3  28
TORSDOF 7
ENDMDL
MODEL      282
REMARK 921   NORMALIZED FREE ENERGY PREDICTED BY IDOCK:   -3.15 KCAL/MOL
REMARK 922        TOTAL FREE ENERGY PREDICTED BY IDOCK:   -7.08 KCAL/MOL
REMARK 923 INTER-LIGAND FREE ENERGY PREDICTED BY IDOCK:   -6.25 KCAL/MOL
REMARK 924 INTRA-LIGAND FREE ENERGY PREDICTED BY IDOCK:   -0.83 KCAL/MOL
REMARK 927      BINDING AFFINITY PREDICTED BY RF-SCORE:    0.00 PKD
ROOT
HETATM    1  C   UNL     1     -10.526  13.157  65.121  1.00  0.00    -0.339 C  
HETATM    2  C   UNL     1     -11.480  14.091  65.249  1.00  0.00    -0.322 C  
HETATM    3  C   UNL     1     -10.848  11.899  64.437  1.00  0.00    -0.332 C  
HETATM    4  H   UNL     1      -9.979  10.534  63.397  1.00  0.00     0.000 HD 
HETATM    5  O   UNL     1      -9.771  11.349  63.839  1.00  0.00    -0.251 OA 
ENDROOT
BRANCH   2   6
HETATM    6  C   UNL     1     -11.193  15.362  65.903  1.00  0.00    -0.179 A  
HETATM    7  C   UNL     1     -10.825  16.478  65.148  1.00  0.00    -0.247 A  
HETATM    8  C   UNL     1     -10.659  17.719  65.770  1.00  0.00    -0.175 A  
HETATM    9  C   UNL     1     -11.348  15.477  67.286  1.00  0.00    -0.167 A  
HETATM   10  C   UNL     1     -10.864  17.852  67.150  1.00  0.00    -0.149 A  
HETATM   11  C   UNL     1     -11.187  16.716  67.906  1.00  0.00    -0.114 A  
BRANCH  10  12
HETATM   12  C   UNL     1     -10.867  19.219  67.788  1.00  0.00    -0.308 C  
BRANCH  12  13
HETATM   13  N   UNL     1      -9.526  19.670  68.161  1.00  0.00    -0.347 NA 
HETATM   14  H   UNL     1      -9.563  20.480  68.780  1.00  0.00     0.000 HD 
BRANCH  13  15
HETATM   15  C   UNL     1      -8.734  18.578  68.752  1.00  0.00    -0.240 C  
BRANCH  15  16
HETATM   16  C   UNL     1      -7.228  18.876  68.816  1.00  0.00    -0.351 C  
BRANCH  16  17
HETATM   17  C   UNL     1      -6.473  18.298  67.659  1.00  0.00    -0.192 A  
HETATM   18  C   UNL     1      -5.713  17.139  67.640  1.00  0.00    -0.129 A  
HETATM   19  N   UNL     1      -5.159  17.028  66.388  1.00  0.00    -0.358 NA 
HETATM   20  C   UNL     1      -5.434  16.118  68.683  1.00  0.00    -0.105 C  
HETATM   21  H   UNL     1      -4.542  16.271  66.091  1.00  0.00     0.000 HD 
HETATM   22  C   UNL     1      -5.549  18.074  65.589  1.00  0.00    -0.181 A  
HETATM   23  C   UNL     1      -5.219  18.364  64.260  1.00  0.00    -0.025 A  
HETATM   24  C   UNL     1      -5.776  19.512  63.689  1.00  0.00    -0.324 A  
HETATM   25  C   UNL     1      -6.630  20.334  64.420  1.00  0.00    -0.165 A  
HETATM   26  C   UNL     1      -6.941  20.033  65.751  1.00  0.00    -0.315 A  
HETATM   27  C   UNL     1      -6.389  18.881  66.351  1.00  0.00    -0.214 A  
ENDBRANCH  16  17
ENDBRANCH  15  16
ENDBRANCH  13  15
ENDBRANCH  12  13
ENDBRANCH  10  12
ENDBRANCH   2   6
BRANCH   3  28
HETATM   28  N   UNL     1     -12.023  11.359  64.403  1.00  0.00     0.045 NA 
HETATM   29  H   UNL     1     -12.523  11.015  65.223  1.00  0.00     0.000 HD 
HETATM   30  O   UNL     1     -12.522  11.308  63.093  1.00  0.00    -0.763 OA 
HETATM   31  H   UNL     1     -13.385  10.912  63.068  1.00  0.00     0.000 HD 
ENDBRANCH   3  28
TORSDOF 7
ENDMDL
MODEL      283
REMARK 921   NORMALIZED FREE ENERGY PREDICTED BY IDOCK:   -3.15 KCAL/MOL
REMARK 922        TOTAL FREE ENERGY PREDICTED BY IDOCK:   -7.08 KCAL/MOL
REMARK 923 INTER-LIGAND FREE ENERGY PREDICTED BY IDOCK:   -4.37 KCAL/MOL
REMARK 924 INTRA-LIGAND FREE ENERGY PREDICTED BY IDOCK:   -2.71 KCAL/MOL
REMARK 927      BINDING AFFINITY PREDICTED BY RF-SCORE:    0.00 PKD
ROOT
HETATM    1  C   UNL     1      -8.931   7.365  67.068  1.00  0.00    -0.142 C  
HETATM    2  C   UNL     1      -8.190   7.879  68.061  1.00  0.00    -0.127 C  
HETATM    3  C   UNL     1      -9.488   6.016  67.219  1.00  0.00    -0.114 C  
HETATM    4  H   UNL     1     -10.997   4.979  66.629  1.00  0.00     0.000 HD 
HETATM    5  O   UNL     1     -10.637   5.853  66.531  1.00  0.00    -0.243 OA 
ENDROOT
BRANCH   2   6
HETATM    6  C   UNL     1      -7.638   9.224  67.957  1.00  0.00    -0.084 A  
HETATM    7  C   UNL     1      -7.785   9.959  66.778  1.00  0.00    -0.099 A  
HETATM    8  C   UNL     1      -7.351  11.286  66.722  1.00  0.00    -0.146 A  
HETATM    9  C   UNL     1      -7.013   9.802  69.064  1.00  0.00    -0.058 A  
HETATM   10  C   UNL     1      -6.770  11.888  67.846  1.00  0.00    -0.079 A  
HETATM   11  C   UNL     1      -6.584  11.128  69.010  1.00  0.00    -0.075 A  
BRANCH  10  12
HETATM   12  C   UNL     1      -6.473  13.367  67.846  1.00  0.00    -0.151 C  
BRANCH  12  13
HETATM   13  N   UNL     1      -7.295  14.107  66.888  1.00  0.00    -0.274 NA 
HETATM   14  H   UNL     1      -8.059  13.533  66.530  1.00  0.00     0.000 HD 
BRANCH  13  15
HETATM   15  C   UNL     1      -7.794  15.368  67.463  1.00  0.00    -0.170 C  
BRANCH  15  16
HETATM   16  C   UNL     1      -9.247  15.287  67.956  1.00  0.00    -0.188 C  
BRANCH  16  17
HETATM   17  C   UNL     1     -10.031  14.208  67.274  1.00  0.00    -0.249 A  
HETATM   18  C   UNL     1     -10.609  14.252  66.015  1.00  0.00    -0.300 A  
HETATM   19  N   UNL     1     -11.276  13.065  65.824  1.00  0.00    -0.285 NA 
HETATM   20  C   UNL     1     -10.618  15.301  64.963  1.00  0.00    -0.444 C  
HETATM   21  H   UNL     1     -11.803  12.824  64.985  1.00  0.00     0.000 HD 
HETATM   22  C   UNL     1     -11.135  12.248  66.917  1.00  0.00    -0.290 A  
HETATM   23  C   UNL     1     -11.649  10.968  67.157  1.00  0.00     0.053 A  
HETATM   24  C   UNL     1     -11.333  10.359  68.376  1.00  0.00    -0.292 A  
HETATM   25  C   UNL     1     -10.535  11.008  69.315  1.00  0.00    -0.210 A  
HETATM   26  C   UNL     1     -10.038  12.291  69.062  1.00  0.00     0.117 A  
HETATM   27  C   UNL     1     -10.344  12.927  67.840  1.00  0.00    -0.233 A  
ENDBRANCH  16  17
ENDBRANCH  15  16
ENDBRANCH  13  15
ENDBRANCH  12  13
ENDBRANCH  10  12
ENDBRANCH   2   6
BRANCH   3  28
HETATM   28  N   UNL     1      -8.952   5.073  67.925  1.00  0.00    -0.106 NA 
HETATM   29  H   UNL     1      -8.128   5.192  68.515  1.00  0.00     0.000 HD 
HETATM   30  O   UNL     1      -9.649   3.865  67.774  1.00  0.00    -0.182 OA 
HETATM   31  H   UNL     1      -9.255   3.173  68.292  1.00  0.00     0.000 HD 
ENDBRANCH   3  28
TORSDOF 7
ENDMDL
MODEL      284
REMARK 921   NORMALIZED FREE ENERGY PREDICTED BY IDOCK:   -3.15 KCAL/MOL
REMARK 922        TOTAL FREE ENERGY PREDICTED BY IDOCK:   -7.07 KCAL/MOL
REMARK 923 INTER-LIGAND FREE ENERGY PREDICTED BY IDOCK:   -5.13 KCAL/MOL
REMARK 924 INTRA-LIGAND FREE ENERGY PREDICTED BY IDOCK:   -1.94 KCAL/MOL
REMARK 927      BINDING AFFINITY PREDICTED BY RF-SCORE:    0.00 PKD
ROOT
HETATM    1  C   UNL     1      -8.075   8.312  70.949  1.00  0.00    -0.105 C  
HETATM    2  C   UNL     1      -7.579   9.447  70.433  1.00  0.00    -0.152 C  
HETATM    3  C   UNL     1      -8.308   8.231  72.395  1.00  0.00    -0.170 C  
HETATM    4  H   UNL     1      -9.463   7.332  73.644  1.00  0.00     0.000 HD 
HETATM    5  O   UNL     1      -9.312   7.385  72.707  1.00  0.00    -0.142 OA 
ENDROOT
BRANCH   2   6
HETATM    6  C   UNL     1      -7.353   9.573  68.998  1.00  0.00    -0.072 A  
HETATM    7  C   UNL     1      -7.104   8.441  68.219  1.00  0.00    -0.085 A  
HETATM    8  C   UNL     1      -6.999   8.556  66.830  1.00  0.00    -0.074 A  
HETATM    9  C   UNL     1      -7.449  10.828  68.391  1.00  0.00    -0.095 A  
HETATM   10  C   UNL     1      -7.145   9.805  66.210  1.00  0.00    -0.095 A  
HETATM   11  C   UNL     1      -7.348  10.943  67.005  1.00  0.00    -0.118 A  
BRANCH  10  12
HETATM   12  C   UNL     1      -7.217   9.902  64.707  1.00  0.00    -0.136 C  
BRANCH  12  13
HETATM   13  N   UNL     1      -8.138  10.946  64.254  1.00  0.00    -0.353 NA 
HETATM   14  H   UNL     1      -7.942  11.224  63.292  1.00  0.00     0.000 HD 
BRANCH  13  15
HETATM   15  C   UNL     1      -9.542  10.538  64.421  1.00  0.00    -0.300 C  
BRANCH  15  16
HETATM   16  C   UNL     1     -10.396  11.567  65.178  1.00  0.00    -0.329 C  
BRANCH  16  17
HETATM   17  C   UNL     1     -10.758  11.115  66.559  1.00  0.00    -0.314 A  
HETATM   18  C   UNL     1     -11.209  11.896  67.612  1.00  0.00    -0.276 A  
HETATM   19  N   UNL     1     -11.360  11.073  68.702  1.00  0.00    -0.256 NA 
HETATM   20  C   UNL     1     -11.503  13.348  67.716  1.00  0.00    -0.351 C  
HETATM   21  H   UNL     1     -11.673  11.381  69.623  1.00  0.00     0.000 HD 
HETATM   22  C   UNL     1     -11.034   9.779  68.383  1.00  0.00    -0.152 A  
HETATM   23  C   UNL     1     -11.033   8.627  69.180  1.00  0.00     0.041 A  
HETATM   24  C   UNL     1     -10.656   7.422  68.578  1.00  0.00    -0.188 A  
HETATM   25  C   UNL     1     -10.296   7.374  67.234  1.00  0.00    -0.356 A  
HETATM   26  C   UNL     1     -10.294   8.537  66.456  1.00  0.00    -0.215 A  
HETATM   27  C   UNL     1     -10.669   9.766  67.040  1.00  0.00    -0.236 A  
ENDBRANCH  16  17
ENDBRANCH  15  16
ENDBRANCH  13  15
ENDBRANCH  12  13
ENDBRANCH  10  12
ENDBRANCH   2   6
BRANCH   3  28
HETATM   28  N   UNL     1      -7.637   8.884  73.288  1.00  0.00    -0.300 NA 
HETATM   29  H   UNL     1      -6.747   9.353  73.111  1.00  0.00     0.000 HD 
HETATM   30  O   UNL     1      -8.288   8.867  74.530  1.00  0.00    -0.297 OA 
HETATM   31  H   UNL     1      -7.795   9.346  75.185  1.00  0.00     0.000 HD 
ENDBRANCH   3  28
TORSDOF 7
ENDMDL
MODEL      285
REMARK 921   NORMALIZED FREE ENERGY PREDICTED BY IDOCK:   -3.09 KCAL/MOL
REMARK 922        TOTAL FREE ENERGY PREDICTED BY IDOCK:   -6.99 KCAL/MOL
REMARK 923 INTER-LIGAND FREE ENERGY PREDICTED BY IDOCK:   -4.77 KCAL/MOL
REMARK 924 INTRA-LIGAND FREE ENERGY PREDICTED BY IDOCK:   -2.22 KCAL/MOL
REMARK 927      BINDING AFFINITY PREDICTED BY RF-SCORE:    0.00 PKD
ROOT
HETATM    1  C   UNL     1     -12.178   7.180  70.273  1.00  0.00     0.013 C  
HETATM    2  C   UNL     1     -10.981   6.597  70.110  1.00  0.00    -0.358 C  
HETATM    3  C   UNL     1     -12.856   7.063  71.569  1.00  0.00    -0.372 C  
HETATM    4  H   UNL     1     -14.100   8.039  72.664  1.00  0.00     0.000 HD 
HETATM    5  O   UNL     1     -13.661   8.115  71.825  1.00  0.00    -0.345 OA 
ENDROOT
BRANCH   2   6
HETATM    6  C   UNL     1     -10.266   6.708  68.844  1.00  0.00    -0.195 A  
HETATM    7  C   UNL     1      -8.993   6.152  68.700  1.00  0.00    -0.126 A  
HETATM    8  C   UNL     1      -8.361   6.166  67.453  1.00  0.00    -0.108 A  
HETATM    9  C   UNL     1     -10.887   7.319  67.752  1.00  0.00    -0.214 A  
HETATM   10  C   UNL     1      -9.000   6.733  66.342  1.00  0.00    -0.165 A  
HETATM   11  C   UNL     1     -10.258   7.330  66.507  1.00  0.00    -0.139 A  
BRANCH  10  12
HETATM   12  C   UNL     1      -8.402   6.583  64.965  1.00  0.00    -0.075 C  
BRANCH  12  13
HETATM   13  N   UNL     1      -7.873   7.843  64.441  1.00  0.00    -0.133 NA 
HETATM   14  H   UNL     1      -8.601   8.555  64.377  1.00  0.00     0.000 HD 
BRANCH  13  15
HETATM   15  C   UNL     1      -6.724   8.317  65.229  1.00  0.00    -0.052 C  
BRANCH  15  16
HETATM   16  C   UNL     1      -6.809   9.803  65.609  1.00  0.00    -0.096 C  
BRANCH  16  17
HETATM   17  C   UNL     1      -7.844  10.075  66.657  1.00  0.00    -0.111 A  
HETATM   18  C   UNL     1      -7.754   9.828  68.018  1.00  0.00    -0.083 A  
HETATM   19  N   UNL     1      -8.956  10.181  68.583  1.00  0.00    -0.130 NA 
HETATM   20  C   UNL     1      -6.657   9.278  68.856  1.00  0.00    -0.048 C  
HETATM   21  H   UNL     1      -9.177  10.097  69.575  1.00  0.00     0.000 HD 
HETATM   22  C   UNL     1      -9.818  10.662  67.630  1.00  0.00    -0.167 A  
HETATM   23  C   UNL     1     -11.135  11.121  67.756  1.00  0.00    -0.344 A  
HETATM   24  C   UNL     1     -11.780  11.567  66.599  1.00  0.00     0.048 A  
HETATM   25  C   UNL     1     -11.131  11.555  65.367  1.00  0.00    -0.250 A  
HETATM   26  C   UNL     1      -9.818  11.085  65.258  1.00  0.00    -0.309 A  
HETATM   27  C   UNL     1      -9.146  10.627  66.412  1.00  0.00    -0.183 A  
ENDBRANCH  16  17
ENDBRANCH  15  16
ENDBRANCH  13  15
ENDBRANCH  12  13
ENDBRANCH  10  12
ENDBRANCH   2   6
BRANCH   3  28
HETATM   28  N   UNL     1     -12.716   6.070  72.387  1.00  0.00    -0.400 NA 
HETATM   29  H   UNL     1     -13.339   5.263  72.425  1.00  0.00     0.000 HD 
HETATM   30  O   UNL     1     -11.597   6.246  73.215  1.00  0.00    -0.432 OA 
HETATM   31  H   UNL     1     -11.495   5.517  73.815  1.00  0.00     0.000 HD 
ENDBRANCH   3  28
TORSDOF 7
ENDMDL
MODEL      286
REMARK 921   NORMALIZED FREE ENERGY PREDICTED BY IDOCK:   -3.09 KCAL/MOL
REMARK 922        TOTAL FREE ENERGY PREDICTED BY IDOCK:   -6.98 KCAL/MOL
REMARK 923 INTER-LIGAND FREE ENERGY PREDICTED BY IDOCK:   -5.18 KCAL/MOL
REMARK 924 INTRA-LIGAND FREE ENERGY PREDICTED BY IDOCK:   -1.81 KCAL/MOL
REMARK 927      BINDING AFFINITY PREDICTED BY RF-SCORE:    0.00 PKD
ROOT
HETATM    1  C   UNL     1      -9.668  15.355  68.663  1.00  0.00    -0.210 C  
HETATM    2  C   UNL     1      -8.548  15.082  67.978  1.00  0.00    -0.158 C  
HETATM    3  C   UNL     1     -10.421  16.572  68.339  1.00  0.00    -0.307 C  
HETATM    4  H   UNL     1     -12.228  17.233  68.387  1.00  0.00     0.000 HD 
HETATM    5  O   UNL     1     -11.740  16.444  68.596  1.00  0.00    -0.255 OA 
ENDROOT
BRANCH   2   6
HETATM    6  C   UNL     1      -7.783  13.872  68.256  1.00  0.00    -0.136 A  
HETATM    7  C   UNL     1      -6.877  13.837  69.319  1.00  0.00    -0.078 A  
HETATM    8  C   UNL     1      -6.231  12.642  69.648  1.00  0.00    -0.122 A  
HETATM    9  C   UNL     1      -8.007  12.723  67.494  1.00  0.00    -0.177 A  
HETATM   10  C   UNL     1      -6.490  11.473  68.919  1.00  0.00    -0.065 A  
HETATM   11  C   UNL     1      -7.365  11.530  67.825  1.00  0.00    -0.096 A  
BRANCH  10  12
HETATM   12  C   UNL     1      -5.939  10.149  69.387  1.00  0.00    -0.037 C  
BRANCH  12  13
HETATM   13  N   UNL     1      -6.533   9.012  68.683  1.00  0.00    -0.053 NA 
HETATM   14  H   UNL     1      -5.824   8.461  68.199  1.00  0.00     0.000 HD 
BRANCH  13  15
HETATM   15  C   UNL     1      -7.337   8.176  69.590  1.00  0.00    -0.073 C  
BRANCH  15  16
HETATM   16  C   UNL     1      -8.572   7.553  68.919  1.00  0.00    -0.129 C  
BRANCH  16  17
HETATM   17  C   UNL     1      -9.457   8.574  68.274  1.00  0.00    -0.143 A  
HETATM   18  C   UNL     1      -9.588   8.846  66.921  1.00  0.00    -0.190 A  
HETATM   19  N   UNL     1     -10.466   9.895  66.793  1.00  0.00    -0.216 NA 
HETATM   20  C   UNL     1      -8.963   8.232  65.721  1.00  0.00    -0.185 C  
HETATM   21  H   UNL     1     -10.744  10.313  65.905  1.00  0.00     0.000 HD 
HETATM   22  C   UNL     1     -10.920  10.303  68.022  1.00  0.00    -0.289 A  
HETATM   23  C   UNL     1     -11.808  11.331  68.359  1.00  0.00    -0.331 A  
HETATM   24  C   UNL     1     -12.099  11.520  69.713  1.00  0.00    -0.374 A  
HETATM   25  C   UNL     1     -11.524  10.709  70.689  1.00  0.00    -0.374 A  
HETATM   26  C   UNL     1     -10.632   9.692  70.334  1.00  0.00    -0.354 A  
HETATM   27  C   UNL     1     -10.320   9.483  68.974  1.00  0.00    -0.219 A  
ENDBRANCH  16  17
ENDBRANCH  15  16
ENDBRANCH  13  15
ENDBRANCH  12  13
ENDBRANCH  10  12
ENDBRANCH   2   6
BRANCH   3  28
HETATM   28  N   UNL     1      -9.900  17.657  67.865  1.00  0.00    -0.288 NA 
HETATM   29  H   UNL     1      -9.832  17.876  66.870  1.00  0.00     0.000 HD 
HETATM   30  O   UNL     1      -9.440  18.493  68.892  1.00  0.00    -0.315 OA 
HETATM   31  H   UNL     1      -9.058  19.290  68.544  1.00  0.00     0.000 HD 
ENDBRANCH   3  28
TORSDOF 7
ENDMDL
MODEL      287
REMARK 921   NORMALIZED FREE ENERGY PREDICTED BY IDOCK:   -3.08 KCAL/MOL
REMARK 922        TOTAL FREE ENERGY PREDICTED BY IDOCK:   -6.97 KCAL/MOL
REMARK 923 INTER-LIGAND FREE ENERGY PREDICTED BY IDOCK:   -6.50 KCAL/MOL
REMARK 924 INTRA-LIGAND FREE ENERGY PREDICTED BY IDOCK:   -0.47 KCAL/MOL
REMARK 927      BINDING AFFINITY PREDICTED BY RF-SCORE:    0.00 PKD
ROOT
HETATM    1  C   UNL     1      -9.470  10.664  64.691  1.00  0.00    -0.308 C  
HETATM    2  C   UNL     1      -8.838  10.347  65.831  1.00  0.00    -0.179 C  
HETATM    3  C   UNL     1      -8.740  10.569  63.423  1.00  0.00    -0.190 C  
HETATM    4  H   UNL     1      -9.081  10.241  61.558  1.00  0.00     0.000 HD 
HETATM    5  O   UNL     1      -9.554  10.303  62.380  1.00  0.00    -0.278 OA 
ENDROOT
BRANCH   2   6
HETATM    6  C   UNL     1      -9.536  10.409  67.110  1.00  0.00    -0.183 A  
HETATM    7  C   UNL     1     -10.912  10.644  67.153  1.00  0.00    -0.312 A  
HETATM    8  C   UNL     1     -11.592  10.592  68.373  1.00  0.00    -0.269 A  
HETATM    9  C   UNL     1      -8.833  10.170  68.293  1.00  0.00    -0.124 A  
HETATM   10  C   UNL     1     -10.902  10.302  69.557  1.00  0.00    -0.292 A  
HETATM   11  C   UNL     1      -9.513  10.114  69.510  1.00  0.00    -0.235 A  
BRANCH  10  12
HETATM   12  C   UNL     1     -11.660  10.063  70.839  1.00  0.00    -0.378 C  
BRANCH  12  13
HETATM   13  N   UNL     1     -10.931   9.204  71.773  1.00  0.00    -0.370 NA 
HETATM   14  H   UNL     1     -11.522   8.911  72.550  1.00  0.00     0.000 HD 
BRANCH  13  15
HETATM   15  C   UNL     1     -10.330   8.048  71.088  1.00  0.00    -0.197 C  
BRANCH  15  16
HETATM   16  C   UNL     1     -11.365   7.089  70.479  1.00  0.00    -0.355 C  
BRANCH  16  17
HETATM   17  C   UNL     1     -10.737   6.002  69.661  1.00  0.00    -0.405 A  
HETATM   18  C   UNL     1     -10.594   5.958  68.283  1.00  0.00    -0.244 A  
HETATM   19  N   UNL     1     -10.015   4.753  67.966  1.00  0.00    -0.124 NA 
HETATM   20  C   UNL     1     -10.956   6.926  67.216  1.00  0.00    -0.406 C  
HETATM   21  H   UNL     1      -9.799   4.445  67.017  1.00  0.00     0.000 HD 
HETATM   22  C   UNL     1      -9.765   4.020  69.099  1.00  0.00    -0.107 A  
HETATM   23  C   UNL     1      -9.202   2.746  69.242  1.00  0.00    -0.209 A  
HETATM   24  C   UNL     1      -9.060   2.242  70.538  1.00  0.00    -0.172 A  
HETATM   25  C   UNL     1      -9.464   2.985  71.645  1.00  0.00    -0.211 A  
HETATM   26  C   UNL     1     -10.034   4.252  71.482  1.00  0.00    -0.243 A  
HETATM   27  C   UNL     1     -10.191   4.783  70.183  1.00  0.00    -0.259 A  
ENDBRANCH  16  17
ENDBRANCH  15  16
ENDBRANCH  13  15
ENDBRANCH  12  13
ENDBRANCH  10  12
ENDBRANCH   2   6
BRANCH   3  28
HETATM   28  N   UNL     1      -7.462  10.723  63.294  1.00  0.00    -0.352 NA 
HETATM   29  H   UNL     1      -6.934  11.506  63.682  1.00  0.00     0.000 HD 
HETATM   30  O   UNL     1      -6.894   9.675  62.554  1.00  0.00    -0.099 OA 
HETATM   31  H   UNL     1      -5.955   9.789  62.461  1.00  0.00     0.000 HD 
ENDBRANCH   3  28
TORSDOF 7
ENDMDL
MODEL      288
REMARK 921   NORMALIZED FREE ENERGY PREDICTED BY IDOCK:   -3.08 KCAL/MOL
REMARK 922        TOTAL FREE ENERGY PREDICTED BY IDOCK:   -6.97 KCAL/MOL
REMARK 923 INTER-LIGAND FREE ENERGY PREDICTED BY IDOCK:   -5.87 KCAL/MOL
REMARK 924 INTRA-LIGAND FREE ENERGY PREDICTED BY IDOCK:   -1.09 KCAL/MOL
REMARK 927      BINDING AFFINITY PREDICTED BY RF-SCORE:    0.00 PKD
ROOT
HETATM    1  C   UNL     1      -9.161   3.733  65.427  1.00  0.00    -0.152 C  
HETATM    2  C   UNL     1      -9.044   5.002  65.008  1.00  0.00    -0.106 C  
HETATM    3  C   UNL     1      -9.819   2.754  64.555  1.00  0.00    -0.048 C  
HETATM    4  H   UNL     1      -9.786   0.866  64.187  1.00  0.00     0.000 HD 
HETATM    5  O   UNL     1      -9.360   1.501  64.751  1.00  0.00    -0.126 OA 
ENDROOT
BRANCH   2   6
HETATM    6  C   UNL     1      -8.378   6.000  65.837  1.00  0.00    -0.138 A  
HETATM    7  C   UNL     1      -8.680   7.356  65.691  1.00  0.00    -0.099 A  
HETATM    8  C   UNL     1      -8.122   8.294  66.563  1.00  0.00    -0.105 A  
HETATM    9  C   UNL     1      -7.481   5.589  66.825  1.00  0.00    -0.087 A  
HETATM   10  C   UNL     1      -7.260   7.883  67.589  1.00  0.00    -0.088 A  
HETATM   11  C   UNL     1      -6.926   6.526  67.698  1.00  0.00    -0.079 A  
BRANCH  10  12
HETATM   12  C   UNL     1      -6.806   8.866  68.639  1.00  0.00    -0.063 C  
BRANCH  12  13
HETATM   13  N   UNL     1      -6.964   8.350  69.999  1.00  0.00    -0.042 NA 
HETATM   14  H   UNL     1      -6.124   8.505  70.557  1.00  0.00     0.000 HD 
BRANCH  13  15
HETATM   15  C   UNL     1      -8.156   8.910  70.656  1.00  0.00    -0.144 C  
BRANCH  15  16
HETATM   16  C   UNL     1      -9.391   8.966  69.743  1.00  0.00    -0.169 C  
BRANCH  16  17
HETATM   17  C   UNL     1     -10.524   8.126  70.248  1.00  0.00    -0.219 A  
HETATM   18  C   UNL     1     -10.677   6.754  70.128  1.00  0.00    -0.233 A  
HETATM   19  N   UNL     1     -11.888   6.422  70.685  1.00  0.00    -0.327 NA 
HETATM   20  C   UNL     1      -9.808   5.708  69.530  1.00  0.00    -0.238 C  
HETATM   21  H   UNL     1     -12.267   5.476  70.729  1.00  0.00     0.000 HD 
HETATM   22  C   UNL     1     -12.519   7.537  71.175  1.00  0.00    -0.275 A  
HETATM   23  C   UNL     1     -13.762   7.664  71.808  1.00  0.00    -0.408 A  
HETATM   24  C   UNL     1     -14.156   8.943  72.215  1.00  0.00    -0.512 A  
HETATM   25  C   UNL     1     -13.336  10.048  71.998  1.00  0.00    -0.513 A  
HETATM   26  C   UNL     1     -12.101   9.903  71.356  1.00  0.00    -0.501 A  
HETATM   27  C   UNL     1     -11.683   8.623  70.933  1.00  0.00    -0.287 A  
ENDBRANCH  16  17
ENDBRANCH  15  16
ENDBRANCH  13  15
ENDBRANCH  12  13
ENDBRANCH  10  12
ENDBRANCH   2   6
BRANCH   3  28
HETATM   28  N   UNL     1     -10.741   3.037  63.692  1.00  0.00    -0.335 NA 
HETATM   29  H   UNL     1     -10.840   3.943  63.232  1.00  0.00     0.000 HD 
HETATM   30  O   UNL     1     -11.585   1.940  63.470  1.00  0.00    -0.581 OA 
HETATM   31  H   UNL     1     -12.262   2.148  62.836  1.00  0.00     0.000 HD 
ENDBRANCH   3  28
TORSDOF 7
ENDMDL
MODEL      289
REMARK 921   NORMALIZED FREE ENERGY PREDICTED BY IDOCK:   -3.07 KCAL/MOL
REMARK 922        TOTAL FREE ENERGY PREDICTED BY IDOCK:   -6.96 KCAL/MOL
REMARK 923 INTER-LIGAND FREE ENERGY PREDICTED BY IDOCK:   -6.30 KCAL/MOL
REMARK 924 INTRA-LIGAND FREE ENERGY PREDICTED BY IDOCK:   -0.65 KCAL/MOL
REMARK 927      BINDING AFFINITY PREDICTED BY RF-SCORE:    0.00 PKD
ROOT
HETATM    1  C   UNL     1     -10.408  14.894  68.180  1.00  0.00    -0.237 C  
HETATM    2  C   UNL     1      -9.584  14.571  67.172  1.00  0.00    -0.233 C  
HETATM    3  C   UNL     1     -10.820  16.293  68.341  1.00  0.00    -0.334 C  
HETATM    4  H   UNL     1     -12.301  17.314  69.023  1.00  0.00     0.000 HD 
HETATM    5  O   UNL     1     -12.034  16.408  68.918  1.00  0.00    -0.128 OA 
ENDROOT
BRANCH   2   6
HETATM    6  C   UNL     1      -9.169  13.188  66.966  1.00  0.00    -0.233 A  
HETATM    7  C   UNL     1      -7.896  12.767  67.357  1.00  0.00    -0.172 A  
HETATM    8  C   UNL     1      -7.545  11.418  67.260  1.00  0.00    -0.138 A  
HETATM    9  C   UNL     1     -10.074  12.267  66.434  1.00  0.00    -0.245 A  
HETATM   10  C   UNL     1      -8.465  10.480  66.774  1.00  0.00    -0.127 A  
HETATM   11  C   UNL     1      -9.725  10.920  66.340  1.00  0.00    -0.240 A  
BRANCH  10  12
HETATM   12  C   UNL     1      -8.155   9.005  66.842  1.00  0.00    -0.112 C  
BRANCH  12  13
HETATM   13  N   UNL     1      -8.292   8.463  68.194  1.00  0.00    -0.127 NA 
HETATM   14  H   UNL     1      -9.253   8.181  68.388  1.00  0.00     0.000 HD 
BRANCH  13  15
HETATM   15  C   UNL     1      -7.349   7.357  68.431  1.00  0.00    -0.103 C  
BRANCH  15  16
HETATM   16  C   UNL     1      -8.018   6.085  68.976  1.00  0.00    -0.104 C  
BRANCH  16  17
HETATM   17  C   UNL     1      -9.461   6.290  69.320  1.00  0.00    -0.142 A  
HETATM   18  C   UNL     1     -10.559   6.125  68.491  1.00  0.00    -0.271 A  
HETATM   19  N   UNL     1     -11.676   6.478  69.208  1.00  0.00    -0.606 NA 
HETATM   20  C   UNL     1     -10.677   5.681  67.078  1.00  0.00    -0.332 C  
HETATM   21  H   UNL     1     -12.629   6.462  68.844  1.00  0.00     0.000 HD 
HETATM   22  C   UNL     1     -11.336   6.854  70.483  1.00  0.00    -0.327 A  
HETATM   23  C   UNL     1     -12.144   7.293  71.539  1.00  0.00    -0.365 A  
HETATM   24  C   UNL     1     -11.518   7.607  72.749  1.00  0.00    -0.384 A  
HETATM   25  C   UNL     1     -10.138   7.483  72.895  1.00  0.00    -0.315 A  
HETATM   26  C   UNL     1      -9.345   7.051  71.826  1.00  0.00    -0.150 A  
HETATM   27  C   UNL     1      -9.954   6.731  70.593  1.00  0.00    -0.201 A  
ENDBRANCH  16  17
ENDBRANCH  15  16
ENDBRANCH  13  15
ENDBRANCH  12  13
ENDBRANCH  10  12
ENDBRANCH   2   6
BRANCH   3  28
HETATM   28  N   UNL     1     -10.113  17.315  67.982  1.00  0.00    -0.307 NA 
HETATM   29  H   UNL     1      -9.115  17.421  68.170  1.00  0.00     0.000 HD 
HETATM   30  O   UNL     1     -10.894  18.261  67.301  1.00  0.00    -0.373 OA 
HETATM   31  H   UNL     1     -10.375  19.012  67.037  1.00  0.00     0.000 HD 
ENDBRANCH   3  28
TORSDOF 7
ENDMDL
MODEL      290
REMARK 921   NORMALIZED FREE ENERGY PREDICTED BY IDOCK:   -3.07 KCAL/MOL
REMARK 922        TOTAL FREE ENERGY PREDICTED BY IDOCK:   -6.95 KCAL/MOL
REMARK 923 INTER-LIGAND FREE ENERGY PREDICTED BY IDOCK:   -6.22 KCAL/MOL
REMARK 924 INTRA-LIGAND FREE ENERGY PREDICTED BY IDOCK:   -0.73 KCAL/MOL
REMARK 927      BINDING AFFINITY PREDICTED BY RF-SCORE:    0.00 PKD
ROOT
HETATM    1  C   UNL     1      -7.253   8.747  69.326  1.00  0.00    -0.062 C  
HETATM    2  C   UNL     1      -8.253   9.573  68.982  1.00  0.00    -0.113 C  
HETATM    3  C   UNL     1      -6.884   8.628  70.741  1.00  0.00    -0.049 C  
HETATM    4  H   UNL     1      -6.126   7.340  71.954  1.00  0.00     0.000 HD 
HETATM    5  O   UNL     1      -6.366   7.418  71.037  1.00  0.00    -0.036 OA 
ENDROOT
BRANCH   2   6
HETATM    6  C   UNL     1      -8.663   9.702  67.589  1.00  0.00    -0.126 A  
HETATM    7  C   UNL     1     -10.016   9.795  67.256  1.00  0.00    -0.242 A  
HETATM    8  C   UNL     1     -10.396  10.030  65.932  1.00  0.00    -0.202 A  
HETATM    9  C   UNL     1      -7.692   9.798  66.589  1.00  0.00    -0.102 A  
HETATM   10  C   UNL     1      -9.426  10.177  64.932  1.00  0.00    -0.349 A  
HETATM   11  C   UNL     1      -8.071  10.036  65.268  1.00  0.00    -0.145 A  
BRANCH  10  12
HETATM   12  C   UNL     1      -9.825  10.614  63.544  1.00  0.00    -0.326 C  
BRANCH  12  13
HETATM   13  N   UNL     1      -9.551  12.030  63.299  1.00  0.00    -0.648 NA 
HETATM   14  H   UNL     1      -9.398  12.214  62.308  1.00  0.00     0.000 HD 
BRANCH  13  15
HETATM   15  C   UNL     1     -10.615  12.889  63.847  1.00  0.00    -0.336 C  
BRANCH  15  16
HETATM   16  C   UNL     1     -10.090  14.019  64.747  1.00  0.00    -0.224 C  
BRANCH  16  17
HETATM   17  C   UNL     1     -10.878  14.166  66.012  1.00  0.00    -0.297 A  
HETATM   18  C   UNL     1     -12.226  13.908  66.203  1.00  0.00    -0.464 A  
HETATM   19  N   UNL     1     -12.530  14.235  67.502  1.00  0.00    -0.524 NA 
HETATM   20  C   UNL     1     -13.277  13.394  65.287  1.00  0.00     0.147 C  
HETATM   21  H   UNL     1     -13.458  14.154  67.919  1.00  0.00     0.000 HD 
HETATM   22  C   UNL     1     -11.415  14.685  68.164  1.00  0.00    -0.323 A  
HETATM   23  C   UNL     1     -11.269  15.131  69.483  1.00  0.00    -0.286 A  
HETATM   24  C   UNL     1      -9.994  15.530  69.896  1.00  0.00    -0.243 A  
HETATM   25  C   UNL     1      -8.911  15.483  69.022  1.00  0.00    -0.242 A  
HETATM   26  C   UNL     1      -9.078  15.044  67.704  1.00  0.00    -0.182 A  
HETATM   27  C   UNL     1     -10.356  14.638  67.262  1.00  0.00    -0.256 A  
ENDBRANCH  16  17
ENDBRANCH  15  16
ENDBRANCH  13  15
ENDBRANCH  12  13
ENDBRANCH  10  12
ENDBRANCH   2   6
BRANCH   3  28
HETATM   28  N   UNL     1      -7.026   9.565  71.621  1.00  0.00    -0.290 NA 
HETATM   29  H   UNL     1      -7.762   9.585  72.328  1.00  0.00     0.000 HD 
HETATM   30  O   UNL     1      -6.039  10.552  71.479  1.00  0.00    -0.304 OA 
HETATM   31  H   UNL     1      -6.143  11.240  72.126  1.00  0.00     0.000 HD 
ENDBRANCH   3  28
TORSDOF 7
ENDMDL
MODEL      291
REMARK 921   NORMALIZED FREE ENERGY PREDICTED BY IDOCK:   -3.05 KCAL/MOL
REMARK 922        TOTAL FREE ENERGY PREDICTED BY IDOCK:   -6.93 KCAL/MOL
REMARK 923 INTER-LIGAND FREE ENERGY PREDICTED BY IDOCK:   -5.65 KCAL/MOL
REMARK 924 INTRA-LIGAND FREE ENERGY PREDICTED BY IDOCK:   -1.28 KCAL/MOL
REMARK 927      BINDING AFFINITY PREDICTED BY RF-SCORE:    0.00 PKD
ROOT
HETATM    1  C   UNL     1     -11.905  10.061  70.923  1.00  0.00    -0.459 C  
HETATM    2  C   UNL     1     -11.246   8.893  70.901  1.00  0.00    -0.334 C  
HETATM    3  C   UNL     1     -13.167  10.152  71.665  1.00  0.00    -0.418 C  
HETATM    4  H   UNL     1     -14.220  11.455  72.610  1.00  0.00     0.000 HD 
HETATM    5  O   UNL     1     -13.402  11.396  72.130  1.00  0.00    -0.469 OA 
ENDROOT
BRANCH   2   6
HETATM    6  C   UNL     1      -9.978   8.769  70.193  1.00  0.00    -0.201 A  
HETATM    7  C   UNL     1      -9.854   7.892  69.112  1.00  0.00    -0.174 A  
HETATM    8  C   UNL     1      -8.671   7.860  68.369  1.00  0.00    -0.131 A  
HETATM    9  C   UNL     1      -8.900   9.579  70.558  1.00  0.00    -0.253 A  
HETATM   10  C   UNL     1      -7.605   8.707  68.699  1.00  0.00    -0.097 A  
HETATM   11  C   UNL     1      -7.721   9.550  69.814  1.00  0.00    -0.123 A  
BRANCH  10  12
HETATM   12  C   UNL     1      -6.405   8.806  67.790  1.00  0.00    -0.057 C  
BRANCH  12  13
HETATM   13  N   UNL     1      -6.501   9.923  66.850  1.00  0.00    -0.065 NA 
HETATM   14  H   UNL     1      -5.678  10.523  66.898  1.00  0.00     0.000 HD 
BRANCH  13  15
HETATM   15  C   UNL     1      -6.744   9.453  65.475  1.00  0.00    -0.075 C  
BRANCH  15  16
HETATM   16  C   UNL     1      -6.099   8.092  65.167  1.00  0.00    -0.045 C  
BRANCH  16  17
HETATM   17  C   UNL     1      -7.102   7.052  64.773  1.00  0.00    -0.060 A  
HETATM   18  C   UNL     1      -7.941   7.062  63.670  1.00  0.00    -0.070 A  
HETATM   19  N   UNL     1      -8.728   5.938  63.738  1.00  0.00    -0.330 NA 
HETATM   20  C   UNL     1      -8.097   8.027  62.551  1.00  0.00    -0.157 C  
HETATM   21  H   UNL     1      -9.447   5.691  63.058  1.00  0.00     0.000 HD 
HETATM   22  C   UNL     1      -8.415   5.192  64.847  1.00  0.00    -0.149 A  
HETATM   23  C   UNL     1      -8.966   3.991  65.310  1.00  0.00    -0.132 A  
HETATM   24  C   UNL     1      -8.438   3.444  66.483  1.00  0.00    -0.109 A  
HETATM   25  C   UNL     1      -7.400   4.076  67.164  1.00  0.00    -0.068 A  
HETATM   26  C   UNL     1      -6.868   5.280  66.692  1.00  0.00    -0.063 A  
HETATM   27  C   UNL     1      -7.386   5.854  65.510  1.00  0.00    -0.076 A  
ENDBRANCH  16  17
ENDBRANCH  15  16
ENDBRANCH  13  15
ENDBRANCH  12  13
ENDBRANCH  10  12
ENDBRANCH   2   6
BRANCH   3  28
HETATM   28  N   UNL     1     -13.980   9.164  71.860  1.00  0.00    -0.373 NA 
HETATM   29  H   UNL     1     -14.541   8.727  71.127  1.00  0.00     0.000 HD 
HETATM   30  O   UNL     1     -13.992   8.772  73.206  1.00  0.00    -1.160 OA 
HETATM   31  H   UNL     1     -14.589   8.047  73.349  1.00  0.00     0.000 HD 
ENDBRANCH   3  28
TORSDOF 7
ENDMDL
MODEL      292
REMARK 921   NORMALIZED FREE ENERGY PREDICTED BY IDOCK:   -3.05 KCAL/MOL
REMARK 922        TOTAL FREE ENERGY PREDICTED BY IDOCK:   -6.93 KCAL/MOL
REMARK 923 INTER-LIGAND FREE ENERGY PREDICTED BY IDOCK:   -5.68 KCAL/MOL
REMARK 924 INTRA-LIGAND FREE ENERGY PREDICTED BY IDOCK:   -1.24 KCAL/MOL
REMARK 927      BINDING AFFINITY PREDICTED BY RF-SCORE:    0.00 PKD
ROOT
HETATM    1  C   UNL     1     -11.062  12.516  65.212  1.00  0.00    -0.332 C  
HETATM    2  C   UNL     1     -10.238  11.469  65.057  1.00  0.00    -0.328 C  
HETATM    3  C   UNL     1     -12.184  12.683  64.281  1.00  0.00    -0.445 C  
HETATM    4  H   UNL     1     -13.956  13.430  64.241  1.00  0.00     0.000 HD 
HETATM    5  O   UNL     1     -13.230  13.322  64.844  1.00  0.00    -0.703 OA 
ENDROOT
BRANCH   2   6
HETATM    6  C   UNL     1      -9.125  11.259  65.975  1.00  0.00    -0.221 A  
HETATM    7  C   UNL     1      -8.855  12.186  66.984  1.00  0.00    -0.203 A  
HETATM    8  C   UNL     1      -7.858  11.924  67.927  1.00  0.00    -0.138 A  
HETATM    9  C   UNL     1      -8.365  10.090  65.883  1.00  0.00    -0.129 A  
HETATM   10  C   UNL     1      -7.126  10.730  67.871  1.00  0.00    -0.085 A  
HETATM   11  C   UNL     1      -7.372   9.827  66.827  1.00  0.00    -0.091 A  
BRANCH  10  12
HETATM   12  C   UNL     1      -6.184  10.363  68.990  1.00  0.00    -0.044 C  
BRANCH  12  13
HETATM   13  N   UNL     1      -6.082   8.917  69.188  1.00  0.00    -0.042 NA 
HETATM   14  H   UNL     1      -5.180   8.560  68.874  1.00  0.00     0.000 HD 
BRANCH  13  15
HETATM   15  C   UNL     1      -6.351   8.543  70.587  1.00  0.00    -0.037 C  
BRANCH  15  16
HETATM   16  C   UNL     1      -7.618   9.190  71.164  1.00  0.00    -0.093 C  
BRANCH  16  17
HETATM   17  C   UNL     1      -8.846   8.363  70.939  1.00  0.00    -0.185 A  
HETATM   18  C   UNL     1     -10.012   8.740  70.290  1.00  0.00    -0.186 A  
HETATM   19  N   UNL     1     -10.889   7.686  70.369  1.00  0.00    -0.241 NA 
HETATM   20  C   UNL     1     -10.405  10.001  69.609  1.00  0.00    -0.274 C  
HETATM   21  H   UNL     1     -11.834   7.687  69.984  1.00  0.00     0.000 HD 
HETATM   22  C   UNL     1     -10.322   6.630  71.038  1.00  0.00    -0.207 A  
HETATM   23  C   UNL     1     -10.852   5.374  71.354  1.00  0.00    -0.210 A  
HETATM   24  C   UNL     1     -10.032   4.479  72.047  1.00  0.00    -0.255 A  
HETATM   25  C   UNL     1      -8.733   4.829  72.408  1.00  0.00    -0.124 A  
HETATM   26  C   UNL     1      -8.223   6.093  72.092  1.00  0.00    -0.110 A  
HETATM   27  C   UNL     1      -9.032   7.015  71.394  1.00  0.00    -0.139 A  
ENDBRANCH  16  17
ENDBRANCH  15  16
ENDBRANCH  13  15
ENDBRANCH  12  13
ENDBRANCH  10  12
ENDBRANCH   2   6
BRANCH   3  28
HETATM   28  N   UNL     1     -12.189  12.274  63.053  1.00  0.00    -0.643 NA 
HETATM   29  H   UNL     1     -11.782  12.792  62.272  1.00  0.00     0.000 HD 
HETATM   30  O   UNL     1     -12.824  11.030  62.932  1.00  0.00    -0.219 OA 
HETATM   31  H   UNL     1     -12.828  10.730  62.030  1.00  0.00     0.000 HD 
ENDBRANCH   3  28
TORSDOF 7
ENDMDL
MODEL      293
REMARK 921   NORMALIZED FREE ENERGY PREDICTED BY IDOCK:   -3.03 KCAL/MOL
REMARK 922        TOTAL FREE ENERGY PREDICTED BY IDOCK:   -6.90 KCAL/MOL
REMARK 923 INTER-LIGAND FREE ENERGY PREDICTED BY IDOCK:   -6.16 KCAL/MOL
REMARK 924 INTRA-LIGAND FREE ENERGY PREDICTED BY IDOCK:   -0.75 KCAL/MOL
REMARK 927      BINDING AFFINITY PREDICTED BY RF-SCORE:    0.00 PKD
ROOT
HETATM    1  C   UNL     1      -9.662   6.702  67.433  1.00  0.00    -0.155 C  
HETATM    2  C   UNL     1     -10.241   6.922  68.623  1.00  0.00    -0.181 C  
HETATM    3  C   UNL     1      -9.400   5.322  67.013  1.00  0.00    -0.122 C  
HETATM    4  H   UNL     1      -9.245   4.286  65.399  1.00  0.00     0.000 HD 
HETATM    5  O   UNL     1      -9.415   5.181  65.671  1.00  0.00    -0.160 OA 
ENDROOT
BRANCH   2   6
HETATM    6  C   UNL     1     -10.537   8.279  69.067  1.00  0.00    -0.167 A  
HETATM    7  C   UNL     1     -10.635   9.320  68.140  1.00  0.00    -0.248 A  
HETATM    8  C   UNL     1     -11.026  10.594  68.559  1.00  0.00    -0.296 A  
HETATM    9  C   UNL     1     -10.785   8.525  70.419  1.00  0.00    -0.246 A  
HETATM   10  C   UNL     1     -11.326  10.836  69.906  1.00  0.00    -0.385 A  
HETATM   11  C   UNL     1     -11.179   9.796  70.836  1.00  0.00    -0.429 A  
BRANCH  10  12
HETATM   12  C   UNL     1     -11.925  12.155  70.326  1.00  0.00    -0.305 C  
BRANCH  12  13
HETATM   13  N   UNL     1     -11.211  13.302  69.763  1.00  0.00    -0.483 NA 
HETATM   14  H   UNL     1     -10.299  13.031  69.395  1.00  0.00     0.000 HD 
BRANCH  13  15
HETATM   15  C   UNL     1     -12.018  13.993  68.742  1.00  0.00    -0.347 C  
BRANCH  15  16
HETATM   16  C   UNL     1     -11.177  14.722  67.683  1.00  0.00    -0.332 C  
BRANCH  16  17
HETATM   17  C   UNL     1      -9.822  15.115  68.188  1.00  0.00    -0.218 A  
HETATM   18  C   UNL     1      -9.423  16.355  68.659  1.00  0.00    -0.239 A  
HETATM   19  N   UNL     1      -8.085  16.273  68.960  1.00  0.00    -0.235 NA 
HETATM   20  C   UNL     1     -10.163  17.630  68.848  1.00  0.00    -0.354 C  
HETATM   21  H   UNL     1      -7.523  17.044  69.320  1.00  0.00     0.000 HD 
HETATM   22  C   UNL     1      -7.608  15.010  68.711  1.00  0.00    -0.137 A  
HETATM   23  C   UNL     1      -6.317  14.489  68.863  1.00  0.00    -0.089 A  
HETATM   24  C   UNL     1      -6.118  13.145  68.534  1.00  0.00    -0.078 A  
HETATM   25  C   UNL     1      -7.169  12.356  68.073  1.00  0.00    -0.105 A  
HETATM   26  C   UNL     1      -8.450  12.897  67.919  1.00  0.00    -0.181 A  
HETATM   27  C   UNL     1      -8.677  14.252  68.242  1.00  0.00    -0.179 A  
ENDBRANCH  16  17
ENDBRANCH  15  16
ENDBRANCH  13  15
ENDBRANCH  12  13
ENDBRANCH  10  12
ENDBRANCH   2   6
BRANCH   3  28
HETATM   28  N   UNL     1      -9.175   4.336  67.820  1.00  0.00    -0.135 NA 
HETATM   29  H   UNL     1      -8.651   4.414  68.692  1.00  0.00     0.000 HD 
HETATM   30  O   UNL     1      -9.742   3.145  67.342  1.00  0.00    -0.350 OA 
HETATM   31  H   UNL     1      -9.576   2.422  67.935  1.00  0.00     0.000 HD 
ENDBRANCH   3  28
TORSDOF 7
ENDMDL
MODEL      294
REMARK 921   NORMALIZED FREE ENERGY PREDICTED BY IDOCK:   -3.03 KCAL/MOL
REMARK 922        TOTAL FREE ENERGY PREDICTED BY IDOCK:   -6.90 KCAL/MOL
REMARK 923 INTER-LIGAND FREE ENERGY PREDICTED BY IDOCK:   -4.18 KCAL/MOL
REMARK 924 INTRA-LIGAND FREE ENERGY PREDICTED BY IDOCK:   -2.72 KCAL/MOL
REMARK 927      BINDING AFFINITY PREDICTED BY RF-SCORE:    0.00 PKD
ROOT
HETATM    1  C   UNL     1      -9.672   8.816  66.297  1.00  0.00    -0.342 C  
HETATM    2  C   UNL     1      -9.536   7.517  65.992  1.00  0.00    -0.011 C  
HETATM    3  C   UNL     1      -9.923   9.778  65.217  1.00  0.00    -0.181 C  
HETATM    4  H   UNL     1     -10.785  11.475  64.939  1.00  0.00     0.000 HD 
HETATM    5  O   UNL     1     -10.623  10.852  65.638  1.00  0.00    -0.236 OA 
ENDROOT
BRANCH   2   6
HETATM    6  C   UNL     1      -9.307   6.528  67.039  1.00  0.00    -0.155 A  
HETATM    7  C   UNL     1     -10.265   5.548  67.308  1.00  0.00    -0.255 A  
HETATM    8  C   UNL     1      -9.992   4.539  68.235  1.00  0.00    -0.098 A  
HETATM    9  C   UNL     1      -8.094   6.525  67.732  1.00  0.00    -0.115 A  
HETATM   10  C   UNL     1      -8.757   4.500  68.897  1.00  0.00    -0.111 A  
HETATM   11  C   UNL     1      -7.820   5.515  68.654  1.00  0.00    -0.091 A  
BRANCH  10  12
HETATM   12  C   UNL     1      -8.392   3.314  69.753  1.00  0.00    -0.051 C  
BRANCH  12  13
HETATM   13  N   UNL     1      -8.010   3.697  71.113  1.00  0.00    -0.059 NA 
HETATM   14  H   UNL     1      -7.713   4.672  71.156  1.00  0.00     0.000 HD 
BRANCH  13  15
HETATM   15  C   UNL     1      -9.088   3.419  72.076  1.00  0.00    -0.108 C  
BRANCH  15  16
HETATM   16  C   UNL     1      -9.509   4.647  72.899  1.00  0.00    -0.151 C  
BRANCH  16  17
HETATM   17  C   UNL     1      -8.961   5.928  72.351  1.00  0.00    -0.137 A  
HETATM   18  C   UNL     1      -7.712   6.482  72.585  1.00  0.00    -0.102 A  
HETATM   19  N   UNL     1      -7.664   7.687  71.926  1.00  0.00    -0.084 NA 
HETATM   20  C   UNL     1      -6.550   6.008  73.380  1.00  0.00    -0.074 C  
HETATM   21  H   UNL     1      -6.863   8.318  71.931  1.00  0.00     0.000 HD 
HETATM   22  C   UNL     1      -8.839   7.924  71.260  1.00  0.00    -0.135 A  
HETATM   23  C   UNL     1      -9.226   9.019  70.478  1.00  0.00    -0.261 A  
HETATM   24  C   UNL     1     -10.501   8.989  69.905  1.00  0.00    -0.226 A  
HETATM   25  C   UNL     1     -11.353   7.905  70.107  1.00  0.00    -0.099 A  
HETATM   26  C   UNL     1     -10.952   6.823  70.899  1.00  0.00    -0.303 A  
HETATM   27  C   UNL     1      -9.670   6.831  71.490  1.00  0.00    -0.168 A  
ENDBRANCH  16  17
ENDBRANCH  15  16
ENDBRANCH  13  15
ENDBRANCH  12  13
ENDBRANCH  10  12
ENDBRANCH   2   6
BRANCH   3  28
HETATM   28  N   UNL     1      -9.523   9.634  63.995  1.00  0.00    -0.394 NA 
HETATM   29  H   UNL     1      -9.351   8.733  63.547  1.00  0.00     0.000 HD 
HETATM   30  O   UNL     1      -9.357  10.876  63.364  1.00  0.00    -0.234 OA 
HETATM   31  H   UNL     1      -9.064  10.770  62.466  1.00  0.00     0.000 HD 
ENDBRANCH   3  28
TORSDOF 7
ENDMDL
MODEL      295
REMARK 921   NORMALIZED FREE ENERGY PREDICTED BY IDOCK:   -3.03 KCAL/MOL
REMARK 922        TOTAL FREE ENERGY PREDICTED BY IDOCK:   -6.90 KCAL/MOL
REMARK 923 INTER-LIGAND FREE ENERGY PREDICTED BY IDOCK:   -6.20 KCAL/MOL
REMARK 924 INTRA-LIGAND FREE ENERGY PREDICTED BY IDOCK:   -0.70 KCAL/MOL
REMARK 927      BINDING AFFINITY PREDICTED BY RF-SCORE:    0.00 PKD
ROOT
HETATM    1  C   UNL     1      -8.682   3.611  65.479  1.00  0.00    -0.119 C  
HETATM    2  C   UNL     1      -9.501   3.855  66.514  1.00  0.00    -0.211 C  
HETATM    3  C   UNL     1      -9.145   2.739  64.395  1.00  0.00    -0.122 C  
HETATM    4  H   UNL     1      -8.873   2.477  62.508  1.00  0.00     0.000 HD 
HETATM    5  O   UNL     1      -8.574   3.042  63.211  1.00  0.00    -0.085 OA 
ENDROOT
BRANCH   2   6
HETATM    6  C   UNL     1      -9.084   4.733  67.600  1.00  0.00    -0.128 A  
HETATM    7  C   UNL     1      -7.748   5.121  67.723  1.00  0.00    -0.088 A  
HETATM    8  C   UNL     1      -7.376   6.050  68.698  1.00  0.00    -0.085 A  
HETATM    9  C   UNL     1     -10.040   5.239  68.484  1.00  0.00    -0.232 A  
HETATM   10  C   UNL     1      -8.338   6.600  69.555  1.00  0.00    -0.131 A  
HETATM   11  C   UNL     1      -9.669   6.169  69.455  1.00  0.00    -0.175 A  
BRANCH  10  12
HETATM   12  C   UNL     1      -7.972   7.735  70.480  1.00  0.00    -0.098 C  
BRANCH  12  13
HETATM   13  N   UNL     1      -8.717   8.960  70.190  1.00  0.00    -0.148 NA 
HETATM   14  H   UNL     1      -8.495   9.699  70.857  1.00  0.00     0.000 HD 
BRANCH  13  15
HETATM   15  C   UNL     1      -8.505   9.407  68.803  1.00  0.00    -0.122 C  
BRANCH  15  16
HETATM   16  C   UNL     1      -9.802   9.797  68.078  1.00  0.00    -0.173 C  
BRANCH  16  17
HETATM   17  C   UNL     1     -10.510  10.942  68.733  1.00  0.00    -0.224 A  
HETATM   18  C   UNL     1     -10.409  12.289  68.421  1.00  0.00    -0.224 A  
HETATM   19  N   UNL     1     -11.190  12.981  69.315  1.00  0.00    -0.398 NA 
HETATM   20  C   UNL     1      -9.642  13.009  67.372  1.00  0.00    -0.211 C  
HETATM   21  H   UNL     1     -11.298  13.995  69.327  1.00  0.00     0.000 HD 
HETATM   22  C   UNL     1     -11.805  12.122  70.190  1.00  0.00    -0.287 A  
HETATM   23  C   UNL     1     -12.670  12.389  71.258  1.00  0.00    -0.347 A  
HETATM   24  C   UNL     1     -13.159  11.301  71.986  1.00  0.00    -0.431 A  
HETATM   25  C   UNL     1     -12.797   9.997  71.655  1.00  0.00    -0.543 A  
HETATM   26  C   UNL     1     -11.924   9.749  70.591  1.00  0.00    -0.340 A  
HETATM   27  C   UNL     1     -11.415  10.832  69.842  1.00  0.00    -0.398 A  
ENDBRANCH  16  17
ENDBRANCH  15  16
ENDBRANCH  13  15
ENDBRANCH  12  13
ENDBRANCH  10  12
ENDBRANCH   2   6
BRANCH   3  28
HETATM   28  N   UNL     1     -10.001   1.779  64.536  1.00  0.00    -0.335 NA 
HETATM   29  H   UNL     1      -9.809   0.903  65.025  1.00  0.00     0.000 HD 
HETATM   30  O   UNL     1     -11.226   2.095  63.931  1.00  0.00    -0.542 OA 
HETATM   31  H   UNL     1     -11.854   1.389  64.035  1.00  0.00     0.000 HD 
ENDBRANCH   3  28
TORSDOF 7
ENDMDL
MODEL      296
REMARK 921   NORMALIZED FREE ENERGY PREDICTED BY IDOCK:   -3.02 KCAL/MOL
REMARK 922        TOTAL FREE ENERGY PREDICTED BY IDOCK:   -6.89 KCAL/MOL
REMARK 923 INTER-LIGAND FREE ENERGY PREDICTED BY IDOCK:   -6.02 KCAL/MOL
REMARK 924 INTRA-LIGAND FREE ENERGY PREDICTED BY IDOCK:   -0.87 KCAL/MOL
REMARK 927      BINDING AFFINITY PREDICTED BY RF-SCORE:    0.00 PKD
ROOT
HETATM    1  C   UNL     1      -9.231  17.686  66.995  1.00  0.00    -0.254 C  
HETATM    2  C   UNL     1     -10.458  17.153  67.097  1.00  0.00    -0.291 C  
HETATM    3  C   UNL     1      -8.975  19.001  67.592  1.00  0.00    -0.289 C  
HETATM    4  H   UNL     1      -7.524  20.004  68.359  1.00  0.00     0.000 HD 
HETATM    5  O   UNL     1      -7.689  19.152  67.973  1.00  0.00    -0.267 OA 
ENDROOT
BRANCH   2   6
HETATM    6  C   UNL     1     -10.745  15.838  66.535  1.00  0.00    -0.283 A  
HETATM    7  C   UNL     1     -10.476  15.570  65.190  1.00  0.00    -0.431 A  
HETATM    8  C   UNL     1     -10.649  14.279  64.686  1.00  0.00    -0.364 A  
HETATM    9  C   UNL     1     -11.233  14.825  67.362  1.00  0.00    -0.346 A  
HETATM   10  C   UNL     1     -11.090  13.245  65.524  1.00  0.00    -0.299 A  
HETATM   11  C   UNL     1     -11.403  13.534  66.860  1.00  0.00    -0.350 A  
BRANCH  10  12
HETATM   12  C   UNL     1     -11.100  11.820  65.030  1.00  0.00    -0.284 C  
BRANCH  12  13
HETATM   13  N   UNL     1     -10.095  11.576  63.995  1.00  0.00    -0.291 NA 
HETATM   14  H   UNL     1      -9.451  12.362  63.907  1.00  0.00     0.000 HD 
BRANCH  13  15
HETATM   15  C   UNL     1      -9.374  10.313  64.228  1.00  0.00    -0.277 C  
BRANCH  15  16
HETATM   16  C   UNL     1      -7.933  10.510  64.725  1.00  0.00    -0.046 C  
BRANCH  16  17
HETATM   17  C   UNL     1      -7.653   9.772  65.998  1.00  0.00    -0.102 A  
HETATM   18  C   UNL     1      -7.669   8.401  66.200  1.00  0.00    -0.097 A  
HETATM   19  N   UNL     1      -7.409   8.175  67.530  1.00  0.00    -0.091 NA 
HETATM   20  C   UNL     1      -7.917   7.264  65.275  1.00  0.00    -0.127 C  
HETATM   21  H   UNL     1      -7.369   7.254  67.965  1.00  0.00     0.000 HD 
HETATM   22  C   UNL     1      -7.212   9.360  68.194  1.00  0.00    -0.078 A  
HETATM   23  C   UNL     1      -6.934   9.600  69.545  1.00  0.00    -0.059 A  
HETATM   24  C   UNL     1      -6.772  10.929  69.949  1.00  0.00    -0.147 A  
HETATM   25  C   UNL     1      -6.882  11.974  69.034  1.00  0.00    -0.105 A  
HETATM   26  C   UNL     1      -7.169  11.715  67.690  1.00  0.00    -0.107 A  
HETATM   27  C   UNL     1      -7.340  10.382  67.258  1.00  0.00    -0.090 A  
ENDBRANCH  16  17
ENDBRANCH  15  16
ENDBRANCH  13  15
ENDBRANCH  12  13
ENDBRANCH  10  12
ENDBRANCH   2   6
BRANCH   3  28
HETATM   28  N   UNL     1      -9.865  19.928  67.743  1.00  0.00    -0.380 NA 
HETATM   29  H   UNL     1     -10.446  20.039  68.575  1.00  0.00     0.000 HD 
HETATM   30  O   UNL     1      -9.930  20.761  66.616  1.00  0.00    -0.570 OA 
HETATM   31  H   UNL     1     -10.584  21.441  66.727  1.00  0.00     0.000 HD 
ENDBRANCH   3  28
TORSDOF 7
ENDMDL
MODEL      297
REMARK 921   NORMALIZED FREE ENERGY PREDICTED BY IDOCK:   -3.01 KCAL/MOL
REMARK 922        TOTAL FREE ENERGY PREDICTED BY IDOCK:   -6.87 KCAL/MOL
REMARK 923 INTER-LIGAND FREE ENERGY PREDICTED BY IDOCK:   -6.60 KCAL/MOL
REMARK 924 INTRA-LIGAND FREE ENERGY PREDICTED BY IDOCK:   -0.27 KCAL/MOL
REMARK 927      BINDING AFFINITY PREDICTED BY RF-SCORE:    0.00 PKD
ROOT
HETATM    1  C   UNL     1      -9.439  16.733  67.984  1.00  0.00    -0.233 C  
HETATM    2  C   UNL     1     -10.415  15.853  68.253  1.00  0.00    -0.257 C  
HETATM    3  C   UNL     1      -9.598  18.126  68.417  1.00  0.00    -0.337 C  
HETATM    4  H   UNL     1      -8.517  19.629  68.939  1.00  0.00     0.000 HD 
HETATM    5  O   UNL     1      -8.415  18.727  68.659  1.00  0.00    -0.338 OA 
ENDROOT
BRANCH   2   6
HETATM    6  C   UNL     1     -10.285  14.455  67.858  1.00  0.00    -0.232 A  
HETATM    7  C   UNL     1     -11.417  13.705  67.530  1.00  0.00    -0.360 A  
HETATM    8  C   UNL     1     -11.276  12.402  67.046  1.00  0.00    -0.358 A  
HETATM    9  C   UNL     1      -9.015  13.885  67.745  1.00  0.00    -0.188 A  
HETATM   10  C   UNL     1     -10.002  11.841  66.883  1.00  0.00    -0.220 A  
HETATM   11  C   UNL     1      -8.874  12.585  67.259  1.00  0.00    -0.195 A  
BRANCH  10  12
HETATM   12  C   UNL     1      -9.841  10.511  66.190  1.00  0.00    -0.217 C  
BRANCH  12  13
HETATM   13  N   UNL     1     -10.620   9.447  66.825  1.00  0.00    -0.187 NA 
HETATM   14  H   UNL     1     -10.790   8.674  66.181  1.00  0.00     0.000 HD 
BRANCH  13  15
HETATM   15  C   UNL     1      -9.985   8.981  68.068  1.00  0.00    -0.176 C  
BRANCH  15  16
HETATM   16  C   UNL     1     -10.921   9.013  69.287  1.00  0.00    -0.052 C  
BRANCH  16  17
HETATM   17  C   UNL     1     -10.828   7.773  70.122  1.00  0.00    -0.248 A  
HETATM   18  C   UNL     1     -11.189   7.620  71.451  1.00  0.00    -0.246 A  
HETATM   19  N   UNL     1     -10.878   6.333  71.819  1.00  0.00    -0.239 NA 
HETATM   20  C   UNL     1     -11.790   8.562  72.430  1.00  0.00    -0.437 C  
HETATM   21  H   UNL     1     -11.029   5.944  72.750  1.00  0.00     0.000 HD 
HETATM   22  C   UNL     1     -10.338   5.643  70.764  1.00  0.00    -0.243 A  
HETATM   23  C   UNL     1      -9.874   4.324  70.693  1.00  0.00    -0.265 A  
HETATM   24  C   UNL     1      -9.373   3.877  69.467  1.00  0.00    -0.246 A  
HETATM   25  C   UNL     1      -9.340   4.717  68.357  1.00  0.00    -0.177 A  
HETATM   26  C   UNL     1      -9.799   6.036  68.448  1.00  0.00    -0.152 A  
HETATM   27  C   UNL     1     -10.308   6.511  69.676  1.00  0.00    -0.234 A  
ENDBRANCH  16  17
ENDBRANCH  15  16
ENDBRANCH  13  15
ENDBRANCH  12  13
ENDBRANCH  10  12
ENDBRANCH   2   6
BRANCH   3  28
HETATM   28  N   UNL     1     -10.734  18.730  68.554  1.00  0.00    -0.282 NA 
HETATM   29  H   UNL     1     -11.338  18.642  69.372  1.00  0.00     0.000 HD 
HETATM   30  O   UNL     1     -11.028  19.523  67.435  1.00  0.00    -0.477 OA 
HETATM   31  H   UNL     1     -11.862  19.966  67.536  1.00  0.00     0.000 HD 
ENDBRANCH   3  28
TORSDOF 7
ENDMDL
MODEL      298
REMARK 921   NORMALIZED FREE ENERGY PREDICTED BY IDOCK:   -3.00 KCAL/MOL
REMARK 922        TOTAL FREE ENERGY PREDICTED BY IDOCK:   -6.86 KCAL/MOL
REMARK 923 INTER-LIGAND FREE ENERGY PREDICTED BY IDOCK:   -6.11 KCAL/MOL
REMARK 924 INTRA-LIGAND FREE ENERGY PREDICTED BY IDOCK:   -0.76 KCAL/MOL
REMARK 927      BINDING AFFINITY PREDICTED BY RF-SCORE:    0.00 PKD
ROOT
HETATM    1  C   UNL     1      -8.029   6.174  64.073  1.00  0.00    -0.110 C  
HETATM    2  C   UNL     1      -7.836   6.479  65.366  1.00  0.00    -0.106 C  
HETATM    3  C   UNL     1      -8.438   4.811  63.717  1.00  0.00    -0.128 C  
HETATM    4  H   UNL     1      -9.431   3.889  62.351  1.00  0.00     0.000 HD 
HETATM    5  O   UNL     1      -9.166   4.772  62.582  1.00  0.00    -0.124 OA 
ENDROOT
BRANCH   2   6
HETATM    6  C   UNL     1      -7.450   7.828  65.761  1.00  0.00    -0.078 A  
HETATM    7  C   UNL     1      -7.399   8.854  64.814  1.00  0.00    -0.097 A  
HETATM    8  C   UNL     1      -7.136  10.166  65.219  1.00  0.00    -0.137 A  
HETATM    9  C   UNL     1      -7.191   8.107  67.105  1.00  0.00    -0.084 A  
HETATM   10  C   UNL     1      -6.926  10.461  66.573  1.00  0.00    -0.112 A  
HETATM   11  C   UNL     1      -6.933   9.417  67.509  1.00  0.00    -0.077 A  
BRANCH  10  12
HETATM   12  C   UNL     1      -6.828  11.895  67.031  1.00  0.00    -0.122 C  
BRANCH  12  13
HETATM   13  N   UNL     1      -8.058  12.649  66.786  1.00  0.00    -0.403 NA 
HETATM   14  H   UNL     1      -8.569  12.280  65.985  1.00  0.00     0.000 HD 
BRANCH  13  15
HETATM   15  C   UNL     1      -8.907  12.704  67.988  1.00  0.00    -0.195 C  
BRANCH  15  16
HETATM   16  C   UNL     1     -10.411  12.732  67.677  1.00  0.00    -0.224 C  
BRANCH  16  17
HETATM   17  C   UNL     1     -11.242  13.101  68.867  1.00  0.00    -0.324 A  
HETATM   18  C   UNL     1     -11.576  14.374  69.302  1.00  0.00    -0.304 A  
HETATM   19  N   UNL     1     -12.302  14.238  70.461  1.00  0.00    -0.338 NA 
HETATM   20  C   UNL     1     -11.274  15.721  68.753  1.00  0.00    -0.342 C  
HETATM   21  H   UNL     1     -12.672  15.016  71.008  1.00  0.00     0.000 HD 
HETATM   22  C   UNL     1     -12.460  12.914  70.783  1.00  0.00    -0.286 A  
HETATM   23  C   UNL     1     -13.114  12.323  71.871  1.00  0.00    -0.469 A  
HETATM   24  C   UNL     1     -13.125  10.927  71.942  1.00  0.00    -0.537 A  
HETATM   25  C   UNL     1     -12.506  10.155  70.961  1.00  0.00    -0.474 A  
HETATM   26  C   UNL     1     -11.849  10.763  69.886  1.00  0.00    -0.413 A  
HETATM   27  C   UNL     1     -11.823  12.171  69.793  1.00  0.00    -0.397 A  
ENDBRANCH  16  17
ENDBRANCH  15  16
ENDBRANCH  13  15
ENDBRANCH  12  13
ENDBRANCH  10  12
ENDBRANCH   2   6
BRANCH   3  28
HETATM   28  N   UNL     1      -8.141   3.751  64.398  1.00  0.00    -0.086 NA 
HETATM   29  H   UNL     1      -7.196   3.379  64.502  1.00  0.00     0.000 HD 
HETATM   30  O   UNL     1      -9.285   3.178  64.974  1.00  0.00    -0.140 OA 
HETATM   31  H   UNL     1      -9.066   2.400  65.474  1.00  0.00     0.000 HD 
ENDBRANCH   3  28
TORSDOF 7
ENDMDL
MODEL      299
REMARK 921   NORMALIZED FREE ENERGY PREDICTED BY IDOCK:   -2.99 KCAL/MOL
REMARK 922        TOTAL FREE ENERGY PREDICTED BY IDOCK:   -6.85 KCAL/MOL
REMARK 923 INTER-LIGAND FREE ENERGY PREDICTED BY IDOCK:   -6.31 KCAL/MOL
REMARK 924 INTRA-LIGAND FREE ENERGY PREDICTED BY IDOCK:   -0.54 KCAL/MOL
REMARK 927      BINDING AFFINITY PREDICTED BY RF-SCORE:    0.00 PKD
ROOT
HETATM    1  C   UNL     1      -9.523   4.134  64.539  1.00  0.00    -0.165 C  
HETATM    2  C   UNL     1      -9.942   4.273  65.806  1.00  0.00    -0.233 C  
HETATM    3  C   UNL     1     -10.214   3.183  63.661  1.00  0.00    -0.198 C  
HETATM    4  H   UNL     1     -10.603   2.930  61.794  1.00  0.00     0.000 HD 
HETATM    5  O   UNL     1     -10.156   3.546  62.363  1.00  0.00    -0.111 OA 
ENDROOT
BRANCH   2   6
HETATM    6  C   UNL     1      -9.294   5.223  66.702  1.00  0.00    -0.139 A  
HETATM    7  C   UNL     1      -8.168   5.935  66.283  1.00  0.00    -0.114 A  
HETATM    8  C   UNL     1      -7.619   6.923  67.106  1.00  0.00    -0.107 A  
HETATM    9  C   UNL     1      -9.843   5.467  67.963  1.00  0.00    -0.173 A  
HETATM   10  C   UNL     1      -8.196   7.208  68.351  1.00  0.00    -0.125 A  
HETATM   11  C   UNL     1      -9.298   6.456  68.782  1.00  0.00    -0.125 A  
BRANCH  10  12
HETATM   12  C   UNL     1      -7.721   8.394  69.153  1.00  0.00    -0.092 C  
BRANCH  12  13
HETATM   13  N   UNL     1      -8.790   9.356  69.423  1.00  0.00    -0.149 NA 
HETATM   14  H   UNL     1      -8.474  10.100  70.045  1.00  0.00     0.000 HD 
BRANCH  13  15
HETATM   15  C   UNL     1      -9.355   9.900  68.176  1.00  0.00    -0.131 C  
BRANCH  15  16
HETATM   16  C   UNL     1     -10.223  11.150  68.388  1.00  0.00    -0.200 C  
BRANCH  16  17
HETATM   17  C   UNL     1      -9.814  12.295  67.514  1.00  0.00    -0.193 A  
HETATM   18  C   UNL     1      -8.604  12.969  67.516  1.00  0.00    -0.192 A  
HETATM   19  N   UNL     1      -8.692  13.981  66.590  1.00  0.00    -0.444 NA 
HETATM   20  C   UNL     1      -7.362  12.776  68.309  1.00  0.00    -0.117 C  
HETATM   21  H   UNL     1      -7.946  14.646  66.386  1.00  0.00     0.000 HD 
HETATM   22  C   UNL     1      -9.919  13.974  65.978  1.00  0.00    -0.315 A  
HETATM   23  C   UNL     1     -10.440  14.821  64.993  1.00  0.00    -0.443 A  
HETATM   24  C   UNL     1     -11.739  14.571  64.541  1.00  0.00    -0.421 A  
HETATM   25  C   UNL     1     -12.486  13.514  65.057  1.00  0.00    -0.462 A  
HETATM   26  C   UNL     1     -11.953  12.683  66.048  1.00  0.00    -0.478 A  
HETATM   27  C   UNL     1     -10.644  12.916  66.522  1.00  0.00    -0.272 A  
ENDBRANCH  16  17
ENDBRANCH  15  16
ENDBRANCH  13  15
ENDBRANCH  12  13
ENDBRANCH  10  12
ENDBRANCH   2   6
BRANCH   3  28
HETATM   28  N   UNL     1     -10.814   2.110  64.064  1.00  0.00    -0.411 NA 
HETATM   29  H   UNL     1     -10.550   1.581  64.896  1.00  0.00     0.000 HD 
HETATM   30  O   UNL     1     -11.874   1.768  63.211  1.00  0.00    -0.500 OA 
HETATM   31  H   UNL     1     -12.314   0.980  63.508  1.00  0.00     0.000 HD 
ENDBRANCH   3  28
TORSDOF 7
ENDMDL
MODEL      300
REMARK 921   NORMALIZED FREE ENERGY PREDICTED BY IDOCK:   -2.99 KCAL/MOL
REMARK 922        TOTAL FREE ENERGY PREDICTED BY IDOCK:   -6.84 KCAL/MOL
REMARK 923 INTER-LIGAND FREE ENERGY PREDICTED BY IDOCK:   -6.05 KCAL/MOL
REMARK 924 INTRA-LIGAND FREE ENERGY PREDICTED BY IDOCK:   -0.79 KCAL/MOL
REMARK 927      BINDING AFFINITY PREDICTED BY RF-SCORE:    0.00 PKD
ROOT
HETATM    1  C   UNL     1      -9.402   3.844  66.583  1.00  0.00    -0.201 C  
HETATM    2  C   UNL     1      -9.262   4.950  65.838  1.00  0.00    -0.155 C  
HETATM    3  C   UNL     1      -8.986   2.553  66.026  1.00  0.00    -0.121 C  
HETATM    4  H   UNL     1      -8.325   0.846  66.618  1.00  0.00     0.000 HD 
HETATM    5  O   UNL     1      -8.595   1.683  66.980  1.00  0.00    -0.087 OA 
ENDROOT
BRANCH   2   6
HETATM    6  C   UNL     1      -9.644   6.255  66.365  1.00  0.00    -0.159 A  
HETATM    7  C   UNL     1     -10.661   6.362  67.317  1.00  0.00    -0.426 A  
HETATM    8  C   UNL     1     -10.947   7.600  67.898  1.00  0.00     0.011 A  
HETATM    9  C   UNL     1      -8.946   7.395  65.961  1.00  0.00    -0.156 A  
HETATM   10  C   UNL     1     -10.215   8.739  67.535  1.00  0.00    -0.309 A  
HETATM   11  C   UNL     1      -9.228   8.630  66.545  1.00  0.00    -0.236 A  
BRANCH  10  12
HETATM   12  C   UNL     1     -10.395  10.031  68.293  1.00  0.00    -0.193 C  
BRANCH  12  13
HETATM   13  N   UNL     1     -11.800  10.325  68.579  1.00  0.00    -0.710 NA 
HETATM   14  H   UNL     1     -12.215   9.615  69.182  1.00  0.00     0.000 HD 
BRANCH  13  15
HETATM   15  C   UNL     1     -11.966  11.674  69.144  1.00  0.00    -0.313 C  
BRANCH  15  16
HETATM   16  C   UNL     1     -11.773  12.800  68.115  1.00  0.00    -0.392 C  
BRANCH  16  17
HETATM   17  C   UNL     1     -10.838  13.868  68.593  1.00  0.00    -0.278 A  
HETATM   18  C   UNL     1     -11.130  14.933  69.430  1.00  0.00    -0.280 A  
HETATM   19  N   UNL     1      -9.988  15.688  69.552  1.00  0.00    -0.271 NA 
HETATM   20  C   UNL     1     -12.380  15.336  70.125  1.00  0.00    -0.392 C  
HETATM   21  H   UNL     1      -9.914  16.542  70.105  1.00  0.00     0.000 HD 
HETATM   22  C   UNL     1      -8.960  15.135  68.831  1.00  0.00    -0.206 A  
HETATM   23  C   UNL     1      -7.640  15.570  68.665  1.00  0.00    -0.141 A  
HETATM   24  C   UNL     1      -6.796  14.792  67.867  1.00  0.00    -0.174 A  
HETATM   25  C   UNL     1      -7.257  13.625  67.261  1.00  0.00     0.005 A  
HETATM   26  C   UNL     1      -8.582  13.211  67.431  1.00  0.00    -0.204 A  
HETATM   27  C   UNL     1      -9.454  13.981  68.230  1.00  0.00    -0.216 A  
ENDBRANCH  16  17
ENDBRANCH  15  16
ENDBRANCH  13  15
ENDBRANCH  12  13
ENDBRANCH  10  12
ENDBRANCH   2   6
BRANCH   3  28
HETATM   28  N   UNL     1      -8.991   2.258  64.766  1.00  0.00    -0.118 NA 
HETATM   29  H   UNL     1      -8.228   2.472  64.122  1.00  0.00     0.000 HD 
HETATM   30  O   UNL     1     -10.178   1.608  64.398  1.00  0.00    -0.335 OA 
HETATM   31  H   UNL     1     -10.181   1.391  63.473  1.00  0.00     0.000 HD 
ENDBRANCH   3  28
TORSDOF 7
ENDMDL
MODEL      301
REMARK 921   NORMALIZED FREE ENERGY PREDICTED BY IDOCK:   -2.99 KCAL/MOL
REMARK 922        TOTAL FREE ENERGY PREDICTED BY IDOCK:   -6.84 KCAL/MOL
REMARK 923 INTER-LIGAND FREE ENERGY PREDICTED BY IDOCK:   -5.40 KCAL/MOL
REMARK 924 INTRA-LIGAND FREE ENERGY PREDICTED BY IDOCK:   -1.44 KCAL/MOL
REMARK 927      BINDING AFFINITY PREDICTED BY RF-SCORE:    0.00 PKD
ROOT
HETATM    1  C   UNL     1     -11.608   9.865  71.073  1.00  0.00    -0.470 C  
HETATM    2  C   UNL     1     -10.507   9.159  71.371  1.00  0.00    -0.414 C  
HETATM    3  C   UNL     1     -12.720   9.887  72.029  1.00  0.00    -0.366 C  
HETATM    4  H   UNL     1     -14.161  11.039  72.574  1.00  0.00     0.000 HD 
HETATM    5  O   UNL     1     -13.441  11.025  71.955  1.00  0.00    -0.349 OA 
ENDROOT
BRANCH   2   6
HETATM    6  C   UNL     1      -9.373   9.130  70.456  1.00  0.00    -0.287 A  
HETATM    7  C   UNL     1      -8.066   9.148  70.948  1.00  0.00    -0.201 A  
HETATM    8  C   UNL     1      -6.986   9.008  70.072  1.00  0.00    -0.050 A  
HETATM    9  C   UNL     1      -9.597   9.019  69.082  1.00  0.00    -0.161 A  
HETATM   10  C   UNL     1      -7.206   8.845  68.698  1.00  0.00    -0.072 A  
HETATM   11  C   UNL     1      -8.519   8.876  68.208  1.00  0.00    -0.130 A  
BRANCH  10  12
HETATM   12  C   UNL     1      -6.057   8.510  67.780  1.00  0.00    -0.048 C  
BRANCH  12  13
HETATM   13  N   UNL     1      -6.458   7.644  66.670  1.00  0.00    -0.052 NA 
HETATM   14  H   UNL     1      -6.284   8.088  65.769  1.00  0.00     0.000 HD 
BRANCH  13  15
HETATM   15  C   UNL     1      -5.810   6.324  66.753  1.00  0.00    -0.020 C  
BRANCH  15  16
HETATM   16  C   UNL     1      -6.518   5.350  67.708  1.00  0.00    -0.048 C  
BRANCH  16  17
HETATM   17  C   UNL     1      -7.953   5.122  67.344  1.00  0.00    -0.100 A  
HETATM   18  C   UNL     1      -9.054   5.155  68.185  1.00  0.00    -0.112 A  
HETATM   19  N   UNL     1     -10.158   4.832  67.434  1.00  0.00    -0.156 NA 
HETATM   20  C   UNL     1      -9.185   5.446  69.636  1.00  0.00    -0.153 C  
HETATM   21  H   UNL     1     -11.109   4.771  67.798  1.00  0.00     0.000 HD 
HETATM   22  C   UNL     1      -9.808   4.604  66.127  1.00  0.00    -0.226 A  
HETATM   23  C   UNL     1     -10.601   4.242  65.031  1.00  0.00    -0.168 A  
HETATM   24  C   UNL     1      -9.967   4.082  63.796  1.00  0.00    -0.148 A  
HETATM   25  C   UNL     1      -8.594   4.277  63.664  1.00  0.00    -0.110 A  
HETATM   26  C   UNL     1      -7.816   4.629  64.772  1.00  0.00    -0.087 A  
HETATM   27  C   UNL     1      -8.432   4.795  66.031  1.00  0.00    -0.116 A  
ENDBRANCH  16  17
ENDBRANCH  15  16
ENDBRANCH  13  15
ENDBRANCH  12  13
ENDBRANCH  10  12
ENDBRANCH   2   6
BRANCH   3  28
HETATM   28  N   UNL     1     -12.999   8.932  72.857  1.00  0.00    -0.673 NA 
HETATM   29  H   UNL     1     -12.381   8.621  73.607  1.00  0.00     0.000 HD 
HETATM   30  O   UNL     1     -14.261   8.380  72.592  1.00  0.00    -0.682 OA 
HETATM   31  H   UNL     1     -14.466   7.679  73.200  1.00  0.00     0.000 HD 
ENDBRANCH   3  28
TORSDOF 7
ENDMDL
MODEL      302
REMARK 921   NORMALIZED FREE ENERGY PREDICTED BY IDOCK:   -2.98 KCAL/MOL
REMARK 922        TOTAL FREE ENERGY PREDICTED BY IDOCK:   -6.84 KCAL/MOL
REMARK 923 INTER-LIGAND FREE ENERGY PREDICTED BY IDOCK:   -6.08 KCAL/MOL
REMARK 924 INTRA-LIGAND FREE ENERGY PREDICTED BY IDOCK:   -0.76 KCAL/MOL
REMARK 927      BINDING AFFINITY PREDICTED BY RF-SCORE:    0.00 PKD
ROOT
HETATM    1  C   UNL     1     -10.396   4.878  71.788  1.00  0.00    -0.249 C  
HETATM    2  C   UNL     1      -9.439   5.116  70.879  1.00  0.00    -0.223 C  
HETATM    3  C   UNL     1     -10.297   3.679  72.628  1.00  0.00    -0.147 C  
HETATM    4  H   UNL     1     -10.824   3.067  74.374  1.00  0.00     0.000 HD 
HETATM    5  O   UNL     1     -10.887   3.843  73.830  1.00  0.00    -0.217 OA 
ENDROOT
BRANCH   2   6
HETATM    6  C   UNL     1      -9.491   6.307  70.040  1.00  0.00    -0.167 A  
HETATM    7  C   UNL     1      -9.118   6.243  68.695  1.00  0.00    -0.126 A  
HETATM    8  C   UNL     1      -9.275   7.360  67.871  1.00  0.00    -0.132 A  
HETATM    9  C   UNL     1      -9.978   7.504  70.570  1.00  0.00    -0.184 A  
HETATM   10  C   UNL     1      -9.811   8.549  68.384  1.00  0.00    -0.189 A  
HETATM   11  C   UNL     1     -10.139   8.619  69.746  1.00  0.00    -0.199 A  
BRANCH  10  12
HETATM   12  C   UNL     1     -10.153   9.689  67.459  1.00  0.00    -0.197 C  
BRANCH  12  13
HETATM   13  N   UNL     1      -9.083  10.683  67.370  1.00  0.00    -0.139 NA 
HETATM   14  H   UNL     1      -8.867  10.915  66.400  1.00  0.00     0.000 HD 
BRANCH  13  15
HETATM   15  C   UNL     1      -9.398  11.889  68.154  1.00  0.00    -0.191 C  
BRANCH  15  16
HETATM   16  C   UNL     1     -10.750  12.522  67.791  1.00  0.00    -0.242 C  
BRANCH  16  17
HETATM   17  C   UNL     1     -10.608  13.740  66.930  1.00  0.00    -0.276 A  
HETATM   18  C   UNL     1     -10.463  13.789  65.553  1.00  0.00    -0.318 A  
HETATM   19  N   UNL     1     -10.310  15.108  65.200  1.00  0.00    -0.390 NA 
HETATM   20  C   UNL     1     -10.437  12.722  64.519  1.00  0.00    -0.392 C  
HETATM   21  H   UNL     1     -10.174  15.441  64.245  1.00  0.00     0.000 HD 
HETATM   22  C   UNL     1     -10.366  15.917  66.307  1.00  0.00    -0.314 A  
HETATM   23  C   UNL     1     -10.248  17.308  66.412  1.00  0.00    -0.333 A  
HETATM   24  C   UNL     1     -10.354  17.874  67.687  1.00  0.00    -0.387 A  
HETATM   25  C   UNL     1     -10.570  17.077  68.809  1.00  0.00    -0.346 A  
HETATM   26  C   UNL     1     -10.676  15.687  68.685  1.00  0.00    -0.256 A  
HETATM   27  C   UNL     1     -10.570  15.092  67.409  1.00  0.00    -0.271 A  
ENDBRANCH  16  17
ENDBRANCH  15  16
ENDBRANCH  13  15
ENDBRANCH  12  13
ENDBRANCH  10  12
ENDBRANCH   2   6
BRANCH   3  28
HETATM   28  N   UNL     1      -9.718   2.577  72.275  1.00  0.00    -0.124 NA 
HETATM   29  H   UNL     1     -10.066   1.952  71.547  1.00  0.00     0.000 HD 
HETATM   30  O   UNL     1      -8.551   2.353  73.020  1.00  0.00    -0.069 OA 
HETATM   31  H   UNL     1      -8.126   1.544  72.760  1.00  0.00     0.000 HD 
ENDBRANCH   3  28
TORSDOF 7
ENDMDL
MODEL      303
REMARK 921   NORMALIZED FREE ENERGY PREDICTED BY IDOCK:   -2.98 KCAL/MOL
REMARK 922        TOTAL FREE ENERGY PREDICTED BY IDOCK:   -6.84 KCAL/MOL
REMARK 923 INTER-LIGAND FREE ENERGY PREDICTED BY IDOCK:   -5.73 KCAL/MOL
REMARK 924 INTRA-LIGAND FREE ENERGY PREDICTED BY IDOCK:   -1.10 KCAL/MOL
REMARK 927      BINDING AFFINITY PREDICTED BY RF-SCORE:    0.00 PKD
ROOT
HETATM    1  C   UNL     1     -10.774  13.362  66.275  1.00  0.00    -0.290 C  
HETATM    2  C   UNL     1      -9.751  12.615  65.833  1.00  0.00    -0.212 C  
HETATM    3  C   UNL     1     -11.713  13.930  65.301  1.00  0.00    -0.340 C  
HETATM    4  H   UNL     1     -13.556  14.469  65.185  1.00  0.00     0.000 HD 
HETATM    5  O   UNL     1     -12.948  14.101  65.816  1.00  0.00    -0.492 OA 
ENDROOT
BRANCH   2   6
HETATM    6  C   UNL     1      -8.810  12.016  66.772  1.00  0.00    -0.198 A  
HETATM    7  C   UNL     1      -8.278  12.773  67.819  1.00  0.00    -0.176 A  
HETATM    8  C   UNL     1      -7.464  12.164  68.778  1.00  0.00    -0.075 A  
HETATM    9  C   UNL     1      -8.489  10.662  66.659  1.00  0.00    -0.137 A  
HETATM   10  C   UNL     1      -7.179  10.794  68.699  1.00  0.00    -0.089 A  
HETATM   11  C   UNL     1      -7.679  10.054  67.618  1.00  0.00    -0.091 A  
BRANCH  10  12
HETATM   12  C   UNL     1      -6.459  10.102  69.829  1.00  0.00    -0.072 C  
BRANCH  12  13
HETATM   13  N   UNL     1      -7.059   8.812  70.173  1.00  0.00    -0.043 NA 
HETATM   14  H   UNL     1      -6.371   8.177  70.579  1.00  0.00     0.000 HD 
BRANCH  13  15
HETATM   15  C   UNL     1      -8.225   8.978  71.057  1.00  0.00    -0.176 C  
BRANCH  15  16
HETATM   16  C   UNL     1      -9.535   8.453  70.450  1.00  0.00    -0.179 C  
BRANCH  16  17
HETATM   17  C   UNL     1      -9.601   6.957  70.417  1.00  0.00    -0.171 A  
HETATM   18  C   UNL     1      -9.374   6.125  69.333  1.00  0.00    -0.139 A  
HETATM   19  N   UNL     1      -9.599   4.834  69.746  1.00  0.00    -0.160 NA 
HETATM   20  C   UNL     1      -8.979   6.410  67.929  1.00  0.00    -0.114 C  
HETATM   21  H   UNL     1      -9.516   4.010  69.150  1.00  0.00     0.000 HD 
HETATM   22  C   UNL     1      -9.952   4.803  71.072  1.00  0.00    -0.209 A  
HETATM   23  C   UNL     1     -10.277   3.717  71.893  1.00  0.00    -0.111 A  
HETATM   24  C   UNL     1     -10.594   3.984  73.228  1.00  0.00    -0.270 A  
HETATM   25  C   UNL     1     -10.585   5.287  73.720  1.00  0.00    -0.330 A  
HETATM   26  C   UNL     1     -10.267   6.362  72.882  1.00  0.00    -0.209 A  
HETATM   27  C   UNL     1      -9.945   6.118  71.530  1.00  0.00    -0.211 A  
ENDBRANCH  16  17
ENDBRANCH  15  16
ENDBRANCH  13  15
ENDBRANCH  12  13
ENDBRANCH  10  12
ENDBRANCH   2   6
BRANCH   3  28
HETATM   28  N   UNL     1     -11.411  14.243  64.082  1.00  0.00    -0.608 NA 
HETATM   29  H   UNL     1     -11.438  13.592  63.297  1.00  0.00     0.000 HD 
HETATM   30  O   UNL     1     -11.041  15.592  63.979  1.00  0.00    -0.633 OA 
HETATM   31  H   UNL     1     -10.820  15.822  63.084  1.00  0.00     0.000 HD 
ENDBRANCH   3  28
TORSDOF 7
ENDMDL
MODEL      304
REMARK 921   NORMALIZED FREE ENERGY PREDICTED BY IDOCK:   -2.98 KCAL/MOL
REMARK 922        TOTAL FREE ENERGY PREDICTED BY IDOCK:   -6.83 KCAL/MOL
REMARK 923 INTER-LIGAND FREE ENERGY PREDICTED BY IDOCK:   -5.58 KCAL/MOL
REMARK 924 INTRA-LIGAND FREE ENERGY PREDICTED BY IDOCK:   -1.25 KCAL/MOL
REMARK 927      BINDING AFFINITY PREDICTED BY RF-SCORE:    0.00 PKD
ROOT
HETATM    1  C   UNL     1      -9.222   3.774  65.560  1.00  0.00    -0.153 C  
HETATM    2  C   UNL     1      -9.212   5.032  65.095  1.00  0.00    -0.100 C  
HETATM    3  C   UNL     1      -9.740   2.703  64.703  1.00  0.00    -0.045 C  
HETATM    4  H   UNL     1      -9.505   0.815  64.413  1.00  0.00     0.000 HD 
HETATM    5  O   UNL     1      -9.169   1.509  64.968  1.00  0.00    -0.123 OA 
ENDROOT
BRANCH   2   6
HETATM    6  C   UNL     1      -8.685   6.121  65.910  1.00  0.00    -0.158 A  
HETATM    7  C   UNL     1      -8.981   7.449  65.592  1.00  0.00     0.002 A  
HETATM    8  C   UNL     1      -8.566   8.479  66.439  1.00  0.00    -0.136 A  
HETATM    9  C   UNL     1      -7.935   5.829  67.051  1.00  0.00    -0.102 A  
HETATM   10  C   UNL     1      -7.856   8.190  67.612  1.00  0.00    -0.114 A  
HETATM   11  C   UNL     1      -7.524   6.858  67.899  1.00  0.00    -0.099 A  
BRANCH  10  12
HETATM   12  C   UNL     1      -7.572   9.279  68.616  1.00  0.00    -0.081 C  
BRANCH  12  13
HETATM   13  N   UNL     1      -7.727   8.825  69.999  1.00  0.00    -0.077 NA 
HETATM   14  H   UNL     1      -6.880   8.991  70.543  1.00  0.00     0.000 HD 
BRANCH  13  15
HETATM   15  C   UNL     1      -8.905   9.434  70.639  1.00  0.00    -0.220 C  
BRANCH  15  16
HETATM   16  C   UNL     1     -10.241   8.949  70.055  1.00  0.00    -0.214 C  
BRANCH  16  17
HETATM   17  C   UNL     1     -11.005   8.077  71.003  1.00  0.00    -0.263 A  
HETATM   18  C   UNL     1     -12.156   8.397  71.705  1.00  0.00    -0.328 A  
HETATM   19  N   UNL     1     -12.474   7.318  72.494  1.00  0.00    -0.489 NA 
HETATM   20  C   UNL     1     -12.995   9.624  71.729  1.00  0.00    -0.514 C  
HETATM   21  H   UNL     1     -13.273   7.277  73.127  1.00  0.00     0.000 HD 
HETATM   22  C   UNL     1     -11.570   6.301  72.314  1.00  0.00    -0.309 A  
HETATM   23  C   UNL     1     -11.503   5.038  72.915  1.00  0.00    -0.306 A  
HETATM   24  C   UNL     1     -10.460   4.191  72.529  1.00  0.00    -0.205 A  
HETATM   25  C   UNL     1      -9.524   4.593  71.579  1.00  0.00    -0.214 A  
HETATM   26  C   UNL     1      -9.602   5.862  70.996  1.00  0.00    -0.197 A  
HETATM   27  C   UNL     1     -10.644   6.737  71.371  1.00  0.00    -0.247 A  
ENDBRANCH  16  17
ENDBRANCH  15  16
ENDBRANCH  13  15
ENDBRANCH  12  13
ENDBRANCH  10  12
ENDBRANCH   2   6
BRANCH   3  28
HETATM   28  N   UNL     1     -10.645   2.861  63.791  1.00  0.00    -0.354 NA 
HETATM   29  H   UNL     1     -10.767   3.713  63.243  1.00  0.00     0.000 HD 
HETATM   30  O   UNL     1     -11.435   1.710  63.652  1.00  0.00    -0.534 OA 
HETATM   31  H   UNL     1     -12.099   1.827  62.982  1.00  0.00     0.000 HD 
ENDBRANCH   3  28
TORSDOF 7
ENDMDL
MODEL      305
REMARK 921   NORMALIZED FREE ENERGY PREDICTED BY IDOCK:   -2.98 KCAL/MOL
REMARK 922        TOTAL FREE ENERGY PREDICTED BY IDOCK:   -6.82 KCAL/MOL
REMARK 923 INTER-LIGAND FREE ENERGY PREDICTED BY IDOCK:   -6.19 KCAL/MOL
REMARK 924 INTRA-LIGAND FREE ENERGY PREDICTED BY IDOCK:   -0.63 KCAL/MOL
REMARK 927      BINDING AFFINITY PREDICTED BY RF-SCORE:    0.00 PKD
ROOT
HETATM    1  C   UNL     1     -10.427   4.981  72.115  1.00  0.00    -0.274 C  
HETATM    2  C   UNL     1      -9.558   5.110  71.102  1.00  0.00    -0.224 C  
HETATM    3  C   UNL     1     -10.409   3.751  72.915  1.00  0.00    -0.165 C  
HETATM    4  H   UNL     1     -10.812   3.159  74.700  1.00  0.00     0.000 HD 
HETATM    5  O   UNL     1     -10.824   3.955  74.183  1.00  0.00    -0.217 OA 
ENDROOT
BRANCH   2   6
HETATM    6  C   UNL     1      -9.531   6.326  70.298  1.00  0.00    -0.173 A  
HETATM    7  C   UNL     1      -8.334   7.021  70.106  1.00  0.00    -0.138 A  
HETATM    8  C   UNL     1      -8.294   8.121  69.245  1.00  0.00    -0.130 A  
HETATM    9  C   UNL     1     -10.697   6.762  69.665  1.00  0.00    -0.290 A  
HETATM   10  C   UNL     1      -9.449   8.532  68.567  1.00  0.00    -0.146 A  
HETATM   11  C   UNL     1     -10.656   7.858  68.802  1.00  0.00    -0.154 A  
BRANCH  10  12
HETATM   12  C   UNL     1      -9.366   9.597  67.502  1.00  0.00    -0.130 C  
BRANCH  12  13
HETATM   13  N   UNL     1      -8.004  10.097  67.310  1.00  0.00    -0.109 NA 
HETATM   14  H   UNL     1      -7.745  10.106  66.324  1.00  0.00     0.000 HD 
BRANCH  13  15
HETATM   15  C   UNL     1      -7.822  11.421  67.927  1.00  0.00    -0.117 C  
BRANCH  15  16
HETATM   16  C   UNL     1      -9.138  12.184  68.146  1.00  0.00    -0.196 C  
BRANCH  16  17
HETATM   17  C   UNL     1      -9.323  13.311  67.177  1.00  0.00    -0.240 A  
HETATM   18  C   UNL     1      -8.478  14.390  66.965  1.00  0.00    -0.181 A  
HETATM   19  N   UNL     1      -9.071  15.202  66.029  1.00  0.00    -0.472 NA 
HETATM   20  C   UNL     1      -7.167  14.755  67.561  1.00  0.00    -0.222 C  
HETATM   21  H   UNL     1      -8.675  16.077  65.686  1.00  0.00     0.000 HD 
HETATM   22  C   UNL     1     -10.269  14.675  65.617  1.00  0.00    -0.359 A  
HETATM   23  C   UNL     1     -11.201  15.167  64.695  1.00  0.00    -0.352 A  
HETATM   24  C   UNL     1     -12.349  14.405  64.462  1.00  0.00    -0.440 A  
HETATM   25  C   UNL     1     -12.554  13.197  65.126  1.00  0.00    -0.525 A  
HETATM   26  C   UNL     1     -11.616  12.725  66.051  1.00  0.00    -0.432 A  
HETATM   27  C   UNL     1     -10.450  13.478  66.305  1.00  0.00    -0.290 A  
ENDBRANCH  16  17
ENDBRANCH  15  16
ENDBRANCH  13  15
ENDBRANCH  12  13
ENDBRANCH  10  12
ENDBRANCH   2   6
BRANCH   3  28
HETATM   28  N   UNL     1     -10.044   2.590  72.474  1.00  0.00    -0.154 NA 
HETATM   29  H   UNL     1     -10.532   2.073  71.742  1.00  0.00     0.000 HD 
HETATM   30  O   UNL     1      -8.893   2.134  73.132  1.00  0.00    -0.066 OA 
HETATM   31  H   UNL     1      -8.625   1.282  72.808  1.00  0.00     0.000 HD 
ENDBRANCH   3  28
TORSDOF 7
ENDMDL
MODEL      306
REMARK 921   NORMALIZED FREE ENERGY PREDICTED BY IDOCK:   -2.98 KCAL/MOL
REMARK 922        TOTAL FREE ENERGY PREDICTED BY IDOCK:   -6.82 KCAL/MOL
REMARK 923 INTER-LIGAND FREE ENERGY PREDICTED BY IDOCK:   -6.33 KCAL/MOL
REMARK 924 INTRA-LIGAND FREE ENERGY PREDICTED BY IDOCK:   -0.50 KCAL/MOL
REMARK 927      BINDING AFFINITY PREDICTED BY RF-SCORE:    0.00 PKD
ROOT
HETATM    1  C   UNL     1      -8.201  17.846  66.288  1.00  0.00    -0.246 C  
HETATM    2  C   UNL     1      -8.168  17.038  67.359  1.00  0.00    -0.199 C  
HETATM    3  C   UNL     1      -7.839  19.258  66.451  1.00  0.00    -0.291 C  
HETATM    4  H   UNL     1      -7.088  20.705  65.429  1.00  0.00     0.000 HD 
HETATM    5  O   UNL     1      -7.322  19.790  65.324  1.00  0.00    -0.386 OA 
ENDROOT
BRANCH   2   6
HETATM    6  C   UNL     1      -8.500  15.624  67.233  1.00  0.00    -0.214 A  
HETATM    7  C   UNL     1      -9.501  15.209  66.350  1.00  0.00    -0.325 A  
HETATM    8  C   UNL     1      -9.738  13.846  66.153  1.00  0.00    -0.289 A  
HETATM    9  C   UNL     1      -7.770  14.676  67.953  1.00  0.00    -0.149 A  
HETATM   10  C   UNL     1      -8.974  12.889  66.834  1.00  0.00    -0.210 A  
HETATM   11  C   UNL     1      -8.004  13.316  67.753  1.00  0.00    -0.166 A  
BRANCH  10  12
HETATM   12  C   UNL     1      -9.102  11.427  66.485  1.00  0.00    -0.186 C  
BRANCH  12  13
HETATM   13  N   UNL     1     -10.495  10.999  66.354  1.00  0.00    -0.254 NA 
HETATM   14  H   UNL     1     -10.587  10.224  65.697  1.00  0.00     0.000 HD 
BRANCH  13  15
HETATM   15  C   UNL     1     -11.084  10.668  67.662  1.00  0.00    -0.319 C  
BRANCH  15  16
HETATM   16  C   UNL     1     -10.735   9.255  68.154  1.00  0.00    -0.205 C  
BRANCH  16  17
HETATM   17  C   UNL     1     -10.642   9.166  69.646  1.00  0.00    -0.237 A  
HETATM   18  C   UNL     1     -11.509   9.710  70.580  1.00  0.00    -0.306 A  
HETATM   19  N   UNL     1     -11.004   9.429  71.827  1.00  0.00    -0.323 NA 
HETATM   20  C   UNL     1     -12.768  10.486  70.432  1.00  0.00    -0.325 C  
HETATM   21  H   UNL     1     -11.434   9.718  72.705  1.00  0.00     0.000 HD 
HETATM   22  C   UNL     1      -9.841   8.707  71.728  1.00  0.00    -0.295 A  
HETATM   23  C   UNL     1      -8.995   8.221  72.732  1.00  0.00    -0.323 A  
HETATM   24  C   UNL     1      -7.865   7.499  72.335  1.00  0.00    -0.112 A  
HETATM   25  C   UNL     1      -7.596   7.273  70.987  1.00  0.00    -0.084 A  
HETATM   26  C   UNL     1      -8.448   7.775  69.998  1.00  0.00    -0.135 A  
HETATM   27  C   UNL     1      -9.594   8.509  70.373  1.00  0.00    -0.189 A  
ENDBRANCH  16  17
ENDBRANCH  15  16
ENDBRANCH  13  15
ENDBRANCH  12  13
ENDBRANCH  10  12
ENDBRANCH   2   6
BRANCH   3  28
HETATM   28  N   UNL     1      -7.994  19.938  67.541  1.00  0.00    -0.287 NA 
HETATM   29  H   UNL     1      -8.899  20.216  67.923  1.00  0.00     0.000 HD 
HETATM   30  O   UNL     1      -6.758  20.242  68.131  1.00  0.00    -0.276 OA 
HETATM   31  H   UNL     1      -6.872  20.741  68.932  1.00  0.00     0.000 HD 
ENDBRANCH   3  28
TORSDOF 7
ENDMDL
MODEL      307
REMARK 921   NORMALIZED FREE ENERGY PREDICTED BY IDOCK:   -2.95 KCAL/MOL
REMARK 922        TOTAL FREE ENERGY PREDICTED BY IDOCK:   -6.79 KCAL/MOL
REMARK 923 INTER-LIGAND FREE ENERGY PREDICTED BY IDOCK:   -6.13 KCAL/MOL
REMARK 924 INTRA-LIGAND FREE ENERGY PREDICTED BY IDOCK:   -0.65 KCAL/MOL
REMARK 927      BINDING AFFINITY PREDICTED BY RF-SCORE:    0.00 PKD
ROOT
HETATM    1  C   UNL     1      -6.944   3.605  65.733  1.00  0.00    -0.058 C  
HETATM    2  C   UNL     1      -6.911   4.723  64.993  1.00  0.00    -0.053 C  
HETATM    3  C   UNL     1      -6.137   2.453  65.318  1.00  0.00    -0.019 C  
HETATM    4  H   UNL     1      -5.238   0.938  66.093  1.00  0.00     0.000 HD 
HETATM    5  O   UNL     1      -5.761   1.685  66.362  1.00  0.00    -0.016 OA 
ENDROOT
BRANCH   2   6
HETATM    6  C   UNL     1      -7.683   5.896  65.385  1.00  0.00    -0.093 A  
HETATM    7  C   UNL     1      -8.895   5.750  66.065  1.00  0.00    -0.150 A  
HETATM    8  C   UNL     1      -9.573   6.878  66.534  1.00  0.00    -0.197 A  
HETATM    9  C   UNL     1      -7.175   7.173  65.133  1.00  0.00    -0.073 A  
HETATM   10  C   UNL     1      -9.044   8.159  66.330  1.00  0.00    -0.231 A  
HETATM   11  C   UNL     1      -7.851   8.298  65.605  1.00  0.00    -0.104 A  
BRANCH  10  12
HETATM   12  C   UNL     1      -9.676   9.357  66.993  1.00  0.00    -0.178 C  
BRANCH  12  13
HETATM   13  N   UNL     1      -9.358   9.444  68.419  1.00  0.00    -0.134 NA 
HETATM   14  H   UNL     1      -8.350   9.438  68.577  1.00  0.00     0.000 HD 
BRANCH  13  15
HETATM   15  C   UNL     1      -9.994  10.616  69.044  1.00  0.00    -0.213 C  
BRANCH  15  16
HETATM   16  C   UNL     1     -11.457  10.821  68.622  1.00  0.00    -0.365 C  
BRANCH  16  17
HETATM   17  C   UNL     1     -11.707  12.176  68.037  1.00  0.00    -0.409 A  
HETATM   18  C   UNL     1     -11.976  13.354  68.717  1.00  0.00    -0.324 A  
HETATM   19  N   UNL     1     -12.194  14.333  67.779  1.00  0.00    -0.598 NA 
HETATM   20  C   UNL     1     -12.066  13.663  70.168  1.00  0.00    -0.431 C  
HETATM   21  H   UNL     1     -12.424  15.303  67.995  1.00  0.00     0.000 HD 
HETATM   22  C   UNL     1     -12.061  13.829  66.510  1.00  0.00    -0.443 A  
HETATM   23  C   UNL     1     -12.206  14.461  65.269  1.00  0.00    -0.377 A  
HETATM   24  C   UNL     1     -12.001  13.691  64.120  1.00  0.00    -0.488 A  
HETATM   25  C   UNL     1     -11.665  12.343  64.212  1.00  0.00    -0.452 A  
HETATM   26  C   UNL     1     -11.535  11.725  65.460  1.00  0.00    -0.241 A  
HETATM   27  C   UNL     1     -11.738  12.481  66.635  1.00  0.00    -0.453 A  
ENDBRANCH  16  17
ENDBRANCH  15  16
ENDBRANCH  13  15
ENDBRANCH  12  13
ENDBRANCH  10  12
ENDBRANCH   2   6
BRANCH   3  28
HETATM   28  N   UNL     1      -5.813   2.182  64.095  1.00  0.00    -0.013 NA 
HETATM   29  H   UNL     1      -4.916   2.420  63.670  1.00  0.00     0.000 HD 
HETATM   30  O   UNL     1      -6.853   1.518  63.428  1.00  0.00    -0.021 OA 
HETATM   31  H   UNL     1      -6.615   1.319  62.530  1.00  0.00     0.000 HD 
ENDBRANCH   3  28
TORSDOF 7
ENDMDL
MODEL      308
REMARK 921   NORMALIZED FREE ENERGY PREDICTED BY IDOCK:   -2.94 KCAL/MOL
REMARK 922        TOTAL FREE ENERGY PREDICTED BY IDOCK:   -6.77 KCAL/MOL
REMARK 923 INTER-LIGAND FREE ENERGY PREDICTED BY IDOCK:   -6.47 KCAL/MOL
REMARK 924 INTRA-LIGAND FREE ENERGY PREDICTED BY IDOCK:   -0.31 KCAL/MOL
REMARK 927      BINDING AFFINITY PREDICTED BY RF-SCORE:    0.00 PKD
ROOT
HETATM    1  C   UNL     1     -12.155  14.691  70.834  1.00  0.00    -0.393 C  
HETATM    2  C   UNL     1     -12.490  13.394  70.762  1.00  0.00    -0.418 C  
HETATM    3  C   UNL     1     -12.689  15.504  71.932  1.00  0.00    -0.417 C  
HETATM    4  H   UNL     1     -12.214  17.048  72.976  1.00  0.00     0.000 HD 
HETATM    5  O   UNL     1     -11.868  16.522  72.265  1.00  0.00    -0.519 OA 
ENDROOT
BRANCH   2   6
HETATM    6  C   UNL     1     -11.962  12.549  69.697  1.00  0.00    -0.339 A  
HETATM    7  C   UNL     1     -12.061  11.158  69.785  1.00  0.00    -0.414 A  
HETATM    8  C   UNL     1     -11.654  10.360  68.713  1.00  0.00    -0.188 A  
HETATM    9  C   UNL     1     -11.413  13.137  68.556  1.00  0.00    -0.338 A  
HETATM   10  C   UNL     1     -11.149  10.946  67.544  1.00  0.00    -0.375 A  
HETATM   11  C   UNL     1     -11.011  12.340  67.484  1.00  0.00    -0.298 A  
BRANCH  10  12
HETATM   12  C   UNL     1     -10.886  10.100  66.323  1.00  0.00     0.120 C  
BRANCH  12  13
HETATM   13  N   UNL     1      -9.493   9.660  66.233  1.00  0.00    -0.183 NA 
HETATM   14  H   UNL     1      -8.862  10.447  66.080  1.00  0.00     0.000 HD 
BRANCH  13  15
HETATM   15  C   UNL     1      -9.097   8.875  67.413  1.00  0.00    -0.132 C  
BRANCH  15  16
HETATM   16  C   UNL     1      -7.673   8.305  67.323  1.00  0.00    -0.101 C  
BRANCH  16  17
HETATM   17  C   UNL     1      -7.645   6.888  66.838  1.00  0.00    -0.094 A  
HETATM   18  C   UNL     1      -7.032   6.397  65.696  1.00  0.00    -0.057 A  
HETATM   19  N   UNL     1      -7.313   5.055  65.619  1.00  0.00    -0.075 NA 
HETATM   20  C   UNL     1      -6.214   7.059  64.647  1.00  0.00    -0.037 C  
HETATM   21  H   UNL     1      -6.996   4.437  64.872  1.00  0.00     0.000 HD 
HETATM   22  C   UNL     1      -8.079   4.657  66.686  1.00  0.00    -0.103 A  
HETATM   23  C   UNL     1      -8.598   3.395  67.002  1.00  0.00    -0.119 A  
HETATM   24  C   UNL     1      -9.350   3.278  68.175  1.00  0.00    -0.244 A  
HETATM   25  C   UNL     1      -9.570   4.380  68.998  1.00  0.00    -0.244 A  
HETATM   26  C   UNL     1      -9.052   5.635  68.662  1.00  0.00    -0.124 A  
HETATM   27  C   UNL     1      -8.291   5.779  67.481  1.00  0.00    -0.104 A  
ENDBRANCH  16  17
ENDBRANCH  15  16
ENDBRANCH  13  15
ENDBRANCH  12  13
ENDBRANCH  10  12
ENDBRANCH   2   6
BRANCH   3  28
HETATM   28  N   UNL     1     -13.818  15.290  72.525  1.00  0.00    -0.511 NA 
HETATM   29  H   UNL     1     -14.465  14.540  72.280  1.00  0.00     0.000 HD 
HETATM   30  O   UNL     1     -14.041  16.222  73.550  1.00  0.00    -0.760 OA 
HETATM   31  H   UNL     1     -14.870  16.065  73.985  1.00  0.00     0.000 HD 
ENDBRANCH   3  28
TORSDOF 7
ENDMDL
MODEL      309
REMARK 921   NORMALIZED FREE ENERGY PREDICTED BY IDOCK:   -2.94 KCAL/MOL
REMARK 922        TOTAL FREE ENERGY PREDICTED BY IDOCK:   -6.77 KCAL/MOL
REMARK 923 INTER-LIGAND FREE ENERGY PREDICTED BY IDOCK:   -5.92 KCAL/MOL
REMARK 924 INTRA-LIGAND FREE ENERGY PREDICTED BY IDOCK:   -0.85 KCAL/MOL
REMARK 927      BINDING AFFINITY PREDICTED BY RF-SCORE:    0.00 PKD
ROOT
HETATM    1  C   UNL     1      -7.581   8.946  69.409  1.00  0.00    -0.081 C  
HETATM    2  C   UNL     1      -8.333  10.032  69.174  1.00  0.00    -0.146 C  
HETATM    3  C   UNL     1      -7.144   8.666  70.781  1.00  0.00    -0.061 C  
HETATM    4  H   UNL     1      -6.681   7.167  71.894  1.00  0.00     0.000 HD 
HETATM    5  O   UNL     1      -6.965   7.348  71.005  1.00  0.00    -0.057 OA 
ENDROOT
BRANCH   2   6
HETATM    6  C   UNL     1      -8.805  10.332  67.827  1.00  0.00    -0.125 A  
HETATM    7  C   UNL     1     -10.130  10.072  67.468  1.00  0.00    -0.243 A  
HETATM    8  C   UNL     1     -10.603  10.464  66.213  1.00  0.00    -0.180 A  
HETATM    9  C   UNL     1      -7.942  10.940  66.913  1.00  0.00    -0.138 A  
HETATM   10  C   UNL     1      -9.757  11.121  65.310  1.00  0.00    -0.285 A  
HETATM   11  C   UNL     1      -8.416  11.335  65.661  1.00  0.00     0.022 A  
BRANCH  10  12
HETATM   12  C   UNL     1     -10.313  11.706  64.036  1.00  0.00    -0.357 C  
BRANCH  12  13
HETATM   13  N   UNL     1     -10.115  13.154  63.948  1.00  0.00    -0.764 NA 
HETATM   14  H   UNL     1     -10.406  13.516  63.040  1.00  0.00     0.000 HD 
BRANCH  13  15
HETATM   15  C   UNL     1     -10.789  13.859  65.050  1.00  0.00    -0.382 C  
BRANCH  15  16
HETATM   16  C   UNL     1     -10.271  15.288  65.274  1.00  0.00    -0.397 C  
BRANCH  16  17
HETATM   17  C   UNL     1      -9.544  15.444  66.575  1.00  0.00    -0.298 A  
HETATM   18  C   UNL     1      -9.813  14.805  67.775  1.00  0.00    -0.214 A  
HETATM   19  N   UNL     1      -8.933  15.293  68.710  1.00  0.00    -0.188 NA 
HETATM   20  C   UNL     1     -10.826  13.784  68.150  1.00  0.00    -0.261 C  
HETATM   21  H   UNL     1      -8.908  15.006  69.689  1.00  0.00     0.000 HD 
HETATM   22  C   UNL     1      -8.092  16.221  68.149  1.00  0.00    -0.158 A  
HETATM   23  C   UNL     1      -7.062  16.970  68.729  1.00  0.00    -0.219 A  
HETATM   24  C   UNL     1      -6.354  17.848  67.903  1.00  0.00    -0.178 A  
HETATM   25  C   UNL     1      -6.666  17.969  66.551  1.00  0.00    -0.243 A  
HETATM   26  C   UNL     1      -7.705  17.219  65.991  1.00  0.00    -0.223 A  
HETATM   27  C   UNL     1      -8.436  16.327  66.804  1.00  0.00    -0.283 A  
ENDBRANCH  16  17
ENDBRANCH  15  16
ENDBRANCH  13  15
ENDBRANCH  12  13
ENDBRANCH  10  12
ENDBRANCH   2   6
BRANCH   3  28
HETATM   28  N   UNL     1      -6.943   9.567  71.688  1.00  0.00    -0.290 NA 
HETATM   29  H   UNL     1      -7.605  10.307  71.921  1.00  0.00     0.000 HD 
HETATM   30  O   UNL     1      -5.697   9.394  72.309  1.00  0.00    -0.174 OA 
HETATM   31  H   UNL     1      -5.549  10.055  72.975  1.00  0.00     0.000 HD 
ENDBRANCH   3  28
TORSDOF 7
ENDMDL
MODEL      310
REMARK 921   NORMALIZED FREE ENERGY PREDICTED BY IDOCK:   -2.93 KCAL/MOL
REMARK 922        TOTAL FREE ENERGY PREDICTED BY IDOCK:   -6.76 KCAL/MOL
REMARK 923 INTER-LIGAND FREE ENERGY PREDICTED BY IDOCK:   -3.98 KCAL/MOL
REMARK 924 INTRA-LIGAND FREE ENERGY PREDICTED BY IDOCK:   -2.78 KCAL/MOL
REMARK 927      BINDING AFFINITY PREDICTED BY RF-SCORE:    0.00 PKD
ROOT
HETATM    1  C   UNL     1      -8.655  19.318  66.089  1.00  0.00    -0.267 C  
HETATM    2  C   UNL     1      -8.645  18.306  66.969  1.00  0.00    -0.259 C  
HETATM    3  C   UNL     1      -7.872  20.523  66.382  1.00  0.00    -0.048 C  
HETATM    4  H   UNL     1      -6.952  21.934  65.453  1.00  0.00     0.000 HD 
HETATM    5  O   UNL     1      -7.459  21.153  65.263  1.00  0.00     0.548 OA 
ENDROOT
BRANCH   2   6
HETATM    6  C   UNL     1      -9.393  17.083  66.704  1.00  0.00    -0.274 A  
HETATM    7  C   UNL     1     -10.720  16.960  67.123  1.00  0.00    -0.180 A  
HETATM    8  C   UNL     1     -11.464  15.832  66.769  1.00  0.00     0.196 A  
HETATM    9  C   UNL     1      -8.798  16.054  65.970  1.00  0.00    -0.314 A  
HETATM   10  C   UNL     1     -10.889  14.820  65.990  1.00  0.00    -0.318 A  
HETATM   11  C   UNL     1      -9.542  14.930  65.613  1.00  0.00    -0.258 A  
BRANCH  10  12
HETATM   12  C   UNL     1     -11.741  13.697  65.453  1.00  0.00    -0.332 C  
BRANCH  12  13
HETATM   13  N   UNL     1     -11.479  12.422  66.122  1.00  0.00    -0.359 NA 
HETATM   14  H   UNL     1     -10.478  12.241  66.202  1.00  0.00     0.000 HD 
BRANCH  13  15
HETATM   15  C   UNL     1     -12.145  12.353  67.433  1.00  0.00    -0.004 C  
BRANCH  15  16
HETATM   16  C   UNL     1     -11.182  12.077  68.598  1.00  0.00    -0.309 C  
BRANCH  16  17
HETATM   17  C   UNL     1     -10.611  13.330  69.188  1.00  0.00    -0.011 A  
HETATM   18  C   UNL     1     -11.258  14.260  69.986  1.00  0.00    -0.099 A  
HETATM   19  N   UNL     1     -10.368  15.273  70.247  1.00  0.00    -0.496 NA 
HETATM   20  C   UNL     1     -12.642  14.312  70.525  1.00  0.00    -0.418 C  
HETATM   21  H   UNL     1     -10.577  16.100  70.806  1.00  0.00     0.000 HD 
HETATM   22  C   UNL     1      -9.156  15.020  69.654  1.00  0.00     0.014 A  
HETATM   23  C   UNL     1      -7.980  15.779  69.649  1.00  0.00    -0.027 A  
HETATM   24  C   UNL     1      -6.879  15.265  68.957  1.00  0.00    -0.130 A  
HETATM   25  C   UNL     1      -6.955  14.040  68.297  1.00  0.00    -0.107 A  
HETATM   26  C   UNL     1      -8.142  13.300  68.305  1.00  0.00    -0.156 A  
HETATM   27  C   UNL     1      -9.268  13.799  68.995  1.00  0.00     0.249 A  
ENDBRANCH  16  17
ENDBRANCH  15  16
ENDBRANCH  13  15
ENDBRANCH  12  13
ENDBRANCH  10  12
ENDBRANCH   2   6
BRANCH   3  28
HETATM   28  N   UNL     1      -7.601  20.955  67.571  1.00  0.00    -0.317 NA 
HETATM   29  H   UNL     1      -8.303  21.243  68.254  1.00  0.00     0.000 HD 
HETATM   30  O   UNL     1      -6.217  20.975  67.803  1.00  0.00    -0.305 OA 
HETATM   31  H   UNL     1      -6.018  21.292  68.676  1.00  0.00     0.000 HD 
ENDBRANCH   3  28
TORSDOF 7
ENDMDL
MODEL      311
REMARK 921   NORMALIZED FREE ENERGY PREDICTED BY IDOCK:   -2.93 KCAL/MOL
REMARK 922        TOTAL FREE ENERGY PREDICTED BY IDOCK:   -6.76 KCAL/MOL
REMARK 923 INTER-LIGAND FREE ENERGY PREDICTED BY IDOCK:   -6.53 KCAL/MOL
REMARK 924 INTRA-LIGAND FREE ENERGY PREDICTED BY IDOCK:   -0.23 KCAL/MOL
REMARK 927      BINDING AFFINITY PREDICTED BY RF-SCORE:    0.00 PKD
ROOT
HETATM    1  C   UNL     1      -9.401  16.235  65.982  1.00  0.00    -0.361 C  
HETATM    2  C   UNL     1     -10.047  15.414  66.824  1.00  0.00    -0.266 C  
HETATM    3  C   UNL     1      -9.308  17.661  66.311  1.00  0.00    -0.197 C  
HETATM    4  H   UNL     1      -8.140  19.160  66.011  1.00  0.00     0.000 HD 
HETATM    5  O   UNL     1      -8.200  18.236  65.798  1.00  0.00    -0.503 OA 
ENDROOT
BRANCH   2   6
HETATM    6  C   UNL     1     -10.142  13.986  66.542  1.00  0.00    -0.287 A  
HETATM    7  C   UNL     1     -11.196  13.487  65.772  1.00  0.00    -0.308 A  
HETATM    8  C   UNL     1     -11.221  12.137  65.413  1.00  0.00    -0.381 A  
HETATM    9  C   UNL     1      -9.140  13.124  66.991  1.00  0.00    -0.231 A  
HETATM   10  C   UNL     1     -10.191  11.277  65.818  1.00  0.00    -0.301 A  
HETATM   11  C   UNL     1      -9.163  11.777  66.630  1.00  0.00    -0.201 A  
BRANCH  10  12
HETATM   12  C   UNL     1     -10.121   9.870  65.279  1.00  0.00    -0.156 C  
BRANCH  12  13
HETATM   13  N   UNL     1      -8.842   9.219  65.569  1.00  0.00    -0.174 NA 
HETATM   14  H   UNL     1      -8.168   9.879  65.958  1.00  0.00     0.000 HD 
BRANCH  13  15
HETATM   15  C   UNL     1      -9.018   8.049  66.446  1.00  0.00    -0.169 C  
BRANCH  15  16
HETATM   16  C   UNL     1     -10.061   8.262  67.554  1.00  0.00    -0.287 C  
BRANCH  16  17
HETATM   17  C   UNL     1      -9.483   8.124  68.929  1.00  0.00    -0.151 A  
HETATM   18  C   UNL     1      -8.157   7.911  69.270  1.00  0.00    -0.126 A  
HETATM   19  N   UNL     1      -8.096   7.793  70.638  1.00  0.00    -0.101 NA 
HETATM   20  C   UNL     1      -6.927   7.789  68.445  1.00  0.00    -0.072 C  
HETATM   21  H   UNL     1      -7.241   7.622  71.168  1.00  0.00     0.000 HD 
HETATM   22  C   UNL     1      -9.342   7.938  71.194  1.00  0.00    -0.151 A  
HETATM   23  C   UNL     1      -9.741   7.882  72.535  1.00  0.00    -0.290 A  
HETATM   24  C   UNL     1     -11.097   8.076  72.817  1.00  0.00    -0.448 A  
HETATM   25  C   UNL     1     -12.014   8.317  71.796  1.00  0.00    -0.364 A  
HETATM   26  C   UNL     1     -11.597   8.360  70.461  1.00  0.00    -0.136 A  
HETATM   27  C   UNL     1     -10.234   8.165  70.151  1.00  0.00    -0.199 A  
ENDBRANCH  16  17
ENDBRANCH  15  16
ENDBRANCH  13  15
ENDBRANCH  12  13
ENDBRANCH  10  12
ENDBRANCH   2   6
BRANCH   3  28
HETATM   28  N   UNL     1     -10.179  18.315  67.009  1.00  0.00    -0.359 NA 
HETATM   29  H   UNL     1     -11.163  18.412  66.757  1.00  0.00     0.000 HD 
HETATM   30  O   UNL     1      -9.598  18.873  68.157  1.00  0.00    -0.308 OA 
HETATM   31  H   UNL     1     -10.238  19.353  68.669  1.00  0.00     0.000 HD 
ENDBRANCH   3  28
TORSDOF 7
ENDMDL
MODEL      312
REMARK 921   NORMALIZED FREE ENERGY PREDICTED BY IDOCK:   -2.90 KCAL/MOL
REMARK 922        TOTAL FREE ENERGY PREDICTED BY IDOCK:   -6.72 KCAL/MOL
REMARK 923 INTER-LIGAND FREE ENERGY PREDICTED BY IDOCK:   -5.85 KCAL/MOL
REMARK 924 INTRA-LIGAND FREE ENERGY PREDICTED BY IDOCK:   -0.87 KCAL/MOL
REMARK 927      BINDING AFFINITY PREDICTED BY RF-SCORE:    0.00 PKD
ROOT
HETATM    1  C   UNL     1      -9.233  16.112  66.037  1.00  0.00    -0.363 C  
HETATM    2  C   UNL     1      -9.858  15.154  66.737  1.00  0.00    -0.251 C  
HETATM    3  C   UNL     1      -9.431  17.515  66.418  1.00  0.00    -0.259 C  
HETATM    4  H   UNL     1      -8.496  19.195  66.357  1.00  0.00     0.000 HD 
HETATM    5  O   UNL     1      -8.368  18.287  66.111  1.00  0.00    -0.441 OA 
ENDROOT
BRANCH   2   6
HETATM    6  C   UNL     1      -9.669  13.747  66.403  1.00  0.00    -0.304 A  
HETATM    7  C   UNL     1     -10.394  13.165  65.360  1.00  0.00    -0.313 A  
HETATM    8  C   UNL     1     -10.129  11.849  64.973  1.00  0.00    -0.297 A  
HETATM    9  C   UNL     1      -8.711  12.996  67.088  1.00  0.00    -0.204 A  
HETATM   10  C   UNL     1      -9.134  11.107  65.623  1.00  0.00    -0.221 A  
HETATM   11  C   UNL     1      -8.444  11.684  66.699  1.00  0.00    -0.165 A  
BRANCH  10  12
HETATM   12  C   UNL     1      -8.721   9.758  65.088  1.00  0.00    -0.168 C  
BRANCH  12  13
HETATM   13  N   UNL     1      -7.566   9.202  65.794  1.00  0.00    -0.090 NA 
HETATM   14  H   UNL     1      -7.150   9.886  66.426  1.00  0.00     0.000 HD 
BRANCH  13  15
HETATM   15  C   UNL     1      -7.914   7.958  66.502  1.00  0.00    -0.102 C  
BRANCH  15  16
HETATM   16  C   UNL     1      -9.267   8.020  67.227  1.00  0.00    -0.164 C  
BRANCH  16  17
HETATM   17  C   UNL     1      -9.209   7.454  68.613  1.00  0.00    -0.143 A  
HETATM   18  C   UNL     1      -9.075   8.149  69.804  1.00  0.00    -0.148 A  
HETATM   19  N   UNL     1      -9.010   7.224  70.818  1.00  0.00    -0.151 NA 
HETATM   20  C   UNL     1      -8.987   9.602  70.101  1.00  0.00    -0.273 C  
HETATM   21  H   UNL     1      -8.901   7.452  71.806  1.00  0.00     0.000 HD 
HETATM   22  C   UNL     1      -9.111   5.949  70.320  1.00  0.00    -0.147 A  
HETATM   23  C   UNL     1      -9.083   4.717  70.984  1.00  0.00    -0.177 A  
HETATM   24  C   UNL     1      -9.217   3.560  70.212  1.00  0.00    -0.225 A  
HETATM   25  C   UNL     1      -9.375   3.635  68.830  1.00  0.00    -0.231 A  
HETATM   26  C   UNL     1      -9.391   4.875  68.182  1.00  0.00    -0.164 A  
HETATM   27  C   UNL     1      -9.255   6.058  68.940  1.00  0.00    -0.125 A  
ENDBRANCH  16  17
ENDBRANCH  15  16
ENDBRANCH  13  15
ENDBRANCH  12  13
ENDBRANCH  10  12
ENDBRANCH   2   6
BRANCH   3  28
HETATM   28  N   UNL     1     -10.498  17.982  66.981  1.00  0.00    -0.366 NA 
HETATM   29  H   UNL     1     -11.438  17.905  66.589  1.00  0.00     0.000 HD 
HETATM   30  O   UNL     1     -10.199  18.608  68.201  1.00  0.00    -0.357 OA 
HETATM   31  H   UNL     1     -10.983  18.950  68.614  1.00  0.00     0.000 HD 
ENDBRANCH   3  28
TORSDOF 7
ENDMDL
MODEL      313
REMARK 921   NORMALIZED FREE ENERGY PREDICTED BY IDOCK:   -2.89 KCAL/MOL
REMARK 922        TOTAL FREE ENERGY PREDICTED BY IDOCK:   -6.71 KCAL/MOL
REMARK 923 INTER-LIGAND FREE ENERGY PREDICTED BY IDOCK:   -5.07 KCAL/MOL
REMARK 924 INTRA-LIGAND FREE ENERGY PREDICTED BY IDOCK:   -1.64 KCAL/MOL
REMARK 927      BINDING AFFINITY PREDICTED BY RF-SCORE:    0.00 PKD
ROOT
HETATM    1  C   UNL     1     -11.584   8.848  71.185  1.00  0.00    -0.360 C  
HETATM    2  C   UNL     1     -11.326   8.097  70.104  1.00  0.00    -0.071 C  
HETATM    3  C   UNL     1     -12.482  10.000  71.053  1.00  0.00    -0.362 C  
HETATM    4  H   UNL     1     -13.715  11.026  72.116  1.00  0.00     0.000 HD 
HETATM    5  O   UNL     1     -13.133  10.279  72.201  1.00  0.00    -0.438 OA 
ENDROOT
BRANCH   2   6
HETATM    6  C   UNL     1     -10.455   6.931  70.201  1.00  0.00    -0.233 A  
HETATM    7  C   UNL     1     -10.810   5.730  69.582  1.00  0.00    -0.418 A  
HETATM    8  C   UNL     1      -9.921   4.652  69.585  1.00  0.00    -0.281 A  
HETATM    9  C   UNL     1      -9.229   7.038  70.861  1.00  0.00    -0.156 A  
HETATM   10  C   UNL     1      -8.668   4.769  70.202  1.00  0.00    -0.121 A  
HETATM   11  C   UNL     1      -8.340   5.963  70.860  1.00  0.00    -0.126 A  
BRANCH  10  12
HETATM   12  C   UNL     1      -7.640   3.677  70.045  1.00  0.00    -0.048 C  
BRANCH  12  13
HETATM   13  N   UNL     1      -7.291   3.429  68.646  1.00  0.00    -0.050 NA 
HETATM   14  H   UNL     1      -8.116   3.451  68.046  1.00  0.00     0.000 HD 
BRANCH  13  15
HETATM   15  C   UNL     1      -6.256   4.363  68.173  1.00  0.00    -0.036 C  
BRANCH  15  16
HETATM   16  C   UNL     1      -6.275   4.584  66.653  1.00  0.00    -0.032 C  
BRANCH  16  17
HETATM   17  C   UNL     1      -7.657   4.793  66.114  1.00  0.00    -0.090 A  
HETATM   18  C   UNL     1      -8.515   5.850  66.375  1.00  0.00    -0.120 A  
HETATM   19  N   UNL     1      -9.693   5.599  65.716  1.00  0.00    -0.365 NA 
HETATM   20  C   UNL     1      -8.354   7.078  67.196  1.00  0.00    -0.121 C  
HETATM   21  H   UNL     1     -10.511   6.208  65.737  1.00  0.00     0.000 HD 
HETATM   22  C   UNL     1      -9.621   4.416  65.023  1.00  0.00    -0.170 A  
HETATM   23  C   UNL     1     -10.581   3.775  64.232  1.00  0.00    -0.241 A  
HETATM   24  C   UNL     1     -10.224   2.564  63.631  1.00  0.00    -0.158 A  
HETATM   25  C   UNL     1      -8.956   2.019  63.816  1.00  0.00    -0.092 A  
HETATM   26  C   UNL     1      -8.012   2.669  64.618  1.00  0.00    -0.078 A  
HETATM   27  C   UNL     1      -8.349   3.892  65.237  1.00  0.00    -0.105 A  
ENDBRANCH  16  17
ENDBRANCH  15  16
ENDBRANCH  13  15
ENDBRANCH  12  13
ENDBRANCH  10  12
ENDBRANCH   2   6
BRANCH   3  28
HETATM   28  N   UNL     1     -12.644  10.688  69.969  1.00  0.00    -0.484 NA 
HETATM   29  H   UNL     1     -13.301  10.445  69.226  1.00  0.00     0.000 HD 
HETATM   30  O   UNL     1     -11.802  11.809  69.946  1.00  0.00    -0.313 OA 
HETATM   31  H   UNL     1     -11.921  12.314  69.150  1.00  0.00     0.000 HD 
ENDBRANCH   3  28
TORSDOF 7
ENDMDL
MODEL      314
REMARK 921   NORMALIZED FREE ENERGY PREDICTED BY IDOCK:   -2.89 KCAL/MOL
REMARK 922        TOTAL FREE ENERGY PREDICTED BY IDOCK:   -6.70 KCAL/MOL
REMARK 923 INTER-LIGAND FREE ENERGY PREDICTED BY IDOCK:   -5.11 KCAL/MOL
REMARK 924 INTRA-LIGAND FREE ENERGY PREDICTED BY IDOCK:   -1.59 KCAL/MOL
REMARK 927      BINDING AFFINITY PREDICTED BY RF-SCORE:    0.00 PKD
ROOT
HETATM    1  C   UNL     1     -10.587  13.657  64.735  1.00  0.00    -0.436 C  
HETATM    2  C   UNL     1     -11.112  14.870  64.962  1.00  0.00    -0.422 C  
HETATM    3  C   UNL     1     -11.445  12.603  64.183  1.00  0.00    -0.387 C  
HETATM    4  H   UNL     1     -11.307  11.023  63.094  1.00  0.00     0.000 HD 
HETATM    5  O   UNL     1     -10.752  11.706  63.451  1.00  0.00    -0.386 OA 
ENDROOT
BRANCH   2   6
HETATM    6  C   UNL     1     -10.286  15.950  65.490  1.00  0.00    -0.425 A  
HETATM    7  C   UNL     1      -8.903  15.791  65.604  1.00  0.00     0.352 A  
HETATM    8  C   UNL     1      -8.106  16.866  66.006  1.00  0.00    -0.164 A  
HETATM    9  C   UNL     1     -10.876  17.171  65.825  1.00  0.00    -0.039 A  
HETATM   10  C   UNL     1      -8.686  18.109  66.294  1.00  0.00    -0.195 A  
HETATM   11  C   UNL     1     -10.080  18.245  66.222  1.00  0.00    -0.389 A  
BRANCH  10  12
HETATM   12  C   UNL     1      -7.814  19.314  66.546  1.00  0.00    -0.278 C  
BRANCH  12  13
HETATM   13  N   UNL     1      -6.812  19.076  67.585  1.00  0.00    -0.211 NA 
HETATM   14  H   UNL     1      -6.199  19.883  67.704  1.00  0.00     0.000 HD 
BRANCH  13  15
HETATM   15  C   UNL     1      -7.436  18.681  68.859  1.00  0.00    -0.270 C  
BRANCH  15  16
HETATM   16  C   UNL     1      -7.102  17.245  69.289  1.00  0.00    -0.155 C  
BRANCH  16  17
HETATM   17  C   UNL     1      -8.278  16.323  69.194  1.00  0.00    -0.215 A  
HETATM   18  C   UNL     1      -9.593  16.591  69.541  1.00  0.00    -0.004 A  
HETATM   19  N   UNL     1     -10.317  15.440  69.341  1.00  0.00    -0.242 NA 
HETATM   20  C   UNL     1     -10.252  17.818  70.059  1.00  0.00     0.839 C  
HETATM   21  H   UNL     1     -11.316  15.344  69.524  1.00  0.00     0.000 HD 
HETATM   22  C   UNL     1      -9.513  14.437  68.861  1.00  0.00    -0.107 A  
HETATM   23  C   UNL     1      -9.824  13.113  68.531  1.00  0.00    -0.155 A  
HETATM   24  C   UNL     1      -8.790  12.303  68.051  1.00  0.00    -0.182 A  
HETATM   25  C   UNL     1      -7.498  12.802  67.906  1.00  0.00    -0.127 A  
HETATM   26  C   UNL     1      -7.203  14.125  68.250  1.00  0.00    -0.116 A  
HETATM   27  C   UNL     1      -8.229  14.962  68.739  1.00  0.00    -0.161 A  
ENDBRANCH  16  17
ENDBRANCH  15  16
ENDBRANCH  13  15
ENDBRANCH  12  13
ENDBRANCH  10  12
ENDBRANCH   2   6
BRANCH   3  28
HETATM   28  N   UNL     1     -12.723  12.521  64.367  1.00  0.00    -0.711 NA 
HETATM   29  H   UNL     1     -13.198  12.777  65.233  1.00  0.00     0.000 HD 
HETATM   30  O   UNL     1     -13.373  12.035  63.223  1.00  0.00    -0.524 OA 
HETATM   31  H   UNL     1     -14.312  11.975  63.358  1.00  0.00     0.000 HD 
ENDBRANCH   3  28
TORSDOF 7
ENDMDL
MODEL      315
REMARK 921   NORMALIZED FREE ENERGY PREDICTED BY IDOCK:   -2.87 KCAL/MOL
REMARK 922        TOTAL FREE ENERGY PREDICTED BY IDOCK:   -6.68 KCAL/MOL
REMARK 923 INTER-LIGAND FREE ENERGY PREDICTED BY IDOCK:   -7.35 KCAL/MOL
REMARK 924 INTRA-LIGAND FREE ENERGY PREDICTED BY IDOCK:    0.67 KCAL/MOL
REMARK 927      BINDING AFFINITY PREDICTED BY RF-SCORE:    0.00 PKD
ROOT
HETATM    1  C   UNL     1      -9.376   3.556  68.866  1.00  0.00    -0.236 C  
HETATM    2  C   UNL     1      -9.329   4.023  70.122  1.00  0.00    -0.240 C  
HETATM    3  C   UNL     1      -8.458   2.481  68.471  1.00  0.00    -0.068 C  
HETATM    4  H   UNL     1      -8.370   1.011  67.234  1.00  0.00     0.000 HD 
HETATM    5  O   UNL     1      -8.965   1.706  67.490  1.00  0.00    -0.111 OA 
ENDROOT
BRANCH   2   6
HETATM    6  C   UNL     1     -10.240   5.075  70.558  1.00  0.00    -0.316 A  
HETATM    7  C   UNL     1     -10.856   5.909  69.621  1.00  0.00    -0.444 A  
HETATM    8  C   UNL     1     -11.810   6.841  70.036  1.00  0.00    -0.265 A  
HETATM    9  C   UNL     1     -10.545   5.207  71.914  1.00  0.00    -0.256 A  
HETATM   10  C   UNL     1     -12.158   6.944  71.390  1.00  0.00    -0.408 A  
HETATM   11  C   UNL     1     -11.501   6.135  72.328  1.00  0.00    -0.360 A  
BRANCH  10  12
HETATM   12  C   UNL     1     -13.316   7.815  71.812  1.00  0.00    -0.319 C  
BRANCH  12  13
HETATM   13  N   UNL     1     -12.898   9.169  72.177  1.00  0.00    -0.397 NA 
HETATM   14  H   UNL     1     -11.891   9.219  72.334  1.00  0.00     0.000 HD 
BRANCH  13  15
HETATM   15  C   UNL     1     -13.337  10.158  71.178  1.00  0.00    -0.295 C  
BRANCH  15  16
HETATM   16  C   UNL     1     -12.976  11.605  71.546  1.00  0.00    -0.463 C  
BRANCH  16  17
HETATM   17  C   UNL     1     -12.212  12.305  70.465  1.00  0.00    -0.387 A  
HETATM   18  C   UNL     1     -11.608  11.737  69.354  1.00  0.00    -0.322 A  
HETATM   19  N   UNL     1     -10.974  12.745  68.667  1.00  0.00    -0.251 NA 
HETATM   20  C   UNL     1     -11.546  10.335  68.867  1.00  0.00    -0.132 C  
HETATM   21  H   UNL     1     -10.438  12.614  67.809  1.00  0.00     0.000 HD 
HETATM   22  C   UNL     1     -11.162  13.952  69.292  1.00  0.00    -0.251 A  
HETATM   23  C   UNL     1     -10.693  15.226  68.951  1.00  0.00    -0.245 A  
HETATM   24  C   UNL     1     -11.051  16.293  69.779  1.00  0.00    -0.337 A  
HETATM   25  C   UNL     1     -11.848  16.091  70.904  1.00  0.00    -0.409 A  
HETATM   26  C   UNL     1     -12.300  14.809  71.235  1.00  0.00    -0.390 A  
HETATM   27  C   UNL     1     -11.950  13.715  70.415  1.00  0.00    -0.372 A  
ENDBRANCH  16  17
ENDBRANCH  15  16
ENDBRANCH  13  15
ENDBRANCH  12  13
ENDBRANCH  10  12
ENDBRANCH   2   6
BRANCH   3  28
HETATM   28  N   UNL     1      -7.289   2.284  68.990  1.00  0.00    -0.044 NA 
HETATM   29  H   UNL     1      -6.440   2.118  68.448  1.00  0.00     0.000 HD 
HETATM   30  O   UNL     1      -7.339   2.327  70.391  1.00  0.00    -0.033 OA 
HETATM   31  H   UNL     1      -6.480   2.182  70.771  1.00  0.00     0.000 HD 
ENDBRANCH   3  28
TORSDOF 7
ENDMDL
MODEL      316
REMARK 921   NORMALIZED FREE ENERGY PREDICTED BY IDOCK:   -2.86 KCAL/MOL
REMARK 922        TOTAL FREE ENERGY PREDICTED BY IDOCK:   -6.66 KCAL/MOL
REMARK 923 INTER-LIGAND FREE ENERGY PREDICTED BY IDOCK:   -5.70 KCAL/MOL
REMARK 924 INTRA-LIGAND FREE ENERGY PREDICTED BY IDOCK:   -0.96 KCAL/MOL
REMARK 927      BINDING AFFINITY PREDICTED BY RF-SCORE:    0.00 PKD
ROOT
HETATM    1  C   UNL     1      -6.214  16.881  69.461  1.00  0.00    -0.229 C  
HETATM    2  C   UNL     1      -7.116  17.153  68.506  1.00  0.00    -0.213 C  
HETATM    3  C   UNL     1      -5.584  17.991  70.183  1.00  0.00    -0.244 C  
HETATM    4  H   UNL     1      -4.811  18.369  71.904  1.00  0.00     0.000 HD 
HETATM    5  O   UNL     1      -5.219  17.649  71.436  1.00  0.00    -0.395 OA 
ENDROOT
BRANCH   2   6
HETATM    6  C   UNL     1      -7.779  16.076  67.781  1.00  0.00    -0.154 A  
HETATM    7  C   UNL     1      -7.465  14.742  68.055  1.00  0.00    -0.135 A  
HETATM    8  C   UNL     1      -8.181  13.714  67.436  1.00  0.00    -0.187 A  
HETATM    9  C   UNL     1      -8.778  16.379  66.854  1.00  0.00    -0.233 A  
HETATM   10  C   UNL     1      -9.219  14.012  66.543  1.00  0.00    -0.240 A  
HETATM   11  C   UNL     1      -9.496  15.353  66.240  1.00  0.00    -0.342 A  
BRANCH  10  12
HETATM   12  C   UNL     1     -10.111  12.913  66.021  1.00  0.00    -0.285 C  
BRANCH  12  13
HETATM   13  N   UNL     1      -9.371  11.894  65.276  1.00  0.00    -0.430 NA 
HETATM   14  H   UNL     1      -8.388  11.875  65.545  1.00  0.00     0.000 HD 
BRANCH  13  15
HETATM   15  C   UNL     1      -9.992  10.566  65.415  1.00  0.00    -0.289 C  
BRANCH  15  16
HETATM   16  C   UNL     1     -10.545  10.289  66.821  1.00  0.00    -0.252 C  
BRANCH  16  17
HETATM   17  C   UNL     1      -9.696   9.331  67.600  1.00  0.00    -0.195 A  
HETATM   18  C   UNL     1      -9.856   7.959  67.711  1.00  0.00    -0.163 A  
HETATM   19  N   UNL     1      -8.886   7.498  68.569  1.00  0.00    -0.127 NA 
HETATM   20  C   UNL     1     -10.837   7.022  67.107  1.00  0.00    -0.427 C  
HETATM   21  H   UNL     1      -8.770   6.523  68.843  1.00  0.00     0.000 HD 
HETATM   22  C   UNL     1      -8.093   8.530  69.006  1.00  0.00    -0.115 A  
HETATM   23  C   UNL     1      -7.005   8.519  69.887  1.00  0.00    -0.043 A  
HETATM   24  C   UNL     1      -6.371   9.737  70.150  1.00  0.00    -0.076 A  
HETATM   25  C   UNL     1      -6.810  10.917  69.554  1.00  0.00    -0.125 A  
HETATM   26  C   UNL     1      -7.905  10.910  68.683  1.00  0.00    -0.126 A  
HETATM   27  C   UNL     1      -8.563   9.693  68.403  1.00  0.00    -0.119 A  
ENDBRANCH  16  17
ENDBRANCH  15  16
ENDBRANCH  13  15
ENDBRANCH  12  13
ENDBRANCH  10  12
ENDBRANCH   2   6
BRANCH   3  28
HETATM   28  N   UNL     1      -5.388  19.172  69.692  1.00  0.00    -0.194 NA 
HETATM   29  H   UNL     1      -4.744  19.378  68.927  1.00  0.00     0.000 HD 
HETATM   30  O   UNL     1      -6.173  20.134  70.346  1.00  0.00    -0.365 OA 
HETATM   31  H   UNL     1      -6.028  21.000  69.985  1.00  0.00     0.000 HD 
ENDBRANCH   3  28
TORSDOF 7
ENDMDL
MODEL      317
REMARK 921   NORMALIZED FREE ENERGY PREDICTED BY IDOCK:   -2.86 KCAL/MOL
REMARK 922        TOTAL FREE ENERGY PREDICTED BY IDOCK:   -6.65 KCAL/MOL
REMARK 923 INTER-LIGAND FREE ENERGY PREDICTED BY IDOCK:   -5.16 KCAL/MOL
REMARK 924 INTRA-LIGAND FREE ENERGY PREDICTED BY IDOCK:   -1.49 KCAL/MOL
REMARK 927      BINDING AFFINITY PREDICTED BY RF-SCORE:    0.00 PKD
ROOT
HETATM    1  C   UNL     1      -9.920  13.290  66.933  1.00  0.00    -0.250 C  
HETATM    2  C   UNL     1      -8.690  12.909  66.557  1.00  0.00     0.039 C  
HETATM    3  C   UNL     1     -10.720  14.115  66.020  1.00  0.00    -0.299 C  
HETATM    4  H   UNL     1     -12.563  14.458  65.591  1.00  0.00     0.000 HD 
HETATM    5  O   UNL     1     -12.045  13.923  66.181  1.00  0.00    -0.398 OA 
ENDROOT
BRANCH   2   6
HETATM    6  C   UNL     1      -7.874  12.071  67.427  1.00  0.00    -0.162 A  
HETATM    7  C   UNL     1      -7.445  12.548  68.669  1.00  0.00    -0.090 A  
HETATM    8  C   UNL     1      -6.758  11.702  69.543  1.00  0.00    -0.089 A  
HETATM    9  C   UNL     1      -7.574  10.762  67.044  1.00  0.00    -0.114 A  
HETATM   10  C   UNL     1      -6.498  10.373  69.185  1.00  0.00    -0.048 A  
HETATM   11  C   UNL     1      -6.892   9.917  67.919  1.00  0.00    -0.076 A  
BRANCH  10  12
HETATM   12  C   UNL     1      -5.925   9.412  70.197  1.00  0.00    -0.037 C  
BRANCH  12  13
HETATM   13  N   UNL     1      -6.872   8.362  70.576  1.00  0.00    -0.036 NA 
HETATM   14  H   UNL     1      -6.396   7.479  70.761  1.00  0.00     0.000 HD 
BRANCH  13  15
HETATM   15  C   UNL     1      -7.706   8.773  71.717  1.00  0.00    -0.041 C  
BRANCH  15  16
HETATM   16  C   UNL     1      -9.192   8.942  71.363  1.00  0.00    -0.328 C  
BRANCH  16  17
HETATM   17  C   UNL     1      -9.780   7.719  70.729  1.00  0.00    -0.175 A  
HETATM   18  C   UNL     1     -10.137   6.533  71.351  1.00  0.00    -0.191 A  
HETATM   19  N   UNL     1     -10.578   5.671  70.377  1.00  0.00    -0.286 NA 
HETATM   20  C   UNL     1     -10.096   6.108  72.774  1.00  0.00    -0.195 C  
HETATM   21  H   UNL     1     -10.898   4.718  70.547  1.00  0.00     0.000 HD 
HETATM   22  C   UNL     1     -10.531   6.268  69.142  1.00  0.00    -0.239 A  
HETATM   23  C   UNL     1     -10.873   5.761  67.883  1.00  0.00    -0.257 A  
HETATM   24  C   UNL     1     -10.729   6.609  66.781  1.00  0.00    -0.329 A  
HETATM   25  C   UNL     1     -10.263   7.913  66.935  1.00  0.00    -0.380 A  
HETATM   26  C   UNL     1      -9.917   8.399  68.201  1.00  0.00    -0.224 A  
HETATM   27  C   UNL     1     -10.051   7.561  69.329  1.00  0.00    -0.188 A  
ENDBRANCH  16  17
ENDBRANCH  15  16
ENDBRANCH  13  15
ENDBRANCH  12  13
ENDBRANCH  10  12
ENDBRANCH   2   6
BRANCH   3  28
HETATM   28  N   UNL     1     -10.229  14.942  65.154  1.00  0.00    -0.388 NA 
HETATM   29  H   UNL     1      -9.436  14.736  64.546  1.00  0.00     0.000 HD 
HETATM   30  O   UNL     1     -10.929  16.158  65.158  1.00  0.00    -0.381 OA 
HETATM   31  H   UNL     1     -10.569  16.765  64.522  1.00  0.00     0.000 HD 
ENDBRANCH   3  28
TORSDOF 7
ENDMDL
MODEL      318
REMARK 921   NORMALIZED FREE ENERGY PREDICTED BY IDOCK:   -2.85 KCAL/MOL
REMARK 922        TOTAL FREE ENERGY PREDICTED BY IDOCK:   -6.65 KCAL/MOL
REMARK 923 INTER-LIGAND FREE ENERGY PREDICTED BY IDOCK:   -5.90 KCAL/MOL
REMARK 924 INTRA-LIGAND FREE ENERGY PREDICTED BY IDOCK:   -0.75 KCAL/MOL
REMARK 927      BINDING AFFINITY PREDICTED BY RF-SCORE:    0.00 PKD
ROOT
HETATM    1  C   UNL     1      -8.495   3.511  64.517  1.00  0.00    -0.093 C  
HETATM    2  C   UNL     1      -8.777   3.163  65.782  1.00  0.00    -0.128 C  
HETATM    3  C   UNL     1      -7.766   2.565  63.665  1.00  0.00    -0.068 C  
HETATM    4  H   UNL     1      -7.596   2.101  61.806  1.00  0.00     0.000 HD 
HETATM    5  O   UNL     1      -8.068   2.713  62.358  1.00  0.00    -0.068 OA 
ENDROOT
BRANCH   2   6
HETATM    6  C   UNL     1      -9.518   4.067  66.654  1.00  0.00    -0.214 A  
HETATM    7  C   UNL     1      -9.306   4.049  68.035  1.00  0.00    -0.220 A  
HETATM    8  C   UNL     1      -9.936   4.992  68.851  1.00  0.00    -0.236 A  
HETATM    9  C   UNL     1     -10.396   4.998  66.096  1.00  0.00    -0.309 A  
HETATM   10  C   UNL     1     -10.780   5.961  68.292  1.00  0.00    -0.319 A  
HETATM   11  C   UNL     1     -11.022   5.942  66.911  1.00  0.00    -0.304 A  
BRANCH  10  12
HETATM   12  C   UNL     1     -11.310   7.088  69.143  1.00  0.00     0.049 C  
BRANCH  12  13
HETATM   13  N   UNL     1     -10.281   8.072  69.480  1.00  0.00    -0.205 NA 
HETATM   14  H   UNL     1      -9.523   8.068  68.797  1.00  0.00     0.000 HD 
BRANCH  13  15
HETATM   15  C   UNL     1     -10.852   9.419  69.642  1.00  0.00    -0.228 C  
BRANCH  15  16
HETATM   16  C   UNL     1      -9.919  10.544  69.169  1.00  0.00    -0.236 C  
BRANCH  16  17
HETATM   17  C   UNL     1     -10.568  11.455  68.172  1.00  0.00    -0.220 A  
HETATM   18  C   UNL     1     -11.297  12.605  68.428  1.00  0.00    -0.290 A  
HETATM   19  N   UNL     1     -11.749  13.085  67.222  1.00  0.00    -0.361 NA 
HETATM   20  C   UNL     1     -11.632  13.306  69.694  1.00  0.00    -0.329 C  
HETATM   21  H   UNL     1     -12.323  13.921  67.109  1.00  0.00     0.000 HD 
HETATM   22  C   UNL     1     -11.323  12.287  66.191  1.00  0.00    -0.353 A  
HETATM   23  C   UNL     1     -11.554  12.394  64.814  1.00  0.00    -0.395 A  
HETATM   24  C   UNL     1     -10.981  11.427  63.983  1.00  0.00    -0.428 A  
HETATM   25  C   UNL     1     -10.206  10.397  64.510  1.00  0.00    -0.281 A  
HETATM   26  C   UNL     1      -9.993  10.301  65.889  1.00  0.00    -0.321 A  
HETATM   27  C   UNL     1     -10.563  11.264  66.750  1.00  0.00    -0.305 A  
ENDBRANCH  16  17
ENDBRANCH  15  16
ENDBRANCH  13  15
ENDBRANCH  12  13
ENDBRANCH  10  12
ENDBRANCH   2   6
BRANCH   3  28
HETATM   28  N   UNL     1      -6.922   1.684  64.095  1.00  0.00    -0.031 NA 
HETATM   29  H   UNL     1      -7.144   0.699  64.245  1.00  0.00     0.000 HD 
HETATM   30  O   UNL     1      -5.663   2.256  64.329  1.00  0.00    -0.009 OA 
HETATM   31  H   UNL     1      -5.044   1.608  64.645  1.00  0.00     0.000 HD 
ENDBRANCH   3  28
TORSDOF 7
ENDMDL
MODEL      319
REMARK 921   NORMALIZED FREE ENERGY PREDICTED BY IDOCK:   -2.83 KCAL/MOL
REMARK 922        TOTAL FREE ENERGY PREDICTED BY IDOCK:   -6.62 KCAL/MOL
REMARK 923 INTER-LIGAND FREE ENERGY PREDICTED BY IDOCK:   -6.09 KCAL/MOL
REMARK 924 INTRA-LIGAND FREE ENERGY PREDICTED BY IDOCK:   -0.53 KCAL/MOL
REMARK 927      BINDING AFFINITY PREDICTED BY RF-SCORE:    0.00 PKD
ROOT
HETATM    1  C   UNL     1     -12.440  13.965  69.462  1.00  0.00    -0.141 C  
HETATM    2  C   UNL     1     -11.791  14.518  68.426  1.00  0.00    -0.351 C  
HETATM    3  C   UNL     1     -12.661  14.766  70.671  1.00  0.00    -0.358 C  
HETATM    4  H   UNL     1     -13.916  14.910  72.122  1.00  0.00     0.000 HD 
HETATM    5  O   UNL     1     -13.773  14.392  71.339  1.00  0.00    -0.372 OA 
ENDROOT
BRANCH   2   6
HETATM    6  C   UNL     1     -11.570  13.761  67.199  1.00  0.00    -0.392 A  
HETATM    7  C   UNL     1     -11.662  14.389  65.954  1.00  0.00    -0.371 A  
HETATM    8  C   UNL     1     -11.341  13.686  64.791  1.00  0.00    -0.365 A  
HETATM    9  C   UNL     1     -11.203  12.416  67.274  1.00  0.00    -0.357 A  
HETATM   10  C   UNL     1     -10.922  12.351  64.863  1.00  0.00    -0.341 A  
HETATM   11  C   UNL     1     -10.878  11.715  66.113  1.00  0.00    -0.343 A  
BRANCH  10  12
HETATM   12  C   UNL     1     -10.399  11.651  63.633  1.00  0.00    -0.419 C  
BRANCH  12  13
HETATM   13  N   UNL     1      -9.067  11.080  63.834  1.00  0.00    -0.350 NA 
HETATM   14  H   UNL     1      -8.539  11.602  64.533  1.00  0.00     0.000 HD 
BRANCH  13  15
HETATM   15  C   UNL     1      -9.137   9.649  64.170  1.00  0.00    -0.209 C  
BRANCH  15  16
HETATM   16  C   UNL     1      -7.844   8.879  63.858  1.00  0.00    -0.137 C  
BRANCH  16  17
HETATM   17  C   UNL     1      -7.056   8.546  65.087  1.00  0.00    -0.075 A  
HETATM   18  C   UNL     1      -6.052   9.297  65.678  1.00  0.00    -0.059 A  
HETATM   19  N   UNL     1      -5.574   8.581  66.748  1.00  0.00    -0.036 NA 
HETATM   20  C   UNL     1      -5.475  10.623  65.337  1.00  0.00    -0.139 C  
HETATM   21  H   UNL     1      -4.821   8.889  67.363  1.00  0.00     0.000 HD 
HETATM   22  C   UNL     1      -6.248   7.392  66.878  1.00  0.00    -0.047 A  
HETATM   23  C   UNL     1      -6.085   6.361  67.811  1.00  0.00    -0.024 A  
HETATM   24  C   UNL     1      -6.930   5.252  67.707  1.00  0.00    -0.065 A  
HETATM   25  C   UNL     1      -7.898   5.180  66.708  1.00  0.00    -0.100 A  
HETATM   26  C   UNL     1      -8.040   6.216  65.779  1.00  0.00    -0.124 A  
HETATM   27  C   UNL     1      -7.198   7.346  65.862  1.00  0.00    -0.066 A  
ENDBRANCH  16  17
ENDBRANCH  15  16
ENDBRANCH  13  15
ENDBRANCH  12  13
ENDBRANCH  10  12
ENDBRANCH   2   6
BRANCH   3  28
HETATM   28  N   UNL     1     -11.890  15.723  71.073  1.00  0.00    -0.384 NA 
HETATM   29  H   UNL     1     -11.829  16.640  70.627  1.00  0.00     0.000 HD 
HETATM   30  O   UNL     1     -11.147  15.341  72.199  1.00  0.00    -0.462 OA 
HETATM   31  H   UNL     1     -10.580  16.044  72.494  1.00  0.00     0.000 HD 
ENDBRANCH   3  28
TORSDOF 7
ENDMDL
MODEL      320
REMARK 921   NORMALIZED FREE ENERGY PREDICTED BY IDOCK:   -2.82 KCAL/MOL
REMARK 922        TOTAL FREE ENERGY PREDICTED BY IDOCK:   -6.61 KCAL/MOL
REMARK 923 INTER-LIGAND FREE ENERGY PREDICTED BY IDOCK:   -6.49 KCAL/MOL
REMARK 924 INTRA-LIGAND FREE ENERGY PREDICTED BY IDOCK:   -0.12 KCAL/MOL
REMARK 927      BINDING AFFINITY PREDICTED BY RF-SCORE:    0.00 PKD
ROOT
HETATM    1  C   UNL     1      -7.772  18.641  66.631  1.00  0.00    -0.265 C  
HETATM    2  C   UNL     1      -8.516  17.782  67.344  1.00  0.00    -0.230 C  
HETATM    3  C   UNL     1      -7.929  20.081  66.863  1.00  0.00    -0.309 C  
HETATM    4  H   UNL     1      -6.901  21.704  66.752  1.00  0.00     0.000 HD 
HETATM    5  O   UNL     1      -6.799  20.771  66.602  1.00  0.00    -0.271 OA 
ENDROOT
BRANCH   2   6
HETATM    6  C   UNL     1      -8.373  16.343  67.157  1.00  0.00    -0.214 A  
HETATM    7  C   UNL     1      -7.537  15.601  67.996  1.00  0.00    -0.132 A  
HETATM    8  C   UNL     1      -7.490  14.209  67.883  1.00  0.00    -0.158 A  
HETATM    9  C   UNL     1      -9.124  15.696  66.174  1.00  0.00    -0.378 A  
HETATM   10  C   UNL     1      -8.281  13.549  66.933  1.00  0.00     0.046 A  
HETATM   11  C   UNL     1      -9.080  14.306  66.064  1.00  0.00     0.096 A  
BRANCH  10  12
HETATM   12  C   UNL     1      -8.371  12.043  66.934  1.00  0.00    -0.159 C  
BRANCH  12  13
HETATM   13  N   UNL     1      -8.151  11.467  68.261  1.00  0.00    -0.141 NA 
HETATM   14  H   UNL     1      -7.224  11.697  68.619  1.00  0.00     0.000 HD 
BRANCH  13  15
HETATM   15  C   UNL     1      -9.207  11.869  69.206  1.00  0.00     0.676 C  
BRANCH  15  16
HETATM   16  C   UNL     1     -10.624  11.507  68.735  1.00  0.00    -0.241 C  
BRANCH  16  17
HETATM   17  C   UNL     1     -11.328  12.656  68.081  1.00  0.00    -0.334 A  
HETATM   18  C   UNL     1     -11.816  13.803  68.686  1.00  0.00    -0.374 A  
HETATM   19  N   UNL     1     -12.435  14.552  67.714  1.00  0.00    -0.511 NA 
HETATM   20  C   UNL     1     -11.778  14.275  70.094  1.00  0.00    -0.357 C  
HETATM   21  H   UNL     1     -12.894  15.448  67.877  1.00  0.00     0.000 HD 
HETATM   22  C   UNL     1     -12.350  13.931  66.494  1.00  0.00    -0.404 A  
HETATM   23  C   UNL     1     -12.844  14.326  65.245  1.00  0.00    -0.300 A  
HETATM   24  C   UNL     1     -12.600  13.486  64.154  1.00  0.00    -0.188 A  
HETATM   25  C   UNL     1     -11.888  12.299  64.310  1.00  0.00    -0.482 A  
HETATM   26  C   UNL     1     -11.410  11.915  65.567  1.00  0.00    -0.334 A  
HETATM   27  C   UNL     1     -11.646  12.745  66.684  1.00  0.00    -0.430 A  
ENDBRANCH  16  17
ENDBRANCH  15  16
ENDBRANCH  13  15
ENDBRANCH  12  13
ENDBRANCH  10  12
ENDBRANCH   2   6
BRANCH   3  28
HETATM   28  N   UNL     1      -9.020  20.648  67.266  1.00  0.00    -0.510 NA 
HETATM   29  H   UNL     1      -9.130  21.107  68.171  1.00  0.00     0.000 HD 
HETATM   30  O   UNL     1     -10.033  20.550  66.301  1.00  0.00    -0.587 OA 
HETATM   31  H   UNL     1     -10.834  20.966  66.597  1.00  0.00     0.000 HD 
ENDBRANCH   3  28
TORSDOF 7
ENDMDL
MODEL      321
REMARK 921   NORMALIZED FREE ENERGY PREDICTED BY IDOCK:   -2.80 KCAL/MOL
REMARK 922        TOTAL FREE ENERGY PREDICTED BY IDOCK:   -6.58 KCAL/MOL
REMARK 923 INTER-LIGAND FREE ENERGY PREDICTED BY IDOCK:   -3.97 KCAL/MOL
REMARK 924 INTRA-LIGAND FREE ENERGY PREDICTED BY IDOCK:   -2.61 KCAL/MOL
REMARK 927      BINDING AFFINITY PREDICTED BY RF-SCORE:    0.00 PKD
ROOT
HETATM    1  C   UNL     1      -9.872   9.202  66.181  1.00  0.00    -0.363 C  
HETATM    2  C   UNL     1      -9.396   7.966  66.394  1.00  0.00    -0.247 C  
HETATM    3  C   UNL     1      -9.643   9.838  64.880  1.00  0.00    -0.246 C  
HETATM    4  H   UNL     1     -10.465  11.132  63.717  1.00  0.00     0.000 HD 
HETATM    5  O   UNL     1     -10.614  10.719  64.560  1.00  0.00    -0.336 OA 
ENDROOT
BRANCH   2   6
HETATM    6  C   UNL     1      -9.622   7.291  67.667  1.00  0.00    -0.160 A  
HETATM    7  C   UNL     1      -9.330   7.938  68.870  1.00  0.00    -0.150 A  
HETATM    8  C   UNL     1      -9.652   7.330  70.086  1.00  0.00    -0.168 A  
HETATM    9  C   UNL     1     -10.192   6.017  67.682  1.00  0.00    -0.221 A  
HETATM   10  C   UNL     1     -10.270   6.073  70.108  1.00  0.00    -0.267 A  
HETATM   11  C   UNL     1     -10.516   5.411  68.896  1.00  0.00    -0.238 A  
BRANCH  10  12
HETATM   12  C   UNL     1     -10.784   5.501  71.406  1.00  0.00    -0.221 C  
BRANCH  12  13
HETATM   13  N   UNL     1      -9.916   4.451  71.941  1.00  0.00    -0.183 NA 
HETATM   14  H   UNL     1      -9.805   3.684  71.278  1.00  0.00     0.000 HD 
BRANCH  13  15
HETATM   15  C   UNL     1      -8.613   4.991  72.363  1.00  0.00    -0.124 C  
BRANCH  15  16
HETATM   16  C   UNL     1      -7.414   4.199  71.817  1.00  0.00    -0.064 C  
BRANCH  16  17
HETATM   17  C   UNL     1      -7.058   4.581  70.414  1.00  0.00    -0.045 A  
HETATM   18  C   UNL     1      -6.379   5.713  69.992  1.00  0.00    -0.030 A  
HETATM   19  N   UNL     1      -6.327   5.679  68.620  1.00  0.00    -0.039 NA 
HETATM   20  C   UNL     1      -5.777   6.846  70.743  1.00  0.00    -0.027 C  
HETATM   21  H   UNL     1      -5.892   6.394  68.037  1.00  0.00     0.000 HD 
HETATM   22  C   UNL     1      -6.941   4.549  68.139  1.00  0.00    -0.056 A  
HETATM   23  C   UNL     1      -7.129   4.118  66.820  1.00  0.00    -0.064 A  
HETATM   24  C   UNL     1      -7.794   2.904  66.623  1.00  0.00    -0.076 A  
HETATM   25  C   UNL     1      -8.251   2.153  67.703  1.00  0.00    -0.074 A  
HETATM   26  C   UNL     1      -8.062   2.605  69.014  1.00  0.00    -0.066 A  
HETATM   27  C   UNL     1      -7.396   3.829  69.239  1.00  0.00    -0.053 A  
ENDBRANCH  16  17
ENDBRANCH  15  16
ENDBRANCH  13  15
ENDBRANCH  12  13
ENDBRANCH  10  12
ENDBRANCH   2   6
BRANCH   3  28
HETATM   28  N   UNL     1      -8.630   9.600  64.111  1.00  0.00    -0.180 NA 
HETATM   29  H   UNL     1      -8.617   8.888  63.380  1.00  0.00     0.000 HD 
HETATM   30  O   UNL     1      -7.552  10.447  64.411  1.00  0.00    -0.267 OA 
HETATM   31  H   UNL     1      -6.809  10.271  63.846  1.00  0.00     0.000 HD 
ENDBRANCH   3  28
TORSDOF 7
ENDMDL
MODEL      322
REMARK 921   NORMALIZED FREE ENERGY PREDICTED BY IDOCK:   -2.79 KCAL/MOL
REMARK 922        TOTAL FREE ENERGY PREDICTED BY IDOCK:   -6.56 KCAL/MOL
REMARK 923 INTER-LIGAND FREE ENERGY PREDICTED BY IDOCK:   -5.04 KCAL/MOL
REMARK 924 INTRA-LIGAND FREE ENERGY PREDICTED BY IDOCK:   -1.52 KCAL/MOL
REMARK 927      BINDING AFFINITY PREDICTED BY RF-SCORE:    0.00 PKD
ROOT
HETATM    1  C   UNL     1      -9.564  15.175  68.723  1.00  0.00    -0.219 C  
HETATM    2  C   UNL     1      -8.396  14.823  68.166  1.00  0.00    -0.144 C  
HETATM    3  C   UNL     1     -10.312  16.302  68.155  1.00  0.00    -0.277 C  
HETATM    4  H   UNL     1     -12.127  16.915  67.978  1.00  0.00     0.000 HD 
HETATM    5  O   UNL     1     -11.643  16.185  68.345  1.00  0.00    -0.355 OA 
ENDROOT
BRANCH   2   6
HETATM    6  C   UNL     1      -7.634  13.695  68.689  1.00  0.00    -0.115 A  
HETATM    7  C   UNL     1      -6.624  13.901  69.632  1.00  0.00    -0.082 A  
HETATM    8  C   UNL     1      -5.974  12.808  70.210  1.00  0.00    -0.127 A  
HETATM    9  C   UNL     1      -7.961  12.397  68.291  1.00  0.00    -0.160 A  
HETATM   10  C   UNL     1      -6.332  11.501  69.853  1.00  0.00    -0.136 A  
HETATM   11  C   UNL     1      -7.314  11.305  68.871  1.00  0.00    -0.115 A  
BRANCH  10  12
HETATM   12  C   UNL     1      -5.765  10.325  70.608  1.00  0.00    -0.090 C  
BRANCH  12  13
HETATM   13  N   UNL     1      -6.118   9.041  70.000  1.00  0.00    -0.036 NA 
HETATM   14  H   UNL     1      -5.287   8.525  69.709  1.00  0.00     0.000 HD 
BRANCH  13  15
HETATM   15  C   UNL     1      -6.967   8.235  70.893  1.00  0.00    -0.045 C  
BRANCH  15  16
HETATM   16  C   UNL     1      -8.074   7.464  70.158  1.00  0.00    -0.131 C  
BRANCH  16  17
HETATM   17  C   UNL     1      -9.177   8.354  69.674  1.00  0.00    -0.160 A  
HETATM   18  C   UNL     1     -10.229   8.873  70.412  1.00  0.00    -0.200 A  
HETATM   19  N   UNL     1     -11.028   9.585  69.551  1.00  0.00    -0.333 NA 
HETATM   20  C   UNL     1     -10.581   8.762  71.852  1.00  0.00    -0.425 C  
HETATM   21  H   UNL     1     -11.884  10.071  69.820  1.00  0.00     0.000 HD 
HETATM   22  C   UNL     1     -10.517   9.555  68.278  1.00  0.00    -0.223 A  
HETATM   23  C   UNL     1     -11.004  10.130  67.097  1.00  0.00    -0.204 A  
HETATM   24  C   UNL     1     -10.262   9.940  65.928  1.00  0.00    -0.264 A  
HETATM   25  C   UNL     1      -9.079   9.204  65.942  1.00  0.00    -0.256 A  
HETATM   26  C   UNL     1      -8.612   8.629  67.129  1.00  0.00    -0.123 A  
HETATM   27  C   UNL     1      -9.345   8.805  68.323  1.00  0.00    -0.143 A  
ENDBRANCH  16  17
ENDBRANCH  15  16
ENDBRANCH  13  15
ENDBRANCH  12  13
ENDBRANCH  10  12
ENDBRANCH   2   6
BRANCH   3  28
HETATM   28  N   UNL     1      -9.777  17.307  67.541  1.00  0.00    -0.259 NA 
HETATM   29  H   UNL     1      -8.809  17.335  67.217  1.00  0.00     0.000 HD 
HETATM   30  O   UNL     1     -10.697  18.354  67.377  1.00  0.00    -0.416 OA 
HETATM   31  H   UNL     1     -10.303  19.091  66.926  1.00  0.00     0.000 HD 
ENDBRANCH   3  28
TORSDOF 7
ENDMDL
MODEL      323
REMARK 921   NORMALIZED FREE ENERGY PREDICTED BY IDOCK:   -2.76 KCAL/MOL
REMARK 922        TOTAL FREE ENERGY PREDICTED BY IDOCK:   -6.52 KCAL/MOL
REMARK 923 INTER-LIGAND FREE ENERGY PREDICTED BY IDOCK:   -5.96 KCAL/MOL
REMARK 924 INTRA-LIGAND FREE ENERGY PREDICTED BY IDOCK:   -0.56 KCAL/MOL
REMARK 927      BINDING AFFINITY PREDICTED BY RF-SCORE:    0.00 PKD
ROOT
HETATM    1  C   UNL     1      -8.029   6.128  64.064  1.00  0.00    -0.110 C  
HETATM    2  C   UNL     1      -7.054   7.048  64.136  1.00  0.00    -0.063 C  
HETATM    3  C   UNL     1      -7.742   4.835  63.435  1.00  0.00    -0.070 C  
HETATM    4  H   UNL     1      -8.315   3.001  63.529  1.00  0.00     0.000 HD 
HETATM    5  O   UNL     1      -8.500   3.839  63.937  1.00  0.00    -0.090 OA 
ENDROOT
BRANCH   2   6
HETATM    6  C   UNL     1      -7.295   8.337  64.773  1.00  0.00    -0.088 A  
HETATM    7  C   UNL     1      -8.351   9.148  64.351  1.00  0.00    -0.180 A  
HETATM    8  C   UNL     1      -8.644  10.329  65.037  1.00  0.00    -0.190 A  
HETATM    9  C   UNL     1      -6.503   8.732  65.853  1.00  0.00    -0.057 A  
HETATM   10  C   UNL     1      -7.885  10.706  66.153  1.00  0.00    -0.152 A  
HETATM   11  C   UNL     1      -6.797   9.910  66.541  1.00  0.00    -0.085 A  
BRANCH  10  12
HETATM   12  C   UNL     1      -8.313  11.877  67.002  1.00  0.00    -0.178 C  
BRANCH  12  13
HETATM   13  N   UNL     1      -9.499  12.551  66.475  1.00  0.00    -0.238 NA 
HETATM   14  H   UNL     1      -9.627  12.359  65.481  1.00  0.00     0.000 HD 
BRANCH  13  15
HETATM   15  C   UNL     1     -10.704  12.209  67.248  1.00  0.00    -0.229 C  
BRANCH  15  16
HETATM   16  C   UNL     1     -11.883  13.165  67.006  1.00  0.00    -0.435 C  
BRANCH  16  17
HETATM   17  C   UNL     1     -11.498  14.368  66.200  1.00  0.00    -0.357 A  
HETATM   18  C   UNL     1     -11.485  14.492  64.820  1.00  0.00    -0.408 A  
HETATM   19  N   UNL     1     -11.010  15.747  64.522  1.00  0.00    -0.820 NA 
HETATM   20  C   UNL     1     -11.860  13.548  63.736  1.00  0.00    -0.429 C  
HETATM   21  H   UNL     1     -10.885  16.110  63.577  1.00  0.00     0.000 HD 
HETATM   22  C   UNL     1     -10.728  16.445  65.669  1.00  0.00    -0.270 A  
HETATM   23  C   UNL     1     -10.221  17.739  65.834  1.00  0.00    -0.231 A  
HETATM   24  C   UNL     1     -10.037  18.203  67.140  1.00  0.00    -0.358 A  
HETATM   25  C   UNL     1     -10.349  17.402  68.236  1.00  0.00    -0.374 A  
HETATM   26  C   UNL     1     -10.847  16.107  68.051  1.00  0.00    -0.333 A  
HETATM   27  C   UNL     1     -11.039  15.615  66.742  1.00  0.00    -0.169 A  
ENDBRANCH  16  17
ENDBRANCH  15  16
ENDBRANCH  13  15
ENDBRANCH  12  13
ENDBRANCH  10  12
ENDBRANCH   2   6
BRANCH   3  28
HETATM   28  N   UNL     1      -6.867   4.648  62.499  1.00  0.00    -0.030 NA 
HETATM   29  H   UNL     1      -6.958   5.005  61.547  1.00  0.00     0.000 HD 
HETATM   30  O   UNL     1      -5.780   3.893  62.961  1.00  0.00    -0.012 OA 
HETATM   31  H   UNL     1      -5.138   3.756  62.274  1.00  0.00     0.000 HD 
ENDBRANCH   3  28
TORSDOF 7
ENDMDL
MODEL      324
REMARK 921   NORMALIZED FREE ENERGY PREDICTED BY IDOCK:   -2.75 KCAL/MOL
REMARK 922        TOTAL FREE ENERGY PREDICTED BY IDOCK:   -6.50 KCAL/MOL
REMARK 923 INTER-LIGAND FREE ENERGY PREDICTED BY IDOCK:   -5.56 KCAL/MOL
REMARK 924 INTRA-LIGAND FREE ENERGY PREDICTED BY IDOCK:   -0.95 KCAL/MOL
REMARK 927      BINDING AFFINITY PREDICTED BY RF-SCORE:    0.00 PKD
ROOT
HETATM    1  C   UNL     1      -8.180   3.903  65.590  1.00  0.00    -0.105 C  
HETATM    2  C   UNL     1      -9.466   4.208  65.821  1.00  0.00    -0.177 C  
HETATM    3  C   UNL     1      -7.807   3.332  64.291  1.00  0.00    -0.081 C  
HETATM    4  H   UNL     1      -6.297   3.264  63.101  1.00  0.00     0.000 HD 
HETATM    5  O   UNL     1      -6.539   3.634  63.942  1.00  0.00    -0.036 OA 
ENDROOT
BRANCH   2   6
HETATM    6  C   UNL     1      -9.873   4.796  67.091  1.00  0.00    -0.222 A  
HETATM    7  C   UNL     1     -10.817   5.826  67.124  1.00  0.00    -0.308 A  
HETATM    8  C   UNL     1     -11.283   6.308  68.349  1.00  0.00    -0.272 A  
HETATM    9  C   UNL     1      -9.362   4.283  68.286  1.00  0.00    -0.207 A  
HETATM   10  C   UNL     1     -10.813   5.763  69.551  1.00  0.00    -0.410 A  
HETATM   11  C   UNL     1      -9.831   4.762  69.509  1.00  0.00    -0.292 A  
BRANCH  10  12
HETATM   12  C   UNL     1     -11.449   6.151  70.862  1.00  0.00    -0.248 C  
BRANCH  12  13
HETATM   13  N   UNL     1     -12.321   7.320  70.740  1.00  0.00    -0.558 NA 
HETATM   14  H   UNL     1     -13.280   7.049  70.520  1.00  0.00     0.000 HD 
BRANCH  13  15
HETATM   15  C   UNL     1     -12.264   8.165  71.945  1.00  0.00    -0.331 C  
BRANCH  15  16
HETATM   16  C   UNL     1     -10.840   8.593  72.329  1.00  0.00    -0.392 C  
BRANCH  16  17
HETATM   17  C   UNL     1     -10.020   9.010  71.147  1.00  0.00    -0.365 A  
HETATM   18  C   UNL     1     -10.394   9.859  70.118  1.00  0.00    -0.282 A  
HETATM   19  N   UNL     1      -9.351   9.911  69.225  1.00  0.00    -0.193 NA 
HETATM   20  C   UNL     1     -11.641  10.627  69.868  1.00  0.00    -0.396 C  
HETATM   21  H   UNL     1      -9.353  10.455  68.362  1.00  0.00     0.000 HD 
HETATM   22  C   UNL     1      -8.306   9.130  69.652  1.00  0.00    -0.130 A  
HETATM   23  C   UNL     1      -7.064   8.884  69.056  1.00  0.00    -0.064 A  
HETATM   24  C   UNL     1      -6.177   8.038  69.730  1.00  0.00    -0.029 A  
HETATM   25  C   UNL     1      -6.522   7.465  70.951  1.00  0.00    -0.039 A  
HETATM   26  C   UNL     1      -7.772   7.716  71.527  1.00  0.00    -0.085 A  
HETATM   27  C   UNL     1      -8.686   8.564  70.865  1.00  0.00    -0.196 A  
ENDBRANCH  16  17
ENDBRANCH  15  16
ENDBRANCH  13  15
ENDBRANCH  12  13
ENDBRANCH  10  12
ENDBRANCH   2   6
BRANCH   3  28
HETATM   28  N   UNL     1      -8.587   2.614  63.550  1.00  0.00    -0.086 NA 
HETATM   29  H   UNL     1      -9.559   2.846  63.343  1.00  0.00     0.000 HD 
HETATM   30  O   UNL     1      -7.926   1.475  63.067  1.00  0.00    -0.054 OA 
HETATM   31  H   UNL     1      -8.499   0.948  62.523  1.00  0.00     0.000 HD 
ENDBRANCH   3  28
TORSDOF 7
ENDMDL
MODEL      325
REMARK 921   NORMALIZED FREE ENERGY PREDICTED BY IDOCK:   -2.69 KCAL/MOL
REMARK 922        TOTAL FREE ENERGY PREDICTED BY IDOCK:   -6.42 KCAL/MOL
REMARK 923 INTER-LIGAND FREE ENERGY PREDICTED BY IDOCK:   -5.16 KCAL/MOL
REMARK 924 INTRA-LIGAND FREE ENERGY PREDICTED BY IDOCK:   -1.26 KCAL/MOL
REMARK 927      BINDING AFFINITY PREDICTED BY RF-SCORE:    0.00 PKD
ROOT
HETATM    1  C   UNL     1      -9.887   4.585  71.541  1.00  0.00    -0.260 C  
HETATM    2  C   UNL     1      -8.790   4.882  70.829  1.00  0.00    -0.154 C  
HETATM    3  C   UNL     1      -9.752   3.754  72.743  1.00  0.00    -0.139 C  
HETATM    4  H   UNL     1     -10.615   3.483  74.441  1.00  0.00     0.000 HD 
HETATM    5  O   UNL     1     -10.703   4.022  73.662  1.00  0.00    -0.186 OA 
ENDROOT
BRANCH   2   6
HETATM    6  C   UNL     1      -8.880   5.721  69.640  1.00  0.00    -0.124 A  
HETATM    7  C   UNL     1      -7.787   6.490  69.233  1.00  0.00    -0.110 A  
HETATM    8  C   UNL     1      -7.844   7.206  68.034  1.00  0.00    -0.118 A  
HETATM    9  C   UNL     1     -10.046   5.706  68.871  1.00  0.00    -0.254 A  
HETATM   10  C   UNL     1      -8.992   7.154  67.232  1.00  0.00    -0.123 A  
HETATM   11  C   UNL     1     -10.101   6.417  67.673  1.00  0.00    -0.181 A  
BRANCH  10  12
HETATM   12  C   UNL     1      -8.985   7.772  65.856  1.00  0.00    -0.113 C  
BRANCH  12  13
HETATM   13  N   UNL     1      -8.480   9.145  65.857  1.00  0.00    -0.135 NA 
HETATM   14  H   UNL     1      -8.243   9.457  64.916  1.00  0.00     0.000 HD 
BRANCH  13  15
HETATM   15  C   UNL     1      -9.425  10.068  66.508  1.00  0.00    -0.175 C  
BRANCH  15  16
HETATM   16  C   UNL     1      -8.797  10.896  67.639  1.00  0.00    -0.133 C  
BRANCH  16  17
HETATM   17  C   UNL     1      -9.819  11.503  68.550  1.00  0.00    -0.198 A  
HETATM   18  C   UNL     1     -10.484  10.891  69.600  1.00  0.00    -0.088 A  
HETATM   19  N   UNL     1     -11.369  11.806  70.119  1.00  0.00    -0.497 NA 
HETATM   20  C   UNL     1     -10.392   9.522  70.170  1.00  0.00    -0.300 C  
HETATM   21  H   UNL     1     -12.001  11.624  70.899  1.00  0.00     0.000 HD 
HETATM   22  C   UNL     1     -11.287  12.998  69.444  1.00  0.00    -0.206 A  
HETATM   23  C   UNL     1     -12.002  14.188  69.627  1.00  0.00    -0.389 A  
HETATM   24  C   UNL     1     -11.700  15.262  68.785  1.00  0.00    -0.374 A  
HETATM   25  C   UNL     1     -10.720  15.149  67.802  1.00  0.00    -0.279 A  
HETATM   26  C   UNL     1     -10.022  13.949  67.628  1.00  0.00    -0.237 A  
HETATM   27  C   UNL     1     -10.310  12.849  68.464  1.00  0.00    -0.239 A  
ENDBRANCH  16  17
ENDBRANCH  15  16
ENDBRANCH  13  15
ENDBRANCH  12  13
ENDBRANCH  10  12
ENDBRANCH   2   6
BRANCH   3  28
HETATM   28  N   UNL     1      -8.835   2.858  72.921  1.00  0.00    -0.082 NA 
HETATM   29  H   UNL     1      -7.833   3.043  72.873  1.00  0.00     0.000 HD 
HETATM   30  O   UNL     1      -9.396   1.601  73.188  1.00  0.00    -0.068 OA 
HETATM   31  H   UNL     1      -8.723   0.943  73.318  1.00  0.00     0.000 HD 
ENDBRANCH   3  28
TORSDOF 7
ENDMDL
MODEL      326
REMARK 921   NORMALIZED FREE ENERGY PREDICTED BY IDOCK:   -2.69 KCAL/MOL
REMARK 922        TOTAL FREE ENERGY PREDICTED BY IDOCK:   -6.42 KCAL/MOL
REMARK 923 INTER-LIGAND FREE ENERGY PREDICTED BY IDOCK:   -4.97 KCAL/MOL
REMARK 924 INTRA-LIGAND FREE ENERGY PREDICTED BY IDOCK:   -1.46 KCAL/MOL
REMARK 927      BINDING AFFINITY PREDICTED BY RF-SCORE:    0.00 PKD
ROOT
HETATM    1  C   UNL     1     -11.965  10.080  70.922  1.00  0.00    -0.453 C  
HETATM    2  C   UNL     1     -11.314   8.912  70.816  1.00  0.00    -0.325 C  
HETATM    3  C   UNL     1     -13.249  10.117  71.629  1.00  0.00    -0.418 C  
HETATM    4  H   UNL     1     -14.322  11.342  72.654  1.00  0.00     0.000 HD 
HETATM    5  O   UNL     1     -13.490  11.318  72.196  1.00  0.00    -0.390 OA 
ENDROOT
BRANCH   2   6
HETATM    6  C   UNL     1     -10.025   8.838  70.139  1.00  0.00    -0.201 A  
HETATM    7  C   UNL     1      -9.899   8.146  68.932  1.00  0.00    -0.178 A  
HETATM    8  C   UNL     1      -8.689   8.173  68.234  1.00  0.00    -0.133 A  
HETATM    9  C   UNL     1      -8.926   9.518  70.670  1.00  0.00    -0.226 A  
HETATM   10  C   UNL     1      -7.598   8.895  68.735  1.00  0.00    -0.091 A  
HETATM   11  C   UNL     1      -7.720   9.548  69.971  1.00  0.00    -0.146 A  
BRANCH  10  12
HETATM   12  C   UNL     1      -6.357   9.077  67.896  1.00  0.00    -0.056 C  
BRANCH  12  13
HETATM   13  N   UNL     1      -5.345   9.899  68.559  1.00  0.00    -0.036 NA 
HETATM   14  H   UNL     1      -4.410   9.508  68.440  1.00  0.00     0.000 HD 
BRANCH  13  15
HETATM   15  C   UNL     1      -5.403  11.299  68.107  1.00  0.00    -0.042 C  
BRANCH  15  16
HETATM   16  C   UNL     1      -5.948  11.462  66.680  1.00  0.00    -0.147 C  
BRANCH  16  17
HETATM   17  C   UNL     1      -7.170  12.327  66.621  1.00  0.00     0.301 A  
HETATM   18  C   UNL     1      -7.282  13.658  66.990  1.00  0.00     0.459 A  
HETATM   19  N   UNL     1      -8.595  14.025  66.821  1.00  0.00    -0.431 NA 
HETATM   20  C   UNL     1      -6.284  14.632  67.502  1.00  0.00    -0.005 C  
HETATM   21  H   UNL     1      -8.969  14.952  67.025  1.00  0.00     0.000 HD 
HETATM   22  C   UNL     1      -9.336  12.975  66.341  1.00  0.00    -0.182 A  
HETATM   23  C   UNL     1     -10.700  12.899  66.037  1.00  0.00    -0.296 A  
HETATM   24  C   UNL     1     -11.190  11.684  65.549  1.00  0.00    -0.267 A  
HETATM   25  C   UNL     1     -10.346  10.590  65.372  1.00  0.00    -0.292 A  
HETATM   26  C   UNL     1      -8.987  10.682  65.690  1.00  0.00    -0.203 A  
HETATM   27  C   UNL     1      -8.468  11.897  66.187  1.00  0.00     0.110 A  
ENDBRANCH  16  17
ENDBRANCH  15  16
ENDBRANCH  13  15
ENDBRANCH  12  13
ENDBRANCH  10  12
ENDBRANCH   2   6
BRANCH   3  28
HETATM   28  N   UNL     1     -14.076   9.125  71.709  1.00  0.00    -0.301 NA 
HETATM   29  H   UNL     1     -14.582   8.732  70.915  1.00  0.00     0.000 HD 
HETATM   30  O   UNL     1     -14.186   8.659  73.028  1.00  0.00    -1.016 OA 
HETATM   31  H   UNL     1     -14.793   7.930  73.086  1.00  0.00     0.000 HD 
ENDBRANCH   3  28
TORSDOF 7
ENDMDL
MODEL      327
REMARK 921   NORMALIZED FREE ENERGY PREDICTED BY IDOCK:   -2.68 KCAL/MOL
REMARK 922        TOTAL FREE ENERGY PREDICTED BY IDOCK:   -6.41 KCAL/MOL
REMARK 923 INTER-LIGAND FREE ENERGY PREDICTED BY IDOCK:   -5.73 KCAL/MOL
REMARK 924 INTRA-LIGAND FREE ENERGY PREDICTED BY IDOCK:   -0.68 KCAL/MOL
REMARK 927      BINDING AFFINITY PREDICTED BY RF-SCORE:    0.00 PKD
ROOT
HETATM    1  C   UNL     1      -9.560  16.183  67.076  1.00  0.00    -0.233 C  
HETATM    2  C   UNL     1     -10.639  15.387  67.111  1.00  0.00    -0.305 C  
HETATM    3  C   UNL     1      -9.748  17.638  67.090  1.00  0.00    -0.291 C  
HETATM    4  H   UNL     1      -8.829  19.228  67.663  1.00  0.00     0.000 HD 
HETATM    5  O   UNL     1      -8.707  18.285  67.654  1.00  0.00    -0.252 OA 
ENDROOT
BRANCH   2   6
HETATM    6  C   UNL     1     -10.493  13.936  67.120  1.00  0.00    -0.269 A  
HETATM    7  C   UNL     1     -11.609  13.112  66.955  1.00  0.00    -0.408 A  
HETATM    8  C   UNL     1     -11.446  11.728  66.854  1.00  0.00    -0.364 A  
HETATM    9  C   UNL     1      -9.220  13.372  67.229  1.00  0.00    -0.222 A  
HETATM   10  C   UNL     1     -10.168  11.159  66.912  1.00  0.00    -0.260 A  
HETATM   11  C   UNL     1      -9.058  11.990  67.124  1.00  0.00    -0.186 A  
BRANCH  10  12
HETATM   12  C   UNL     1      -9.975   9.692  66.618  1.00  0.00    -0.236 C  
BRANCH  12  13
HETATM   13  N   UNL     1     -11.093   8.872  67.086  1.00  0.00    -0.221 NA 
HETATM   14  H   UNL     1     -11.947   9.072  66.564  1.00  0.00     0.000 HD 
BRANCH  13  15
HETATM   15  C   UNL     1     -10.765   7.437  67.049  1.00  0.00    -0.319 C  
BRANCH  15  16
HETATM   16  C   UNL     1      -9.285   7.138  67.331  1.00  0.00    -0.137 C  
BRANCH  16  17
HETATM   17  C   UNL     1      -8.755   6.004  66.508  1.00  0.00    -0.128 A  
HETATM   18  C   UNL     1      -8.060   6.081  65.312  1.00  0.00    -0.134 A  
HETATM   19  N   UNL     1      -7.824   4.796  64.886  1.00  0.00    -0.089 NA 
HETATM   20  C   UNL     1      -7.597   7.240  64.506  1.00  0.00    -0.107 C  
HETATM   21  H   UNL     1      -7.336   4.550  64.025  1.00  0.00     0.000 HD 
HETATM   22  C   UNL     1      -8.335   3.887  65.779  1.00  0.00    -0.109 A  
HETATM   23  C   UNL     1      -8.332   2.487  65.741  1.00  0.00    -0.092 A  
HETATM   24  C   UNL     1      -8.929   1.808  66.807  1.00  0.00    -0.118 A  
HETATM   25  C   UNL     1      -9.504   2.504  67.868  1.00  0.00    -0.181 A  
HETATM   26  C   UNL     1      -9.505   3.902  67.884  1.00  0.00    -0.227 A  
HETATM   27  C   UNL     1      -8.911   4.611  66.818  1.00  0.00    -0.112 A  
ENDBRANCH  16  17
ENDBRANCH  15  16
ENDBRANCH  13  15
ENDBRANCH  12  13
ENDBRANCH  10  12
ENDBRANCH   2   6
BRANCH   3  28
HETATM   28  N   UNL     1     -10.784  18.252  66.617  1.00  0.00    -0.276 NA 
HETATM   29  H   UNL     1     -11.729  17.866  66.610  1.00  0.00     0.000 HD 
HETATM   30  O   UNL     1     -10.442  19.516  66.114  1.00  0.00    -0.458 OA 
HETATM   31  H   UNL     1     -11.203  19.966  65.767  1.00  0.00     0.000 HD 
ENDBRANCH   3  28
TORSDOF 7
ENDMDL
MODEL      328
REMARK 921   NORMALIZED FREE ENERGY PREDICTED BY IDOCK:   -2.66 KCAL/MOL
REMARK 922        TOTAL FREE ENERGY PREDICTED BY IDOCK:   -6.37 KCAL/MOL
REMARK 923 INTER-LIGAND FREE ENERGY PREDICTED BY IDOCK:   -4.51 KCAL/MOL
REMARK 924 INTRA-LIGAND FREE ENERGY PREDICTED BY IDOCK:   -1.86 KCAL/MOL
REMARK 927      BINDING AFFINITY PREDICTED BY RF-SCORE:    0.00 PKD
ROOT
HETATM    1  C   UNL     1      -9.980  10.801  66.064  1.00  0.00    -0.295 C  
HETATM    2  C   UNL     1      -9.486   9.769  65.364  1.00  0.00    -0.333 C  
HETATM    3  C   UNL     1     -11.157  11.510  65.552  1.00  0.00    -0.191 C  
HETATM    4  H   UNL     1     -12.663  12.513  66.207  1.00  0.00     0.000 HD 
HETATM    5  O   UNL     1     -11.900  12.053  66.539  1.00  0.00    -0.585 OA 
ENDROOT
BRANCH   2   6
HETATM    6  C   UNL     1      -8.329   9.026  65.851  1.00  0.00    -0.129 A  
HETATM    7  C   UNL     1      -8.252   8.637  67.190  1.00  0.00    -0.107 A  
HETATM    8  C   UNL     1      -7.196   7.832  67.624  1.00  0.00    -0.091 A  
HETATM    9  C   UNL     1      -7.325   8.648  64.957  1.00  0.00    -0.086 A  
HETATM   10  C   UNL     1      -6.212   7.407  66.722  1.00  0.00    -0.044 A  
HETATM   11  C   UNL     1      -6.273   7.841  65.390  1.00  0.00    -0.038 A  
BRANCH  10  12
HETATM   12  C   UNL     1      -5.180   6.391  67.146  1.00  0.00    -0.008 C  
BRANCH  12  13
HETATM   13  N   UNL     1      -5.585   5.640  68.335  1.00  0.00    -0.008 NA 
HETATM   14  H   UNL     1      -6.401   6.059  68.781  1.00  0.00     0.000 HD 
BRANCH  13  15
HETATM   15  C   UNL     1      -5.811   4.219  68.026  1.00  0.00    -0.026 C  
BRANCH  15  16
HETATM   16  C   UNL     1      -6.684   3.495  69.063  1.00  0.00    -0.044 C  
BRANCH  16  17
HETATM   17  C   UNL     1      -7.794   4.354  69.587  1.00  0.00    -0.057 A  
HETATM   18  C   UNL     1      -8.026   4.727  70.901  1.00  0.00    -0.082 A  
HETATM   19  N   UNL     1      -9.184   5.467  70.924  1.00  0.00    -0.148 NA 
HETATM   20  C   UNL     1      -7.281   4.452  72.157  1.00  0.00    -0.062 C  
HETATM   21  H   UNL     1      -9.601   5.866  71.764  1.00  0.00     0.000 HD 
HETATM   22  C   UNL     1      -9.702   5.596  69.660  1.00  0.00    -0.169 A  
HETATM   23  C   UNL     1     -10.860   6.251  69.224  1.00  0.00    -0.406 A  
HETATM   24  C   UNL     1     -11.144   6.227  67.855  1.00  0.00    -0.360 A  
HETATM   25  C   UNL     1     -10.300   5.573  66.960  1.00  0.00    -0.306 A  
HETATM   26  C   UNL     1      -9.152   4.916  67.415  1.00  0.00    -0.124 A  
HETATM   27  C   UNL     1      -8.845   4.924  68.793  1.00  0.00    -0.114 A  
ENDBRANCH  16  17
ENDBRANCH  15  16
ENDBRANCH  13  15
ENDBRANCH  12  13
ENDBRANCH  10  12
ENDBRANCH   2   6
BRANCH   3  28
HETATM   28  N   UNL     1     -11.466  11.618  64.300  1.00  0.00    -0.293 NA 
HETATM   29  H   UNL     1     -12.015  10.932  63.781  1.00  0.00     0.000 HD 
HETATM   30  O   UNL     1     -10.948  12.799  63.748  1.00  0.00    -0.409 OA 
HETATM   31  H   UNL     1     -11.175  12.878  62.828  1.00  0.00     0.000 HD 
ENDBRANCH   3  28
TORSDOF 7
ENDMDL
MODEL      329
REMARK 921   NORMALIZED FREE ENERGY PREDICTED BY IDOCK:   -2.63 KCAL/MOL
REMARK 922        TOTAL FREE ENERGY PREDICTED BY IDOCK:   -6.34 KCAL/MOL
REMARK 923 INTER-LIGAND FREE ENERGY PREDICTED BY IDOCK:   -5.02 KCAL/MOL
REMARK 924 INTRA-LIGAND FREE ENERGY PREDICTED BY IDOCK:   -1.32 KCAL/MOL
REMARK 927      BINDING AFFINITY PREDICTED BY RF-SCORE:    0.00 PKD
ROOT
HETATM    1  C   UNL     1      -8.889   5.287  66.758  1.00  0.00    -0.111 C  
HETATM    2  C   UNL     1     -10.055   5.365  67.417  1.00  0.00    -0.223 C  
HETATM    3  C   UNL     1      -8.571   4.060  66.019  1.00  0.00    -0.110 C  
HETATM    4  H   UNL     1      -7.558   3.496  64.483  1.00  0.00     0.000 HD 
HETATM    5  O   UNL     1      -7.765   4.290  64.962  1.00  0.00    -0.083 OA 
ENDROOT
BRANCH   2   6
HETATM    6  C   UNL     1     -10.416   6.576  68.146  1.00  0.00    -0.264 A  
HETATM    7  C   UNL     1     -10.760   6.511  69.498  1.00  0.00    -0.322 A  
HETATM    8  C   UNL     1     -10.997   7.686  70.216  1.00  0.00    -0.261 A  
HETATM    9  C   UNL     1     -10.355   7.813  67.502  1.00  0.00    -0.333 A  
HETATM   10  C   UNL     1     -10.888   8.934  69.589  1.00  0.00    -0.186 A  
HETATM   11  C   UNL     1     -10.587   8.986  68.220  1.00  0.00    -0.213 A  
BRANCH  10  12
HETATM   12  C   UNL     1     -10.959  10.202  70.403  1.00  0.00    -0.319 C  
BRANCH  12  13
HETATM   13  N   UNL     1     -12.140  11.007  70.087  1.00  0.00    -0.326 NA 
HETATM   14  H   UNL     1     -12.539  11.429  70.925  1.00  0.00     0.000 HD 
BRANCH  13  15
HETATM   15  C   UNL     1     -11.843  12.024  69.063  1.00  0.00    -0.315 C  
BRANCH  15  16
HETATM   16  C   UNL     1     -10.541  12.798  69.325  1.00  0.00     0.117 C  
BRANCH  16  17
HETATM   17  C   UNL     1      -9.537  12.631  68.226  1.00  0.00    -0.208 A  
HETATM   18  C   UNL     1      -9.600  13.139  66.939  1.00  0.00    -0.248 A  
HETATM   19  N   UNL     1      -8.493  12.690  66.261  1.00  0.00    -0.337 NA 
HETATM   20  C   UNL     1     -10.604  14.000  66.260  1.00  0.00    -0.281 C  
HETATM   21  H   UNL     1      -8.284  12.902  65.285  1.00  0.00     0.000 HD 
HETATM   22  C   UNL     1      -7.706  11.915  67.076  1.00  0.00    -0.146 A  
HETATM   23  C   UNL     1      -6.504  11.252  66.801  1.00  0.00    -0.136 A  
HETATM   24  C   UNL     1      -5.908  10.531  67.841  1.00  0.00    -0.043 A  
HETATM   25  C   UNL     1      -6.494  10.478  69.103  1.00  0.00    -0.054 A  
HETATM   26  C   UNL     1      -7.701  11.139  69.356  1.00  0.00     0.026 A  
HETATM   27  C   UNL     1      -8.323  11.872  68.323  1.00  0.00    -0.159 A  
ENDBRANCH  16  17
ENDBRANCH  15  16
ENDBRANCH  13  15
ENDBRANCH  12  13
ENDBRANCH  10  12
ENDBRANCH   2   6
BRANCH   3  28
HETATM   28  N   UNL     1      -9.001   2.880  66.330  1.00  0.00    -0.145 NA 
HETATM   29  H   UNL     1      -8.754   2.385  67.188  1.00  0.00     0.000 HD 
HETATM   30  O   UNL     1      -9.850   2.368  65.337  1.00  0.00    -0.343 OA 
HETATM   31  H   UNL     1     -10.165   1.501  65.566  1.00  0.00     0.000 HD 
ENDBRANCH   3  28
TORSDOF 7
ENDMDL
MODEL      330
REMARK 921   NORMALIZED FREE ENERGY PREDICTED BY IDOCK:   -2.63 KCAL/MOL
REMARK 922        TOTAL FREE ENERGY PREDICTED BY IDOCK:   -6.34 KCAL/MOL
REMARK 923 INTER-LIGAND FREE ENERGY PREDICTED BY IDOCK:   -3.98 KCAL/MOL
REMARK 924 INTRA-LIGAND FREE ENERGY PREDICTED BY IDOCK:   -2.36 KCAL/MOL
REMARK 927      BINDING AFFINITY PREDICTED BY RF-SCORE:    0.00 PKD
ROOT
HETATM    1  C   UNL     1      -8.025   8.911  65.037  1.00  0.00    -0.125 C  
HETATM    2  C   UNL     1      -7.735   9.683  66.095  1.00  0.00    -0.102 C  
HETATM    3  C   UNL     1      -6.953   8.554  64.101  1.00  0.00    -0.078 C  
HETATM    4  H   UNL     1      -6.478   7.136  62.890  1.00  0.00     0.000 HD 
HETATM    5  O   UNL     1      -7.172   7.367  63.497  1.00  0.00    -0.066 OA 
ENDROOT
BRANCH   2   6
HETATM    6  C   UNL     1      -8.768  10.042  67.059  1.00  0.00    -0.137 A  
HETATM    7  C   UNL     1      -8.420  10.483  68.338  1.00  0.00    -0.128 A  
HETATM    8  C   UNL     1      -9.409  10.930  69.217  1.00  0.00    -0.027 A  
HETATM    9  C   UNL     1     -10.111  10.004  66.678  1.00  0.00    -0.289 A  
HETATM   10  C   UNL     1     -10.754  10.942  68.823  1.00  0.00    -0.243 A  
HETATM   11  C   UNL     1     -11.099  10.453  67.554  1.00  0.00    -0.336 A  
BRANCH  10  12
HETATM   12  C   UNL     1     -11.796  11.594  69.697  1.00  0.00    -0.352 C  
BRANCH  12  13
HETATM   13  N   UNL     1     -12.015  13.001  69.358  1.00  0.00    -0.303 NA 
HETATM   14  H   UNL     1     -12.991  13.269  69.489  1.00  0.00     0.000 HD 
BRANCH  13  15
HETATM   15  C   UNL     1     -11.109  13.886  70.109  1.00  0.00     0.220 C  
BRANCH  15  16
HETATM   16  C   UNL     1     -10.457  14.976  69.245  1.00  0.00    -0.252 C  
BRANCH  16  17
HETATM   17  C   UNL     1      -9.342  14.451  68.394  1.00  0.00    -0.206 A  
HETATM   18  C   UNL     1      -9.409  14.039  67.072  1.00  0.00    -0.250 A  
HETATM   19  N   UNL     1      -8.163  13.583  66.717  1.00  0.00    -0.398 NA 
HETATM   20  C   UNL     1     -10.530  14.013  66.097  1.00  0.00    -0.297 C  
HETATM   21  H   UNL     1      -7.922  13.209  65.799  1.00  0.00     0.000 HD 
HETATM   22  C   UNL     1      -7.285  13.699  67.766  1.00  0.00    -0.164 A  
HETATM   23  C   UNL     1      -5.932  13.351  67.851  1.00  0.00    -0.140 A  
HETATM   24  C   UNL     1      -5.274  13.593  69.061  1.00  0.00    -0.073 A  
HETATM   25  C   UNL     1      -5.946  14.161  70.141  1.00  0.00    -0.151 A  
HETATM   26  C   UNL     1      -7.301  14.494  70.040  1.00  0.00     0.205 A  
HETATM   27  C   UNL     1      -7.988  14.258  68.829  1.00  0.00    -0.119 A  
ENDBRANCH  16  17
ENDBRANCH  15  16
ENDBRANCH  13  15
ENDBRANCH  12  13
ENDBRANCH  10  12
ENDBRANCH   2   6
BRANCH   3  28
HETATM   28  N   UNL     1      -5.910   9.281  63.863  1.00  0.00    -0.077 NA 
HETATM   29  H   UNL     1      -5.187   9.493  64.551  1.00  0.00     0.000 HD 
HETATM   30  O   UNL     1      -5.901   9.742  62.538  1.00  0.00    -0.089 OA 
HETATM   31  H   UNL     1      -5.135  10.276  62.364  1.00  0.00     0.000 HD 
ENDBRANCH   3  28
TORSDOF 7
ENDMDL
MODEL      331
REMARK 921   NORMALIZED FREE ENERGY PREDICTED BY IDOCK:   -2.60 KCAL/MOL
REMARK 922        TOTAL FREE ENERGY PREDICTED BY IDOCK:   -6.30 KCAL/MOL
REMARK 923 INTER-LIGAND FREE ENERGY PREDICTED BY IDOCK:   -5.80 KCAL/MOL
REMARK 924 INTRA-LIGAND FREE ENERGY PREDICTED BY IDOCK:   -0.50 KCAL/MOL
REMARK 927      BINDING AFFINITY PREDICTED BY RF-SCORE:    0.00 PKD
ROOT
HETATM    1  C   UNL     1      -9.640   3.851  64.493  1.00  0.00    -0.173 C  
HETATM    2  C   UNL     1      -9.551   3.964  65.827  1.00  0.00    -0.182 C  
HETATM    3  C   UNL     1      -9.398   2.544  63.872  1.00  0.00    -0.115 C  
HETATM    4  H   UNL     1      -9.919   1.543  62.314  1.00  0.00     0.000 HD 
HETATM    5  O   UNL     1     -10.077   2.390  62.717  1.00  0.00    -0.095 OA 
ENDROOT
BRANCH   2   6
HETATM    6  C   UNL     1      -9.806   5.242  66.482  1.00  0.00    -0.204 A  
HETATM    7  C   UNL     1     -10.600   5.302  67.630  1.00  0.00    -0.126 A  
HETATM    8  C   UNL     1     -10.749   6.510  68.315  1.00  0.00    -0.341 A  
HETATM    9  C   UNL     1      -9.199   6.401  65.995  1.00  0.00    -0.087 A  
HETATM   10  C   UNL     1     -10.101   7.667  67.860  1.00  0.00    -0.231 A  
HETATM   11  C   UNL     1      -9.344   7.607  66.681  1.00  0.00    -0.239 A  
BRANCH  10  12
HETATM   12  C   UNL     1     -10.110   8.921  68.698  1.00  0.00    -0.188 C  
BRANCH  12  13
HETATM   13  N   UNL     1     -10.233  10.136  67.891  1.00  0.00    -0.170 NA 
HETATM   14  H   UNL     1     -10.491   9.920  66.928  1.00  0.00     0.000 HD 
BRANCH  13  15
HETATM   15  C   UNL     1     -11.171  11.095  68.498  1.00  0.00    -0.258 C  
BRANCH  15  16
HETATM   16  C   UNL     1     -11.996  11.883  67.469  1.00  0.00    -0.102 C  
BRANCH  16  17
HETATM   17  C   UNL     1     -11.411  13.227  67.162  1.00  0.00    -0.351 A  
HETATM   18  C   UNL     1     -10.934  13.683  65.943  1.00  0.00    -0.282 A  
HETATM   19  N   UNL     1     -10.439  14.949  66.140  1.00  0.00    -0.294 NA 
HETATM   20  C   UNL     1     -10.879  13.050  64.600  1.00  0.00    -0.373 C  
HETATM   21  H   UNL     1     -10.015  15.526  65.413  1.00  0.00     0.000 HD 
HETATM   22  C   UNL     1     -10.593  15.333  67.448  1.00  0.00    -0.282 A  
HETATM   23  C   UNL     1     -10.226  16.524  68.087  1.00  0.00    -0.271 A  
HETATM   24  C   UNL     1     -10.516  16.646  69.449  1.00  0.00    -0.320 A  
HETATM   25  C   UNL     1     -11.149  15.617  70.142  1.00  0.00    -0.347 A  
HETATM   26  C   UNL     1     -11.500  14.431  69.489  1.00  0.00    -0.333 A  
HETATM   27  C   UNL     1     -11.216  14.282  68.115  1.00  0.00    -0.295 A  
ENDBRANCH  16  17
ENDBRANCH  15  16
ENDBRANCH  13  15
ENDBRANCH  12  13
ENDBRANCH  10  12
ENDBRANCH   2   6
BRANCH   3  28
HETATM   28  N   UNL     1      -8.621   1.630  64.358  1.00  0.00    -0.086 NA 
HETATM   29  H   UNL     1      -8.938   0.859  64.947  1.00  0.00     0.000 HD 
HETATM   30  O   UNL     1      -7.288   1.835  63.971  1.00  0.00    -0.053 OA 
HETATM   31  H   UNL     1      -6.719   1.164  64.328  1.00  0.00     0.000 HD 
ENDBRANCH   3  28
TORSDOF 7
ENDMDL
MODEL      332
REMARK 921   NORMALIZED FREE ENERGY PREDICTED BY IDOCK:   -2.57 KCAL/MOL
REMARK 922        TOTAL FREE ENERGY PREDICTED BY IDOCK:   -6.25 KCAL/MOL
REMARK 923 INTER-LIGAND FREE ENERGY PREDICTED BY IDOCK:   -5.70 KCAL/MOL
REMARK 924 INTRA-LIGAND FREE ENERGY PREDICTED BY IDOCK:   -0.55 KCAL/MOL
REMARK 927      BINDING AFFINITY PREDICTED BY RF-SCORE:    0.00 PKD
ROOT
HETATM    1  C   UNL     1      -7.980   3.718  64.300  1.00  0.00    -0.086 C  
HETATM    2  C   UNL     1      -8.375   4.906  63.816  1.00  0.00    -0.127 C  
HETATM    3  C   UNL     1      -8.401   2.494  63.610  1.00  0.00    -0.085 C  
HETATM    4  H   UNL     1      -7.788   0.694  63.316  1.00  0.00     0.000 HD 
HETATM    5  O   UNL     1      -7.516   1.487  63.763  1.00  0.00    -0.053 OA 
ENDROOT
BRANCH   2   6
HETATM    6  C   UNL     1      -7.960   6.146  64.462  1.00  0.00    -0.123 A  
HETATM    7  C   UNL     1      -7.512   7.225  63.697  1.00  0.00    -0.097 A  
HETATM    8  C   UNL     1      -7.221   8.445  64.313  1.00  0.00    -0.092 A  
HETATM    9  C   UNL     1      -8.073   6.274  65.848  1.00  0.00    -0.123 A  
HETATM   10  C   UNL     1      -7.381   8.596  65.697  1.00  0.00    -0.084 A  
HETATM   11  C   UNL     1      -7.787   7.493  66.462  1.00  0.00    -0.102 A  
BRANCH  10  12
HETATM   12  C   UNL     1      -7.248   9.958  66.333  1.00  0.00    -0.100 C  
BRANCH  12  13
HETATM   13  N   UNL     1      -8.542  10.546  66.679  1.00  0.00    -0.129 NA 
HETATM   14  H   UNL     1      -8.429  11.432  67.172  1.00  0.00     0.000 HD 
BRANCH  13  15
HETATM   15  C   UNL     1      -9.402  10.697  65.494  1.00  0.00    -0.205 C  
BRANCH  15  16
HETATM   16  C   UNL     1     -10.835  11.142  65.826  1.00  0.00    -0.218 C  
BRANCH  16  17
HETATM   17  C   UNL     1     -11.182  12.471  65.229  1.00  0.00    -0.341 A  
HETATM   18  C   UNL     1     -12.084  12.729  64.209  1.00  0.00    -0.425 A  
HETATM   19  N   UNL     1     -12.039  14.078  63.948  1.00  0.00    -0.776 NA 
HETATM   20  C   UNL     1     -12.986  11.839  63.433  1.00  0.00    -0.177 C  
HETATM   21  H   UNL     1     -12.595  14.549  63.235  1.00  0.00     0.000 HD 
HETATM   22  C   UNL     1     -11.143  14.703  64.778  1.00  0.00    -0.384 A  
HETATM   23  C   UNL     1     -10.774  16.052  64.853  1.00  0.00    -0.339 A  
HETATM   24  C   UNL     1      -9.827  16.414  65.815  1.00  0.00    -0.303 A  
HETATM   25  C   UNL     1      -9.273  15.462  66.668  1.00  0.00    -0.303 A  
HETATM   26  C   UNL     1      -9.647  14.117  66.573  1.00  0.00    -0.310 A  
HETATM   27  C   UNL     1     -10.600  13.727  65.608  1.00  0.00    -0.302 A  
ENDBRANCH  16  17
ENDBRANCH  15  16
ENDBRANCH  13  15
ENDBRANCH  12  13
ENDBRANCH  10  12
ENDBRANCH   2   6
BRANCH   3  28
HETATM   28  N   UNL     1      -9.495   2.370  62.930  1.00  0.00    -0.090 NA 
HETATM   29  H   UNL     1      -9.546   2.401  61.911  1.00  0.00     0.000 HD 
HETATM   30  O   UNL     1     -10.601   2.187  63.773  1.00  0.00    -0.327 OA 
HETATM   31  H   UNL     1     -11.404   2.096  63.274  1.00  0.00     0.000 HD 
ENDBRANCH   3  28
TORSDOF 7
ENDMDL
MODEL      333
REMARK 921   NORMALIZED FREE ENERGY PREDICTED BY IDOCK:   -2.56 KCAL/MOL
REMARK 922        TOTAL FREE ENERGY PREDICTED BY IDOCK:   -6.24 KCAL/MOL
REMARK 923 INTER-LIGAND FREE ENERGY PREDICTED BY IDOCK:   -4.95 KCAL/MOL
REMARK 924 INTRA-LIGAND FREE ENERGY PREDICTED BY IDOCK:   -1.29 KCAL/MOL
REMARK 927      BINDING AFFINITY PREDICTED BY RF-SCORE:    0.00 PKD
ROOT
HETATM    1  C   UNL     1      -8.241   3.876  64.203  1.00  0.00    -0.091 C  
HETATM    2  C   UNL     1      -8.533   4.993  63.520  1.00  0.00    -0.127 C  
HETATM    3  C   UNL     1      -8.805   2.598  63.752  1.00  0.00    -0.086 C  
HETATM    4  H   UNL     1      -8.384   0.721  63.778  1.00  0.00     0.000 HD 
HETATM    5  O   UNL     1      -8.019   1.549  64.069  1.00  0.00    -0.060 OA 
ENDROOT
BRANCH   2   6
HETATM    6  C   UNL     1      -7.976   6.278  63.925  1.00  0.00    -0.095 A  
HETATM    7  C   UNL     1      -7.766   7.287  62.982  1.00  0.00    -0.124 A  
HETATM    8  C   UNL     1      -7.336   8.551  63.393  1.00  0.00    -0.103 A  
HETATM    9  C   UNL     1      -7.710   6.521  65.275  1.00  0.00    -0.102 A  
HETATM   10  C   UNL     1      -7.117   8.817  64.751  1.00  0.00    -0.077 A  
HETATM   11  C   UNL     1      -7.285   7.785  65.686  1.00  0.00    -0.068 A  
BRANCH  10  12
HETATM   12  C   UNL     1      -6.834  10.225  65.213  1.00  0.00    -0.131 C  
BRANCH  12  13
HETATM   13  N   UNL     1      -8.004  10.864  65.817  1.00  0.00    -0.303 NA 
HETATM   14  H   UNL     1      -7.819  11.841  66.044  1.00  0.00     0.000 HD 
BRANCH  13  15
HETATM   15  C   UNL     1      -9.196  10.727  64.964  1.00  0.00    -0.211 C  
BRANCH  15  16
HETATM   16  C   UNL     1     -10.509  11.083  65.679  1.00  0.00    -0.293 C  
BRANCH  16  17
HETATM   17  C   UNL     1     -10.531  10.633  67.108  1.00  0.00    -0.295 A  
HETATM   18  C   UNL     1     -10.465  11.424  68.244  1.00  0.00    -0.198 A  
HETATM   19  N   UNL     1     -10.460  10.585  69.332  1.00  0.00    -0.230 NA 
HETATM   20  C   UNL     1     -10.391  12.897  68.424  1.00  0.00    -0.249 C  
HETATM   21  H   UNL     1     -10.408  10.895  70.303  1.00  0.00     0.000 HD 
HETATM   22  C   UNL     1     -10.535   9.274  68.936  1.00  0.00    -0.215 A  
HETATM   23  C   UNL     1     -10.547   8.101  69.700  1.00  0.00    -0.223 A  
HETATM   24  C   UNL     1     -10.639   6.883  69.019  1.00  0.00    -0.240 A  
HETATM   25  C   UNL     1     -10.717   6.844  67.629  1.00  0.00    -0.344 A  
HETATM   26  C   UNL     1     -10.694   8.026  66.881  1.00  0.00    -0.201 A  
HETATM   27  C   UNL     1     -10.599   9.268  67.545  1.00  0.00    -0.329 A  
ENDBRANCH  16  17
ENDBRANCH  15  16
ENDBRANCH  13  15
ENDBRANCH  12  13
ENDBRANCH  10  12
ENDBRANCH   2   6
BRANCH   3  28
HETATM   28  N   UNL     1      -9.928   2.470  63.124  1.00  0.00    -0.106 NA 
HETATM   29  H   UNL     1     -10.012   2.326  62.117  1.00  0.00     0.000 HD 
HETATM   30  O   UNL     1     -11.017   2.553  64.004  1.00  0.00    -0.457 OA 
HETATM   31  H   UNL     1     -11.842   2.458  63.542  1.00  0.00     0.000 HD 
ENDBRANCH   3  28
TORSDOF 7
ENDMDL
MODEL      334
REMARK 921   NORMALIZED FREE ENERGY PREDICTED BY IDOCK:   -2.54 KCAL/MOL
REMARK 922        TOTAL FREE ENERGY PREDICTED BY IDOCK:   -6.21 KCAL/MOL
REMARK 923 INTER-LIGAND FREE ENERGY PREDICTED BY IDOCK:   -5.22 KCAL/MOL
REMARK 924 INTRA-LIGAND FREE ENERGY PREDICTED BY IDOCK:   -0.99 KCAL/MOL
REMARK 927      BINDING AFFINITY PREDICTED BY RF-SCORE:    0.00 PKD
ROOT
HETATM    1  C   UNL     1      -8.678   4.165  65.239  1.00  0.00    -0.122 C  
HETATM    2  C   UNL     1      -8.637   5.497  65.088  1.00  0.00    -0.141 C  
HETATM    3  C   UNL     1      -9.587   3.381  64.396  1.00  0.00    -0.159 C  
HETATM    4  H   UNL     1      -9.725   1.619  63.635  1.00  0.00     0.000 HD 
HETATM    5  O   UNL     1      -9.136   2.127  64.181  1.00  0.00    -0.103 OA 
ENDROOT
BRANCH   2   6
HETATM    6  C   UNL     1      -7.732   6.309  65.892  1.00  0.00    -0.093 A  
HETATM    7  C   UNL     1      -7.924   7.689  65.999  1.00  0.00    -0.112 A  
HETATM    8  C   UNL     1      -7.121   8.442  66.858  1.00  0.00    -0.075 A  
HETATM    9  C   UNL     1      -6.705   5.692  66.610  1.00  0.00    -0.058 A  
HETATM   10  C   UNL     1      -6.122   7.822  67.620  1.00  0.00    -0.049 A  
HETATM   11  C   UNL     1      -5.905   6.444  67.471  1.00  0.00    -0.013 A  
BRANCH  10  12
HETATM   12  C   UNL     1      -5.382   8.599  68.680  1.00  0.00    -0.037 C  
BRANCH  12  13
HETATM   13  N   UNL     1      -5.771   8.212  70.036  1.00  0.00    -0.023 NA 
HETATM   14  H   UNL     1      -5.340   8.817  70.735  1.00  0.00     0.000 HD 
BRANCH  13  15
HETATM   15  C   UNL     1      -7.235   8.174  70.189  1.00  0.00    -0.056 C  
BRANCH  15  16
HETATM   16  C   UNL     1      -7.834   9.487  70.716  1.00  0.00    -0.093 C  
BRANCH  16  17
HETATM   17  C   UNL     1      -9.207   9.754  70.181  1.00  0.00    -0.253 A  
HETATM   18  C   UNL     1     -10.418   9.357  70.724  1.00  0.00    -0.304 A  
HETATM   19  N   UNL     1     -11.411   9.772  69.871  1.00  0.00    -0.396 NA 
HETATM   20  C   UNL     1     -10.751   8.609  71.964  1.00  0.00    -0.427 C  
HETATM   21  H   UNL     1     -12.407   9.608  70.016  1.00  0.00     0.000 HD 
HETATM   22  C   UNL     1     -10.880  10.440  68.796  1.00  0.00    -0.232 A  
HETATM   23  C   UNL     1     -11.516  11.019  67.691  1.00  0.00    -0.303 A  
HETATM   24  C   UNL     1     -10.713  11.650  66.737  1.00  0.00    -0.299 A  
HETATM   25  C   UNL     1      -9.329  11.700  66.885  1.00  0.00    -0.195 A  
HETATM   26  C   UNL     1      -8.710  11.109  67.991  1.00  0.00    -0.141 A  
HETATM   27  C   UNL     1      -9.499  10.463  68.967  1.00  0.00    -0.205 A  
ENDBRANCH  16  17
ENDBRANCH  15  16
ENDBRANCH  13  15
ENDBRANCH  12  13
ENDBRANCH  10  12
ENDBRANCH   2   6
BRANCH   3  28
HETATM   28  N   UNL     1     -10.702   3.819  63.907  1.00  0.00    -0.338 NA 
HETATM   29  H   UNL     1     -10.925   3.842  62.912  1.00  0.00     0.000 HD 
HETATM   30  O   UNL     1     -11.564   4.261  64.922  1.00  0.00    -0.990 OA 
HETATM   31  H   UNL     1     -12.383   4.583  64.563  1.00  0.00     0.000 HD 
ENDBRANCH   3  28
TORSDOF 7
ENDMDL
MODEL      335
REMARK 921   NORMALIZED FREE ENERGY PREDICTED BY IDOCK:   -2.53 KCAL/MOL
REMARK 922        TOTAL FREE ENERGY PREDICTED BY IDOCK:   -6.20 KCAL/MOL
REMARK 923 INTER-LIGAND FREE ENERGY PREDICTED BY IDOCK:   -4.98 KCAL/MOL
REMARK 924 INTRA-LIGAND FREE ENERGY PREDICTED BY IDOCK:   -1.22 KCAL/MOL
REMARK 927      BINDING AFFINITY PREDICTED BY RF-SCORE:    0.00 PKD
ROOT
HETATM    1  C   UNL     1      -7.961   6.283  64.897  1.00  0.00    -0.124 C  
HETATM    2  C   UNL     1      -8.698   6.323  66.017  1.00  0.00    -0.155 C  
HETATM    3  C   UNL     1      -7.557   4.980  64.358  1.00  0.00    -0.077 C  
HETATM    4  H   UNL     1      -7.132   4.160  62.670  1.00  0.00     0.000 HD 
HETATM    5  O   UNL     1      -7.395   5.004  63.019  1.00  0.00    -0.046 OA 
ENDROOT
BRANCH   2   6
HETATM    6  C   UNL     1      -9.137   7.599  66.571  1.00  0.00    -0.203 A  
HETATM    7  C   UNL     1      -8.922   8.787  65.869  1.00  0.00    -0.240 A  
HETATM    8  C   UNL     1      -9.443   9.989  66.352  1.00  0.00    -0.235 A  
HETATM    9  C   UNL     1      -9.833   7.622  67.782  1.00  0.00    -0.196 A  
HETATM   10  C   UNL     1     -10.186  10.013  67.540  1.00  0.00    -0.260 A  
HETATM   11  C   UNL     1     -10.357   8.823  68.263  1.00  0.00    -0.252 A  
BRANCH  10  12
HETATM   12  C   UNL     1     -10.902  11.271  67.963  1.00  0.00    -0.218 C  
BRANCH  12  13
HETATM   13  N   UNL     1     -11.682  11.867  66.878  1.00  0.00    -0.589 NA 
HETATM   14  H   UNL     1     -12.676  11.658  66.974  1.00  0.00     0.000 HD 
BRANCH  13  15
HETATM   15  C   UNL     1     -11.444  13.316  66.774  1.00  0.00    -0.350 C  
BRANCH  15  16
HETATM   16  C   UNL     1     -10.173  13.676  65.989  1.00  0.00    -0.312 C  
BRANCH  16  17
HETATM   17  C   UNL     1      -9.184  14.447  66.809  1.00  0.00    -0.287 A  
HETATM   18  C   UNL     1      -9.243  15.784  67.167  1.00  0.00    -0.210 A  
HETATM   19  N   UNL     1      -8.099  16.076  67.869  1.00  0.00    -0.140 NA 
HETATM   20  C   UNL     1     -10.260  16.837  66.907  1.00  0.00    -0.290 C  
HETATM   21  H   UNL     1      -7.870  16.995  68.250  1.00  0.00     0.000 HD 
HETATM   22  C   UNL     1      -7.306  14.963  67.990  1.00  0.00    -0.130 A  
HETATM   23  C   UNL     1      -6.061  14.807  68.611  1.00  0.00    -0.087 A  
HETATM   24  C   UNL     1      -5.478  13.537  68.586  1.00  0.00    -0.083 A  
HETATM   25  C   UNL     1      -6.117  12.466  67.965  1.00  0.00    -0.075 A  
HETATM   26  C   UNL     1      -7.357  12.643  67.342  1.00  0.00    -0.140 A  
HETATM   27  C   UNL     1      -7.966  13.917  67.351  1.00  0.00    -0.184 A  
ENDBRANCH  16  17
ENDBRANCH  15  16
ENDBRANCH  13  15
ENDBRANCH  12  13
ENDBRANCH  10  12
ENDBRANCH   2   6
BRANCH   3  28
HETATM   28  N   UNL     1      -7.366   3.915  65.069  1.00  0.00    -0.067 NA 
HETATM   29  H   UNL     1      -7.627   3.825  66.052  1.00  0.00     0.000 HD 
HETATM   30  O   UNL     1      -6.755   2.902  64.316  1.00  0.00    -0.034 OA 
HETATM   31  H   UNL     1      -6.615   2.121  64.839  1.00  0.00     0.000 HD 
ENDBRANCH   3  28
TORSDOF 7
ENDMDL
MODEL      336
REMARK 921   NORMALIZED FREE ENERGY PREDICTED BY IDOCK:   -2.50 KCAL/MOL
REMARK 922        TOTAL FREE ENERGY PREDICTED BY IDOCK:   -6.16 KCAL/MOL
REMARK 923 INTER-LIGAND FREE ENERGY PREDICTED BY IDOCK:   -3.01 KCAL/MOL
REMARK 924 INTRA-LIGAND FREE ENERGY PREDICTED BY IDOCK:   -3.15 KCAL/MOL
REMARK 927      BINDING AFFINITY PREDICTED BY RF-SCORE:    0.00 PKD
ROOT
HETATM    1  C   UNL     1      -8.286   5.336  65.109  1.00  0.00    -0.145 C  
HETATM    2  C   UNL     1      -7.253   5.381  65.963  1.00  0.00    -0.076 C  
HETATM    3  C   UNL     1      -8.356   4.243  64.134  1.00  0.00    -0.102 C  
HETATM    4  H   UNL     1      -9.670   3.232  63.157  1.00  0.00     0.000 HD 
HETATM    5  O   UNL     1      -9.625   3.940  63.790  1.00  0.00    -0.145 OA 
ENDROOT
BRANCH   2   6
HETATM    6  C   UNL     1      -7.159   6.440  66.961  1.00  0.00    -0.073 A  
HETATM    7  C   UNL     1      -6.260   6.332  68.025  1.00  0.00    -0.032 A  
HETATM    8  C   UNL     1      -6.097   7.398  68.913  1.00  0.00    -0.030 A  
HETATM    9  C   UNL     1      -7.929   7.596  66.815  1.00  0.00    -0.111 A  
HETATM   10  C   UNL     1      -6.829   8.580  68.743  1.00  0.00    -0.062 A  
HETATM   11  C   UNL     1      -7.763   8.662  67.700  1.00  0.00    -0.102 A  
BRANCH  10  12
HETATM   12  C   UNL     1      -6.520   9.793  69.585  1.00  0.00    -0.049 C  
BRANCH  12  13
HETATM   13  N   UNL     1      -7.548  10.055  70.594  1.00  0.00    -0.413 NA 
HETATM   14  H   UNL     1      -8.486   9.954  70.206  1.00  0.00     0.000 HD 
BRANCH  13  15
HETATM   15  C   UNL     1      -7.364   9.208  71.785  1.00  0.00     0.210 C  
BRANCH  15  16
HETATM   16  C   UNL     1      -8.618   8.407  72.169  1.00  0.00    -0.257 C  
BRANCH  16  17
HETATM   17  C   UNL     1      -8.696   7.083  71.475  1.00  0.00    -0.121 A  
HETATM   18  C   UNL     1      -7.977   5.934  71.764  1.00  0.00    -0.111 A  
HETATM   19  N   UNL     1      -8.328   4.982  70.837  1.00  0.00    -0.110 NA 
HETATM   20  C   UNL     1      -6.974   5.629  72.817  1.00  0.00    -0.080 C  
HETATM   21  H   UNL     1      -7.946   4.037  70.803  1.00  0.00     0.000 HD 
HETATM   22  C   UNL     1      -9.265   5.475  69.964  1.00  0.00    -0.140 A  
HETATM   23  C   UNL     1      -9.888   4.863  68.871  1.00  0.00    -0.241 A  
HETATM   24  C   UNL     1     -10.823   5.614  68.152  1.00  0.00    -0.161 A  
HETATM   25  C   UNL     1     -11.121   6.925  68.516  1.00  0.00    -0.145 A  
HETATM   26  C   UNL     1     -10.481   7.524  69.606  1.00  0.00    -0.235 A  
HETATM   27  C   UNL     1      -9.532   6.787  70.347  1.00  0.00    -0.168 A  
ENDBRANCH  16  17
ENDBRANCH  15  16
ENDBRANCH  13  15
ENDBRANCH  12  13
ENDBRANCH  10  12
ENDBRANCH   2   6
BRANCH   3  28
HETATM   28  N   UNL     1      -7.329   3.627  63.642  1.00  0.00    -0.051 NA 
HETATM   29  H   UNL     1      -6.360   3.901  63.806  1.00  0.00     0.000 HD 
HETATM   30  O   UNL     1      -7.719   2.534  62.854  1.00  0.00    -0.059 OA 
HETATM   31  H   UNL     1      -6.965   2.082  62.494  1.00  0.00     0.000 HD 
ENDBRANCH   3  28
TORSDOF 7
ENDMDL
MODEL      337
REMARK 921   NORMALIZED FREE ENERGY PREDICTED BY IDOCK:   -2.47 KCAL/MOL
REMARK 922        TOTAL FREE ENERGY PREDICTED BY IDOCK:   -6.11 KCAL/MOL
REMARK 923 INTER-LIGAND FREE ENERGY PREDICTED BY IDOCK:   -5.37 KCAL/MOL
REMARK 924 INTRA-LIGAND FREE ENERGY PREDICTED BY IDOCK:   -0.74 KCAL/MOL
REMARK 927      BINDING AFFINITY PREDICTED BY RF-SCORE:    0.00 PKD
ROOT
HETATM    1  C   UNL     1      -8.393  16.166  67.952  1.00  0.00    -0.165 C  
HETATM    2  C   UNL     1      -9.307  15.202  68.142  1.00  0.00    -0.192 C  
HETATM    3  C   UNL     1      -8.736  17.550  68.297  1.00  0.00    -0.270 C  
HETATM    4  H   UNL     1      -7.877  19.171  68.876  1.00  0.00     0.000 HD 
HETATM    5  O   UNL     1      -7.655  18.274  68.653  1.00  0.00    -0.287 OA 
ENDROOT
BRANCH   2   6
HETATM    6  C   UNL     1      -8.996  13.812  67.831  1.00  0.00    -0.193 A  
HETATM    7  C   UNL     1      -9.668  13.151  66.800  1.00  0.00    -0.246 A  
HETATM    8  C   UNL     1      -9.289  11.856  66.435  1.00  0.00    -0.233 A  
HETATM    9  C   UNL     1      -7.976  13.160  68.527  1.00  0.00    -0.094 A  
HETATM   10  C   UNL     1      -8.232  11.215  67.096  1.00  0.00    -0.137 A  
HETATM   11  C   UNL     1      -7.595  11.869  68.160  1.00  0.00    -0.121 A  
BRANCH  10  12
HETATM   12  C   UNL     1      -7.702   9.899  66.583  1.00  0.00    -0.106 C  
BRANCH  12  13
HETATM   13  N   UNL     1      -8.643   8.797  66.785  1.00  0.00    -0.114 NA 
HETATM   14  H   UNL     1      -8.589   8.117  66.027  1.00  0.00     0.000 HD 
BRANCH  13  15
HETATM   15  C   UNL     1      -8.452   8.156  68.097  1.00  0.00    -0.126 C  
BRANCH  15  16
HETATM   16  C   UNL     1      -9.327   8.757  69.208  1.00  0.00    -0.149 C  
BRANCH  16  17
HETATM   17  C   UNL     1      -9.777   7.736  70.207  1.00  0.00    -0.179 A  
HETATM   18  C   UNL     1     -10.668   6.694  70.008  1.00  0.00    -0.240 A  
HETATM   19  N   UNL     1     -10.827   6.049  71.211  1.00  0.00    -0.262 NA 
HETATM   20  C   UNL     1     -11.408   6.238  68.803  1.00  0.00    -0.224 C  
HETATM   21  H   UNL     1     -11.436   5.244  71.362  1.00  0.00     0.000 HD 
HETATM   22  C   UNL     1     -10.053   6.633  72.181  1.00  0.00    -0.178 A  
HETATM   23  C   UNL     1      -9.914   6.313  73.537  1.00  0.00    -0.203 A  
HETATM   24  C   UNL     1      -9.036   7.088  74.301  1.00  0.00    -0.238 A  
HETATM   25  C   UNL     1      -8.325   8.140  73.727  1.00  0.00    -0.311 A  
HETATM   26  C   UNL     1      -8.484   8.451  72.373  1.00  0.00    -0.238 A  
HETATM   27  C   UNL     1      -9.367   7.685  71.582  1.00  0.00    -0.165 A  
ENDBRANCH  16  17
ENDBRANCH  15  16
ENDBRANCH  13  15
ENDBRANCH  12  13
ENDBRANCH  10  12
ENDBRANCH   2   6
BRANCH   3  28
HETATM   28  N   UNL     1      -9.932  18.042  68.266  1.00  0.00    -0.349 NA 
HETATM   29  H   UNL     1     -10.466  18.205  67.411  1.00  0.00     0.000 HD 
HETATM   30  O   UNL     1     -10.402  18.323  69.557  1.00  0.00    -0.354 OA 
HETATM   31  H   UNL     1     -11.280  18.685  69.534  1.00  0.00     0.000 HD 
ENDBRANCH   3  28
TORSDOF 7
ENDMDL
MODEL      338
REMARK 921   NORMALIZED FREE ENERGY PREDICTED BY IDOCK:   -2.46 KCAL/MOL
REMARK 922        TOTAL FREE ENERGY PREDICTED BY IDOCK:   -6.10 KCAL/MOL
REMARK 923 INTER-LIGAND FREE ENERGY PREDICTED BY IDOCK:   -5.22 KCAL/MOL
REMARK 924 INTRA-LIGAND FREE ENERGY PREDICTED BY IDOCK:   -0.88 KCAL/MOL
REMARK 927      BINDING AFFINITY PREDICTED BY RF-SCORE:    0.00 PKD
ROOT
HETATM    1  C   UNL     1      -8.826   4.082  65.093  1.00  0.00    -0.127 C  
HETATM    2  C   UNL     1      -8.637   5.407  65.009  1.00  0.00    -0.142 C  
HETATM    3  C   UNL     1      -9.683   3.421  64.102  1.00  0.00    -0.164 C  
HETATM    4  H   UNL     1      -9.884   1.707  63.251  1.00  0.00     0.000 HD 
HETATM    5  O   UNL     1      -9.329   2.136  63.892  1.00  0.00    -0.104 OA 
ENDROOT
BRANCH   2   6
HETATM    6  C   UNL     1      -7.776   6.096  65.963  1.00  0.00    -0.092 A  
HETATM    7  C   UNL     1      -7.823   7.488  66.080  1.00  0.00    -0.096 A  
HETATM    8  C   UNL     1      -7.077   8.131  67.071  1.00  0.00    -0.079 A  
HETATM    9  C   UNL     1      -6.948   5.354  66.808  1.00  0.00    -0.065 A  
HETATM   10  C   UNL     1      -6.283   7.388  67.955  1.00  0.00    -0.043 A  
HETATM   11  C   UNL     1      -6.207   5.997  67.800  1.00  0.00    -0.029 A  
BRANCH  10  12
HETATM   12  C   UNL     1      -5.628   8.061  69.136  1.00  0.00    -0.034 C  
BRANCH  12  13
HETATM   13  N   UNL     1      -6.184   7.619  70.415  1.00  0.00    -0.033 NA 
HETATM   14  H   UNL     1      -5.724   8.079  71.201  1.00  0.00     0.000 HD 
BRANCH  13  15
HETATM   15  C   UNL     1      -7.644   7.806  70.463  1.00  0.00    -0.079 C  
BRANCH  15  16
HETATM   16  C   UNL     1      -8.071   9.182  70.996  1.00  0.00    -0.179 C  
BRANCH  16  17
HETATM   17  C   UNL     1      -9.442   9.580  70.543  1.00  0.00    -0.306 A  
HETATM   18  C   UNL     1      -9.777  10.351  69.441  1.00  0.00    -0.200 A  
HETATM   19  N   UNL     1     -11.142  10.508  69.445  1.00  0.00    -0.240 NA 
HETATM   20  C   UNL     1      -8.947  10.977  68.379  1.00  0.00    -0.158 C  
HETATM   21  H   UNL     1     -11.666  11.041  68.751  1.00  0.00     0.000 HD 
HETATM   22  C   UNL     1     -11.704   9.849  70.509  1.00  0.00    -0.295 A  
HETATM   23  C   UNL     1     -13.044   9.751  70.902  1.00  0.00    -0.285 A  
HETATM   24  C   UNL     1     -13.332   8.995  72.043  1.00  0.00    -0.494 A  
HETATM   25  C   UNL     1     -12.318   8.364  72.760  1.00  0.00    -0.137 A  
HETATM   26  C   UNL     1     -10.983   8.481  72.357  1.00  0.00    -0.390 A  
HETATM   27  C   UNL     1     -10.666   9.240  71.210  1.00  0.00    -0.422 A  
ENDBRANCH  16  17
ENDBRANCH  15  16
ENDBRANCH  13  15
ENDBRANCH  12  13
ENDBRANCH  10  12
ENDBRANCH   2   6
BRANCH   3  28
HETATM   28  N   UNL     1     -10.673   3.986  63.490  1.00  0.00    -0.426 NA 
HETATM   29  H   UNL     1     -10.687   4.197  62.492  1.00  0.00     0.000 HD 
HETATM   30  O   UNL     1     -11.724   4.270  64.375  1.00  0.00    -0.599 OA 
HETATM   31  H   UNL     1     -12.450   4.685  63.925  1.00  0.00     0.000 HD 
ENDBRANCH   3  28
TORSDOF 7
ENDMDL
MODEL      339
REMARK 921   NORMALIZED FREE ENERGY PREDICTED BY IDOCK:   -2.45 KCAL/MOL
REMARK 922        TOTAL FREE ENERGY PREDICTED BY IDOCK:   -6.08 KCAL/MOL
REMARK 923 INTER-LIGAND FREE ENERGY PREDICTED BY IDOCK:   -5.38 KCAL/MOL
REMARK 924 INTRA-LIGAND FREE ENERGY PREDICTED BY IDOCK:   -0.71 KCAL/MOL
REMARK 927      BINDING AFFINITY PREDICTED BY RF-SCORE:    0.00 PKD
ROOT
HETATM    1  C   UNL     1      -9.560  16.183  67.076  1.00  0.00    -0.233 C  
HETATM    2  C   UNL     1     -10.639  15.387  67.111  1.00  0.00    -0.305 C  
HETATM    3  C   UNL     1      -9.748  17.638  67.090  1.00  0.00    -0.291 C  
HETATM    4  H   UNL     1      -8.829  19.228  67.663  1.00  0.00     0.000 HD 
HETATM    5  O   UNL     1      -8.707  18.285  67.654  1.00  0.00    -0.252 OA 
ENDROOT
BRANCH   2   6
HETATM    6  C   UNL     1     -10.493  13.936  67.120  1.00  0.00    -0.269 A  
HETATM    7  C   UNL     1     -11.609  13.112  66.955  1.00  0.00    -0.408 A  
HETATM    8  C   UNL     1     -11.446  11.728  66.854  1.00  0.00    -0.364 A  
HETATM    9  C   UNL     1      -9.220  13.372  67.229  1.00  0.00    -0.222 A  
HETATM   10  C   UNL     1     -10.168  11.159  66.912  1.00  0.00    -0.260 A  
HETATM   11  C   UNL     1      -9.058  11.990  67.124  1.00  0.00    -0.186 A  
BRANCH  10  12
HETATM   12  C   UNL     1      -9.975   9.692  66.618  1.00  0.00    -0.236 C  
BRANCH  12  13
HETATM   13  N   UNL     1     -11.093   8.872  67.086  1.00  0.00    -0.221 NA 
HETATM   14  H   UNL     1     -11.947   9.072  66.564  1.00  0.00     0.000 HD 
BRANCH  13  15
HETATM   15  C   UNL     1     -10.765   7.437  67.049  1.00  0.00    -0.319 C  
BRANCH  15  16
HETATM   16  C   UNL     1      -9.285   7.138  67.331  1.00  0.00    -0.137 C  
BRANCH  16  17
HETATM   17  C   UNL     1      -8.755   6.004  66.508  1.00  0.00    -0.128 A  
HETATM   18  C   UNL     1      -8.897   4.646  66.749  1.00  0.00    -0.111 A  
HETATM   19  N   UNL     1      -8.204   3.977  65.769  1.00  0.00    -0.104 NA 
HETATM   20  C   UNL     1      -9.607   3.897  67.818  1.00  0.00    -0.199 C  
HETATM   21  H   UNL     1      -8.127   2.962  65.703  1.00  0.00     0.000 HD 
HETATM   22  C   UNL     1      -7.628   4.861  64.891  1.00  0.00    -0.077 A  
HETATM   23  C   UNL     1      -6.834   4.622  63.763  1.00  0.00    -0.044 A  
HETATM   24  C   UNL     1      -6.384   5.731  63.040  1.00  0.00    -0.024 A  
HETATM   25  C   UNL     1      -6.717   7.026  63.431  1.00  0.00    -0.044 A  
HETATM   26  C   UNL     1      -7.505   7.245  64.566  1.00  0.00    -0.092 A  
HETATM   27  C   UNL     1      -7.969   6.142  65.315  1.00  0.00    -0.115 A  
ENDBRANCH  16  17
ENDBRANCH  15  16
ENDBRANCH  13  15
ENDBRANCH  12  13
ENDBRANCH  10  12
ENDBRANCH   2   6
BRANCH   3  28
HETATM   28  N   UNL     1     -10.784  18.252  66.617  1.00  0.00    -0.276 NA 
HETATM   29  H   UNL     1     -11.729  17.866  66.610  1.00  0.00     0.000 HD 
HETATM   30  O   UNL     1     -10.442  19.516  66.114  1.00  0.00    -0.458 OA 
HETATM   31  H   UNL     1     -11.203  19.966  65.767  1.00  0.00     0.000 HD 
ENDBRANCH   3  28
TORSDOF 7
ENDMDL
MODEL      340
REMARK 921   NORMALIZED FREE ENERGY PREDICTED BY IDOCK:   -2.45 KCAL/MOL
REMARK 922        TOTAL FREE ENERGY PREDICTED BY IDOCK:   -6.08 KCAL/MOL
REMARK 923 INTER-LIGAND FREE ENERGY PREDICTED BY IDOCK:   -5.25 KCAL/MOL
REMARK 924 INTRA-LIGAND FREE ENERGY PREDICTED BY IDOCK:   -0.83 KCAL/MOL
REMARK 927      BINDING AFFINITY PREDICTED BY RF-SCORE:    0.00 PKD
ROOT
HETATM    1  C   UNL     1      -8.749   4.767  64.582  1.00  0.00    -0.153 C  
HETATM    2  C   UNL     1      -7.737   5.084  65.403  1.00  0.00    -0.087 C  
HETATM    3  C   UNL     1      -9.184   3.369  64.494  1.00  0.00    -0.137 C  
HETATM    4  H   UNL     1     -10.771   2.348  64.121  1.00  0.00     0.000 HD 
HETATM    5  O   UNL     1     -10.490   3.254  64.178  1.00  0.00    -0.188 OA 
ENDROOT
BRANCH   2   6
HETATM    6  C   UNL     1      -7.291   6.466  65.534  1.00  0.00    -0.076 A  
HETATM    7  C   UNL     1      -7.697   7.430  64.608  1.00  0.00    -0.118 A  
HETATM    8  C   UNL     1      -7.357   8.771  64.801  1.00  0.00    -0.093 A  
HETATM    9  C   UNL     1      -6.505   6.837  66.627  1.00  0.00    -0.043 A  
HETATM   10  C   UNL     1      -6.612   9.159  65.923  1.00  0.00    -0.071 A  
HETATM   11  C   UNL     1      -6.169   8.177  66.822  1.00  0.00    -0.054 A  
BRANCH  10  12
HETATM   12  C   UNL     1      -6.404  10.621  66.229  1.00  0.00    -0.119 C  
BRANCH  12  13
HETATM   13  N   UNL     1      -7.665  11.342  66.412  1.00  0.00    -0.325 NA 
HETATM   14  H   UNL     1      -8.301  11.187  65.630  1.00  0.00     0.000 HD 
BRANCH  13  15
HETATM   15  C   UNL     1      -8.299  11.004  67.697  1.00  0.00    -0.117 C  
BRANCH  15  16
HETATM   16  C   UNL     1      -9.812  11.269  67.724  1.00  0.00    -0.186 C  
BRANCH  16  17
HETATM   17  C   UNL     1     -10.189  12.552  67.049  1.00  0.00    -0.231 A  
HETATM   18  C   UNL     1      -9.916  13.842  67.475  1.00  0.00    -0.240 A  
HETATM   19  N   UNL     1     -10.498  14.706  66.579  1.00  0.00    -0.284 NA 
HETATM   20  C   UNL     1      -9.172  14.362  68.651  1.00  0.00    -0.181 C  
HETATM   21  H   UNL     1     -10.466  15.723  66.648  1.00  0.00     0.000 HD 
HETATM   22  C   UNL     1     -11.129  14.013  65.576  1.00  0.00    -0.309 A  
HETATM   23  C   UNL     1     -11.851  14.483  64.473  1.00  0.00    -0.459 A  
HETATM   24  C   UNL     1     -12.387  13.535  63.596  1.00  0.00    -0.377 A  
HETATM   25  C   UNL     1     -12.205  12.172  63.816  1.00  0.00    -0.630 A  
HETATM   26  C   UNL     1     -11.489  11.720  64.930  1.00  0.00    -0.269 A  
HETATM   27  C   UNL     1     -10.940  12.658  65.831  1.00  0.00    -0.310 A  
ENDBRANCH  16  17
ENDBRANCH  15  16
ENDBRANCH  13  15
ENDBRANCH  12  13
ENDBRANCH  10  12
ENDBRANCH   2   6
BRANCH   3  28
HETATM   28  N   UNL     1      -8.416   2.345  64.690  1.00  0.00    -0.088 NA 
HETATM   29  H   UNL     1      -7.671   2.054  64.055  1.00  0.00     0.000 HD 
HETATM   30  O   UNL     1      -8.740   1.686  65.885  1.00  0.00    -0.107 OA 
HETATM   31  H   UNL     1      -8.176   0.935  66.028  1.00  0.00     0.000 HD 
ENDBRANCH   3  28
TORSDOF 7
ENDMDL
MODEL      341
REMARK 921   NORMALIZED FREE ENERGY PREDICTED BY IDOCK:   -2.43 KCAL/MOL
REMARK 922        TOTAL FREE ENERGY PREDICTED BY IDOCK:   -6.05 KCAL/MOL
REMARK 923 INTER-LIGAND FREE ENERGY PREDICTED BY IDOCK:   -5.56 KCAL/MOL
REMARK 924 INTRA-LIGAND FREE ENERGY PREDICTED BY IDOCK:   -0.49 KCAL/MOL
REMARK 927      BINDING AFFINITY PREDICTED BY RF-SCORE:    0.00 PKD
ROOT
HETATM    1  C   UNL     1      -8.595   5.008  65.840  1.00  0.00    -0.124 C  
HETATM    2  C   UNL     1      -9.054   6.008  66.608  1.00  0.00    -0.142 C  
HETATM    3  C   UNL     1      -9.231   3.690  65.932  1.00  0.00    -0.161 C  
HETATM    4  H   UNL     1      -9.558   2.141  64.838  1.00  0.00     0.000 HD 
HETATM    5  O   UNL     1      -9.147   2.996  64.778  1.00  0.00    -0.130 OA 
ENDROOT
BRANCH   2   6
HETATM    6  C   UNL     1      -8.462   7.338  66.529  1.00  0.00    -0.125 A  
HETATM    7  C   UNL     1      -8.674   8.141  65.405  1.00  0.00    -0.128 A  
HETATM    8  C   UNL     1      -8.196   9.454  65.384  1.00  0.00    -0.126 A  
HETATM    9  C   UNL     1      -7.731   7.833  67.611  1.00  0.00    -0.121 A  
HETATM   10  C   UNL     1      -7.506   9.974  66.487  1.00  0.00    -0.105 A  
HETATM   11  C   UNL     1      -7.257   9.145  67.591  1.00  0.00    -0.083 A  
BRANCH  10  12
HETATM   12  C   UNL     1      -7.155  11.440  66.540  1.00  0.00    -0.058 C  
BRANCH  12  13
HETATM   13  N   UNL     1      -7.380  12.026  67.862  1.00  0.00    -0.095 NA 
HETATM   14  H   UNL     1      -6.670  11.724  68.530  1.00  0.00     0.000 HD 
BRANCH  13  15
HETATM   15  C   UNL     1      -7.467  13.494  67.796  1.00  0.00    -0.166 C  
BRANCH  15  16
HETATM   16  C   UNL     1      -8.909  14.023  67.764  1.00  0.00    -0.187 C  
BRANCH  16  17
HETATM   17  C   UNL     1      -9.027  15.343  67.065  1.00  0.00    -0.253 A  
HETATM   18  C   UNL     1      -9.681  15.613  65.874  1.00  0.00    -0.353 A  
HETATM   19  N   UNL     1      -9.482  16.941  65.584  1.00  0.00    -0.504 NA 
HETATM   20  C   UNL     1     -10.471  14.750  64.958  1.00  0.00    -0.443 C  
HETATM   21  H   UNL     1      -9.844  17.415  64.756  1.00  0.00     0.000 HD 
HETATM   22  C   UNL     1      -8.729  17.544  66.560  1.00  0.00    -0.262 A  
HETATM   23  C   UNL     1      -8.283  18.867  66.665  1.00  0.00    -0.295 A  
HETATM   24  C   UNL     1      -7.526  19.209  67.790  1.00  0.00    -0.283 A  
HETATM   25  C   UNL     1      -7.230  18.264  68.770  1.00  0.00    -0.291 A  
HETATM   26  C   UNL     1      -7.677  16.944  68.643  1.00  0.00    -0.235 A  
HETATM   27  C   UNL     1      -8.441  16.573  67.515  1.00  0.00    -0.189 A  
ENDBRANCH  16  17
ENDBRANCH  15  16
ENDBRANCH  13  15
ENDBRANCH  12  13
ENDBRANCH  10  12
ENDBRANCH   2   6
BRANCH   3  28
HETATM   28  N   UNL     1      -9.810   3.224  66.991  1.00  0.00    -0.317 NA 
HETATM   29  H   UNL     1     -10.323   3.793  67.665  1.00  0.00     0.000 HD 
HETATM   30  O   UNL     1      -9.643   1.835  67.094  1.00  0.00    -0.383 OA 
HETATM   31  H   UNL     1     -10.068   1.493  67.872  1.00  0.00     0.000 HD 
ENDBRANCH   3  28
TORSDOF 7
ENDMDL
MODEL      342
REMARK 921   NORMALIZED FREE ENERGY PREDICTED BY IDOCK:   -2.42 KCAL/MOL
REMARK 922        TOTAL FREE ENERGY PREDICTED BY IDOCK:   -6.04 KCAL/MOL
REMARK 923 INTER-LIGAND FREE ENERGY PREDICTED BY IDOCK:   -3.63 KCAL/MOL
REMARK 924 INTRA-LIGAND FREE ENERGY PREDICTED BY IDOCK:   -2.41 KCAL/MOL
REMARK 927      BINDING AFFINITY PREDICTED BY RF-SCORE:    0.00 PKD
ROOT
HETATM    1  C   UNL     1      -9.546   5.930  66.583  1.00  0.00    -0.174 C  
HETATM    2  C   UNL     1      -9.233   6.573  67.719  1.00  0.00    -0.113 C  
HETATM    3  C   UNL     1      -9.632   4.466  66.596  1.00  0.00    -0.198 C  
HETATM    4  H   UNL     1     -10.553   3.045  65.683  1.00  0.00     0.000 HD 
HETATM    5  O   UNL     1     -10.498   3.993  65.675  1.00  0.00    -0.096 OA 
ENDROOT
BRANCH   2   6
HETATM    6  C   UNL     1      -9.159   8.029  67.751  1.00  0.00    -0.136 A  
HETATM    7  C   UNL     1      -9.062   8.759  66.564  1.00  0.00    -0.203 A  
HETATM    8  C   UNL     1      -9.103  10.155  66.596  1.00  0.00    -0.164 A  
HETATM    9  C   UNL     1      -9.250   8.698  68.974  1.00  0.00    -0.145 A  
HETATM   10  C   UNL     1      -9.245  10.831  67.815  1.00  0.00    -0.155 A  
HETATM   11  C   UNL     1      -9.295  10.092  69.005  1.00  0.00    -0.183 A  
BRANCH  10  12
HETATM   12  C   UNL     1      -9.475  12.322  67.834  1.00  0.00    -0.200 C  
BRANCH  12  13
HETATM   13  N   UNL     1      -8.599  13.039  66.906  1.00  0.00    -0.373 NA 
HETATM   14  H   UNL     1      -9.136  13.547  66.203  1.00  0.00     0.000 HD 
BRANCH  13  15
HETATM   15  C   UNL     1      -7.669  13.929  67.620  1.00  0.00    -0.184 C  
BRANCH  15  16
HETATM   16  C   UNL     1      -6.240  13.374  67.720  1.00  0.00    -0.160 C  
BRANCH  16  17
HETATM   17  C   UNL     1      -6.034  12.517  68.931  1.00  0.00    -0.070 A  
HETATM   18  C   UNL     1      -5.994  12.923  70.256  1.00  0.00    -0.126 A  
HETATM   19  N   UNL     1      -5.727  11.813  71.021  1.00  0.00    -0.371 NA 
HETATM   20  C   UNL     1      -6.166  14.255  70.891  1.00  0.00    -0.080 C  
HETATM   21  H   UNL     1      -5.631  11.818  72.036  1.00  0.00     0.000 HD 
HETATM   22  C   UNL     1      -5.607  10.697  70.232  1.00  0.00    -0.076 A  
HETATM   23  C   UNL     1      -5.331   9.370  70.584  1.00  0.00    -0.036 A  
HETATM   24  C   UNL     1      -5.274   8.424  69.556  1.00  0.00    -0.030 A  
HETATM   25  C   UNL     1      -5.486   8.793  68.230  1.00  0.00    -0.038 A  
HETATM   26  C   UNL     1      -5.752  10.125  67.896  1.00  0.00    -0.041 A  
HETATM   27  C   UNL     1      -5.812  11.100  68.915  1.00  0.00    -0.039 A  
ENDBRANCH  16  17
ENDBRANCH  15  16
ENDBRANCH  13  15
ENDBRANCH  12  13
ENDBRANCH  10  12
ENDBRANCH   2   6
BRANCH   3  28
HETATM   28  N   UNL     1      -8.959   3.694  67.387  1.00  0.00    -0.128 NA 
HETATM   29  H   UNL     1      -7.986   3.423  67.238  1.00  0.00     0.000 HD 
HETATM   30  O   UNL     1      -9.737   3.279  68.478  1.00  0.00    -0.112 OA 
HETATM   31  H   UNL     1      -9.243   2.713  69.059  1.00  0.00     0.000 HD 
ENDBRANCH   3  28
TORSDOF 7
ENDMDL
MODEL      343
REMARK 921   NORMALIZED FREE ENERGY PREDICTED BY IDOCK:   -2.39 KCAL/MOL
REMARK 922        TOTAL FREE ENERGY PREDICTED BY IDOCK:   -6.00 KCAL/MOL
REMARK 923 INTER-LIGAND FREE ENERGY PREDICTED BY IDOCK:   -5.17 KCAL/MOL
REMARK 924 INTRA-LIGAND FREE ENERGY PREDICTED BY IDOCK:   -0.82 KCAL/MOL
REMARK 927      BINDING AFFINITY PREDICTED BY RF-SCORE:    0.00 PKD
ROOT
HETATM    1  C   UNL     1     -10.637  14.077  67.725  1.00  0.00    -0.244 C  
HETATM    2  C   UNL     1      -9.535  13.758  67.028  1.00  0.00    -0.255 C  
HETATM    3  C   UNL     1     -10.863  15.478  68.096  1.00  0.00    -0.296 C  
HETATM    4  H   UNL     1     -12.322  16.681  68.452  1.00  0.00     0.000 HD 
HETATM    5  O   UNL     1     -12.175  15.773  68.211  1.00  0.00     0.028 OA 
ENDROOT
BRANCH   2   6
HETATM    6  C   UNL     1      -9.285  12.380  66.623  1.00  0.00    -0.218 A  
HETATM    7  C   UNL     1      -8.089  11.747  66.970  1.00  0.00    -0.169 A  
HETATM    8  C   UNL     1      -7.903  10.394  66.675  1.00  0.00    -0.120 A  
HETATM    9  C   UNL     1     -10.275  11.671  65.939  1.00  0.00    -0.277 A  
HETATM   10  C   UNL     1      -8.913   9.663  66.034  1.00  0.00    -0.195 A  
HETATM   11  C   UNL     1     -10.091  10.319  65.648  1.00  0.00    -0.341 A  
BRANCH  10  12
HETATM   12  C   UNL     1      -8.789   8.167  65.883  1.00  0.00    -0.158 C  
BRANCH  12  13
HETATM   13  N   UNL     1      -9.072   7.450  67.127  1.00  0.00    -0.127 NA 
HETATM   14  H   UNL     1      -8.998   8.065  67.938  1.00  0.00     0.000 HD 
BRANCH  13  15
HETATM   15  C   UNL     1     -10.383   6.781  67.079  1.00  0.00    -0.268 C  
BRANCH  15  16
HETATM   16  C   UNL     1     -11.255   7.047  68.315  1.00  0.00     0.014 C  
BRANCH  16  17
HETATM   17  C   UNL     1     -10.509   6.865  69.601  1.00  0.00    -0.240 A  
HETATM   18  C   UNL     1     -10.244   7.823  70.566  1.00  0.00    -0.201 A  
HETATM   19  N   UNL     1      -9.485   7.226  71.544  1.00  0.00    -0.153 NA 
HETATM   20  C   UNL     1     -10.615   9.258  70.668  1.00  0.00    -0.324 C  
HETATM   21  H   UNL     1      -9.135   7.700  72.377  1.00  0.00     0.000 HD 
HETATM   22  C   UNL     1      -9.263   5.905  71.248  1.00  0.00    -0.143 A  
HETATM   23  C   UNL     1      -8.541   4.933  71.952  1.00  0.00    -0.132 A  
HETATM   24  C   UNL     1      -8.487   3.646  71.410  1.00  0.00    -0.095 A  
HETATM   25  C   UNL     1      -9.131   3.345  70.211  1.00  0.00    -0.201 A  
HETATM   26  C   UNL     1      -9.839   4.332  69.517  1.00  0.00    -0.224 A  
HETATM   27  C   UNL     1      -9.907   5.640  70.043  1.00  0.00    -0.247 A  
ENDBRANCH  16  17
ENDBRANCH  15  16
ENDBRANCH  13  15
ENDBRANCH  12  13
ENDBRANCH  10  12
ENDBRANCH   2   6
BRANCH   3  28
HETATM   28  N   UNL     1      -9.927  16.347  68.298  1.00  0.00    -0.237 NA 
HETATM   29  H   UNL     1      -8.973  16.112  68.575  1.00  0.00     0.000 HD 
HETATM   30  O   UNL     1     -10.391  17.654  68.089  1.00  0.00    -0.347 OA 
HETATM   31  H   UNL     1      -9.703  18.293  68.238  1.00  0.00     0.000 HD 
ENDBRANCH   3  28
TORSDOF 7
ENDMDL
MODEL      344
REMARK 921   NORMALIZED FREE ENERGY PREDICTED BY IDOCK:   -2.34 KCAL/MOL
REMARK 922        TOTAL FREE ENERGY PREDICTED BY IDOCK:   -5.92 KCAL/MOL
REMARK 923 INTER-LIGAND FREE ENERGY PREDICTED BY IDOCK:   -5.75 KCAL/MOL
REMARK 924 INTRA-LIGAND FREE ENERGY PREDICTED BY IDOCK:   -0.18 KCAL/MOL
REMARK 927      BINDING AFFINITY PREDICTED BY RF-SCORE:    0.00 PKD
ROOT
HETATM    1  C   UNL     1     -10.521   4.354  72.621  1.00  0.00    -0.249 C  
HETATM    2  C   UNL     1      -9.784   4.747  71.571  1.00  0.00    -0.235 C  
HETATM    3  C   UNL     1     -10.250   3.047  73.231  1.00  0.00    -0.136 C  
HETATM    4  H   UNL     1     -10.386   2.170  74.938  1.00  0.00     0.000 HD 
HETATM    5  O   UNL     1     -10.561   3.017  74.543  1.00  0.00    -0.176 OA 
ENDROOT
BRANCH   2   6
HETATM    6  C   UNL     1     -10.009   6.048  70.952  1.00  0.00    -0.232 A  
HETATM    7  C   UNL     1     -10.448   6.134  69.628  1.00  0.00    -0.312 A  
HETATM    8  C   UNL     1     -10.767   7.378  69.077  1.00  0.00    -0.164 A  
HETATM    9  C   UNL     1      -9.846   7.211  71.708  1.00  0.00    -0.171 A  
HETATM   10  C   UNL     1     -10.654   8.543  69.847  1.00  0.00    -0.228 A  
HETATM   11  C   UNL     1     -10.169   8.452  71.159  1.00  0.00    -0.254 A  
BRANCH  10  12
HETATM   12  C   UNL     1     -11.173   9.857  69.316  1.00  0.00    -0.130 C  
BRANCH  12  13
HETATM   13  N   UNL     1     -11.427   9.821  67.875  1.00  0.00    -0.509 NA 
HETATM   14  H   UNL     1     -12.414   9.970  67.666  1.00  0.00     0.000 HD 
BRANCH  13  15
HETATM   15  C   UNL     1     -10.574  10.780  67.153  1.00  0.00    -0.256 C  
BRANCH  15  16
HETATM   16  C   UNL     1      -9.845  11.771  68.073  1.00  0.00    -0.184 C  
BRANCH  16  17
HETATM   17  C   UNL     1      -9.720  13.137  67.472  1.00  0.00    -0.213 A  
HETATM   18  C   UNL     1     -10.608  13.766  66.613  1.00  0.00    -0.274 A  
HETATM   19  N   UNL     1     -10.062  14.980  66.272  1.00  0.00    -0.268 NA 
HETATM   20  C   UNL     1     -11.921  13.345  66.060  1.00  0.00    -0.460 C  
HETATM   21  H   UNL     1     -10.497  15.655  65.642  1.00  0.00     0.000 HD 
HETATM   22  C   UNL     1      -8.853  15.163  66.894  1.00  0.00    -0.256 A  
HETATM   23  C   UNL     1      -7.957  16.236  66.826  1.00  0.00    -0.306 A  
HETATM   24  C   UNL     1      -6.786  16.154  67.585  1.00  0.00    -0.177 A  
HETATM   25  C   UNL     1      -6.524  15.040  68.380  1.00  0.00    -0.104 A  
HETATM   26  C   UNL     1      -7.427  13.973  68.429  1.00  0.00    -0.119 A  
HETATM   27  C   UNL     1      -8.616  14.031  67.670  1.00  0.00    -0.188 A  
ENDBRANCH  16  17
ENDBRANCH  15  16
ENDBRANCH  13  15
ENDBRANCH  12  13
ENDBRANCH  10  12
ENDBRANCH   2   6
BRANCH   3  28
HETATM   28  N   UNL     1      -9.771   2.024  72.599  1.00  0.00    -0.090 NA 
HETATM   29  H   UNL     1     -10.341   1.306  72.151  1.00  0.00     0.000 HD 
HETATM   30  O   UNL     1      -8.369   2.030  72.609  1.00  0.00    -0.056 OA 
HETATM   31  H   UNL     1      -8.017   1.279  72.145  1.00  0.00     0.000 HD 
ENDBRANCH   3  28
TORSDOF 7
ENDMDL
MODEL      345
REMARK 921   NORMALIZED FREE ENERGY PREDICTED BY IDOCK:   -2.29 KCAL/MOL
REMARK 922        TOTAL FREE ENERGY PREDICTED BY IDOCK:   -5.85 KCAL/MOL
REMARK 923 INTER-LIGAND FREE ENERGY PREDICTED BY IDOCK:   -5.09 KCAL/MOL
REMARK 924 INTRA-LIGAND FREE ENERGY PREDICTED BY IDOCK:   -0.77 KCAL/MOL
REMARK 927      BINDING AFFINITY PREDICTED BY RF-SCORE:    0.00 PKD
ROOT
HETATM    1  C   UNL     1     -10.055  13.199  66.140  1.00  0.00    -0.291 C  
HETATM    2  C   UNL     1      -9.175  12.607  66.961  1.00  0.00    -0.212 C  
HETATM    3  C   UNL     1     -10.087  14.664  66.067  1.00  0.00    -0.311 C  
HETATM    4  H   UNL     1     -10.524  16.059  64.816  1.00  0.00     0.000 HD 
HETATM    5  O   UNL     1     -10.504  15.110  64.864  1.00  0.00    -0.398 OA 
ENDROOT
BRANCH   2   6
HETATM    6  C   UNL     1      -9.099  11.154  67.045  1.00  0.00    -0.158 A  
HETATM    7  C   UNL     1      -8.036  10.539  67.711  1.00  0.00    -0.106 A  
HETATM    8  C   UNL     1      -8.028   9.152  67.884  1.00  0.00    -0.101 A  
HETATM    9  C   UNL     1     -10.129  10.376  66.511  1.00  0.00    -0.285 A  
HETATM   10  C   UNL     1      -9.083   8.371  67.395  1.00  0.00    -0.152 A  
HETATM   11  C   UNL     1     -10.122   8.993  66.687  1.00  0.00    -0.355 A  
BRANCH  10  12
HETATM   12  C   UNL     1      -9.167   6.905  67.742  1.00  0.00    -0.119 C  
BRANCH  12  13
HETATM   13  N   UNL     1     -10.547   6.437  67.878  1.00  0.00    -0.225 NA 
HETATM   14  H   UNL     1     -10.776   5.739  67.171  1.00  0.00     0.000 HD 
BRANCH  13  15
HETATM   15  C   UNL     1     -10.816   5.936  69.237  1.00  0.00    -0.344 C  
BRANCH  15  16
HETATM   16  C   UNL     1     -10.477   6.947  70.343  1.00  0.00    -0.229 C  
BRANCH  16  17
HETATM   17  C   UNL     1      -9.370   6.479  71.237  1.00  0.00    -0.158 A  
HETATM   18  C   UNL     1      -8.218   7.165  71.586  1.00  0.00    -0.103 A  
HETATM   19  N   UNL     1      -7.463   6.332  72.377  1.00  0.00    -0.092 NA 
HETATM   20  C   UNL     1      -7.734   8.528  71.246  1.00  0.00    -0.126 C  
HETATM   21  H   UNL     1      -6.555   6.574  72.772  1.00  0.00     0.000 HD 
HETATM   22  C   UNL     1      -8.099   5.130  72.562  1.00  0.00    -0.109 A  
HETATM   23  C   UNL     1      -7.694   3.998  73.279  1.00  0.00    -0.080 A  
HETATM   24  C   UNL     1      -8.560   2.900  73.302  1.00  0.00    -0.079 A  
HETATM   25  C   UNL     1      -9.782   2.937  72.635  1.00  0.00    -0.191 A  
HETATM   26  C   UNL     1     -10.166   4.074  71.915  1.00  0.00    -0.160 A  
HETATM   27  C   UNL     1      -9.308   5.194  71.874  1.00  0.00    -0.171 A  
ENDBRANCH  16  17
ENDBRANCH  15  16
ENDBRANCH  13  15
ENDBRANCH  12  13
ENDBRANCH  10  12
ENDBRANCH   2   6
BRANCH   3  28
HETATM   28  N   UNL     1      -9.760  15.458  67.035  1.00  0.00    -0.221 NA 
HETATM   29  H   UNL     1      -8.805  15.755  67.239  1.00  0.00     0.000 HD 
HETATM   30  O   UNL     1     -10.886  15.857  67.769  1.00  0.00    -0.311 OA 
HETATM   31  H   UNL     1     -10.646  16.439  68.480  1.00  0.00     0.000 HD 
ENDBRANCH   3  28
TORSDOF 7
ENDMDL
MODEL      346
REMARK 921   NORMALIZED FREE ENERGY PREDICTED BY IDOCK:   -2.28 KCAL/MOL
REMARK 922        TOTAL FREE ENERGY PREDICTED BY IDOCK:   -5.84 KCAL/MOL
REMARK 923 INTER-LIGAND FREE ENERGY PREDICTED BY IDOCK:   -4.70 KCAL/MOL
REMARK 924 INTRA-LIGAND FREE ENERGY PREDICTED BY IDOCK:   -1.14 KCAL/MOL
REMARK 927      BINDING AFFINITY PREDICTED BY RF-SCORE:    0.00 PKD
ROOT
HETATM    1  C   UNL     1      -7.144   8.854  68.757  1.00  0.00    -0.067 C  
HETATM    2  C   UNL     1      -7.479  10.030  68.205  1.00  0.00    -0.083 C  
HETATM    3  C   UNL     1      -6.691   8.826  70.152  1.00  0.00    -0.040 C  
HETATM    4  H   UNL     1      -6.677   7.638  71.664  1.00  0.00     0.000 HD 
HETATM    5  O   UNL     1      -6.971   7.656  70.761  1.00  0.00    -0.046 OA 
ENDROOT
BRANCH   2   6
HETATM    6  C   UNL     1      -7.954  10.096  66.828  1.00  0.00    -0.115 A  
HETATM    7  C   UNL     1      -9.072   9.358  66.430  1.00  0.00    -0.199 A  
HETATM    8  C   UNL     1      -9.588   9.511  65.141  1.00  0.00    -0.270 A  
HETATM    9  C   UNL     1      -7.325  10.950  65.920  1.00  0.00    -0.041 A  
HETATM   10  C   UNL     1      -8.992  10.404  64.241  1.00  0.00    -0.249 A  
HETATM   11  C   UNL     1      -7.843  11.105  64.634  1.00  0.00     0.665 A  
BRANCH  10  12
HETATM   12  C   UNL     1      -9.655  10.707  62.920  1.00  0.00    -0.327 C  
BRANCH  12  13
HETATM   13  N   UNL     1      -9.975  12.126  62.762  1.00  0.00    -0.306 NA 
HETATM   14  H   UNL     1     -10.358  12.322  61.837  1.00  0.00     0.000 HD 
BRANCH  13  15
HETATM   15  C   UNL     1     -10.874  12.599  63.828  1.00  0.00    -0.426 C  
BRANCH  15  16
HETATM   16  C   UNL     1     -10.541  14.012  64.332  1.00  0.00    -0.196 C  
BRANCH  16  17
HETATM   17  C   UNL     1     -10.512  14.102  65.826  1.00  0.00    -0.320 A  
HETATM   18  C   UNL     1     -10.063  15.160  66.601  1.00  0.00    -0.264 A  
HETATM   19  N   UNL     1     -10.170  14.785  67.918  1.00  0.00    -0.228 NA 
HETATM   20  C   UNL     1      -9.523  16.496  66.237  1.00  0.00    -0.339 C  
HETATM   21  H   UNL     1      -9.901  15.367  68.711  1.00  0.00     0.000 HD 
HETATM   22  C   UNL     1     -10.690  13.519  68.021  1.00  0.00    -0.251 A  
HETATM   23  C   UNL     1     -10.958  12.745  69.157  1.00  0.00    -0.185 A  
HETATM   24  C   UNL     1     -11.503  11.472  68.961  1.00  0.00    -0.355 A  
HETATM   25  C   UNL     1     -11.768  10.996  67.680  1.00  0.00    -0.102 A  
HETATM   26  C   UNL     1     -11.485  11.780  66.556  1.00  0.00    -0.325 A  
HETATM   27  C   UNL     1     -10.933  13.067  66.727  1.00  0.00    -0.299 A  
ENDBRANCH  16  17
ENDBRANCH  15  16
ENDBRANCH  13  15
ENDBRANCH  12  13
ENDBRANCH  10  12
ENDBRANCH   2   6
BRANCH   3  28
HETATM   28  N   UNL     1      -6.084   9.801  70.749  1.00  0.00    -0.084 NA 
HETATM   29  H   UNL     1      -5.523  10.508  70.273  1.00  0.00     0.000 HD 
HETATM   30  O   UNL     1      -6.296   9.761  72.135  1.00  0.00    -0.243 OA 
HETATM   31  H   UNL     1      -5.851  10.477  72.573  1.00  0.00     0.000 HD 
ENDBRANCH   3  28
TORSDOF 7
ENDMDL
MODEL      347
REMARK 921   NORMALIZED FREE ENERGY PREDICTED BY IDOCK:   -2.26 KCAL/MOL
REMARK 922        TOTAL FREE ENERGY PREDICTED BY IDOCK:   -5.81 KCAL/MOL
REMARK 923 INTER-LIGAND FREE ENERGY PREDICTED BY IDOCK:   -5.33 KCAL/MOL
REMARK 924 INTRA-LIGAND FREE ENERGY PREDICTED BY IDOCK:   -0.48 KCAL/MOL
REMARK 927      BINDING AFFINITY PREDICTED BY RF-SCORE:    0.00 PKD
ROOT
HETATM    1  C   UNL     1      -7.805   6.075  64.918  1.00  0.00    -0.106 C  
HETATM    2  C   UNL     1      -8.938   6.107  65.636  1.00  0.00    -0.056 C  
HETATM    3  C   UNL     1      -7.859   6.403  63.489  1.00  0.00    -0.110 C  
HETATM    4  H   UNL     1      -6.735   7.140  62.113  1.00  0.00     0.000 HD 
HETATM    5  O   UNL     1      -6.701   6.928  63.038  1.00  0.00    -0.045 OA 
ENDROOT
BRANCH   2   6
HETATM    6  C   UNL     1      -8.922   5.808  67.063  1.00  0.00    -0.114 A  
HETATM    7  C   UNL     1     -10.119   5.643  67.765  1.00  0.00    -0.209 A  
HETATM    8  C   UNL     1     -10.095   5.248  69.104  1.00  0.00    -0.289 A  
HETATM    9  C   UNL     1      -7.701   5.622  67.716  1.00  0.00    -0.096 A  
HETATM   10  C   UNL     1      -8.875   5.011  69.752  1.00  0.00    -0.125 A  
HETATM   11  C   UNL     1      -7.678   5.224  69.053  1.00  0.00    -0.082 A  
BRANCH  10  12
HETATM   12  C   UNL     1      -8.853   4.408  71.134  1.00  0.00    -0.115 C  
BRANCH  12  13
HETATM   13  N   UNL     1     -10.143   3.832  71.518  1.00  0.00    -0.116 NA 
HETATM   14  H   UNL     1     -10.057   2.841  71.744  1.00  0.00     0.000 HD 
BRANCH  13  15
HETATM   15  C   UNL     1     -10.764   4.584  72.621  1.00  0.00    -0.157 C  
BRANCH  15  16
HETATM   16  C   UNL     1      -9.896   5.738  73.144  1.00  0.00    -0.178 C  
BRANCH  16  17
HETATM   17  C   UNL     1     -10.305   7.068  72.590  1.00  0.00    -0.235 A  
HETATM   18  C   UNL     1      -9.515   8.196  72.428  1.00  0.00    -0.251 A  
HETATM   19  N   UNL     1     -10.319   9.198  71.940  1.00  0.00    -0.283 NA 
HETATM   20  C   UNL     1      -8.075   8.445  72.697  1.00  0.00    -0.173 C  
HETATM   21  H   UNL     1     -10.003  10.146  71.734  1.00  0.00     0.000 HD 
HETATM   22  C   UNL     1     -11.604   8.749  71.767  1.00  0.00    -0.346 A  
HETATM   23  C   UNL     1     -12.740   9.426  71.308  1.00  0.00    -0.391 A  
HETATM   24  C   UNL     1     -13.936   8.706  71.226  1.00  0.00    -0.239 A  
HETATM   25  C   UNL     1     -13.989   7.362  71.589  1.00  0.00    -0.523 A  
HETATM   26  C   UNL     1     -12.846   6.705  72.055  1.00  0.00    -0.157 A  
HETATM   27  C   UNL     1     -11.627   7.411  72.149  1.00  0.00    -0.331 A  
ENDBRANCH  16  17
ENDBRANCH  15  16
ENDBRANCH  13  15
ENDBRANCH  12  13
ENDBRANCH  10  12
ENDBRANCH   2   6
BRANCH   3  28
HETATM   28  N   UNL     1      -8.888   6.215  62.728  1.00  0.00    -0.282 NA 
HETATM   29  H   UNL     1      -9.339   6.947  62.178  1.00  0.00     0.000 HD 
HETATM   30  O   UNL     1      -9.304   4.875  62.755  1.00  0.00    -0.322 OA 
HETATM   31  H   UNL     1     -10.060   4.738  62.196  1.00  0.00     0.000 HD 
ENDBRANCH   3  28
TORSDOF 7
ENDMDL
MODEL      348
REMARK 921   NORMALIZED FREE ENERGY PREDICTED BY IDOCK:   -2.25 KCAL/MOL
REMARK 922        TOTAL FREE ENERGY PREDICTED BY IDOCK:   -5.80 KCAL/MOL
REMARK 923 INTER-LIGAND FREE ENERGY PREDICTED BY IDOCK:   -5.28 KCAL/MOL
REMARK 924 INTRA-LIGAND FREE ENERGY PREDICTED BY IDOCK:   -0.52 KCAL/MOL
REMARK 927      BINDING AFFINITY PREDICTED BY RF-SCORE:    0.00 PKD
ROOT
HETATM    1  C   UNL     1      -8.551   4.219  65.474  1.00  0.00    -0.119 C  
HETATM    2  C   UNL     1      -9.833   4.426  65.808  1.00  0.00    -0.232 C  
HETATM    3  C   UNL     1      -8.247   3.492  64.237  1.00  0.00    -0.090 C  
HETATM    4  H   UNL     1      -6.868   3.389  62.899  1.00  0.00     0.000 HD 
HETATM    5  O   UNL     1      -7.065   3.861  63.700  1.00  0.00    -0.047 OA 
ENDROOT
BRANCH   2   6
HETATM    6  C   UNL     1     -10.176   5.164  67.019  1.00  0.00    -0.265 A  
HETATM    7  C   UNL     1     -10.895   6.359  66.939  1.00  0.00    -0.428 A  
HETATM    8  C   UNL     1     -11.314   7.001  68.107  1.00  0.00     0.159 A  
HETATM    9  C   UNL     1      -9.836   4.637  68.267  1.00  0.00    -0.168 A  
HETATM   10  C   UNL     1     -11.021   6.452  69.362  1.00  0.00    -0.421 A  
HETATM   11  C   UNL     1     -10.259   5.277  69.433  1.00  0.00    -0.321 A  
BRANCH  10  12
HETATM   12  C   UNL     1     -11.630   7.042  70.610  1.00  0.00    -0.335 C  
BRANCH  12  13
HETATM   13  N   UNL     1     -11.279   8.451  70.796  1.00  0.00    -0.262 NA 
HETATM   14  H   UNL     1     -12.053   9.064  70.541  1.00  0.00     0.000 HD 
BRANCH  13  15
HETATM   15  C   UNL     1     -10.812   8.715  72.166  1.00  0.00    -0.354 C  
BRANCH  15  16
HETATM   16  C   UNL     1     -11.116   7.576  73.151  1.00  0.00    -0.378 C  
BRANCH  16  17
HETATM   17  C   UNL     1      -9.977   6.614  73.294  1.00  0.00    -0.211 A  
HETATM   18  C   UNL     1      -8.621   6.900  73.270  1.00  0.00    -0.121 A  
HETATM   19  N   UNL     1      -7.945   5.709  73.380  1.00  0.00    -0.109 NA 
HETATM   20  C   UNL     1      -7.880   8.181  73.140  1.00  0.00    -0.213 C  
HETATM   21  H   UNL     1      -6.929   5.617  73.381  1.00  0.00     0.000 HD 
HETATM   22  C   UNL     1      -8.822   4.660  73.489  1.00  0.00    -0.105 A  
HETATM   23  C   UNL     1      -8.575   3.287  73.610  1.00  0.00    -0.074 A  
HETATM   24  C   UNL     1      -9.679   2.435  73.711  1.00  0.00    -0.126 A  
HETATM   25  C   UNL     1     -10.977   2.939  73.693  1.00  0.00    -0.318 A  
HETATM   26  C   UNL     1     -11.205   4.313  73.563  1.00  0.00    -0.361 A  
HETATM   27  C   UNL     1     -10.107   5.194  73.456  1.00  0.00    -0.205 A  
ENDBRANCH  16  17
ENDBRANCH  15  16
ENDBRANCH  13  15
ENDBRANCH  12  13
ENDBRANCH  10  12
ENDBRANCH   2   6
BRANCH   3  28
HETATM   28  N   UNL     1      -9.009   2.591  63.706  1.00  0.00    -0.093 NA 
HETATM   29  H   UNL     1      -9.378   1.781  64.206  1.00  0.00     0.000 HD 
HETATM   30  O   UNL     1      -9.261   2.869  62.354  1.00  0.00    -0.084 OA 
HETATM   31  H   UNL     1      -9.821   2.208  61.965  1.00  0.00     0.000 HD 
ENDBRANCH   3  28
TORSDOF 7
ENDMDL
MODEL      349
REMARK 921   NORMALIZED FREE ENERGY PREDICTED BY IDOCK:   -2.24 KCAL/MOL
REMARK 922        TOTAL FREE ENERGY PREDICTED BY IDOCK:   -5.79 KCAL/MOL
REMARK 923 INTER-LIGAND FREE ENERGY PREDICTED BY IDOCK:   -5.18 KCAL/MOL
REMARK 924 INTRA-LIGAND FREE ENERGY PREDICTED BY IDOCK:   -0.62 KCAL/MOL
REMARK 927      BINDING AFFINITY PREDICTED BY RF-SCORE:    0.00 PKD
ROOT
HETATM    1  C   UNL     1      -7.401   3.940  65.198  1.00  0.00    -0.068 C  
HETATM    2  C   UNL     1      -8.103   4.944  64.651  1.00  0.00    -0.111 C  
HETATM    3  C   UNL     1      -7.794   2.557  64.911  1.00  0.00    -0.078 C  
HETATM    4  H   UNL     1      -7.005   0.807  64.779  1.00  0.00     0.000 HD 
HETATM    5  O   UNL     1      -6.750   1.704  64.964  1.00  0.00    -0.026 OA 
ENDROOT
BRANCH   2   6
HETATM    6  C   UNL     1      -7.730   6.332  64.896  1.00  0.00    -0.099 A  
HETATM    7  C   UNL     1      -7.182   7.108  63.872  1.00  0.00    -0.077 A  
HETATM    8  C   UNL     1      -6.930   8.466  64.082  1.00  0.00    -0.078 A  
HETATM    9  C   UNL     1      -7.983   6.905  66.145  1.00  0.00    -0.110 A  
HETATM   10  C   UNL     1      -7.229   9.059  65.316  1.00  0.00    -0.088 A  
HETATM   11  C   UNL     1      -7.735   8.261  66.353  1.00  0.00    -0.091 A  
BRANCH  10  12
HETATM   12  C   UNL     1      -7.132  10.555  65.483  1.00  0.00    -0.099 C  
BRANCH  12  13
HETATM   13  N   UNL     1      -8.440  11.210  65.454  1.00  0.00    -0.375 NA 
HETATM   14  H   UNL     1      -8.373  12.190  65.732  1.00  0.00     0.000 HD 
BRANCH  13  15
HETATM   15  C   UNL     1      -9.087  11.067  64.139  1.00  0.00    -0.097 C  
BRANCH  15  16
HETATM   16  C   UNL     1     -10.615  11.224  64.185  1.00  0.00    -0.437 C  
BRANCH  16  17
HETATM   17  C   UNL     1     -11.087  11.954  65.405  1.00  0.00    -0.360 A  
HETATM   18  C   UNL     1     -11.411  13.297  65.513  1.00  0.00    -0.311 A  
HETATM   19  N   UNL     1     -11.737  13.539  66.826  1.00  0.00    -0.369 NA 
HETATM   20  C   UNL     1     -11.438  14.395  64.513  1.00  0.00    -0.352 C  
HETATM   21  H   UNL     1     -12.009  14.450  67.197  1.00  0.00     0.000 HD 
HETATM   22  C   UNL     1     -11.646  12.390  67.570  1.00  0.00    -0.365 A  
HETATM   23  C   UNL     1     -11.875  12.180  68.935  1.00  0.00    -0.358 A  
HETATM   24  C   UNL     1     -11.711  10.882  69.428  1.00  0.00    -0.397 A  
HETATM   25  C   UNL     1     -11.334   9.838  68.587  1.00  0.00     0.024 A  
HETATM   26  C   UNL     1     -11.100  10.068  67.227  1.00  0.00    -0.116 A  
HETATM   27  C   UNL     1     -11.257  11.371  66.705  1.00  0.00    -0.298 A  
ENDBRANCH  16  17
ENDBRANCH  15  16
ENDBRANCH  13  15
ENDBRANCH  12  13
ENDBRANCH  10  12
ENDBRANCH   2   6
BRANCH   3  28
HETATM   28  N   UNL     1      -9.000   2.175  64.638  1.00  0.00    -0.116 NA 
HETATM   29  H   UNL     1      -9.357   2.025  63.694  1.00  0.00     0.000 HD 
HETATM   30  O   UNL     1      -9.753   1.993  65.807  1.00  0.00    -0.325 OA 
HETATM   31  H   UNL     1     -10.638   1.712  65.607  1.00  0.00     0.000 HD 
ENDBRANCH   3  28
TORSDOF 7
ENDMDL
MODEL      350
REMARK 921   NORMALIZED FREE ENERGY PREDICTED BY IDOCK:   -2.24 KCAL/MOL
REMARK 922        TOTAL FREE ENERGY PREDICTED BY IDOCK:   -5.78 KCAL/MOL
REMARK 923 INTER-LIGAND FREE ENERGY PREDICTED BY IDOCK:   -5.19 KCAL/MOL
REMARK 924 INTRA-LIGAND FREE ENERGY PREDICTED BY IDOCK:   -0.59 KCAL/MOL
REMARK 927      BINDING AFFINITY PREDICTED BY RF-SCORE:    0.00 PKD
ROOT
HETATM    1  C   UNL     1      -8.545   4.208  65.476  1.00  0.00    -0.118 C  
HETATM    2  C   UNL     1      -9.819   4.389  65.855  1.00  0.00    -0.237 C  
HETATM    3  C   UNL     1      -8.269   3.511  64.215  1.00  0.00    -0.090 C  
HETATM    4  H   UNL     1      -6.931   3.457  62.834  1.00  0.00     0.000 HD 
HETATM    5  O   UNL     1      -7.110   3.909  63.651  1.00  0.00    -0.047 OA 
ENDROOT
BRANCH   2   6
HETATM    6  C   UNL     1     -10.134   5.095  67.091  1.00  0.00    -0.244 A  
HETATM    7  C   UNL     1     -10.887   6.272  67.061  1.00  0.00    -0.458 A  
HETATM    8  C   UNL     1     -11.278   6.882  68.255  1.00  0.00    -0.070 A  
HETATM    9  C   UNL     1      -9.733   4.557  68.315  1.00  0.00    -0.186 A  
HETATM   10  C   UNL     1     -10.923   6.319  69.488  1.00  0.00    -0.445 A  
HETATM   11  C   UNL     1     -10.127   5.164  69.508  1.00  0.00    -0.316 A  
BRANCH  10  12
HETATM   12  C   UNL     1     -11.498   6.870  70.769  1.00  0.00    -0.335 C  
BRANCH  12  13
HETATM   13  N   UNL     1     -11.201   8.291  70.955  1.00  0.00    -0.262 NA 
HETATM   14  H   UNL     1     -12.007   8.873  70.730  1.00  0.00     0.000 HD 
BRANCH  13  15
HETATM   15  C   UNL     1     -10.700   8.566  72.312  1.00  0.00    -0.341 C  
BRANCH  15  16
HETATM   16  C   UNL     1     -10.948   7.418  73.303  1.00  0.00    -0.367 C  
BRANCH  16  17
HETATM   17  C   UNL     1      -9.760   6.521  73.460  1.00  0.00    -0.197 A  
HETATM   18  C   UNL     1      -9.716   5.143  73.316  1.00  0.00    -0.145 A  
HETATM   19  N   UNL     1      -8.436   4.737  73.608  1.00  0.00    -0.105 NA 
HETATM   20  C   UNL     1     -10.757   4.151  72.944  1.00  0.00    -0.230 C  
HETATM   21  H   UNL     1      -8.117   3.768  73.592  1.00  0.00     0.000 HD 
HETATM   22  C   UNL     1      -7.645   5.813  73.924  1.00  0.00    -0.096 A  
HETATM   23  C   UNL     1      -6.295   5.861  74.291  1.00  0.00    -0.070 A  
HETATM   24  C   UNL     1      -5.738   7.116  74.553  1.00  0.00    -0.070 A  
HETATM   25  C   UNL     1      -6.503   8.276  74.451  1.00  0.00    -0.149 A  
HETATM   26  C   UNL     1      -7.854   8.207  74.091  1.00  0.00    -0.285 A  
HETATM   27  C   UNL     1      -8.440   6.951  73.824  1.00  0.00    -0.152 A  
ENDBRANCH  16  17
ENDBRANCH  15  16
ENDBRANCH  13  15
ENDBRANCH  12  13
ENDBRANCH  10  12
ENDBRANCH   2   6
BRANCH   3  28
HETATM   28  N   UNL     1      -9.035   2.611  63.688  1.00  0.00    -0.092 NA 
HETATM   29  H   UNL     1      -9.377   1.786  64.181  1.00  0.00     0.000 HD 
HETATM   30  O   UNL     1      -9.334   2.915  62.352  1.00  0.00    -0.087 OA 
HETATM   31  H   UNL     1      -9.896   2.254  61.965  1.00  0.00     0.000 HD 
ENDBRANCH   3  28
TORSDOF 7
ENDMDL
MODEL      351
REMARK 921   NORMALIZED FREE ENERGY PREDICTED BY IDOCK:   -2.23 KCAL/MOL
REMARK 922        TOTAL FREE ENERGY PREDICTED BY IDOCK:   -5.77 KCAL/MOL
REMARK 923 INTER-LIGAND FREE ENERGY PREDICTED BY IDOCK:   -5.42 KCAL/MOL
REMARK 924 INTRA-LIGAND FREE ENERGY PREDICTED BY IDOCK:   -0.36 KCAL/MOL
REMARK 927      BINDING AFFINITY PREDICTED BY RF-SCORE:    0.00 PKD
ROOT
HETATM    1  C   UNL     1      -9.885   7.555  67.428  1.00  0.00    -0.221 C  
HETATM    2  C   UNL     1      -9.526   8.482  68.329  1.00  0.00    -0.143 C  
HETATM    3  C   UNL     1     -10.126   6.180  67.880  1.00  0.00    -0.153 C  
HETATM    4  H   UNL     1     -11.178   4.643  67.397  1.00  0.00     0.000 HD 
HETATM    5  O   UNL     1     -11.022   5.534  67.105  1.00  0.00    -0.170 OA 
ENDROOT
BRANCH   2   6
HETATM    6  C   UNL     1      -9.298   9.863  67.922  1.00  0.00    -0.149 A  
HETATM    7  C   UNL     1     -10.121  10.886  68.398  1.00  0.00    -0.196 A  
HETATM    8  C   UNL     1      -9.830  12.218  68.093  1.00  0.00    -0.212 A  
HETATM    9  C   UNL     1      -8.210  10.171  67.101  1.00  0.00    -0.121 A  
HETATM   10  C   UNL     1      -8.711  12.537  67.312  1.00  0.00    -0.193 A  
HETATM   11  C   UNL     1      -7.917  11.501  66.800  1.00  0.00    -0.152 A  
BRANCH  10  12
HETATM   12  C   UNL     1      -8.292  13.976  67.139  1.00  0.00    -0.156 C  
BRANCH  12  13
HETATM   13  N   UNL     1      -7.917  14.610  68.403  1.00  0.00    -0.130 NA 
HETATM   14  H   UNL     1      -7.508  13.937  69.051  1.00  0.00     0.000 HD 
BRANCH  13  15
HETATM   15  C   UNL     1      -7.025  15.761  68.188  1.00  0.00    -0.118 C  
BRANCH  15  16
HETATM   16  C   UNL     1      -7.052  16.784  69.334  1.00  0.00    -0.143 C  
BRANCH  16  17
HETATM   17  C   UNL     1      -7.171  18.196  68.849  1.00  0.00    -0.268 A  
HETATM   18  C   UNL     1      -6.400  19.285  69.221  1.00  0.00    -0.295 A  
HETATM   19  N   UNL     1      -6.899  20.387  68.570  1.00  0.00    -0.243 NA 
HETATM   20  C   UNL     1      -5.241  19.412  70.142  1.00  0.00    -0.218 C  
HETATM   21  H   UNL     1      -6.529  21.333  68.663  1.00  0.00     0.000 HD 
HETATM   22  C   UNL     1      -7.963  20.042  67.775  1.00  0.00    -0.289 A  
HETATM   23  C   UNL     1      -8.769  20.839  66.953  1.00  0.00    -0.128 A  
HETATM   24  C   UNL     1      -9.793  20.207  66.241  1.00  0.00    -0.541 A  
HETATM   25  C   UNL     1      -9.999  18.834  66.347  1.00  0.00    -0.426 A  
HETATM   26  C   UNL     1      -9.189  18.055  67.181  1.00  0.00    -0.256 A  
HETATM   27  C   UNL     1      -8.150  18.670  67.912  1.00  0.00    -0.283 A  
ENDBRANCH  16  17
ENDBRANCH  15  16
ENDBRANCH  13  15
ENDBRANCH  12  13
ENDBRANCH  10  12
ENDBRANCH   2   6
BRANCH   3  28
HETATM   28  N   UNL     1      -9.553   5.628  68.900  1.00  0.00    -0.125 NA 
HETATM   29  H   UNL     1      -9.974   5.555  69.827  1.00  0.00     0.000 HD 
HETATM   30  O   UNL     1      -8.279   5.144  68.569  1.00  0.00    -0.089 OA 
HETATM   31  H   UNL     1      -7.859   4.739  69.319  1.00  0.00     0.000 HD 
ENDBRANCH   3  28
TORSDOF 7
ENDMDL
MODEL      352
REMARK 921   NORMALIZED FREE ENERGY PREDICTED BY IDOCK:   -2.22 KCAL/MOL
REMARK 922        TOTAL FREE ENERGY PREDICTED BY IDOCK:   -5.75 KCAL/MOL
REMARK 923 INTER-LIGAND FREE ENERGY PREDICTED BY IDOCK:   -6.00 KCAL/MOL
REMARK 924 INTRA-LIGAND FREE ENERGY PREDICTED BY IDOCK:    0.25 KCAL/MOL
REMARK 927      BINDING AFFINITY PREDICTED BY RF-SCORE:    0.00 PKD
ROOT
HETATM    1  C   UNL     1      -9.206  11.020  67.444  1.00  0.00    -0.157 C  
HETATM    2  C   UNL     1      -9.532  12.288  67.737  1.00  0.00    -0.197 C  
HETATM    3  C   UNL     1     -10.276  10.064  67.138  1.00  0.00    -0.228 C  
HETATM    4  H   UNL     1     -10.560   8.465  66.107  1.00  0.00     0.000 HD 
HETATM    5  O   UNL     1      -9.867   9.085  66.305  1.00  0.00    -0.258 OA 
ENDROOT
BRANCH   2   6
HETATM    6  C   UNL     1      -8.496  13.273  68.026  1.00  0.00    -0.170 A  
HETATM    7  C   UNL     1      -8.723  14.284  68.963  1.00  0.00     0.060 A  
HETATM    8  C   UNL     1      -7.689  15.156  69.315  1.00  0.00    -0.204 A  
HETATM    9  C   UNL     1      -7.249  13.165  67.407  1.00  0.00    -0.119 A  
HETATM   10  C   UNL     1      -6.421  15.021  68.735  1.00  0.00    -0.082 A  
HETATM   11  C   UNL     1      -6.216  14.033  67.761  1.00  0.00    -0.152 A  
BRANCH  10  12
HETATM   12  C   UNL     1      -5.261  15.838  69.248  1.00  0.00    -0.105 C  
BRANCH  12  13
HETATM   13  N   UNL     1      -5.335  17.241  68.839  1.00  0.00    -0.146 NA 
HETATM   14  H   UNL     1      -4.525  17.768  69.164  1.00  0.00     0.000 HD 
BRANCH  13  15
HETATM   15  C   UNL     1      -5.513  17.371  67.383  1.00  0.00    -0.132 C  
BRANCH  15  16
HETATM   16  C   UNL     1      -5.526  18.827  66.892  1.00  0.00    -0.150 C  
BRANCH  16  17
HETATM   17  C   UNL     1      -6.875  19.265  66.412  1.00  0.00    -0.219 A  
HETATM   18  C   UNL     1      -7.170  19.992  65.270  1.00  0.00    -0.147 A  
HETATM   19  N   UNL     1      -8.526  20.214  65.260  1.00  0.00    -0.236 NA 
HETATM   20  C   UNL     1      -6.309  20.521  64.180  1.00  0.00    -0.295 C  
HETATM   21  H   UNL     1      -9.023  20.734  64.537  1.00  0.00     0.000 HD 
HETATM   22  C   UNL     1      -9.121  19.640  66.355  1.00  0.00    -0.379 A  
HETATM   23  C   UNL     1     -10.465  19.627  66.747  1.00  0.00    -0.605 A  
HETATM   24  C   UNL     1     -10.791  18.948  67.925  1.00  0.00    -0.272 A  
HETATM   25  C   UNL     1      -9.810  18.308  68.678  1.00  0.00    -0.400 A  
HETATM   26  C   UNL     1      -8.470  18.339  68.276  1.00  0.00    -0.309 A  
HETATM   27  C   UNL     1      -8.115  19.020  67.091  1.00  0.00    -0.280 A  
ENDBRANCH  16  17
ENDBRANCH  15  16
ENDBRANCH  13  15
ENDBRANCH  12  13
ENDBRANCH  10  12
ENDBRANCH   2   6
BRANCH   3  28
HETATM   28  N   UNL     1     -11.480  10.130  67.608  1.00  0.00    -0.546 NA 
HETATM   29  H   UNL     1     -12.256   9.552  67.284  1.00  0.00     0.000 HD 
HETATM   30  O   UNL     1     -11.581  11.098  68.618  1.00  0.00    -0.270 OA 
HETATM   31  H   UNL     1     -12.465  11.146  68.962  1.00  0.00     0.000 HD 
ENDBRANCH   3  28
TORSDOF 7
ENDMDL
MODEL      353
REMARK 921   NORMALIZED FREE ENERGY PREDICTED BY IDOCK:   -2.10 KCAL/MOL
REMARK 922        TOTAL FREE ENERGY PREDICTED BY IDOCK:   -5.59 KCAL/MOL
REMARK 923 INTER-LIGAND FREE ENERGY PREDICTED BY IDOCK:   -5.02 KCAL/MOL
REMARK 924 INTRA-LIGAND FREE ENERGY PREDICTED BY IDOCK:   -0.57 KCAL/MOL
REMARK 927      BINDING AFFINITY PREDICTED BY RF-SCORE:    0.00 PKD
ROOT
HETATM    1  C   UNL     1      -8.410   4.850  65.535  1.00  0.00    -0.123 C  
HETATM    2  C   UNL     1      -8.786   6.117  65.765  1.00  0.00    -0.151 C  
HETATM    3  C   UNL     1      -9.071   4.094  64.465  1.00  0.00    -0.147 C  
HETATM    4  H   UNL     1      -8.696   2.663  63.236  1.00  0.00     0.000 HD 
HETATM    5  O   UNL     1      -8.268   3.152  63.929  1.00  0.00    -0.085 OA 
ENDROOT
BRANCH   2   6
HETATM    6  C   UNL     1      -8.138   6.906  66.806  1.00  0.00    -0.109 A  
HETATM    7  C   UNL     1      -8.775   8.028  67.342  1.00  0.00    -0.124 A  
HETATM    8  C   UNL     1      -8.198   8.714  68.414  1.00  0.00    -0.122 A  
HETATM    9  C   UNL     1      -6.901   6.500  67.312  1.00  0.00    -0.069 A  
HETATM   10  C   UNL     1      -6.982   8.281  68.960  1.00  0.00    -0.061 A  
HETATM   11  C   UNL     1      -6.328   7.182  68.385  1.00  0.00    -0.036 A  
BRANCH  10  12
HETATM   12  C   UNL     1      -6.455   8.904  70.228  1.00  0.00    -0.041 C  
BRANCH  12  13
HETATM   13  N   UNL     1      -6.197   7.916  71.276  1.00  0.00    -0.034 NA 
HETATM   14  H   UNL     1      -5.706   8.331  72.068  1.00  0.00     0.000 HD 
BRANCH  13  15
HETATM   15  C   UNL     1      -7.437   7.246  71.704  1.00  0.00    -0.085 C  
BRANCH  15  16
HETATM   16  C   UNL     1      -8.136   7.940  72.883  1.00  0.00    -0.189 C  
BRANCH  16  17
HETATM   17  C   UNL     1      -9.617   8.055  72.693  1.00  0.00    -0.327 A  
HETATM   18  C   UNL     1     -10.613   7.405  73.405  1.00  0.00    -0.377 A  
HETATM   19  N   UNL     1     -11.819   7.765  72.853  1.00  0.00    -0.618 NA 
HETATM   20  C   UNL     1     -10.559   6.462  74.552  1.00  0.00     0.189 C  
HETATM   21  H   UNL     1     -12.727   7.428  73.173  1.00  0.00     0.000 HD 
HETATM   22  C   UNL     1     -11.635   8.640  71.812  1.00  0.00    -0.332 A  
HETATM   23  C   UNL     1     -12.573   9.248  70.969  1.00  0.00    -0.248 A  
HETATM   24  C   UNL     1     -12.094  10.115  69.982  1.00  0.00    -0.166 A  
HETATM   25  C   UNL     1     -10.730  10.363  69.847  1.00  0.00    -0.331 A  
HETATM   26  C   UNL     1      -9.806   9.739  70.693  1.00  0.00    -0.171 A  
HETATM   27  C   UNL     1     -10.265   8.858  71.695  1.00  0.00    -0.415 A  
ENDBRANCH  16  17
ENDBRANCH  15  16
ENDBRANCH  13  15
ENDBRANCH  12  13
ENDBRANCH  10  12
ENDBRANCH   2   6
BRANCH   3  28
HETATM   28  N   UNL     1     -10.287   4.290  64.068  1.00  0.00    -0.421 NA 
HETATM   29  H   UNL     1     -10.715   5.209  63.956  1.00  0.00     0.000 HD 
HETATM   30  O   UNL     1     -10.941   3.076  63.812  1.00  0.00    -0.426 OA 
HETATM   31  H   UNL     1     -11.833   3.220  63.520  1.00  0.00     0.000 HD 
ENDBRANCH   3  28
TORSDOF 7
ENDMDL
MODEL      354
REMARK 921   NORMALIZED FREE ENERGY PREDICTED BY IDOCK:   -1.98 KCAL/MOL
REMARK 922        TOTAL FREE ENERGY PREDICTED BY IDOCK:   -5.43 KCAL/MOL
REMARK 923 INTER-LIGAND FREE ENERGY PREDICTED BY IDOCK:   -4.65 KCAL/MOL
REMARK 924 INTRA-LIGAND FREE ENERGY PREDICTED BY IDOCK:   -0.78 KCAL/MOL
REMARK 927      BINDING AFFINITY PREDICTED BY RF-SCORE:    0.00 PKD
ROOT
HETATM    1  C   UNL     1     -10.473  10.136  66.456  1.00  0.00    -0.236 C  
HETATM    2  C   UNL     1      -9.677   9.485  67.318  1.00  0.00    -0.215 C  
HETATM    3  C   UNL     1      -9.866  10.847  65.326  1.00  0.00    -0.265 C  
HETATM    4  H   UNL     1     -10.296  11.376  63.527  1.00  0.00     0.000 HD 
HETATM    5  O   UNL     1     -10.689  10.915  64.259  1.00  0.00    -0.353 OA 
ENDROOT
BRANCH   2   6
HETATM    6  C   UNL     1     -10.244   8.749  68.442  1.00  0.00    -0.228 A  
HETATM    7  C   UNL     1     -10.333   7.355  68.401  1.00  0.00    -0.224 A  
HETATM    8  C   UNL     1     -10.775   6.650  69.524  1.00  0.00    -0.305 A  
HETATM    9  C   UNL     1     -10.641   9.439  69.590  1.00  0.00    -0.239 A  
HETATM   10  C   UNL     1     -11.126   7.332  70.696  1.00  0.00    -0.287 A  
HETATM   11  C   UNL     1     -11.078   8.734  70.712  1.00  0.00    -0.306 A  
BRANCH  10  12
HETATM   12  C   UNL     1     -11.423   6.566  71.961  1.00  0.00    -0.300 C  
BRANCH  12  13
HETATM   13  N   UNL     1     -10.222   6.308  72.757  1.00  0.00    -0.181 NA 
HETATM   14  H   UNL     1     -10.262   6.785  73.658  1.00  0.00     0.000 HD 
BRANCH  13  15
HETATM   15  C   UNL     1      -9.984   4.865  72.924  1.00  0.00    -0.157 C  
BRANCH  15  16
HETATM   16  C   UNL     1      -8.550   4.524  73.359  1.00  0.00    -0.101 C  
BRANCH  16  17
HETATM   17  C   UNL     1      -7.617   4.356  72.199  1.00  0.00    -0.080 A  
HETATM   18  C   UNL     1      -6.491   5.108  71.903  1.00  0.00    -0.036 A  
HETATM   19  N   UNL     1      -5.977   4.637  70.720  1.00  0.00    -0.017 NA 
HETATM   20  C   UNL     1      -5.844   6.244  72.610  1.00  0.00    -0.038 C  
HETATM   21  H   UNL     1      -5.150   5.012  70.256  1.00  0.00     0.000 HD 
HETATM   22  C   UNL     1      -6.729   3.591  70.246  1.00  0.00    -0.033 A  
HETATM   23  C   UNL     1      -6.577   2.827  69.082  1.00  0.00    -0.033 A  
HETATM   24  C   UNL     1      -7.501   1.803  68.853  1.00  0.00    -0.043 A  
HETATM   25  C   UNL     1      -8.534   1.555  69.754  1.00  0.00    -0.077 A  
HETATM   26  C   UNL     1      -8.676   2.335  70.907  1.00  0.00    -0.115 A  
HETATM   27  C   UNL     1      -7.757   3.376  71.160  1.00  0.00    -0.051 A  
ENDBRANCH  16  17
ENDBRANCH  15  16
ENDBRANCH  13  15
ENDBRANCH  12  13
ENDBRANCH  10  12
ENDBRANCH   2   6
BRANCH   3  28
HETATM   28  N   UNL     1      -8.679  11.363  65.331  1.00  0.00    -0.391 NA 
HETATM   29  H   UNL     1      -8.412  12.187  65.871  1.00  0.00     0.000 HD 
HETATM   30  O   UNL     1      -7.807  10.645  64.500  1.00  0.00    -0.341 OA 
HETATM   31  H   UNL     1      -6.936  11.024  64.504  1.00  0.00     0.000 HD 
ENDBRANCH   3  28
TORSDOF 7
ENDMDL
MODEL      355
REMARK 921   NORMALIZED FREE ENERGY PREDICTED BY IDOCK:   -1.80 KCAL/MOL
REMARK 922        TOTAL FREE ENERGY PREDICTED BY IDOCK:   -5.17 KCAL/MOL
REMARK 923 INTER-LIGAND FREE ENERGY PREDICTED BY IDOCK:   -5.24 KCAL/MOL
REMARK 924 INTRA-LIGAND FREE ENERGY PREDICTED BY IDOCK:    0.08 KCAL/MOL
REMARK 927      BINDING AFFINITY PREDICTED BY RF-SCORE:    0.00 PKD
ROOT
HETATM    1  C   UNL     1      -9.719   7.619  67.527  1.00  0.00    -0.197 C  
HETATM    2  C   UNL     1      -9.197   8.557  68.331  1.00  0.00    -0.135 C  
HETATM    3  C   UNL     1      -9.801   6.235  68.008  1.00  0.00    -0.125 C  
HETATM    4  H   UNL     1     -10.880   4.661  67.763  1.00  0.00     0.000 HD 
HETATM    5  O   UNL     1     -10.826   5.557  67.452  1.00  0.00    -0.205 OA 
ENDROOT
BRANCH   2   6
HETATM    6  C   UNL     1      -9.117   9.947  67.897  1.00  0.00    -0.135 A  
HETATM    7  C   UNL     1      -9.696  10.961  68.664  1.00  0.00    -0.188 A  
HETATM    8  C   UNL     1      -9.521  12.299  68.300  1.00  0.00    -0.209 A  
HETATM    9  C   UNL     1      -8.404  10.269  66.740  1.00  0.00    -0.124 A  
HETATM   10  C   UNL     1      -8.763  12.632  67.169  1.00  0.00    -0.201 A  
HETATM   11  C   UNL     1      -8.226  11.605  66.380  1.00  0.00    -0.052 A  
BRANCH  10  12
HETATM   12  C   UNL     1      -8.420  14.073  66.883  1.00  0.00    -0.078 C  
BRANCH  12  13
HETATM   13  N   UNL     1      -8.560  14.930  68.060  1.00  0.00    -0.155 NA 
HETATM   14  H   UNL     1      -8.280  14.443  68.912  1.00  0.00     0.000 HD 
BRANCH  13  15
HETATM   15  C   UNL     1      -7.827  16.196  67.898  1.00  0.00    -0.141 C  
BRANCH  15  16
HETATM   16  C   UNL     1      -8.680  17.442  68.180  1.00  0.00    -0.256 C  
BRANCH  16  17
HETATM   17  C   UNL     1      -8.479  18.524  67.164  1.00  0.00    -0.268 A  
HETATM   18  C   UNL     1      -9.356  19.544  66.831  1.00  0.00    -0.346 A  
HETATM   19  N   UNL     1      -8.783  20.267  65.813  1.00  0.00    -0.493 NA 
HETATM   20  C   UNL     1     -10.695  19.913  67.358  1.00  0.00    -0.447 C  
HETATM   21  H   UNL     1      -9.212  21.075  65.362  1.00  0.00     0.000 HD 
HETATM   22  C   UNL     1      -7.553  19.755  65.485  1.00  0.00    -0.099 A  
HETATM   23  C   UNL     1      -6.635  20.166  64.511  1.00  0.00    -0.172 A  
HETATM   24  C   UNL     1      -5.439  19.451  64.402  1.00  0.00    -0.272 A  
HETATM   25  C   UNL     1      -5.173  18.368  65.237  1.00  0.00    -0.206 A  
HETATM   26  C   UNL     1      -6.106  17.965  66.199  1.00  0.00    -0.256 A  
HETATM   27  C   UNL     1      -7.323  18.670  66.327  1.00  0.00    -0.287 A  
ENDBRANCH  16  17
ENDBRANCH  15  16
ENDBRANCH  13  15
ENDBRANCH  12  13
ENDBRANCH  10  12
ENDBRANCH   2   6
BRANCH   3  28
HETATM   28  N   UNL     1      -8.990   5.703  68.865  1.00  0.00    -0.111 NA 
HETATM   29  H   UNL     1      -9.254   5.425  69.811  1.00  0.00     0.000 HD 
HETATM   30  O   UNL     1      -7.703   5.559  68.327  1.00  0.00    -0.083 OA 
HETATM   31  H   UNL     1      -7.108   5.168  68.957  1.00  0.00     0.000 HD 
ENDBRANCH   3  28
TORSDOF 7
ENDMDL
MODEL      356
REMARK 921   NORMALIZED FREE ENERGY PREDICTED BY IDOCK:   -1.77 KCAL/MOL
REMARK 922        TOTAL FREE ENERGY PREDICTED BY IDOCK:   -5.13 KCAL/MOL
REMARK 923 INTER-LIGAND FREE ENERGY PREDICTED BY IDOCK:   -4.01 KCAL/MOL
REMARK 924 INTRA-LIGAND FREE ENERGY PREDICTED BY IDOCK:   -1.12 KCAL/MOL
REMARK 927      BINDING AFFINITY PREDICTED BY RF-SCORE:    0.00 PKD
ROOT
HETATM    1  C   UNL     1      -8.662   4.442  67.182  1.00  0.00    -0.106 C  
HETATM    2  C   UNL     1      -7.960   5.504  66.758  1.00  0.00    -0.101 C  
HETATM    3  C   UNL     1      -9.201   3.503  66.192  1.00  0.00    -0.168 C  
HETATM    4  H   UNL     1      -9.668   1.643  66.041  1.00  0.00     0.000 HD 
HETATM    5  O   UNL     1      -9.318   2.252  66.682  1.00  0.00    -0.060 OA 
ENDROOT
BRANCH   2   6
HETATM    6  C   UNL     1      -7.390   6.448  67.712  1.00  0.00    -0.088 A  
HETATM    7  C   UNL     1      -6.051   6.832  67.613  1.00  0.00    -0.028 A  
HETATM    8  C   UNL     1      -5.542   7.819  68.461  1.00  0.00    -0.028 A  
HETATM    9  C   UNL     1      -8.207   7.018  68.691  1.00  0.00    -0.122 A  
HETATM   10  C   UNL     1      -6.369   8.432  69.411  1.00  0.00    -0.038 A  
HETATM   11  C   UNL     1      -7.700   8.006  69.535  1.00  0.00    -0.103 A  
BRANCH  10  12
HETATM   12  C   UNL     1      -5.874   9.621  70.196  1.00  0.00    -0.044 C  
BRANCH  12  13
HETATM   13  N   UNL     1      -6.405  10.888  69.693  1.00  0.00    -0.084 NA 
HETATM   14  H   UNL     1      -6.581  11.546  70.452  1.00  0.00     0.000 HD 
BRANCH  13  15
HETATM   15  C   UNL     1      -5.526  11.474  68.667  1.00  0.00    -0.042 C  
BRANCH  15  16
HETATM   16  C   UNL     1      -6.260  11.849  67.370  1.00  0.00    -0.125 C  
BRANCH  16  17
HETATM   17  C   UNL     1      -7.439  12.741  67.609  1.00  0.00    -0.144 A  
HETATM   18  C   UNL     1      -7.430  14.104  67.864  1.00  0.00    -0.152 A  
HETATM   19  N   UNL     1      -8.731  14.494  68.075  1.00  0.00    -0.160 NA 
HETATM   20  C   UNL     1      -6.322  15.090  67.945  1.00  0.00    -0.179 C  
HETATM   21  H   UNL     1      -9.022  15.446  68.294  1.00  0.00     0.000 HD 
HETATM   22  C   UNL     1      -9.584  13.427  67.952  1.00  0.00    -0.216 A  
HETATM   23  C   UNL     1     -10.976  13.365  68.094  1.00  0.00    -0.277 A  
HETATM   24  C   UNL     1     -11.594  12.125  67.902  1.00  0.00    -0.413 A  
HETATM   25  C   UNL     1     -10.847  10.995  67.579  1.00  0.00    -0.314 A  
HETATM   26  C   UNL     1      -9.456  11.074  67.451  1.00  0.00    -0.173 A  
HETATM   27  C   UNL     1      -8.808  12.313  67.642  1.00  0.00    -0.175 A  
ENDBRANCH  16  17
ENDBRANCH  15  16
ENDBRANCH  13  15
ENDBRANCH  12  13
ENDBRANCH  10  12
ENDBRANCH   2   6
BRANCH   3  28
HETATM   28  N   UNL     1      -9.536   3.819  64.983  1.00  0.00    -0.168 NA 
HETATM   29  H   UNL     1      -9.035   3.514  64.148  1.00  0.00     0.000 HD 
HETATM   30  O   UNL     1     -10.677   4.635  64.967  1.00  0.00    -0.502 OA 
HETATM   31  H   UNL     1     -10.923   4.867  64.079  1.00  0.00     0.000 HD 
ENDBRANCH   3  28
TORSDOF 7
ENDMDL
MODEL      357
REMARK 921   NORMALIZED FREE ENERGY PREDICTED BY IDOCK:   -1.62 KCAL/MOL
REMARK 922        TOTAL FREE ENERGY PREDICTED BY IDOCK:   -4.91 KCAL/MOL
REMARK 923 INTER-LIGAND FREE ENERGY PREDICTED BY IDOCK:   -5.36 KCAL/MOL
REMARK 924 INTRA-LIGAND FREE ENERGY PREDICTED BY IDOCK:    0.45 KCAL/MOL
REMARK 927      BINDING AFFINITY PREDICTED BY RF-SCORE:    0.00 PKD
ROOT
HETATM    1  C   UNL     1     -12.107  10.183  71.034  1.00  0.00    -0.476 C  
HETATM    2  C   UNL     1     -11.511   9.024  71.353  1.00  0.00    -0.400 C  
HETATM    3  C   UNL     1     -13.246  10.642  71.837  1.00  0.00    -0.423 C  
HETATM    4  H   UNL     1     -14.094  12.283  72.372  1.00  0.00     0.000 HD 
HETATM    5  O   UNL     1     -13.356  11.986  71.852  1.00  0.00    -0.456 OA 
ENDROOT
BRANCH   2   6
HETATM    6  C   UNL     1     -10.363   8.545  70.592  1.00  0.00    -0.232 A  
HETATM    7  C   UNL     1      -9.069   8.944  70.938  1.00  0.00    -0.283 A  
HETATM    8  C   UNL     1      -7.968   8.395  70.275  1.00  0.00    -0.102 A  
HETATM    9  C   UNL     1     -10.556   7.633  69.552  1.00  0.00    -0.227 A  
HETATM   10  C   UNL     1      -8.152   7.442  69.265  1.00  0.00    -0.123 A  
HETATM   11  C   UNL     1      -9.456   7.083  68.893  1.00  0.00    -0.137 A  
BRANCH  10  12
HETATM   12  C   UNL     1      -6.966   6.715  68.681  1.00  0.00    -0.080 C  
BRANCH  12  13
HETATM   13  N   UNL     1      -6.414   7.392  67.507  1.00  0.00    -0.058 NA 
HETATM   14  H   UNL     1      -5.429   7.623  67.638  1.00  0.00     0.000 HD 
BRANCH  13  15
HETATM   15  C   UNL     1      -6.623   6.603  66.281  1.00  0.00    -0.044 C  
BRANCH  15  16
HETATM   16  C   UNL     1      -6.341   5.103  66.459  1.00  0.00    -0.036 C  
BRANCH  16  17
HETATM   17  C   UNL     1      -7.498   4.363  67.056  1.00  0.00    -0.081 A  
HETATM   18  C   UNL     1      -8.831   4.437  66.683  1.00  0.00    -0.114 A  
HETATM   19  N   UNL     1      -9.545   3.632  67.538  1.00  0.00    -0.189 NA 
HETATM   20  C   UNL     1      -9.521   5.199  65.610  1.00  0.00    -0.129 C  
HETATM   21  H   UNL     1     -10.556   3.502  67.503  1.00  0.00     0.000 HD 
HETATM   22  C   UNL     1      -8.713   3.027  68.446  1.00  0.00    -0.102 A  
HETATM   23  C   UNL     1      -9.009   2.146  69.492  1.00  0.00    -0.156 A  
HETATM   24  C   UNL     1      -7.943   1.674  70.265  1.00  0.00    -0.050 A  
HETATM   25  C   UNL     1      -6.634   2.069  69.997  1.00  0.00    -0.029 A  
HETATM   26  C   UNL     1      -6.358   2.957  68.953  1.00  0.00    -0.029 A  
HETATM   27  C   UNL     1      -7.417   3.450  68.160  1.00  0.00    -0.054 A  
ENDBRANCH  16  17
ENDBRANCH  15  16
ENDBRANCH  13  15
ENDBRANCH  12  13
ENDBRANCH  10  12
ENDBRANCH   2   6
BRANCH   3  28
HETATM   28  N   UNL     1     -14.067   9.862  72.465  1.00  0.00    -0.442 NA 
HETATM   29  H   UNL     1     -15.082   9.901  72.371  1.00  0.00     0.000 HD 
HETATM   30  O   UNL     1     -13.382   8.959  73.290  1.00  0.00    -0.912 OA 
HETATM   31  H   UNL     1     -13.985   8.387  73.750  1.00  0.00     0.000 HD 
ENDBRANCH   3  28
TORSDOF 7
ENDMDL
MODEL      358
REMARK 921   NORMALIZED FREE ENERGY PREDICTED BY IDOCK:   -1.53 KCAL/MOL
REMARK 922        TOTAL FREE ENERGY PREDICTED BY IDOCK:   -4.79 KCAL/MOL
REMARK 923 INTER-LIGAND FREE ENERGY PREDICTED BY IDOCK:   -4.24 KCAL/MOL
REMARK 924 INTRA-LIGAND FREE ENERGY PREDICTED BY IDOCK:   -0.55 KCAL/MOL
REMARK 927      BINDING AFFINITY PREDICTED BY RF-SCORE:    0.00 PKD
ROOT
HETATM    1  C   UNL     1      -8.569   5.024  65.911  1.00  0.00    -0.124 C  
HETATM    2  C   UNL     1      -8.886   6.076  66.681  1.00  0.00    -0.125 C  
HETATM    3  C   UNL     1      -9.337   3.782  66.050  1.00  0.00    -0.170 C  
HETATM    4  H   UNL     1      -9.872   2.265  64.996  1.00  0.00     0.000 HD 
HETATM    5  O   UNL     1      -9.375   3.070  64.905  1.00  0.00    -0.145 OA 
ENDROOT
BRANCH   2   6
HETATM    6  C   UNL     1      -8.160   7.334  66.556  1.00  0.00    -0.114 A  
HETATM    7  C   UNL     1      -8.566   8.296  65.628  1.00  0.00    -0.189 A  
HETATM    8  C   UNL     1      -7.934   9.542  65.591  1.00  0.00    -0.108 A  
HETATM    9  C   UNL     1      -7.092   7.603  67.415  1.00  0.00    -0.086 A  
HETATM   10  C   UNL     1      -6.896   9.836  66.484  1.00  0.00    -0.084 A  
HETATM   11  C   UNL     1      -6.464   8.848  67.380  1.00  0.00    -0.057 A  
BRANCH  10  12
HETATM   12  C   UNL     1      -6.342  11.237  66.569  1.00  0.00    -0.119 C  
BRANCH  12  13
HETATM   13  N   UNL     1      -5.831  11.560  67.902  1.00  0.00    -0.044 NA 
HETATM   14  H   UNL     1      -4.885  11.202  68.036  1.00  0.00     0.000 HD 
BRANCH  13  15
HETATM   15  C   UNL     1      -5.902  13.006  68.173  1.00  0.00    -0.093 C  
BRANCH  15  16
HETATM   16  C   UNL     1      -7.269  13.465  68.703  1.00  0.00    -0.107 C  
BRANCH  16  17
HETATM   17  C   UNL     1      -7.428  14.954  68.681  1.00  0.00    -0.124 A  
HETATM   18  C   UNL     1      -6.754  15.888  69.452  1.00  0.00    -0.189 A  
HETATM   19  N   UNL     1      -7.259  17.126  69.139  1.00  0.00    -0.232 NA 
HETATM   20  C   UNL     1      -5.683  15.744  70.473  1.00  0.00    -0.069 C  
HETATM   21  H   UNL     1      -6.953  18.002  69.563  1.00  0.00     0.000 HD 
HETATM   22  C   UNL     1      -8.233  17.025  68.178  1.00  0.00    -0.217 A  
HETATM   23  C   UNL     1      -9.013  18.021  67.578  1.00  0.00    -0.249 A  
HETATM   24  C   UNL     1      -9.938  17.623  66.607  1.00  0.00    -0.328 A  
HETATM   25  C   UNL     1     -10.073  16.283  66.252  1.00  0.00    -0.340 A  
HETATM   26  C   UNL     1      -9.291  15.301  66.869  1.00  0.00    -0.255 A  
HETATM   27  C   UNL     1      -8.352  15.677  67.854  1.00  0.00    -0.150 A  
ENDBRANCH  16  17
ENDBRANCH  15  16
ENDBRANCH  13  15
ENDBRANCH  12  13
ENDBRANCH  10  12
ENDBRANCH   2   6
BRANCH   3  28
HETATM   28  N   UNL     1      -9.916   3.393  67.140  1.00  0.00    -0.195 NA 
HETATM   29  H   UNL     1     -10.372   4.019  67.805  1.00  0.00     0.000 HD 
HETATM   30  O   UNL     1      -9.839   2.000  67.288  1.00  0.00    -0.331 OA 
HETATM   31  H   UNL     1     -10.265   1.715  68.088  1.00  0.00     0.000 HD 
ENDBRANCH   3  28
TORSDOF 7
ENDMDL
MODEL      359
REMARK 921   NORMALIZED FREE ENERGY PREDICTED BY IDOCK:   -1.35 KCAL/MOL
REMARK 922        TOTAL FREE ENERGY PREDICTED BY IDOCK:   -4.54 KCAL/MOL
REMARK 923 INTER-LIGAND FREE ENERGY PREDICTED BY IDOCK:   -3.96 KCAL/MOL
REMARK 924 INTRA-LIGAND FREE ENERGY PREDICTED BY IDOCK:   -0.58 KCAL/MOL
REMARK 927      BINDING AFFINITY PREDICTED BY RF-SCORE:    0.00 PKD
ROOT
HETATM    1  C   UNL     1     -10.247  12.344  68.166  1.00  0.00    -0.225 C  
HETATM    2  C   UNL     1      -9.763  11.101  68.017  1.00  0.00    -0.183 C  
HETATM    3  C   UNL     1     -11.003  12.949  67.065  1.00  0.00    -0.262 C  
HETATM    4  H   UNL     1     -12.403  14.239  66.785  1.00  0.00     0.000 HD 
HETATM    5  O   UNL     1     -11.913  13.846  67.498  1.00  0.00    -0.377 OA 
ENDROOT
BRANCH   2   6
HETATM    6  C   UNL     1      -9.025  10.457  69.097  1.00  0.00    -0.188 A  
HETATM    7  C   UNL     1      -9.703   9.903  70.185  1.00  0.00    -0.255 A  
HETATM    8  C   UNL     1      -8.998   9.191  71.159  1.00  0.00    -0.249 A  
HETATM    9  C   UNL     1      -7.636  10.340  69.009  1.00  0.00    -0.102 A  
HETATM   10  C   UNL     1      -7.611   9.026  71.051  1.00  0.00    -0.138 A  
HETATM   11  C   UNL     1      -6.933   9.626  69.980  1.00  0.00    -0.093 A  
BRANCH  10  12
HETATM   12  C   UNL     1      -6.879   8.106  71.997  1.00  0.00    -0.079 C  
BRANCH  12  13
HETATM   13  N   UNL     1      -7.405   6.741  71.974  1.00  0.00    -0.087 NA 
HETATM   14  H   UNL     1      -8.395   6.726  71.727  1.00  0.00     0.000 HD 
BRANCH  13  15
HETATM   15  C   UNL     1      -6.616   5.873  71.084  1.00  0.00    -0.049 C  
BRANCH  15  16
HETATM   16  C   UNL     1      -6.010   4.653  71.794  1.00  0.00    -0.017 C  
BRANCH  16  17
HETATM   17  C   UNL     1      -6.917   3.461  71.775  1.00  0.00    -0.031 A  
HETATM   18  C   UNL     1      -6.824   2.341  70.964  1.00  0.00    -0.032 A  
HETATM   19  N   UNL     1      -7.898   1.533  71.251  1.00  0.00    -0.036 NA 
HETATM   20  C   UNL     1      -5.836   1.947  69.927  1.00  0.00    -0.022 C  
HETATM   21  H   UNL     1      -8.090   0.640  70.795  1.00  0.00     0.000 HD 
HETATM   22  C   UNL     1      -8.676   2.089  72.234  1.00  0.00    -0.065 A  
HETATM   23  C   UNL     1      -9.858   1.620  72.821  1.00  0.00    -0.152 A  
HETATM   24  C   UNL     1     -10.441   2.403  73.822  1.00  0.00    -0.220 A  
HETATM   25  C   UNL     1      -9.862   3.607  74.218  1.00  0.00    -0.163 A  
HETATM   26  C   UNL     1      -8.686   4.064  73.614  1.00  0.00    -0.094 A  
HETATM   27  C   UNL     1      -8.079   3.292  72.600  1.00  0.00    -0.072 A  
ENDBRANCH  16  17
ENDBRANCH  15  16
ENDBRANCH  13  15
ENDBRANCH  12  13
ENDBRANCH  10  12
ENDBRANCH   2   6
BRANCH   3  28
HETATM   28  N   UNL     1     -10.831  12.673  65.813  1.00  0.00    -0.269 NA 
HETATM   29  H   UNL     1     -11.482  12.125  65.249  1.00  0.00     0.000 HD 
HETATM   30  O   UNL     1      -9.635  13.224  65.329  1.00  0.00    -0.503 OA 
HETATM   31  H   UNL     1      -9.509  13.020  64.410  1.00  0.00     0.000 HD 
ENDBRANCH   3  28
TORSDOF 7
ENDMDL
MODEL      360
REMARK 921   NORMALIZED FREE ENERGY PREDICTED BY IDOCK:   -1.30 KCAL/MOL
REMARK 922        TOTAL FREE ENERGY PREDICTED BY IDOCK:   -4.46 KCAL/MOL
REMARK 923 INTER-LIGAND FREE ENERGY PREDICTED BY IDOCK:   -3.76 KCAL/MOL
REMARK 924 INTRA-LIGAND FREE ENERGY PREDICTED BY IDOCK:   -0.71 KCAL/MOL
REMARK 927      BINDING AFFINITY PREDICTED BY RF-SCORE:    0.00 PKD
ROOT
HETATM    1  C   UNL     1      -8.413   4.852  65.538  1.00  0.00    -0.130 C  
HETATM    2  C   UNL     1      -8.805   6.119  65.737  1.00  0.00    -0.133 C  
HETATM    3  C   UNL     1      -9.035   4.076  64.460  1.00  0.00    -0.137 C  
HETATM    4  H   UNL     1      -8.612   2.629  63.265  1.00  0.00     0.000 HD 
HETATM    5  O   UNL     1      -8.209   3.132  63.963  1.00  0.00    -0.085 OA 
ENDROOT
BRANCH   2   6
HETATM    6  C   UNL     1      -8.195   6.929  66.785  1.00  0.00    -0.114 A  
HETATM    7  C   UNL     1      -8.844   8.070  67.265  1.00  0.00    -0.135 A  
HETATM    8  C   UNL     1      -8.308   8.778  68.343  1.00  0.00    -0.126 A  
HETATM    9  C   UNL     1      -6.986   6.525  67.355  1.00  0.00    -0.078 A  
HETATM   10  C   UNL     1      -7.121   8.349  68.953  1.00  0.00    -0.066 A  
HETATM   11  C   UNL     1      -6.453   7.230  68.435  1.00  0.00    -0.044 A  
BRANCH  10  12
HETATM   12  C   UNL     1      -6.644   8.999  70.227  1.00  0.00    -0.045 C  
BRANCH  12  13
HETATM   13  N   UNL     1      -5.605   8.220  70.902  1.00  0.00    -0.032 NA 
HETATM   14  H   UNL     1      -5.187   8.743  71.672  1.00  0.00     0.000 HD 
BRANCH  13  15
HETATM   15  C   UNL     1      -6.116   6.915  71.353  1.00  0.00    -0.037 C  
BRANCH  15  16
HETATM   16  C   UNL     1      -6.697   6.940  72.775  1.00  0.00    -0.066 C  
BRANCH  16  17
HETATM   17  C   UNL     1      -7.995   6.200  72.884  1.00  0.00    -0.105 A  
HETATM   18  C   UNL     1      -8.245   5.032  73.586  1.00  0.00    -0.106 A  
HETATM   19  N   UNL     1      -9.555   4.685  73.359  1.00  0.00    -0.121 NA 
HETATM   20  C   UNL     1      -7.378   4.187  74.447  1.00  0.00    -0.071 C  
HETATM   21  H   UNL     1     -10.011   3.858  73.745  1.00  0.00     0.000 HD 
HETATM   22  C   UNL     1     -10.166   5.601  72.540  1.00  0.00    -0.190 A  
HETATM   23  C   UNL     1     -11.475   5.637  72.047  1.00  0.00    -0.199 A  
HETATM   24  C   UNL     1     -11.831   6.711  71.226  1.00  0.00    -0.403 A  
HETATM   25  C   UNL     1     -10.911   7.709  70.914  1.00  0.00    -0.250 A  
HETATM   26  C   UNL     1      -9.604   7.652  71.408  1.00  0.00    -0.178 A  
HETATM   27  C   UNL     1      -9.220   6.576  72.238  1.00  0.00    -0.138 A  
ENDBRANCH  16  17
ENDBRANCH  15  16
ENDBRANCH  13  15
ENDBRANCH  12  13
ENDBRANCH  10  12
ENDBRANCH   2   6
BRANCH   3  28
HETATM   28  N   UNL     1     -10.240   4.256  64.023  1.00  0.00    -0.397 NA 
HETATM   29  H   UNL     1     -10.671   5.170  63.884  1.00  0.00     0.000 HD 
HETATM   30  O   UNL     1     -10.876   3.033  63.764  1.00  0.00    -0.372 OA 
HETATM   31  H   UNL     1     -11.761   3.165  63.443  1.00  0.00     0.000 HD 
ENDBRANCH   3  28
TORSDOF 7
ENDMDL
MODEL      361
REMARK 921   NORMALIZED FREE ENERGY PREDICTED BY IDOCK:   -1.11 KCAL/MOL
REMARK 922        TOTAL FREE ENERGY PREDICTED BY IDOCK:   -4.20 KCAL/MOL
REMARK 923 INTER-LIGAND FREE ENERGY PREDICTED BY IDOCK:   -4.20 KCAL/MOL
REMARK 924 INTRA-LIGAND FREE ENERGY PREDICTED BY IDOCK:    0.00 KCAL/MOL
REMARK 927      BINDING AFFINITY PREDICTED BY RF-SCORE:    0.00 PKD
ROOT
HETATM    1  C   UNL     1      -8.063   5.771  64.057  1.00  0.00    -0.116 C  
HETATM    2  C   UNL     1      -8.040   7.030  63.593  1.00  0.00     0.006 C  
HETATM    3  C   UNL     1      -8.642   4.714  63.221  1.00  0.00    -0.123 C  
HETATM    4  H   UNL     1      -8.467   2.822  62.921  1.00  0.00     0.000 HD 
HETATM    5  O   UNL     1      -8.091   3.507  63.462  1.00  0.00    -0.086 OA 
ENDROOT
BRANCH   2   6
HETATM    6  C   UNL     1      -7.454   8.103  64.386  1.00  0.00    -0.103 A  
HETATM    7  C   UNL     1      -7.754   9.438  64.101  1.00  0.00    -0.117 A  
HETATM    8  C   UNL     1      -7.278  10.454  64.933  1.00  0.00    -0.051 A  
HETATM    9  C   UNL     1      -6.638   7.791  65.475  1.00  0.00    -0.045 A  
HETATM   10  C   UNL     1      -6.501  10.144  66.057  1.00  0.00    -0.100 A  
HETATM   11  C   UNL     1      -6.165   8.806  66.307  1.00  0.00    -0.060 A  
BRANCH  10  12
HETATM   12  C   UNL     1      -6.144  11.219  67.053  1.00  0.00    -0.108 C  
BRANCH  12  13
HETATM   13  N   UNL     1      -5.570  10.676  68.285  1.00  0.00    -0.040 NA 
HETATM   14  H   UNL     1      -5.379  11.413  68.964  1.00  0.00     0.000 HD 
BRANCH  13  15
HETATM   15  C   UNL     1      -6.423   9.623  68.861  1.00  0.00    -0.046 C  
BRANCH  15  16
HETATM   16  C   UNL     1      -6.968   9.966  70.255  1.00  0.00    -0.147 C  
BRANCH  16  17
HETATM   17  C   UNL     1      -8.462   9.897  70.327  1.00  0.00    -0.074 A  
HETATM   18  C   UNL     1      -9.233   9.154  71.207  1.00  0.00    -0.191 A  
HETATM   19  N   UNL     1     -10.551   9.351  70.872  1.00  0.00    -0.295 NA 
HETATM   20  C   UNL     1      -8.866   8.256  72.333  1.00  0.00    -0.286 C  
HETATM   21  H   UNL     1     -11.342   8.917  71.348  1.00  0.00     0.000 HD 
HETATM   22  C   UNL     1     -10.658  10.212  69.809  1.00  0.00    -0.260 A  
HETATM   23  C   UNL     1     -11.795  10.679  69.139  1.00  0.00    -0.287 A  
HETATM   24  C   UNL     1     -11.604  11.569  68.078  1.00  0.00    -0.370 A  
HETATM   25  C   UNL     1     -10.325  11.975  67.704  1.00  0.00    -0.213 A  
HETATM   26  C   UNL     1      -9.199  11.490  68.379  1.00  0.00    -0.190 A  
HETATM   27  C   UNL     1      -9.366  10.588  69.453  1.00  0.00    -0.139 A  
ENDBRANCH  16  17
ENDBRANCH  15  16
ENDBRANCH  13  15
ENDBRANCH  12  13
ENDBRANCH  10  12
ENDBRANCH   2   6
BRANCH   3  28
HETATM   28  N   UNL     1      -9.579   4.897  62.347  1.00  0.00    -0.353 NA 
HETATM   29  H   UNL     1      -9.458   5.403  61.469  1.00  0.00     0.000 HD 
HETATM   30  O   UNL     1     -10.784   4.309  62.761  1.00  0.00    -0.405 OA 
HETATM   31  H   UNL     1     -11.471   4.442  62.119  1.00  0.00     0.000 HD 
ENDBRANCH   3  28
TORSDOF 7
ENDMDL
MODEL      362
REMARK 921   NORMALIZED FREE ENERGY PREDICTED BY IDOCK:   -1.07 KCAL/MOL
REMARK 922        TOTAL FREE ENERGY PREDICTED BY IDOCK:   -4.14 KCAL/MOL
REMARK 923 INTER-LIGAND FREE ENERGY PREDICTED BY IDOCK:   -4.48 KCAL/MOL
REMARK 924 INTRA-LIGAND FREE ENERGY PREDICTED BY IDOCK:    0.34 KCAL/MOL
REMARK 927      BINDING AFFINITY PREDICTED BY RF-SCORE:    0.00 PKD
ROOT
HETATM    1  C   UNL     1      -8.535   4.662  64.248  1.00  0.00    -0.131 C  
HETATM    2  C   UNL     1      -8.966   5.932  64.240  1.00  0.00     0.485 C  
HETATM    3  C   UNL     1      -9.521   3.575  64.224  1.00  0.00    -0.149 C  
HETATM    4  H   UNL     1      -9.681   1.756  63.621  1.00  0.00     0.000 HD 
HETATM    5  O   UNL     1      -9.043   2.460  63.636  1.00  0.00    -0.092 OA 
ENDROOT
BRANCH   2   6
HETATM    6  C   UNL     1      -8.017   7.038  64.241  1.00  0.00    -0.091 A  
HETATM    7  C   UNL     1      -8.468   8.357  64.343  1.00  0.00    -0.056 A  
HETATM    8  C   UNL     1      -7.549   9.403  64.455  1.00  0.00    -0.114 A  
HETATM    9  C   UNL     1      -6.646   6.773  64.205  1.00  0.00    -0.044 A  
HETATM   10  C   UNL     1      -6.173   9.139  64.470  1.00  0.00    -0.071 A  
HETATM   11  C   UNL     1      -5.729   7.817  64.320  1.00  0.00    -0.044 A  
BRANCH  10  12
HETATM   12  C   UNL     1      -5.191  10.243  64.777  1.00  0.00    -0.116 C  
BRANCH  12  13
HETATM   13  N   UNL     1      -5.820  11.390  65.432  1.00  0.00    -0.404 NA 
HETATM   14  H   UNL     1      -6.574  11.777  64.864  1.00  0.00     0.000 HD 
BRANCH  13  15
HETATM   15  C   UNL     1      -6.288  11.050  66.786  1.00  0.00    -0.114 C  
BRANCH  15  16
HETATM   16  C   UNL     1      -6.928  12.232  67.531  1.00  0.00    -0.142 C  
BRANCH  16  17
HETATM   17  C   UNL     1      -8.353  11.972  67.914  1.00  0.00    -0.155 A  
HETATM   18  C   UNL     1      -9.486  12.616  67.444  1.00  0.00    -0.189 A  
HETATM   19  N   UNL     1     -10.567  12.093  68.111  1.00  0.00    -0.208 NA 
HETATM   20  C   UNL     1      -9.668  13.692  66.435  1.00  0.00    -0.300 C  
HETATM   21  H   UNL     1     -11.533  12.388  67.971  1.00  0.00     0.000 HD 
HETATM   22  C   UNL     1     -10.170  11.118  68.990  1.00  0.00    -0.176 A  
HETATM   23  C   UNL     1     -10.927  10.336  69.872  1.00  0.00    -0.358 A  
HETATM   24  C   UNL     1     -10.247   9.400  70.657  1.00  0.00    -0.353 A  
HETATM   25  C   UNL     1      -8.865   9.253  70.562  1.00  0.00    -0.285 A  
HETATM   26  C   UNL     1      -8.124  10.049  69.682  1.00  0.00    -0.180 A  
HETATM   27  C   UNL     1      -8.787  11.003  68.880  1.00  0.00    -0.120 A  
ENDBRANCH  16  17
ENDBRANCH  15  16
ENDBRANCH  13  15
ENDBRANCH  12  13
ENDBRANCH  10  12
ENDBRANCH   2   6
BRANCH   3  28
HETATM   28  N   UNL     1     -10.717   3.655  64.711  1.00  0.00    -0.492 NA 
HETATM   29  H   UNL     1     -11.461   2.981  64.526  1.00  0.00     0.000 HD 
HETATM   30  O   UNL     1     -10.861   4.788  65.526  1.00  0.00    -0.582 OA 
HETATM   31  H   UNL     1     -11.740   4.846  65.884  1.00  0.00     0.000 HD 
ENDBRANCH   3  28
TORSDOF 7
ENDMDL
MODEL      363
REMARK 921   NORMALIZED FREE ENERGY PREDICTED BY IDOCK:   -1.06 KCAL/MOL
REMARK 922        TOTAL FREE ENERGY PREDICTED BY IDOCK:   -4.12 KCAL/MOL
REMARK 923 INTER-LIGAND FREE ENERGY PREDICTED BY IDOCK:   -4.14 KCAL/MOL
REMARK 924 INTRA-LIGAND FREE ENERGY PREDICTED BY IDOCK:    0.02 KCAL/MOL
REMARK 927      BINDING AFFINITY PREDICTED BY RF-SCORE:    0.00 PKD
ROOT
HETATM    1  C   UNL     1      -8.041   5.831  64.093  1.00  0.00    -0.120 C  
HETATM    2  C   UNL     1      -8.135   7.111  63.702  1.00  0.00     0.002 C  
HETATM    3  C   UNL     1      -8.526   4.776  63.196  1.00  0.00    -0.115 C  
HETATM    4  H   UNL     1      -8.179   2.929  62.786  1.00  0.00     0.000 HD 
HETATM    5  O   UNL     1      -7.865   3.612  63.366  1.00  0.00    -0.070 OA 
ENDROOT
BRANCH   2   6
HETATM    6  C   UNL     1      -7.645   8.186  64.557  1.00  0.00    -0.113 A  
HETATM    7  C   UNL     1      -8.093   9.497  64.372  1.00  0.00    -0.141 A  
HETATM    8  C   UNL     1      -7.705  10.500  65.262  1.00  0.00    -0.085 A  
HETATM    9  C   UNL     1      -6.771   7.891  65.605  1.00  0.00    -0.045 A  
HETATM   10  C   UNL     1      -6.869  10.201  66.346  1.00  0.00    -0.100 A  
HETATM   11  C   UNL     1      -6.387   8.893  66.497  1.00  0.00    -0.062 A  
BRANCH  10  12
HETATM   12  C   UNL     1      -6.601  11.239  67.408  1.00  0.00    -0.081 C  
BRANCH  12  13
HETATM   13  N   UNL     1      -5.872  10.696  68.555  1.00  0.00    -0.040 NA 
HETATM   14  H   UNL     1      -5.885  11.341  69.345  1.00  0.00     0.000 HD 
BRANCH  13  15
HETATM   15  C   UNL     1      -6.380   9.367  68.938  1.00  0.00    -0.043 C  
BRANCH  15  16
HETATM   16  C   UNL     1      -7.325   9.396  70.150  1.00  0.00    -0.110 C  
BRANCH  16  17
HETATM   17  C   UNL     1      -8.712   8.941  69.813  1.00  0.00    -0.139 A  
HETATM   18  C   UNL     1      -9.711   9.670  69.189  1.00  0.00    -0.178 A  
HETATM   19  N   UNL     1     -10.832   8.876  69.137  1.00  0.00    -0.407 NA 
HETATM   20  C   UNL     1      -9.738  11.050  68.640  1.00  0.00    -0.198 C  
HETATM   21  H   UNL     1     -11.726   9.160  68.737  1.00  0.00     0.000 HD 
HETATM   22  C   UNL     1     -10.584   7.648  69.698  1.00  0.00    -0.243 A  
HETATM   23  C   UNL     1     -11.431   6.547  69.867  1.00  0.00    -0.467 A  
HETATM   24  C   UNL     1     -10.900   5.406  70.474  1.00  0.00    -0.200 A  
HETATM   25  C   UNL     1      -9.572   5.370  70.895  1.00  0.00    -0.226 A  
HETATM   26  C   UNL     1      -8.742   6.484  70.726  1.00  0.00    -0.143 A  
HETATM   27  C   UNL     1      -9.256   7.649  70.117  1.00  0.00    -0.154 A  
ENDBRANCH  16  17
ENDBRANCH  15  16
ENDBRANCH  13  15
ENDBRANCH  12  13
ENDBRANCH  10  12
ENDBRANCH   2   6
BRANCH   3  28
HETATM   28  N   UNL     1      -9.480   4.922  62.335  1.00  0.00    -0.334 NA 
HETATM   29  H   UNL     1      -9.417   5.502  61.498  1.00  0.00     0.000 HD 
HETATM   30  O   UNL     1     -10.614   4.181  62.700  1.00  0.00    -0.330 OA 
HETATM   31  H   UNL     1     -11.315   4.288  62.068  1.00  0.00     0.000 HD 
ENDBRANCH   3  28
TORSDOF 7
ENDMDL
MODEL      364
REMARK 921   NORMALIZED FREE ENERGY PREDICTED BY IDOCK:   -0.85 KCAL/MOL
REMARK 922        TOTAL FREE ENERGY PREDICTED BY IDOCK:   -3.83 KCAL/MOL
REMARK 923 INTER-LIGAND FREE ENERGY PREDICTED BY IDOCK:   -4.05 KCAL/MOL
REMARK 924 INTRA-LIGAND FREE ENERGY PREDICTED BY IDOCK:    0.21 KCAL/MOL
REMARK 927      BINDING AFFINITY PREDICTED BY RF-SCORE:    0.00 PKD
ROOT
HETATM    1  C   UNL     1      -8.036   6.081  65.154  1.00  0.00    -0.132 C  
HETATM    2  C   UNL     1      -7.983   7.389  64.862  1.00  0.00    -0.128 C  
HETATM    3  C   UNL     1      -8.545   5.147  64.144  1.00  0.00    -0.101 C  
HETATM    4  H   UNL     1      -8.338   3.309  63.613  1.00  0.00     0.000 HD 
HETATM    5  O   UNL     1      -8.008   3.915  64.266  1.00  0.00    -0.084 OA 
ENDROOT
BRANCH   2   6
HETATM    6  C   UNL     1      -7.464   8.347  65.831  1.00  0.00    -0.081 A  
HETATM    7  C   UNL     1      -7.348   9.698  65.498  1.00  0.00    -0.106 A  
HETATM    8  C   UNL     1      -6.955  10.626  66.466  1.00  0.00    -0.125 A  
HETATM    9  C   UNL     1      -7.142   7.918  67.121  1.00  0.00    -0.079 A  
HETATM   10  C   UNL     1      -6.679  10.210  67.775  1.00  0.00    -0.071 A  
HETATM   11  C   UNL     1      -6.754   8.845  68.088  1.00  0.00    -0.065 A  
BRANCH  10  12
HETATM   12  C   UNL     1      -6.438  11.229  68.861  1.00  0.00    -0.063 C  
BRANCH  12  13
HETATM   13  N   UNL     1      -6.316  10.621  70.187  1.00  0.00    -0.125 NA 
HETATM   14  H   UNL     1      -6.100  11.318  70.899  1.00  0.00     0.000 HD 
BRANCH  13  15
HETATM   15  C   UNL     1      -7.519   9.847  70.539  1.00  0.00    -0.036 C  
BRANCH  15  16
HETATM   16  C   UNL     1      -7.210   8.523  71.256  1.00  0.00    -0.082 C  
BRANCH  16  17
HETATM   17  C   UNL     1      -8.324   8.077  72.152  1.00  0.00    -0.188 A  
HETATM   18  C   UNL     1      -8.296   7.943  73.531  1.00  0.00    -0.216 A  
HETATM   19  N   UNL     1      -9.518   7.452  73.924  1.00  0.00    -0.299 NA 
HETATM   20  C   UNL     1      -7.234   8.215  74.533  1.00  0.00    -0.225 C  
HETATM   21  H   UNL     1      -9.778   7.247  74.889  1.00  0.00     0.000 HD 
HETATM   22  C   UNL     1     -10.342   7.276  72.841  1.00  0.00    -0.262 A  
HETATM   23  C   UNL     1     -11.655   6.794  72.777  1.00  0.00    -0.105 A  
HETATM   24  C   UNL     1     -12.261   6.728  71.519  1.00  0.00    -0.413 A  
HETATM   25  C   UNL     1     -11.580   7.131  70.372  1.00  0.00    -0.300 A  
HETATM   26  C   UNL     1     -10.265   7.602  70.455  1.00  0.00    -0.201 A  
HETATM   27  C   UNL     1      -9.630   7.676  71.714  1.00  0.00    -0.183 A  
ENDBRANCH  16  17
ENDBRANCH  15  16
ENDBRANCH  13  15
ENDBRANCH  12  13
ENDBRANCH  10  12
ENDBRANCH   2   6
BRANCH   3  28
HETATM   28  N   UNL     1      -9.413   5.447  63.233  1.00  0.00     0.018 NA 
HETATM   29  H   UNL     1      -9.448   6.342  62.744  1.00  0.00     0.000 HD 
HETATM   30  O   UNL     1     -10.300   4.385  63.004  1.00  0.00    -0.396 OA 
HETATM   31  H   UNL     1     -10.938   4.605  62.335  1.00  0.00     0.000 HD 
ENDBRANCH   3  28
TORSDOF 7
ENDMDL
MODEL      365
REMARK 921   NORMALIZED FREE ENERGY PREDICTED BY IDOCK:   -0.39 KCAL/MOL
REMARK 922        TOTAL FREE ENERGY PREDICTED BY IDOCK:   -3.18 KCAL/MOL
REMARK 923 INTER-LIGAND FREE ENERGY PREDICTED BY IDOCK:   -3.40 KCAL/MOL
REMARK 924 INTRA-LIGAND FREE ENERGY PREDICTED BY IDOCK:    0.22 KCAL/MOL
REMARK 927      BINDING AFFINITY PREDICTED BY RF-SCORE:    0.00 PKD
ROOT
HETATM    1  C   UNL     1      -8.036   9.563  67.632  1.00  0.00    -0.106 C  
HETATM    2  C   UNL     1      -8.925  10.380  68.217  1.00  0.00    -0.135 C  
HETATM    3  C   UNL     1      -7.474   9.938  66.330  1.00  0.00    -0.101 C  
HETATM    4  H   UNL     1      -5.871   9.683  65.298  1.00  0.00     0.000 HD 
HETATM    5  O   UNL     1      -6.234   9.440  66.142  1.00  0.00    -0.065 OA 
ENDROOT
BRANCH   2   6
HETATM    6  C   UNL     1      -9.489  10.052  69.521  1.00  0.00    -0.245 A  
HETATM    7  C   UNL     1     -10.825  10.345  69.808  1.00  0.00    -0.342 A  
HETATM    8  C   UNL     1     -11.388   9.929  71.016  1.00  0.00    -0.460 A  
HETATM    9  C   UNL     1      -8.706   9.382  70.464  1.00  0.00    -0.276 A  
HETATM   10  C   UNL     1     -10.623   9.213  71.945  1.00  0.00    -0.303 A  
HETATM   11  C   UNL     1      -9.270   8.963  71.669  1.00  0.00    -0.302 A  
BRANCH  10  12
HETATM   12  C   UNL     1     -11.277   8.604  73.161  1.00  0.00     1.038 C  
BRANCH  12  13
HETATM   13  N   UNL     1     -11.465   7.159  73.035  1.00  0.00    -0.559 NA 
HETATM   14  H   UNL     1     -11.991   6.923  72.193  1.00  0.00     0.000 HD 
BRANCH  13  15
HETATM   15  C   UNL     1     -10.181   6.439  73.086  1.00  0.00    -0.205 C  
BRANCH  15  16
HETATM   16  C   UNL     1      -9.921   5.558  71.854  1.00  0.00    -0.227 C  
BRANCH  16  17
HETATM   17  C   UNL     1      -9.496   4.168  72.216  1.00  0.00    -0.186 A  
HETATM   18  C   UNL     1     -10.229   3.211  72.899  1.00  0.00    -0.158 A  
HETATM   19  N   UNL     1      -9.426   2.108  73.055  1.00  0.00    -0.080 NA 
HETATM   20  C   UNL     1     -11.613   3.222  73.440  1.00  0.00    -0.036 C  
HETATM   21  H   UNL     1      -9.704   1.250  73.532  1.00  0.00     0.000 HD 
HETATM   22  C   UNL     1      -8.197   2.316  72.481  1.00  0.00    -0.055 A  
HETATM   23  C   UNL     1      -7.080   1.475  72.413  1.00  0.00    -0.019 A  
HETATM   24  C   UNL     1      -5.946   1.953  71.749  1.00  0.00    -0.013 A  
HETATM   25  C   UNL     1      -5.934   3.222  71.176  1.00  0.00    -0.014 A  
HETATM   26  C   UNL     1      -7.056   4.053  71.261  1.00  0.00    -0.032 A  
HETATM   27  C   UNL     1      -8.212   3.594  71.929  1.00  0.00    -0.072 A  
ENDBRANCH  16  17
ENDBRANCH  15  16
ENDBRANCH  13  15
ENDBRANCH  12  13
ENDBRANCH  10  12
ENDBRANCH   2   6
BRANCH   3  28
HETATM   28  N   UNL     1      -8.083  10.660  65.446  1.00  0.00    -0.255 NA 
HETATM   29  H   UNL     1      -7.618  11.327  64.828  1.00  0.00     0.000 HD 
HETATM   30  O   UNL     1      -9.463  10.410  65.445  1.00  0.00    -0.197 OA 
HETATM   31  H   UNL     1      -9.909  10.940  64.795  1.00  0.00     0.000 HD 
ENDBRANCH   3  28
TORSDOF 7
ENDMDL
MODEL      366
REMARK 921   NORMALIZED FREE ENERGY PREDICTED BY IDOCK:    7.41 KCAL/MOL
REMARK 922        TOTAL FREE ENERGY PREDICTED BY IDOCK:    7.81 KCAL/MOL
REMARK 923 INTER-LIGAND FREE ENERGY PREDICTED BY IDOCK:    9.56 KCAL/MOL
REMARK 924 INTRA-LIGAND FREE ENERGY PREDICTED BY IDOCK:   -1.75 KCAL/MOL
REMARK 927      BINDING AFFINITY PREDICTED BY RF-SCORE:    0.00 PKD
ROOT
HETATM    1  C   UNL     1     -10.366   7.241  66.999  1.00  0.00    -0.376 C  
HETATM    2  C   UNL     1     -10.528   6.039  67.574  1.00  0.00    -0.302 C  
HETATM    3  C   UNL     1     -10.928   7.473  65.665  1.00  0.00     4.343 C  
HETATM    4  H   UNL     1     -11.617   8.917  64.596  1.00  0.00     0.000 HD 
HETATM    5  O   UNL     1     -11.252   8.767  65.461  1.00  0.00     3.561 OA 
ENDROOT
BRANCH   2   6
HETATM    6  C   UNL     1     -10.001   5.777  68.908  1.00  0.00    -0.211 A  
HETATM    7  C   UNL     1     -10.816   5.210  69.891  1.00  0.00     0.143 A  
HETATM    8  C   UNL     1     -10.276   4.859  71.131  1.00  0.00    -0.261 A  
HETATM    9  C   UNL     1      -8.657   6.036  69.183  1.00  0.00    -0.117 A  
HETATM   10  C   UNL     1      -8.916   5.070  71.396  1.00  0.00    -0.159 A  
HETATM   11  C   UNL     1      -8.117   5.682  70.420  1.00  0.00    -0.105 A  
BRANCH  10  12
HETATM   12  C   UNL     1      -8.295   4.524  72.658  1.00  0.00    -0.110 C  
BRANCH  12  13
HETATM   13  N   UNL     1      -7.595   5.551  73.430  1.00  0.00    -0.095 NA 
HETATM   14  H   UNL     1      -7.289   6.322  72.835  1.00  0.00     0.000 HD 
BRANCH  13  15
HETATM   15  C   UNL     1      -8.412   6.032  74.556  1.00  0.00    -0.117 C  
BRANCH  15  16
HETATM   16  C   UNL     1      -8.675   7.546  74.523  1.00  0.00    -0.173 C  
BRANCH  16  17
HETATM   17  C   UNL     1      -8.179   8.193  73.267  1.00  0.00    -0.259 A  
HETATM   18  C   UNL     1      -6.885   8.600  72.980  1.00  0.00     0.037 A  
HETATM   19  N   UNL     1      -6.903   9.192  71.740  1.00  0.00    -0.301 NA 
HETATM   20  C   UNL     1      -5.621   8.507  73.755  1.00  0.00    -0.100 C  
HETATM   21  H   UNL     1      -6.087   9.595  71.278  1.00  0.00     0.000 HD 
HETATM   22  C   UNL     1      -8.168   9.169  71.208  1.00  0.00    -0.023 A  
HETATM   23  C   UNL     1      -8.641   9.663  69.987  1.00  0.00    -0.237 A  
HETATM   24  C   UNL     1      -9.998   9.490  69.699  1.00  0.00    -0.220 A  
HETATM   25  C   UNL     1     -10.845   8.847  70.598  1.00  0.00    -0.286 A  
HETATM   26  C   UNL     1     -10.357   8.368  71.818  1.00  0.00    -0.333 A  
HETATM   27  C   UNL     1      -8.990   8.532  72.133  1.00  0.00    -0.300 A  
ENDBRANCH  16  17
ENDBRANCH  15  16
ENDBRANCH  13  15
ENDBRANCH  12  13
ENDBRANCH  10  12
ENDBRANCH   2   6
BRANCH   3  28
HETATM   28  N   UNL     1     -11.100   6.557  64.768  1.00  0.00     5.750 NA 
HETATM   29  H   UNL     1     -10.889   6.675  63.776  1.00  0.00     0.000 HD 
HETATM   30  O   UNL     1     -11.611   5.379  65.332  1.00  0.00    -0.186 OA 
HETATM   31  H   UNL     1     -11.737   4.706  64.673  1.00  0.00     0.000 HD 
ENDBRANCH   3  28
TORSDOF 7
ENDMDL
MODEL      367
REMARK 921   NORMALIZED FREE ENERGY PREDICTED BY IDOCK:    9.61 KCAL/MOL
REMARK 922        TOTAL FREE ENERGY PREDICTED BY IDOCK:   10.91 KCAL/MOL
REMARK 923 INTER-LIGAND FREE ENERGY PREDICTED BY IDOCK:    8.37 KCAL/MOL
REMARK 924 INTRA-LIGAND FREE ENERGY PREDICTED BY IDOCK:    2.54 KCAL/MOL
REMARK 927      BINDING AFFINITY PREDICTED BY RF-SCORE:    0.00 PKD
ROOT
HETATM    1  C   UNL     1     -10.262   9.495  67.298  1.00  0.00    -0.295 C  
HETATM    2  C   UNL     1      -9.469  10.522  66.955  1.00  0.00    -0.191 C  
HETATM    3  C   UNL     1     -11.273   9.027  66.343  1.00  0.00     1.762 C  
HETATM    4  H   UNL     1     -12.207   7.412  65.874  1.00  0.00     0.000 HD 
HETATM    5  O   UNL     1     -11.552   7.715  66.492  1.00  0.00     1.688 OA 
ENDROOT
BRANCH   2   6
HETATM    6  C   UNL     1      -8.439  11.002  67.868  1.00  0.00    -0.128 A  
HETATM    7  C   UNL     1      -8.543  12.268  68.448  1.00  0.00    -0.136 A  
HETATM    8  C   UNL     1      -7.611  12.677  69.406  1.00  0.00     0.532 A  
HETATM    9  C   UNL     1      -7.376  10.164  68.212  1.00  0.00    -0.081 A  
HETATM   10  C   UNL     1      -6.571  11.821  69.793  1.00  0.00    -0.047 A  
HETATM   11  C   UNL     1      -6.448  10.571  69.171  1.00  0.00    -0.054 A  
BRANCH  10  12
HETATM   12  C   UNL     1      -5.680  12.186  70.954  1.00  0.00    -0.012 C  
BRANCH  12  13
HETATM   13  N   UNL     1      -5.592  11.120  71.953  1.00  0.00    -0.175 NA 
HETATM   14  H   UNL     1      -6.471  11.009  72.458  1.00  0.00     0.000 HD 
BRANCH  13  15
HETATM   15  C   UNL     1      -5.152   9.850  71.351  1.00  0.00    -0.071 C  
BRANCH  15  16
HETATM   16  C   UNL     1      -6.310   8.905  70.996  1.00  0.00    -0.056 C  
BRANCH  16  17
HETATM   17  C   UNL     1      -6.266   7.620  71.764  1.00  0.00    -0.039 A  
HETATM   18  C   UNL     1      -6.017   7.453  73.117  1.00  0.00    -0.055 A  
HETATM   19  N   UNL     1      -6.018   6.103  73.375  1.00  0.00    -0.056 NA 
HETATM   20  C   UNL     1      -5.760   8.430  74.207  1.00  0.00    -0.106 C  
HETATM   21  H   UNL     1      -5.851   5.687  74.291  1.00  0.00     0.000 HD 
HETATM   22  C   UNL     1      -6.275   5.390  72.231  1.00  0.00    -0.035 A  
HETATM   23  C   UNL     1      -6.359   4.007  72.031  1.00  0.00    -0.018 A  
HETATM   24  C   UNL     1      -6.646   3.554  70.739  1.00  0.00    -0.032 A  
HETATM   25  C   UNL     1      -6.842   4.452  69.692  1.00  0.00    -0.045 A  
HETATM   26  C   UNL     1      -6.745   5.830  69.909  1.00  0.00    -0.052 A  
HETATM   27  C   UNL     1      -6.454   6.312  71.203  1.00  0.00    -0.049 A  
ENDBRANCH  16  17
ENDBRANCH  15  16
ENDBRANCH  13  15
ENDBRANCH  12  13
ENDBRANCH  10  12
ENDBRANCH   2   6
BRANCH   3  28
HETATM   28  N   UNL     1     -11.848   9.771  65.455  1.00  0.00     4.242 NA 
HETATM   29  H   UNL     1     -11.928   9.530  64.466  1.00  0.00     0.000 HD 
HETATM   30  O   UNL     1     -12.347  10.952  66.024  1.00  0.00     1.874 OA 
HETATM   31  H   UNL     1     -12.769  11.498  65.371  1.00  0.00     0.000 HD 
ENDBRANCH   3  28
TORSDOF 7
ENDMDL
MODEL      368
REMARK 921   NORMALIZED FREE ENERGY PREDICTED BY IDOCK:   14.15 KCAL/MOL
REMARK 922        TOTAL FREE ENERGY PREDICTED BY IDOCK:   17.31 KCAL/MOL
REMARK 923 INTER-LIGAND FREE ENERGY PREDICTED BY IDOCK:   16.75 KCAL/MOL
REMARK 924 INTRA-LIGAND FREE ENERGY PREDICTED BY IDOCK:    0.56 KCAL/MOL
REMARK 927      BINDING AFFINITY PREDICTED BY RF-SCORE:    0.00 PKD
ROOT
HETATM    1  C   UNL     1     -12.557   7.288  70.814  1.00  0.00    -0.151 C  
HETATM    2  C   UNL     1     -12.630   8.036  71.925  1.00  0.00    -0.359 C  
HETATM    3  C   UNL     1     -12.567   5.826  70.939  1.00  0.00     2.150 C  
HETATM    4  H   UNL     1     -13.101   4.273  69.936  1.00  0.00     0.000 HD 
HETATM    5  O   UNL     1     -13.096   5.220  69.855  1.00  0.00     8.283 OA 
ENDROOT
BRANCH   2   6
HETATM    6  C   UNL     1     -12.644   9.492  71.840  1.00  0.00    -0.479 A  
HETATM    7  C   UNL     1     -11.455  10.218  71.944  1.00  0.00     0.881 A  
HETATM    8  C   UNL     1     -11.462  11.602  71.751  1.00  0.00     3.208 A  
HETATM    9  C   UNL     1     -13.846  10.157  71.589  1.00  0.00    -0.017 A  
HETATM   10  C   UNL     1     -12.656  12.269  71.449  1.00  0.00    -0.303 A  
HETATM   11  C   UNL     1     -13.852  11.538  71.393  1.00  0.00     1.062 A  
BRANCH  10  12
HETATM   12  C   UNL     1     -12.635  13.726  71.059  1.00  0.00    -0.371 C  
BRANCH  12  13
HETATM   13  N   UNL     1     -12.417  13.922  69.625  1.00  0.00    -0.362 NA 
HETATM   14  H   UNL     1     -12.756  14.834  69.318  1.00  0.00     0.000 HD 
BRANCH  13  15
HETATM   15  C   UNL     1     -11.005  13.721  69.260  1.00  0.00    -0.163 C  
BRANCH  15  16
HETATM   16  C   UNL     1     -10.802  13.302  67.796  1.00  0.00    -0.268 C  
BRANCH  16  17
HETATM   17  C   UNL     1     -10.230  11.925  67.661  1.00  0.00    -0.215 A  
HETATM   18  C   UNL     1      -9.524  11.206  68.613  1.00  0.00    -0.193 A  
HETATM   19  N   UNL     1      -9.145  10.018  68.037  1.00  0.00    -0.131 NA 
HETATM   20  C   UNL     1      -9.147  11.521  70.015  1.00  0.00     2.290 C  
HETATM   21  H   UNL     1      -8.602   9.293  68.507  1.00  0.00     0.000 HD 
HETATM   22  C   UNL     1      -9.598   9.938  66.744  1.00  0.00    -0.183 A  
HETATM   23  C   UNL     1      -9.436   8.922  65.794  1.00  0.00    -0.272 A  
HETATM   24  C   UNL     1     -10.021   9.109  64.538  1.00  0.00     1.410 A  
HETATM   25  C   UNL     1     -10.739  10.267  64.247  1.00  0.00     0.935 A  
HETATM   26  C   UNL     1     -10.881  11.276  65.206  1.00  0.00    -0.261 A  
HETATM   27  C   UNL     1     -10.298  11.111  66.481  1.00  0.00    -0.290 A  
ENDBRANCH  16  17
ENDBRANCH  15  16
ENDBRANCH  13  15
ENDBRANCH  12  13
ENDBRANCH  10  12
ENDBRANCH   2   6
BRANCH   3  28
HETATM   28  N   UNL     1     -12.120   5.171  71.961  1.00  0.00     0.787 NA 
HETATM   29  H   UNL     1     -11.201   4.728  72.005  1.00  0.00     0.000 HD 
HETATM   30  O   UNL     1     -13.060   5.147  73.002  1.00  0.00    -0.234 OA 
HETATM   31  H   UNL     1     -12.732   4.667  73.753  1.00  0.00     0.000 HD 
ENDBRANCH   3  28
TORSDOF 7
ENDMDL
MODEL      369
REMARK 921   NORMALIZED FREE ENERGY PREDICTED BY IDOCK:   17.06 KCAL/MOL
REMARK 922        TOTAL FREE ENERGY PREDICTED BY IDOCK:   21.41 KCAL/MOL
REMARK 923 INTER-LIGAND FREE ENERGY PREDICTED BY IDOCK:   20.61 KCAL/MOL
REMARK 924 INTRA-LIGAND FREE ENERGY PREDICTED BY IDOCK:    0.80 KCAL/MOL
REMARK 927      BINDING AFFINITY PREDICTED BY RF-SCORE:    0.00 PKD
ROOT
HETATM    1  C   UNL     1     -10.592   7.373  66.714  1.00  0.00    -0.281 C  
HETATM    2  C   UNL     1     -10.560   6.158  67.282  1.00  0.00    -0.362 C  
HETATM    3  C   UNL     1     -11.528   7.619  65.612  1.00  0.00     6.680 C  
HETATM    4  H   UNL     1     -12.521   9.069  64.829  1.00  0.00     0.000 HD 
HETATM    5  O   UNL     1     -11.915   8.909  65.544  1.00  0.00     7.505 OA 
ENDROOT
BRANCH   2   6
HETATM    6  C   UNL     1      -9.659   5.881  68.394  1.00  0.00    -0.138 A  
HETATM    7  C   UNL     1     -10.150   5.343  69.586  1.00  0.00    -0.319 A  
HETATM    8  C   UNL     1      -9.267   4.977  70.605  1.00  0.00    -0.195 A  
HETATM    9  C   UNL     1      -8.287   6.097  68.242  1.00  0.00    -0.114 A  
HETATM   10  C   UNL     1      -7.886   5.144  70.439  1.00  0.00    -0.075 A  
HETATM   11  C   UNL     1      -7.405   5.728  69.258  1.00  0.00    -0.079 A  
BRANCH  10  12
HETATM   12  C   UNL     1      -6.925   4.581  71.456  1.00  0.00    -0.039 C  
BRANCH  12  13
HETATM   13  N   UNL     1      -6.109   5.616  72.093  1.00  0.00    -0.034 NA 
HETATM   14  H   UNL     1      -6.617   6.497  72.169  1.00  0.00     0.000 HD 
BRANCH  13  15
HETATM   15  C   UNL     1      -5.599   5.173  73.401  1.00  0.00    -0.022 C  
BRANCH  15  16
HETATM   16  C   UNL     1      -6.568   5.445  74.562  1.00  0.00    -0.072 C  
BRANCH  16  17
HETATM   17  C   UNL     1      -7.949   5.790  74.097  1.00  0.00    -0.105 A  
HETATM   18  C   UNL     1      -8.467   7.051  73.849  1.00  0.00    -0.145 A  
HETATM   19  N   UNL     1      -9.785   6.896  73.497  1.00  0.00    -0.197 NA 
HETATM   20  C   UNL     1      -7.858   8.405  73.920  1.00  0.00    -0.197 C  
HETATM   21  H   UNL     1     -10.419   7.662  73.267  1.00  0.00     0.000 HD 
HETATM   22  C   UNL     1     -10.135   5.569  73.495  1.00  0.00    -0.190 A  
HETATM   23  C   UNL     1     -11.364   4.961  73.211  1.00  0.00    -0.408 A  
HETATM   24  C   UNL     1     -11.430   3.566  73.282  1.00  0.00    -0.080 A  
HETATM   25  C   UNL     1     -10.309   2.812  73.623  1.00  0.00    -0.215 A  
HETATM   26  C   UNL     1      -9.092   3.438  73.913  1.00  0.00    -0.094 A  
HETATM   27  C   UNL     1      -9.000   4.845  73.850  1.00  0.00    -0.113 A  
ENDBRANCH  16  17
ENDBRANCH  15  16
ENDBRANCH  13  15
ENDBRANCH  12  13
ENDBRANCH  10  12
ENDBRANCH   2   6
BRANCH   3  28
HETATM   28  N   UNL     1     -11.945   6.716  64.784  1.00  0.00     8.505 NA 
HETATM   29  H   UNL     1     -12.000   6.844  63.773  1.00  0.00     0.000 HD 
HETATM   30  O   UNL     1     -12.311   5.540  65.454  1.00  0.00     1.390 OA 
HETATM   31  H   UNL     1     -12.617   4.877  64.846  1.00  0.00     0.000 HD 
ENDBRANCH   3  28
TORSDOF 7
ENDMDL
MODEL      370
REMARK 921   NORMALIZED FREE ENERGY PREDICTED BY IDOCK:   39.45 KCAL/MOL
REMARK 922        TOTAL FREE ENERGY PREDICTED BY IDOCK:   52.97 KCAL/MOL
REMARK 923 INTER-LIGAND FREE ENERGY PREDICTED BY IDOCK:   51.63 KCAL/MOL
REMARK 924 INTRA-LIGAND FREE ENERGY PREDICTED BY IDOCK:    1.34 KCAL/MOL
REMARK 927      BINDING AFFINITY PREDICTED BY RF-SCORE:    0.00 PKD
ROOT
HETATM    1  C   UNL     1     -11.084   7.746  65.841  1.00  0.00     3.614 C  
HETATM    2  C   UNL     1     -11.336   6.556  66.408  1.00  0.00     0.881 C  
HETATM    3  C   UNL     1     -12.034   8.282  64.860  1.00  0.00    15.596 C  
HETATM    4  H   UNL     1     -12.654   9.978  64.197  1.00  0.00     0.000 HD 
HETATM    5  O   UNL     1     -12.039   9.631  64.833  1.00  0.00     6.985 OA 
ENDROOT
BRANCH   2   6
HETATM    6  C   UNL     1     -10.427   6.000  67.403  1.00  0.00    -0.309 A  
HETATM    7  C   UNL     1     -10.799   5.945  68.748  1.00  0.00    -0.353 A  
HETATM    8  C   UNL     1      -9.970   5.312  69.678  1.00  0.00    -0.302 A  
HETATM    9  C   UNL     1      -9.204   5.462  66.996  1.00  0.00    -0.113 A  
HETATM   10  C   UNL     1      -8.765   4.725  69.268  1.00  0.00    -0.106 A  
HETATM   11  C   UNL     1      -8.378   4.826  67.924  1.00  0.00    -0.103 A  
BRANCH  10  12
HETATM   12  C   UNL     1      -7.965   3.883  70.231  1.00  0.00    -0.050 C  
BRANCH  12  13
HETATM   13  N   UNL     1      -6.591   4.364  70.390  1.00  0.00    -0.031 NA 
HETATM   14  H   UNL     1      -6.568   5.304  70.784  1.00  0.00     0.000 HD 
BRANCH  13  15
HETATM   15  C   UNL     1      -5.780   3.427  71.186  1.00  0.00    -0.013 C  
BRANCH  15  16
HETATM   16  C   UNL     1      -6.003   3.555  72.701  1.00  0.00    -0.009 C  
BRANCH  16  17
HETATM   17  C   UNL     1      -7.109   4.504  73.047  1.00  0.00    -0.077 A  
HETATM   18  C   UNL     1      -8.266   4.229  73.759  1.00  0.00    -0.093 A  
HETATM   19  N   UNL     1      -9.018   5.379  73.786  1.00  0.00    -0.124 NA 
HETATM   20  C   UNL     1      -8.757   2.989  74.413  1.00  0.00    -0.082 C  
HETATM   21  H   UNL     1      -9.929   5.465  74.236  1.00  0.00     0.000 HD 
HETATM   22  C   UNL     1      -8.376   6.395  73.124  1.00  0.00    -0.115 A  
HETATM   23  C   UNL     1      -8.777   7.717  72.898  1.00  0.00    -0.220 A  
HETATM   24  C   UNL     1      -7.905   8.547  72.187  1.00  0.00    -0.136 A  
HETATM   25  C   UNL     1      -6.682   8.071  71.722  1.00  0.00    -0.058 A  
HETATM   26  C   UNL     1      -6.302   6.743  71.948  1.00  0.00    -0.049 A  
HETATM   27  C   UNL     1      -7.166   5.885  72.662  1.00  0.00    -0.090 A  
ENDBRANCH  16  17
ENDBRANCH  15  16
ENDBRANCH  13  15
ENDBRANCH  12  13
ENDBRANCH  10  12
ENDBRANCH   2   6
BRANCH   3  28
HETATM   28  N   UNL     1     -12.788   7.561  64.094  1.00  0.00    19.206 NA 
HETATM   29  H   UNL     1     -12.761   7.583  63.074  1.00  0.00     0.000 HD 
HETATM   30  O   UNL     1     -13.647   6.745  64.845  1.00  0.00     7.782 OA 
HETATM   31  H   UNL     1     -14.200   6.216  64.282  1.00  0.00     0.000 HD 
ENDBRANCH   3  28
TORSDOF 7
ENDMDL
