MODEL        1
REMARK 921   NORMALIZED FREE ENERGY PREDICTED BY IDOCK:   -6.31 KCAL/MOL
REMARK 922        TOTAL FREE ENERGY PREDICTED BY IDOCK:  -15.49 KCAL/MOL
REMARK 923 INTER-LIGAND FREE ENERGY PREDICTED BY IDOCK:  -13.31 KCAL/MOL
REMARK 924 INTRA-LIGAND FREE ENERGY PREDICTED BY IDOCK:   -2.18 KCAL/MOL
REMARK 927      BINDING AFFINITY PREDICTED BY RF-SCORE:    0.00 PKD
ROOT
HETATM    1  C   UNL     1     -10.184  14.444  65.103  1.00  0.00    -0.420 C  
HETATM    2  C   UNL     1     -11.695  14.164  65.007  1.00  0.00    -0.376 C  
HETATM    3  C   UNL     1     -12.263  13.891  66.422  1.00  0.00    -0.487 C  
ENDROOT
BRANCH   2   4
HETATM    4  C   UNL     1     -12.408  15.429  64.482  1.00  0.00    -0.055 C  
HETATM    5  O   UNL     1     -11.525  16.241  63.713  1.00  0.00    -1.475 OA 
HETATM    6  H   UNL     1     -11.964  17.019  63.390  1.00  0.00     0.000 HD 
ENDBRANCH   2   4
BRANCH   2   7
HETATM    7  C   UNL     1     -11.992  12.960  64.059  1.00  0.00    -0.451 C  
HETATM    8  O   UNL     1     -12.300  13.371  62.716  1.00  0.00    -0.812 OA 
HETATM    9  H   UNL     1     -12.481  12.638  62.140  1.00  0.00     0.000 HD 
BRANCH   7  10
HETATM   10  C   UNL     1     -10.868  11.904  63.975  1.00  0.00    -0.379 C  
HETATM   11  O   UNL     1     -10.026  11.850  63.084  1.00  0.00    -0.422 OA 
HETATM   12  N   UNL     1     -10.850  11.048  65.054  1.00  0.00    -0.185 N  
HETATM   13  H   UNL     1     -11.607  11.083  65.737  1.00  0.00     0.000 HD 
BRANCH  12  14
HETATM   14  C   UNL     1      -9.772  10.100  65.230  1.00  0.00    -0.300 C  
BRANCH  14  15
HETATM   15  C   UNL     1      -8.717  10.567  66.227  1.00  0.00    -0.159 C  
BRANCH  15  16
HETATM   16  C   UNL     1      -9.366  10.714  67.585  1.00  0.00    -0.146 C  
HETATM   17  O   UNL     1     -10.100  11.661  67.852  1.00  0.00    -0.180 OA 
HETATM   18  N   UNL     1      -9.083   9.692  68.461  1.00  0.00    -0.130 N  
HETATM   19  H   UNL     1      -8.500   8.929  68.119  1.00  0.00     0.000 HD 
BRANCH  18  20
HETATM   20  C   UNL     1      -9.552   9.611  69.847  1.00  0.00    -0.230 C  
BRANCH  20  21
HETATM   21  C   UNL     1     -10.648   8.588  70.155  1.00  0.00    -0.232 C  
BRANCH  21  22
HETATM   22  S   UNL     1     -11.295   8.631  71.871  1.00  0.00    -0.370 SA 
BRANCH  22  23
HETATM   23  S   UNL     1     -13.196   9.400  71.670  1.00  0.00    -0.418 SA 
BRANCH  23  24
HETATM   24  C   UNL     1     -12.882  11.190  71.815  1.00  0.00    -0.374 C  
BRANCH  24  25
HETATM   25  C   UNL     1     -12.528  11.800  70.457  1.00  0.00    -0.230 C  
BRANCH  25  26
HETATM   26  N   UNL     1     -12.049  13.179  70.510  1.00  0.00    -0.489 N  
HETATM   27  H   UNL     1     -11.097  13.370  70.196  1.00  0.00     0.000 HD 
HETATM   28  C   UNL     1     -12.811  14.236  70.961  1.00  0.00    -0.357 C  
HETATM   29  O   UNL     1     -13.945  14.114  71.413  1.00  0.00    -0.320 OA 
BRANCH  28  30
HETATM   30  C   UNL     1     -12.152  15.589  70.820  1.00  0.00    -0.435 C  
BRANCH  30  31
HETATM   31  C   UNL     1     -11.471  15.693  69.460  1.00  0.00    -0.344 C  
BRANCH  31  32
HETATM   32  N   UNL     1     -10.952  17.025  69.208  1.00  0.00    -0.308 N  
HETATM   33  H   UNL     1     -11.558  17.828  69.378  1.00  0.00     0.000 HD 
HETATM   34  C   UNL     1      -9.674  17.244  68.750  1.00  0.00    -0.280 C  
HETATM   35  O   UNL     1      -8.905  16.341  68.431  1.00  0.00    -0.189 OA 
BRANCH  34  36
HETATM   36  C   UNL     1      -9.310  18.737  68.599  1.00  0.00    -0.351 C  
HETATM   37  O   UNL     1     -10.173  19.538  69.421  1.00  0.00    -0.610 OA 
HETATM   38  H   UNL     1      -9.949  20.457  69.328  1.00  0.00     0.000 HD 
BRANCH  36  39
HETATM   39  C   UNL     1      -9.354  19.239  67.128  1.00  0.00    -0.373 C  
HETATM   40  C   UNL     1     -10.318  18.391  66.272  1.00  0.00    -0.440 C  
HETATM   41  C   UNL     1      -9.884  20.692  67.115  1.00  0.00    -0.497 C  
BRANCH  39  42
HETATM   42  C   UNL     1      -7.933  19.209  66.517  1.00  0.00    -0.284 C  
HETATM   43  O   UNL     1      -6.991  18.603  67.396  1.00  0.00    -0.203 OA 
HETATM   44  H   UNL     1      -6.119  18.585  67.020  1.00  0.00     0.000 HD 
ENDBRANCH  39  42
ENDBRANCH  36  39
ENDBRANCH  34  36
ENDBRANCH  31  32
ENDBRANCH  30  31
ENDBRANCH  28  30
ENDBRANCH  25  26
ENDBRANCH  24  25
ENDBRANCH  23  24
ENDBRANCH  22  23
ENDBRANCH  21  22
ENDBRANCH  20  21
ENDBRANCH  18  20
ENDBRANCH  15  16
ENDBRANCH  14  15
ENDBRANCH  12  14
ENDBRANCH   7  10
ENDBRANCH   2   7
TORSDOF 19
ENDMDL
MODEL        2
REMARK 921   NORMALIZED FREE ENERGY PREDICTED BY IDOCK:   -6.19 KCAL/MOL
REMARK 922        TOTAL FREE ENERGY PREDICTED BY IDOCK:  -15.24 KCAL/MOL
REMARK 923 INTER-LIGAND FREE ENERGY PREDICTED BY IDOCK:  -13.02 KCAL/MOL
REMARK 924 INTRA-LIGAND FREE ENERGY PREDICTED BY IDOCK:   -2.22 KCAL/MOL
REMARK 927      BINDING AFFINITY PREDICTED BY RF-SCORE:    0.00 PKD
ROOT
HETATM    1  C   UNL     1     -11.974  12.116  65.816  1.00  0.00    -0.267 C  
HETATM    2  C   UNL     1     -11.505  12.406  64.378  1.00  0.00    -0.408 C  
HETATM    3  C   UNL     1     -12.713  12.329  63.413  1.00  0.00    -0.461 C  
ENDROOT
BRANCH   2   4
HETATM    4  C   UNL     1     -10.973  13.853  64.305  1.00  0.00    -0.200 C  
HETATM    5  O   UNL     1      -9.831  14.029  65.140  1.00  0.00    -0.570 OA 
HETATM    6  H   UNL     1      -9.504  14.920  65.095  1.00  0.00     0.000 HD 
ENDBRANCH   2   4
BRANCH   2   7
HETATM    7  C   UNL     1     -10.387  11.411  63.933  1.00  0.00    -0.379 C  
HETATM    8  O   UNL     1      -9.394  12.026  63.095  1.00  0.00    -0.664 OA 
HETATM    9  H   UNL     1      -8.714  11.421  62.825  1.00  0.00     0.000 HD 
BRANCH   7  10
HETATM   10  C   UNL     1      -9.645  10.704  65.089  1.00  0.00    -0.251 C  
HETATM   11  O   UNL     1      -8.836  11.247  65.836  1.00  0.00    -0.195 OA 
HETATM   12  N   UNL     1     -10.034   9.394  65.259  1.00  0.00    -0.382 N  
HETATM   13  H   UNL     1     -10.658   8.961  64.578  1.00  0.00     0.000 HD 
BRANCH  12  14
HETATM   14  C   UNL     1      -9.570   8.624  66.392  1.00  0.00    -0.247 C  
BRANCH  14  15
HETATM   15  C   UNL     1     -10.581   7.588  66.870  1.00  0.00    -0.367 C  
BRANCH  15  16
HETATM   16  C   UNL     1     -10.439   7.429  68.368  1.00  0.00    -0.185 C  
HETATM   17  O   UNL     1      -9.622   8.080  69.012  1.00  0.00    -0.154 OA 
HETATM   18  N   UNL     1     -11.313   6.525  68.927  1.00  0.00    -0.590 N  
HETATM   19  H   UNL     1     -11.983   6.075  68.304  1.00  0.00     0.000 HD 
BRANCH  18  20
HETATM   20  C   UNL     1     -11.358   6.157  70.344  1.00  0.00    -0.328 C  
BRANCH  20  21
HETATM   21  C   UNL     1     -12.411   6.851  71.213  1.00  0.00    -0.375 C  
BRANCH  21  22
HETATM   22  S   UNL     1     -11.800   8.283  72.183  1.00  0.00    -0.394 SA 
BRANCH  22  23
HETATM   23  S   UNL     1     -13.299   9.685  72.004  1.00  0.00    -0.444 SA 
BRANCH  23  24
HETATM   24  C   UNL     1     -12.441  11.025  71.115  1.00  0.00    -0.397 C  
BRANCH  24  25
HETATM   25  C   UNL     1     -12.940  12.398  71.570  1.00  0.00    -0.285 C  
BRANCH  25  26
HETATM   26  N   UNL     1     -12.192  13.532  71.032  1.00  0.00    -0.440 N  
HETATM   27  H   UNL     1     -11.710  13.412  70.142  1.00  0.00     0.000 HD 
HETATM   28  C   UNL     1     -12.104  14.756  71.662  1.00  0.00    -0.350 C  
HETATM   29  O   UNL     1     -12.596  14.995  72.760  1.00  0.00    -0.342 OA 
BRANCH  28  30
HETATM   30  C   UNL     1     -11.375  15.817  70.870  1.00  0.00    -0.426 C  
BRANCH  30  31
HETATM   31  C   UNL     1     -11.016  15.276  69.489  1.00  0.00    -0.277 C  
BRANCH  31  32
HETATM   32  N   UNL     1     -11.020  16.316  68.477  1.00  0.00    -0.329 N  
HETATM   33  H   UNL     1     -11.779  16.998  68.476  1.00  0.00     0.000 HD 
HETATM   34  C   UNL     1     -10.037  16.416  67.520  1.00  0.00    -0.261 C  
HETATM   35  O   UNL     1      -9.137  15.593  67.385  1.00  0.00    -0.189 OA 
BRANCH  34  36
HETATM   36  C   UNL     1     -10.205  17.625  66.573  1.00  0.00    -0.355 C  
HETATM   37  O   UNL     1     -10.119  17.193  65.206  1.00  0.00    -0.507 OA 
HETATM   38  H   UNL     1     -10.222  17.937  64.624  1.00  0.00     0.000 HD 
BRANCH  36  39
HETATM   39  C   UNL     1      -9.184  18.766  66.840  1.00  0.00    -0.316 C  
HETATM   40  C   UNL     1      -7.826  18.476  66.166  1.00  0.00    -0.235 C  
HETATM   41  C   UNL     1      -9.731  20.076  66.227  1.00  0.00    -0.546 C  
BRANCH  39  42
HETATM   42  C   UNL     1      -8.991  18.957  68.363  1.00  0.00    -0.340 C  
HETATM   43  O   UNL     1     -10.198  19.360  69.003  1.00  0.00    -0.570 OA 
HETATM   44  H   UNL     1     -10.080  19.478  69.938  1.00  0.00     0.000 HD 
ENDBRANCH  39  42
ENDBRANCH  36  39
ENDBRANCH  34  36
ENDBRANCH  31  32
ENDBRANCH  30  31
ENDBRANCH  28  30
ENDBRANCH  25  26
ENDBRANCH  24  25
ENDBRANCH  23  24
ENDBRANCH  22  23
ENDBRANCH  21  22
ENDBRANCH  20  21
ENDBRANCH  18  20
ENDBRANCH  15  16
ENDBRANCH  14  15
ENDBRANCH  12  14
ENDBRANCH   7  10
ENDBRANCH   2   7
TORSDOF 19
ENDMDL
MODEL        3
REMARK 921   NORMALIZED FREE ENERGY PREDICTED BY IDOCK:   -6.04 KCAL/MOL
REMARK 922        TOTAL FREE ENERGY PREDICTED BY IDOCK:  -14.92 KCAL/MOL
REMARK 923 INTER-LIGAND FREE ENERGY PREDICTED BY IDOCK:  -12.45 KCAL/MOL
REMARK 924 INTRA-LIGAND FREE ENERGY PREDICTED BY IDOCK:   -2.47 KCAL/MOL
REMARK 927      BINDING AFFINITY PREDICTED BY RF-SCORE:    0.00 PKD
ROOT
HETATM    1  C   UNL     1     -12.609  11.932  63.249  1.00  0.00    -0.473 C  
HETATM    2  C   UNL     1     -11.285  12.256  63.967  1.00  0.00    -0.456 C  
HETATM    3  C   UNL     1     -11.256  11.550  65.345  1.00  0.00    -0.207 C  
ENDROOT
BRANCH   2   4
HETATM    4  C   UNL     1     -10.114  11.674  63.147  1.00  0.00    -0.376 C  
HETATM    5  O   UNL     1      -8.962  11.468  63.962  1.00  0.00    -0.408 OA 
HETATM    6  H   UNL     1      -8.241  11.110  63.457  1.00  0.00     0.000 HD 
ENDBRANCH   2   4
BRANCH   2   7
HETATM    7  C   UNL     1     -11.094  13.795  64.139  1.00  0.00    -0.171 C  
HETATM    8  O   UNL     1     -12.282  14.543  63.828  1.00  0.00    -0.947 OA 
HETATM    9  H   UNL     1     -12.166  15.480  63.933  1.00  0.00     0.000 HD 
BRANCH   7  10
HETATM   10  C   UNL     1     -10.618  14.241  65.539  1.00  0.00    -0.340 C  
HETATM   11  O   UNL     1     -11.303  14.867  66.343  1.00  0.00    -0.342 OA 
HETATM   12  N   UNL     1      -9.349  13.802  65.843  1.00  0.00    -0.505 N  
HETATM   13  H   UNL     1      -8.788  13.344  65.124  1.00  0.00     0.000 HD 
BRANCH  12  14
HETATM   14  C   UNL     1      -8.801  13.982  67.169  1.00  0.00    -0.228 C  
BRANCH  14  15
HETATM   15  C   UNL     1      -9.367  13.003  68.193  1.00  0.00    -0.217 C  
BRANCH  15  16
HETATM   16  C   UNL     1      -8.585  11.712  68.111  1.00  0.00    -0.158 C  
HETATM   17  O   UNL     1      -8.147  11.286  67.047  1.00  0.00    -0.136 OA 
HETATM   18  N   UNL     1      -8.392  11.089  69.323  1.00  0.00    -0.375 N  
HETATM   19  H   UNL     1      -8.758  11.556  70.153  1.00  0.00     0.000 HD 
BRANCH  18  20
HETATM   20  C   UNL     1      -7.704   9.810  69.518  1.00  0.00    -0.120 C  
BRANCH  20  21
HETATM   21  C   UNL     1      -8.431   8.744  70.342  1.00  0.00    -0.153 C  
BRANCH  21  22
HETATM   22  S   UNL     1     -10.164   8.417  69.836  1.00  0.00    -0.205 SA 
BRANCH  22  23
HETATM   23  S   UNL     1     -11.290   9.489  71.188  1.00  0.00    -0.398 SA 
BRANCH  23  24
HETATM   24  C   UNL     1     -11.844  10.894  70.167  1.00  0.00    -0.353 C  
BRANCH  24  25
HETATM   25  C   UNL     1     -12.553  11.950  71.018  1.00  0.00    -0.283 C  
BRANCH  25  26
HETATM   26  N   UNL     1     -12.052  13.312  70.850  1.00  0.00    -0.484 N  
HETATM   27  H   UNL     1     -11.082  13.436  70.556  1.00  0.00     0.000 HD 
HETATM   28  C   UNL     1     -12.817  14.439  71.065  1.00  0.00    -0.353 C  
HETATM   29  O   UNL     1     -13.974  14.410  71.472  1.00  0.00    -0.393 OA 
BRANCH  28  30
HETATM   30  C   UNL     1     -12.128  15.739  70.720  1.00  0.00    -0.448 C  
BRANCH  30  31
HETATM   31  C   UNL     1     -11.443  15.617  69.362  1.00  0.00    -0.348 C  
BRANCH  31  32
HETATM   32  N   UNL     1     -11.013  16.904  68.849  1.00  0.00    -0.262 N  
HETATM   33  H   UNL     1     -11.714  17.544  68.476  1.00  0.00     0.000 HD 
HETATM   34  C   UNL     1      -9.693  17.293  68.846  1.00  0.00    -0.251 C  
HETATM   35  O   UNL     1      -8.770  16.559  69.187  1.00  0.00    -0.232 OA 
BRANCH  34  36
HETATM   36  C   UNL     1      -9.462  18.720  68.303  1.00  0.00    -0.349 C  
HETATM   37  O   UNL     1     -10.565  19.567  68.661  1.00  0.00    -0.479 OA 
HETATM   38  H   UNL     1     -10.422  20.445  68.326  1.00  0.00     0.000 HD 
BRANCH  36  39
HETATM   39  C   UNL     1      -9.228  18.767  66.767  1.00  0.00    -0.321 C  
HETATM   40  C   UNL     1      -8.412  20.010  66.358  1.00  0.00    -0.341 C  
HETATM   41  C   UNL     1      -8.411  17.521  66.350  1.00  0.00    -0.297 C  
BRANCH  39  42
HETATM   42  C   UNL     1     -10.587  18.755  66.025  1.00  0.00    -0.386 C  
HETATM   43  O   UNL     1     -10.781  17.548  65.295  1.00  0.00    -0.656 OA 
HETATM   44  H   UNL     1     -11.615  17.541  64.840  1.00  0.00     0.000 HD 
ENDBRANCH  39  42
ENDBRANCH  36  39
ENDBRANCH  34  36
ENDBRANCH  31  32
ENDBRANCH  30  31
ENDBRANCH  28  30
ENDBRANCH  25  26
ENDBRANCH  24  25
ENDBRANCH  23  24
ENDBRANCH  22  23
ENDBRANCH  21  22
ENDBRANCH  20  21
ENDBRANCH  18  20
ENDBRANCH  15  16
ENDBRANCH  14  15
ENDBRANCH  12  14
ENDBRANCH   7  10
ENDBRANCH   2   7
TORSDOF 19
ENDMDL
MODEL        4
REMARK 921   NORMALIZED FREE ENERGY PREDICTED BY IDOCK:   -6.03 KCAL/MOL
REMARK 922        TOTAL FREE ENERGY PREDICTED BY IDOCK:  -14.91 KCAL/MOL
REMARK 923 INTER-LIGAND FREE ENERGY PREDICTED BY IDOCK:  -12.55 KCAL/MOL
REMARK 924 INTRA-LIGAND FREE ENERGY PREDICTED BY IDOCK:   -2.37 KCAL/MOL
REMARK 927      BINDING AFFINITY PREDICTED BY RF-SCORE:    0.00 PKD
ROOT
HETATM    1  C   UNL     1     -10.640   8.346  72.495  1.00  0.00    -0.368 C  
HETATM    2  C   UNL     1     -11.685   8.531  71.379  1.00  0.00    -0.346 C  
HETATM    3  C   UNL     1     -12.330   7.164  71.041  1.00  0.00    -0.376 C  
ENDROOT
BRANCH   2   4
HETATM    4  C   UNL     1     -12.821   9.438  71.900  1.00  0.00    -0.412 C  
HETATM    5  O   UNL     1     -13.346   8.956  73.134  1.00  0.00    -0.926 OA 
HETATM    6  H   UNL     1     -14.045   9.514  73.454  1.00  0.00     0.000 HD 
ENDBRANCH   2   4
BRANCH   2   7
HETATM    7  C   UNL     1     -11.049   9.165  70.103  1.00  0.00    -0.222 C  
HETATM    8  O   UNL     1     -10.093  10.195  70.408  1.00  0.00    -0.403 OA 
HETATM    9  H   UNL     1      -9.705  10.580  69.632  1.00  0.00     0.000 HD 
BRANCH   7  10
HETATM   10  C   UNL     1     -10.361   8.162  69.150  1.00  0.00    -0.220 C  
HETATM   11  O   UNL     1      -9.547   7.312  69.499  1.00  0.00    -0.155 OA 
HETATM   12  N   UNL     1     -10.807   8.260  67.851  1.00  0.00    -0.481 N  
HETATM   13  H   UNL     1     -11.432   9.022  67.588  1.00  0.00     0.000 HD 
BRANCH  12  14
HETATM   14  C   UNL     1     -10.399   7.296  66.853  1.00  0.00    -0.288 C  
BRANCH  14  15
HETATM   15  C   UNL     1      -9.050   7.619  66.219  1.00  0.00    -0.204 C  
BRANCH  15  16
HETATM   16  C   UNL     1      -9.010   9.096  65.895  1.00  0.00    -0.189 C  
HETATM   17  O   UNL     1      -8.746   9.938  66.747  1.00  0.00    -0.128 OA 
HETATM   18  N   UNL     1      -9.263   9.393  64.576  1.00  0.00    -0.430 N  
HETATM   19  H   UNL     1      -9.423   8.610  63.942  1.00  0.00     0.000 HD 
BRANCH  18  20
HETATM   20  C   UNL     1      -9.323  10.742  64.008  1.00  0.00    -0.252 C  
BRANCH  20  21
HETATM   21  C   UNL     1     -10.680  11.219  63.481  1.00  0.00    -0.335 C  
BRANCH  21  22
HETATM   22  S   UNL     1     -11.686  12.179  64.676  1.00  0.00    -0.307 SA 
BRANCH  22  23
HETATM   23  S   UNL     1     -10.516  13.819  65.111  1.00  0.00    -0.397 SA 
BRANCH  23  24
HETATM   24  C   UNL     1     -11.597  15.188  64.580  1.00  0.00    -0.329 C  
BRANCH  24  25
HETATM   25  C   UNL     1     -11.000  16.544  64.964  1.00  0.00    -0.210 C  
BRANCH  25  26
HETATM   26  N   UNL     1     -10.634  16.677  66.372  1.00  0.00    -0.250 N  
HETATM   27  H   UNL     1     -11.347  16.485  67.075  1.00  0.00     0.000 HD 
HETATM   28  C   UNL     1      -9.377  17.046  66.801  1.00  0.00    -0.252 C  
HETATM   29  O   UNL     1      -8.461  17.353  66.046  1.00  0.00    -0.503 OA 
BRANCH  28  30
HETATM   30  C   UNL     1      -9.191  17.008  68.301  1.00  0.00    -0.255 C  
BRANCH  30  31
HETATM   31  C   UNL     1     -10.543  17.152  68.994  1.00  0.00    -0.282 C  
BRANCH  31  32
HETATM   32  N   UNL     1     -10.781  16.091  69.955  1.00  0.00    -0.315 N  
HETATM   33  H   UNL     1     -10.394  16.184  70.894  1.00  0.00     0.000 HD 
HETATM   34  C   UNL     1     -11.508  14.966  69.645  1.00  0.00    -0.294 C  
HETATM   35  O   UNL     1     -11.934  14.723  68.519  1.00  0.00    -0.309 OA 
BRANCH  34  36
HETATM   36  C   UNL     1     -11.684  13.988  70.828  1.00  0.00    -0.118 C  
HETATM   37  O   UNL     1     -11.943  12.664  70.336  1.00  0.00    -0.467 OA 
HETATM   38  H   UNL     1     -12.052  12.063  71.063  1.00  0.00     0.000 HD 
BRANCH  36  39
HETATM   39  C   UNL     1     -12.797  14.416  71.824  1.00  0.00    -0.423 C  
HETATM   40  C   UNL     1     -13.837  15.334  71.147  1.00  0.00    -0.498 C  
HETATM   41  C   UNL     1     -13.545  13.151  72.307  1.00  0.00    -0.677 C  
BRANCH  39  42
HETATM   42  C   UNL     1     -12.169  15.133  73.043  1.00  0.00    -0.391 C  
HETATM   43  O   UNL     1     -11.954  16.517  72.790  1.00  0.00    -0.533 OA 
HETATM   44  H   UNL     1     -11.568  16.957  73.539  1.00  0.00     0.000 HD 
ENDBRANCH  39  42
ENDBRANCH  36  39
ENDBRANCH  34  36
ENDBRANCH  31  32
ENDBRANCH  30  31
ENDBRANCH  28  30
ENDBRANCH  25  26
ENDBRANCH  24  25
ENDBRANCH  23  24
ENDBRANCH  22  23
ENDBRANCH  21  22
ENDBRANCH  20  21
ENDBRANCH  18  20
ENDBRANCH  15  16
ENDBRANCH  14  15
ENDBRANCH  12  14
ENDBRANCH   7  10
ENDBRANCH   2   7
TORSDOF 19
ENDMDL
MODEL        5
REMARK 921   NORMALIZED FREE ENERGY PREDICTED BY IDOCK:   -5.94 KCAL/MOL
REMARK 922        TOTAL FREE ENERGY PREDICTED BY IDOCK:  -14.71 KCAL/MOL
REMARK 923 INTER-LIGAND FREE ENERGY PREDICTED BY IDOCK:  -12.22 KCAL/MOL
REMARK 924 INTRA-LIGAND FREE ENERGY PREDICTED BY IDOCK:   -2.50 KCAL/MOL
REMARK 927      BINDING AFFINITY PREDICTED BY RF-SCORE:    0.00 PKD
ROOT
HETATM    1  C   UNL     1     -10.954   5.718  70.090  1.00  0.00    -0.368 C  
HETATM    2  C   UNL     1     -10.434   5.689  71.539  1.00  0.00    -0.298 C  
HETATM    3  C   UNL     1     -10.119   4.229  71.948  1.00  0.00    -0.237 C  
ENDROOT
BRANCH   2   4
HETATM    4  C   UNL     1      -9.102   6.465  71.612  1.00  0.00    -0.144 C  
HETATM    5  O   UNL     1      -9.229   7.768  71.047  1.00  0.00    -0.149 OA 
HETATM    6  H   UNL     1      -8.409   8.245  71.091  1.00  0.00     0.000 HD 
ENDBRANCH   2   4
BRANCH   2   7
HETATM    7  C   UNL     1     -11.466   6.321  72.526  1.00  0.00    -0.261 C  
HETATM    8  O   UNL     1     -10.841   6.970  73.646  1.00  0.00    -0.516 OA 
HETATM    9  H   UNL     1     -11.468   7.355  74.246  1.00  0.00     0.000 HD 
BRANCH   7  10
HETATM   10  C   UNL     1     -12.443   7.333  71.889  1.00  0.00    -0.303 C  
HETATM   11  O   UNL     1     -13.478   7.031  71.302  1.00  0.00    -0.333 OA 
HETATM   12  N   UNL     1     -12.079   8.644  72.106  1.00  0.00    -0.366 N  
HETATM   13  H   UNL     1     -11.179   8.852  72.539  1.00  0.00     0.000 HD 
BRANCH  12  14
HETATM   14  C   UNL     1     -12.957   9.729  71.728  1.00  0.00    -0.438 C  
BRANCH  14  15
HETATM   15  C   UNL     1     -12.308  10.723  70.771  1.00  0.00    -0.480 C  
BRANCH  15  16
HETATM   16  C   UNL     1     -12.610  12.125  71.253  1.00  0.00    -0.238 C  
HETATM   17  O   UNL     1     -13.358  12.336  72.202  1.00  0.00    -0.526 OA 
HETATM   18  N   UNL     1     -11.956  13.116  70.556  1.00  0.00    -0.527 N  
HETATM   19  H   UNL     1     -11.319  12.825  69.816  1.00  0.00     0.000 HD 
BRANCH  18  20
HETATM   20  C   UNL     1     -12.103  14.554  70.794  1.00  0.00    -0.329 C  
BRANCH  20  21
HETATM   21  C   UNL     1     -11.991  15.477  69.577  1.00  0.00    -0.350 C  
BRANCH  21  22
HETATM   22  S   UNL     1     -10.400  16.377  69.426  1.00  0.00    -0.279 SA 
BRANCH  22  23
HETATM   23  S   UNL     1     -10.356  16.991  67.459  1.00  0.00    -0.332 SA 
BRANCH  23  24
HETATM   24  C   UNL     1     -10.563  15.408  66.580  1.00  0.00    -0.306 C  
BRANCH  24  25
HETATM   25  C   UNL     1     -10.863  15.635  65.096  1.00  0.00    -0.431 C  
BRANCH  25  26
HETATM   26  N   UNL     1     -11.175  14.424  64.340  1.00  0.00    -0.606 N  
HETATM   27  H   UNL     1     -10.504  14.107  63.641  1.00  0.00     0.000 HD 
HETATM   28  C   UNL     1     -12.327  13.688  64.521  1.00  0.00    -0.356 C  
HETATM   29  O   UNL     1     -13.226  14.006  65.292  1.00  0.00    -0.782 OA 
BRANCH  28  30
HETATM   30  C   UNL     1     -12.387  12.412  63.713  1.00  0.00    -0.625 C  
BRANCH  30  31
HETATM   31  C   UNL     1     -10.979  11.992  63.302  1.00  0.00    -0.325 C  
BRANCH  31  32
HETATM   32  N   UNL     1     -10.454  10.938  64.148  1.00  0.00    -0.410 N  
HETATM   33  H   UNL     1     -10.753   9.977  63.979  1.00  0.00     0.000 HD 
HETATM   34  C   UNL     1      -9.567  11.185  65.169  1.00  0.00    -0.234 C  
HETATM   35  O   UNL     1      -9.221  12.314  65.507  1.00  0.00    -0.024 OA 
BRANCH  34  36
HETATM   36  C   UNL     1      -9.095   9.915  65.911  1.00  0.00    -0.162 C  
HETATM   37  O   UNL     1      -9.375   8.751  65.118  1.00  0.00    -0.439 OA 
HETATM   38  H   UNL     1      -9.085   7.970  65.575  1.00  0.00     0.000 HD 
BRANCH  36  39
HETATM   39  C   UNL     1      -9.716   9.760  67.328  1.00  0.00    -0.213 C  
HETATM   40  C   UNL     1      -8.762  10.281  68.422  1.00  0.00    -0.129 C  
HETATM   41  C   UNL     1     -11.007  10.609  67.400  1.00  0.00    -0.361 C  
BRANCH  39  42
HETATM   42  C   UNL     1     -10.068   8.276  67.590  1.00  0.00    -0.209 C  
HETATM   43  O   UNL     1      -8.916   7.511  67.931  1.00  0.00    -0.132 OA 
HETATM   44  H   UNL     1      -9.132   6.600  68.092  1.00  0.00     0.000 HD 
ENDBRANCH  39  42
ENDBRANCH  36  39
ENDBRANCH  34  36
ENDBRANCH  31  32
ENDBRANCH  30  31
ENDBRANCH  28  30
ENDBRANCH  25  26
ENDBRANCH  24  25
ENDBRANCH  23  24
ENDBRANCH  22  23
ENDBRANCH  21  22
ENDBRANCH  20  21
ENDBRANCH  18  20
ENDBRANCH  15  16
ENDBRANCH  14  15
ENDBRANCH  12  14
ENDBRANCH   7  10
ENDBRANCH   2   7
TORSDOF 19
ENDMDL
MODEL        6
REMARK 921   NORMALIZED FREE ENERGY PREDICTED BY IDOCK:   -5.92 KCAL/MOL
REMARK 922        TOTAL FREE ENERGY PREDICTED BY IDOCK:  -14.67 KCAL/MOL
REMARK 923 INTER-LIGAND FREE ENERGY PREDICTED BY IDOCK:  -12.80 KCAL/MOL
REMARK 924 INTRA-LIGAND FREE ENERGY PREDICTED BY IDOCK:   -1.87 KCAL/MOL
REMARK 927      BINDING AFFINITY PREDICTED BY RF-SCORE:    0.00 PKD
ROOT
HETATM    1  C   UNL     1     -10.363  12.904  64.132  1.00  0.00    -0.385 C  
HETATM    2  C   UNL     1     -11.720  13.224  64.786  1.00  0.00    -0.390 C  
HETATM    3  C   UNL     1     -12.297  14.524  64.174  1.00  0.00    -0.317 C  
ENDROOT
BRANCH   2   4
HETATM    4  C   UNL     1     -12.719  12.096  64.450  1.00  0.00    -0.217 C  
HETATM    5  O   UNL     1     -12.491  11.574  63.144  1.00  0.00    -0.936 OA 
HETATM    6  H   UNL     1     -13.106  10.880  62.937  1.00  0.00     0.000 HD 
ENDBRANCH   2   4
BRANCH   2   7
HETATM    7  C   UNL     1     -11.585  13.364  66.335  1.00  0.00    -0.346 C  
HETATM    8  O   UNL     1     -12.694  14.059  66.931  1.00  0.00    -0.465 OA 
HETATM    9  H   UNL     1     -12.612  14.144  67.873  1.00  0.00     0.000 HD 
BRANCH   7  10
HETATM   10  C   UNL     1     -11.409  12.032  67.098  1.00  0.00    -0.333 C  
HETATM   11  O   UNL     1     -12.250  11.536  67.842  1.00  0.00    -0.586 OA 
HETATM   12  N   UNL     1     -10.222  11.397  66.807  1.00  0.00    -0.216 N  
HETATM   13  H   UNL     1      -9.522  11.873  66.238  1.00  0.00     0.000 HD 
BRANCH  12  14
HETATM   14  C   UNL     1      -9.956  10.063  67.298  1.00  0.00    -0.197 C  
BRANCH  14  15
HETATM   15  C   UNL     1      -9.766   9.038  66.185  1.00  0.00    -0.354 C  
BRANCH  15  16
HETATM   16  C   UNL     1      -9.962   7.654  66.764  1.00  0.00    -0.247 C  
HETATM   17  O   UNL     1      -9.402   6.670  66.291  1.00  0.00    -0.162 OA 
HETATM   18  N   UNL     1     -10.787   7.613  67.864  1.00  0.00    -0.476 N  
HETATM   19  H   UNL     1     -11.161   8.498  68.203  1.00  0.00     0.000 HD 
BRANCH  18  20
HETATM   20  C   UNL     1     -11.172   6.398  68.588  1.00  0.00    -0.248 C  
BRANCH  20  21
HETATM   21  C   UNL     1     -10.956   6.391  70.104  1.00  0.00    -0.334 C  
BRANCH  21  22
HETATM   22  S   UNL     1     -12.354   7.051  71.092  1.00  0.00    -0.345 SA 
BRANCH  22  23
HETATM   23  S   UNL     1     -11.544   8.660  72.091  1.00  0.00    -0.356 SA 
BRANCH  23  24
HETATM   24  C   UNL     1     -11.793  10.002  70.882  1.00  0.00    -0.368 C  
BRANCH  24  25
HETATM   25  C   UNL     1     -12.831  11.010  71.382  1.00  0.00    -0.443 C  
BRANCH  25  26
HETATM   26  N   UNL     1     -12.587  12.393  70.978  1.00  0.00    -0.325 N  
HETATM   27  H   UNL     1     -11.957  12.562  70.194  1.00  0.00     0.000 HD 
HETATM   28  C   UNL     1     -13.163  13.482  71.598  1.00  0.00    -0.366 C  
HETATM   29  O   UNL     1     -13.890  13.400  72.583  1.00  0.00    -0.726 OA 
BRANCH  28  30
HETATM   30  C   UNL     1     -12.859  14.809  70.942  1.00  0.00    -0.423 C  
BRANCH  30  31
HETATM   31  C   UNL     1     -11.660  14.664  70.011  1.00  0.00    -0.284 C  
BRANCH  31  32
HETATM   32  N   UNL     1     -11.157  15.948  69.562  1.00  0.00    -0.289 N  
HETATM   33  H   UNL     1     -11.696  16.788  69.773  1.00  0.00     0.000 HD 
HETATM   34  C   UNL     1      -9.980  16.075  68.861  1.00  0.00    -0.232 C  
HETATM   35  O   UNL     1      -9.312  15.118  68.481  1.00  0.00    -0.180 OA 
BRANCH  34  36
HETATM   36  C   UNL     1      -9.605  17.535  68.525  1.00  0.00    -0.305 C  
HETATM   37  O   UNL     1     -10.488  18.438  69.209  1.00  0.00    -0.419 OA 
HETATM   38  H   UNL     1     -10.257  19.336  69.002  1.00  0.00     0.000 HD 
BRANCH  36  39
HETATM   39  C   UNL     1      -9.605  17.838  67.001  1.00  0.00    -0.284 C  
HETATM   40  C   UNL     1     -10.405  16.779  66.215  1.00  0.00    -0.316 C  
HETATM   41  C   UNL     1     -10.293  19.204  66.766  1.00  0.00    -0.507 C  
BRANCH  39  42
HETATM   42  C   UNL     1      -8.151  17.905  66.475  1.00  0.00    -0.272 C  
HETATM   43  O   UNL     1      -7.257  17.160  67.296  1.00  0.00    -0.149 OA 
HETATM   44  H   UNL     1      -6.364  17.200  66.974  1.00  0.00     0.000 HD 
ENDBRANCH  39  42
ENDBRANCH  36  39
ENDBRANCH  34  36
ENDBRANCH  31  32
ENDBRANCH  30  31
ENDBRANCH  28  30
ENDBRANCH  25  26
ENDBRANCH  24  25
ENDBRANCH  23  24
ENDBRANCH  22  23
ENDBRANCH  21  22
ENDBRANCH  20  21
ENDBRANCH  18  20
ENDBRANCH  15  16
ENDBRANCH  14  15
ENDBRANCH  12  14
ENDBRANCH   7  10
ENDBRANCH   2   7
TORSDOF 19
ENDMDL
MODEL        7
REMARK 921   NORMALIZED FREE ENERGY PREDICTED BY IDOCK:   -5.88 KCAL/MOL
REMARK 922        TOTAL FREE ENERGY PREDICTED BY IDOCK:  -14.59 KCAL/MOL
REMARK 923 INTER-LIGAND FREE ENERGY PREDICTED BY IDOCK:  -10.95 KCAL/MOL
REMARK 924 INTRA-LIGAND FREE ENERGY PREDICTED BY IDOCK:   -3.64 KCAL/MOL
REMARK 927      BINDING AFFINITY PREDICTED BY RF-SCORE:    0.00 PKD
ROOT
HETATM    1  C   UNL     1     -11.761  12.135  66.286  1.00  0.00    -0.389 C  
HETATM    2  C   UNL     1     -11.663  12.373  64.767  1.00  0.00    -0.425 C  
HETATM    3  C   UNL     1     -13.086  12.445  64.160  1.00  0.00    -0.128 C  
ENDROOT
BRANCH   2   4
HETATM    4  C   UNL     1     -11.005  13.745  64.514  1.00  0.00    -0.391 C  
HETATM    5  O   UNL     1      -9.777  13.872  65.228  1.00  0.00    -0.556 OA 
HETATM    6  H   UNL     1      -9.372  14.717  65.072  1.00  0.00     0.000 HD 
ENDBRANCH   2   4
BRANCH   2   7
HETATM    7  C   UNL     1     -10.829  11.252  64.070  1.00  0.00    -0.344 C  
HETATM    8  O   UNL     1     -10.059  11.740  62.958  1.00  0.00    -0.575 OA 
HETATM    9  H   UNL     1      -9.552  11.059  62.534  1.00  0.00     0.000 HD 
BRANCH   7  10
HETATM   10  C   UNL     1      -9.864  10.482  64.999  1.00  0.00    -0.306 C  
HETATM   11  O   UNL     1     -10.153   9.459  65.613  1.00  0.00    -0.261 OA 
HETATM   12  N   UNL     1      -8.596  11.018  65.022  1.00  0.00    -0.372 N  
HETATM   13  H   UNL     1      -8.414  11.905  64.553  1.00  0.00     0.000 HD 
BRANCH  12  14
HETATM   14  C   UNL     1      -7.517  10.338  65.705  1.00  0.00    -0.149 C  
BRANCH  14  15
HETATM   15  C   UNL     1      -6.642  11.275  66.531  1.00  0.00    -0.108 C  
BRANCH  15  16
HETATM   16  C   UNL     1      -7.537  12.208  67.314  1.00  0.00    -0.156 C  
HETATM   17  O   UNL     1      -8.484  11.792  67.975  1.00  0.00    -0.142 OA 
HETATM   18  N   UNL     1      -7.177  13.534  67.239  1.00  0.00    -0.345 N  
HETATM   19  H   UNL     1      -6.343  13.762  66.700  1.00  0.00     0.000 HD 
BRANCH  18  20
HETATM   20  C   UNL     1      -7.897  14.643  67.871  1.00  0.00    -0.136 C  
BRANCH  20  21
HETATM   21  C   UNL     1      -7.722  16.032  67.250  1.00  0.00    -0.183 C  
BRANCH  21  22
HETATM   22  S   UNL     1      -8.149  17.436  68.350  1.00  0.00    -0.271 SA 
BRANCH  22  23
HETATM   23  S   UNL     1     -10.056  17.962  67.773  1.00  0.00    -0.366 SA 
BRANCH  23  24
HETATM   24  C   UNL     1     -11.008  16.491  68.277  1.00  0.00    -0.346 C  
BRANCH  24  25
HETATM   25  C   UNL     1     -10.732  16.129  69.738  1.00  0.00    -0.336 C  
BRANCH  25  26
HETATM   26  N   UNL     1     -11.107  14.768  70.115  1.00  0.00    -0.400 N  
HETATM   27  H   UNL     1     -10.418  14.026  69.988  1.00  0.00     0.000 HD 
HETATM   28  C   UNL     1     -12.340  14.431  70.632  1.00  0.00    -0.351 C  
HETATM   29  O   UNL     1     -13.260  15.229  70.774  1.00  0.00    -0.426 OA 
BRANCH  28  30
HETATM   30  C   UNL     1     -12.468  12.986  71.056  1.00  0.00    -0.385 C  
BRANCH  30  31
HETATM   31  C   UNL     1     -12.144  12.071  69.880  1.00  0.00    -0.263 C  
BRANCH  31  32
HETATM   32  N   UNL     1     -11.170  11.053  70.230  1.00  0.00    -0.472 N  
HETATM   33  H   UNL     1     -10.190  11.209  69.994  1.00  0.00     0.000 HD 
HETATM   34  C   UNL     1     -11.521   9.887  70.869  1.00  0.00    -0.376 C  
HETATM   35  O   UNL     1     -12.682   9.571  71.111  1.00  0.00    -0.317 OA 
BRANCH  34  36
HETATM   36  C   UNL     1     -10.324   8.966  71.194  1.00  0.00    -0.268 C  
HETATM   37  O   UNL     1      -9.095   9.701  71.083  1.00  0.00    -0.338 OA 
HETATM   38  H   UNL     1      -8.359   9.135  71.283  1.00  0.00     0.000 HD 
BRANCH  36  39
HETATM   39  C   UNL     1     -10.267   7.691  70.308  1.00  0.00    -0.205 C  
HETATM   40  C   UNL     1      -8.946   6.920  70.513  1.00  0.00    -0.155 C  
HETATM   41  C   UNL     1     -11.420   6.747  70.720  1.00  0.00    -0.392 C  
BRANCH  39  42
HETATM   42  C   UNL     1     -10.432   8.075  68.818  1.00  0.00    -0.173 C  
HETATM   43  O   UNL     1      -9.425   8.987  68.392  1.00  0.00    -0.145 OA 
HETATM   44  H   UNL     1      -9.526   9.223  67.477  1.00  0.00     0.000 HD 
ENDBRANCH  39  42
ENDBRANCH  36  39
ENDBRANCH  34  36
ENDBRANCH  31  32
ENDBRANCH  30  31
ENDBRANCH  28  30
ENDBRANCH  25  26
ENDBRANCH  24  25
ENDBRANCH  23  24
ENDBRANCH  22  23
ENDBRANCH  21  22
ENDBRANCH  20  21
ENDBRANCH  18  20
ENDBRANCH  15  16
ENDBRANCH  14  15
ENDBRANCH  12  14
ENDBRANCH   7  10
ENDBRANCH   2   7
TORSDOF 19
ENDMDL
MODEL        8
REMARK 921   NORMALIZED FREE ENERGY PREDICTED BY IDOCK:   -5.86 KCAL/MOL
REMARK 922        TOTAL FREE ENERGY PREDICTED BY IDOCK:  -14.56 KCAL/MOL
REMARK 923 INTER-LIGAND FREE ENERGY PREDICTED BY IDOCK:  -12.54 KCAL/MOL
REMARK 924 INTRA-LIGAND FREE ENERGY PREDICTED BY IDOCK:   -2.01 KCAL/MOL
REMARK 927      BINDING AFFINITY PREDICTED BY RF-SCORE:    0.00 PKD
ROOT
HETATM    1  C   UNL     1     -11.269   7.716  72.889  1.00  0.00    -0.426 C  
HETATM    2  C   UNL     1     -12.079   8.313  71.724  1.00  0.00    -0.364 C  
HETATM    3  C   UNL     1     -12.939   7.204  71.068  1.00  0.00    -0.231 C  
ENDROOT
BRANCH   2   4
HETATM    4  C   UNL     1     -13.064   9.363  72.281  1.00  0.00    -0.428 C  
HETATM    5  O   UNL     1     -14.077   8.754  73.077  1.00  0.00    -1.035 OA 
HETATM    6  H   UNL     1     -14.682   9.400  73.420  1.00  0.00     0.000 HD 
ENDBRANCH   2   4
BRANCH   2   7
HETATM    7  C   UNL     1     -11.146   8.977  70.664  1.00  0.00    -0.265 C  
HETATM    8  O   UNL     1     -10.048   9.692  71.257  1.00  0.00    -0.250 OA 
HETATM    9  H   UNL     1      -9.480  10.096  70.612  1.00  0.00     0.000 HD 
BRANCH   7  10
HETATM   10  C   UNL     1     -10.555   8.008  69.615  1.00  0.00    -0.223 C  
HETATM   11  O   UNL     1      -9.919   6.993  69.883  1.00  0.00    -0.175 OA 
HETATM   12  N   UNL     1     -10.874   8.354  68.321  1.00  0.00    -0.447 N  
HETATM   13  H   UNL     1     -11.346   9.240  68.137  1.00  0.00     0.000 HD 
BRANCH  12  14
HETATM   14  C   UNL     1     -10.550   7.476  67.218  1.00  0.00    -0.324 C  
BRANCH  14  15
HETATM   15  C   UNL     1      -9.326   7.929  66.429  1.00  0.00    -0.247 C  
BRANCH  15  16
HETATM   16  C   UNL     1      -9.323   9.440  66.367  1.00  0.00    -0.187 C  
HETATM   17  O   UNL     1      -8.829  10.123  67.260  1.00  0.00    -0.131 OA 
HETATM   18  N   UNL     1      -9.888   9.961  65.226  1.00  0.00    -0.317 N  
HETATM   19  H   UNL     1     -10.224   9.301  64.526  1.00  0.00     0.000 HD 
BRANCH  18  20
HETATM   20  C   UNL     1     -10.046  11.389  64.936  1.00  0.00    -0.274 C  
BRANCH  20  21
HETATM   21  C   UNL     1     -11.454  11.878  64.584  1.00  0.00    -0.279 C  
BRANCH  21  22
HETATM   22  S   UNL     1     -12.140  13.152  65.711  1.00  0.00    -0.458 SA 
BRANCH  22  23
HETATM   23  S   UNL     1     -10.940  13.041  67.382  1.00  0.00    -0.268 SA 
BRANCH  23  24
HETATM   24  C   UNL     1     -11.755  11.712  68.328  1.00  0.00    -0.304 C  
BRANCH  24  25
HETATM   25  C   UNL     1     -12.010  12.139  69.775  1.00  0.00    -0.302 C  
BRANCH  25  26
HETATM   26  N   UNL     1     -11.510  13.468  70.119  1.00  0.00    -0.510 N  
HETATM   27  H   UNL     1     -10.705  13.828  69.606  1.00  0.00     0.000 HD 
HETATM   28  C   UNL     1     -12.066  14.262  71.100  1.00  0.00    -0.336 C  
HETATM   29  O   UNL     1     -12.997  13.909  71.816  1.00  0.00    -0.329 OA 
BRANCH  28  30
HETATM   30  C   UNL     1     -11.458  15.642  71.208  1.00  0.00    -0.469 C  
BRANCH  30  31
HETATM   31  C   UNL     1     -10.349  15.801  70.173  1.00  0.00    -0.220 C  
BRANCH  31  32
HETATM   32  N   UNL     1     -10.775  16.586  69.030  1.00  0.00    -0.312 N  
HETATM   33  H   UNL     1     -11.662  17.086  69.081  1.00  0.00     0.000 HD 
HETATM   34  C   UNL     1     -10.026  16.680  67.880  1.00  0.00    -0.254 C  
HETATM   35  O   UNL     1      -8.994  16.043  67.690  1.00  0.00    -0.188 OA 
BRANCH  34  36
HETATM   36  C   UNL     1     -10.639  17.608  66.807  1.00  0.00    -0.224 C  
HETATM   37  O   UNL     1     -10.531  16.997  65.512  1.00  0.00    -0.572 OA 
HETATM   38  H   UNL     1     -10.908  17.568  64.852  1.00  0.00     0.000 HD 
BRANCH  36  39
HETATM   39  C   UNL     1     -10.007  19.027  66.784  1.00  0.00    -0.417 C  
HETATM   40  C   UNL     1     -10.526  19.856  65.591  1.00  0.00    -0.444 C  
HETATM   41  C   UNL     1     -10.415  19.774  68.075  1.00  0.00    -0.523 C  
BRANCH  39  42
HETATM   42  C   UNL     1      -8.464  18.918  66.725  1.00  0.00    -0.298 C  
HETATM   43  O   UNL     1      -8.033  18.083  65.655  1.00  0.00    -0.514 OA 
HETATM   44  H   UNL     1      -7.086  18.016  65.618  1.00  0.00     0.000 HD 
ENDBRANCH  39  42
ENDBRANCH  36  39
ENDBRANCH  34  36
ENDBRANCH  31  32
ENDBRANCH  30  31
ENDBRANCH  28  30
ENDBRANCH  25  26
ENDBRANCH  24  25
ENDBRANCH  23  24
ENDBRANCH  22  23
ENDBRANCH  21  22
ENDBRANCH  20  21
ENDBRANCH  18  20
ENDBRANCH  15  16
ENDBRANCH  14  15
ENDBRANCH  12  14
ENDBRANCH   7  10
ENDBRANCH   2   7
TORSDOF 19
ENDMDL
MODEL        9
REMARK 921   NORMALIZED FREE ENERGY PREDICTED BY IDOCK:   -5.84 KCAL/MOL
REMARK 922        TOTAL FREE ENERGY PREDICTED BY IDOCK:  -14.51 KCAL/MOL
REMARK 923 INTER-LIGAND FREE ENERGY PREDICTED BY IDOCK:  -12.24 KCAL/MOL
REMARK 924 INTRA-LIGAND FREE ENERGY PREDICTED BY IDOCK:   -2.27 KCAL/MOL
REMARK 927      BINDING AFFINITY PREDICTED BY RF-SCORE:    0.00 PKD
ROOT
HETATM    1  C   UNL     1      -9.343  15.172  65.912  1.00  0.00    -0.279 C  
HETATM    2  C   UNL     1     -10.623  15.917  66.338  1.00  0.00    -0.298 C  
HETATM    3  C   UNL     1     -11.209  15.254  67.609  1.00  0.00    -0.320 C  
ENDROOT
BRANCH   2   4
HETATM    4  C   UNL     1     -10.257  17.366  66.723  1.00  0.00    -0.318 C  
HETATM    5  O   UNL     1      -9.261  17.898  65.853  1.00  0.00    -0.519 OA 
HETATM    6  H   UNL     1      -9.036  18.790  66.091  1.00  0.00     0.000 HD 
ENDBRANCH   2   4
BRANCH   2   7
HETATM    7  C   UNL     1     -11.682  15.928  65.191  1.00  0.00     0.271 C  
HETATM    8  O   UNL     1     -11.173  16.484  63.967  1.00  0.00    -1.409 OA 
HETATM    9  H   UNL     1     -11.817  16.491  63.270  1.00  0.00     0.000 HD 
BRANCH   7  10
HETATM   10  C   UNL     1     -12.295  14.550  64.855  1.00  0.00    -0.370 C  
HETATM   11  O   UNL     1     -13.263  14.058  65.426  1.00  0.00    -0.761 OA 
HETATM   12  N   UNL     1     -11.688  13.938  63.781  1.00  0.00    -0.660 N  
HETATM   13  H   UNL     1     -10.846  14.347  63.377  1.00  0.00     0.000 HD 
BRANCH  12  14
HETATM   14  C   UNL     1     -12.231  12.721  63.218  1.00  0.00    -0.410 C  
BRANCH  14  15
HETATM   15  C   UNL     1     -11.828  11.469  63.990  1.00  0.00    -0.172 C  
BRANCH  15  16
HETATM   16  C   UNL     1     -10.402  11.117  63.630  1.00  0.00    -0.389 C  
HETATM   17  O   UNL     1      -9.657  11.921  63.078  1.00  0.00    -0.376 OA 
HETATM   18  N   UNL     1     -10.023   9.847  63.998  1.00  0.00    -0.442 N  
HETATM   19  H   UNL     1     -10.708   9.279  64.495  1.00  0.00     0.000 HD 
BRANCH  18  20
HETATM   20  C   UNL     1      -8.713   9.244  63.733  1.00  0.00    -0.167 C  
BRANCH  20  21
HETATM   21  C   UNL     1      -7.908   8.763  64.943  1.00  0.00    -0.120 C  
BRANCH  21  22
HETATM   22  S   UNL     1      -8.887   8.479  66.467  1.00  0.00    -0.149 SA 
BRANCH  22  23
HETATM   23  S   UNL     1      -8.014   9.721  67.861  1.00  0.00    -0.104 SA 
BRANCH  23  24
HETATM   24  C   UNL     1      -8.492  11.365  67.233  1.00  0.00    -0.148 C  
BRANCH  24  25
HETATM   25  C   UNL     1      -9.266  12.156  68.289  1.00  0.00    -0.192 C  
BRANCH  25  26
HETATM   26  N   UNL     1     -10.294  11.395  68.996  1.00  0.00    -0.337 N  
HETATM   27  H   UNL     1     -10.033  10.921  69.861  1.00  0.00     0.000 HD 
HETATM   28  C   UNL     1     -11.597  11.282  68.557  1.00  0.00    -0.315 C  
HETATM   29  O   UNL     1     -12.006  11.762  67.505  1.00  0.00    -0.607 OA 
BRANCH  28  30
HETATM   30  C   UNL     1     -12.514  10.542  69.504  1.00  0.00     0.035 C  
BRANCH  30  31
HETATM   31  C   UNL     1     -12.138  10.865  70.947  1.00  0.00    -0.349 C  
BRANCH  31  32
HETATM   32  N   UNL     1     -12.001   9.669  71.757  1.00  0.00    -0.381 N  
HETATM   33  H   UNL     1     -12.820   9.314  72.251  1.00  0.00     0.000 HD 
HETATM   34  C   UNL     1     -10.808   8.998  71.884  1.00  0.00    -0.343 C  
HETATM   35  O   UNL     1      -9.751   9.398  71.404  1.00  0.00    -0.236 OA 
BRANCH  34  36
HETATM   36  C   UNL     1     -10.895   7.722  72.751  1.00  0.00    -0.379 C  
HETATM   37  O   UNL     1      -9.595   7.385  73.259  1.00  0.00    -0.185 OA 
HETATM   38  H   UNL     1      -9.649   6.600  73.793  1.00  0.00     0.000 HD 
BRANCH  36  39
HETATM   39  C   UNL     1     -11.509   6.507  72.002  1.00  0.00    -0.342 C  
HETATM   40  C   UNL     1     -11.313   5.198  72.796  1.00  0.00    -0.311 C  
HETATM   41  C   UNL     1     -13.032   6.731  71.855  1.00  0.00    -0.229 C  
BRANCH  39  42
HETATM   42  C   UNL     1     -10.875   6.377  70.597  1.00  0.00    -0.276 C  
HETATM   43  O   UNL     1     -11.847   6.504  69.564  1.00  0.00    -0.649 OA 
HETATM   44  H   UNL     1     -11.458   6.424  68.701  1.00  0.00     0.000 HD 
ENDBRANCH  39  42
ENDBRANCH  36  39
ENDBRANCH  34  36
ENDBRANCH  31  32
ENDBRANCH  30  31
ENDBRANCH  28  30
ENDBRANCH  25  26
ENDBRANCH  24  25
ENDBRANCH  23  24
ENDBRANCH  22  23
ENDBRANCH  21  22
ENDBRANCH  20  21
ENDBRANCH  18  20
ENDBRANCH  15  16
ENDBRANCH  14  15
ENDBRANCH  12  14
ENDBRANCH   7  10
ENDBRANCH   2   7
TORSDOF 19
ENDMDL
MODEL       10
REMARK 921   NORMALIZED FREE ENERGY PREDICTED BY IDOCK:   -5.84 KCAL/MOL
REMARK 922        TOTAL FREE ENERGY PREDICTED BY IDOCK:  -14.50 KCAL/MOL
REMARK 923 INTER-LIGAND FREE ENERGY PREDICTED BY IDOCK:  -12.75 KCAL/MOL
REMARK 924 INTRA-LIGAND FREE ENERGY PREDICTED BY IDOCK:   -1.75 KCAL/MOL
REMARK 927      BINDING AFFINITY PREDICTED BY RF-SCORE:    0.00 PKD
ROOT
HETATM    1  C   UNL     1     -10.207   8.718  71.137  1.00  0.00    -0.316 C  
HETATM    2  C   UNL     1     -11.353   8.123  71.976  1.00  0.00    -0.378 C  
HETATM    3  C   UNL     1     -10.817   7.713  73.370  1.00  0.00    -0.274 C  
ENDROOT
BRANCH   2   4
HETATM    4  C   UNL     1     -12.419   9.213  72.215  1.00  0.00    -0.333 C  
HETATM    5  O   UNL     1     -13.323   8.835  73.251  1.00  0.00    -0.915 OA 
HETATM    6  H   UNL     1     -13.980   9.506  73.398  1.00  0.00     0.000 HD 
ENDBRANCH   2   4
BRANCH   2   7
HETATM    7  C   UNL     1     -12.004   6.897  71.261  1.00  0.00    -0.356 C  
HETATM    8  O   UNL     1     -13.279   7.207  70.673  1.00  0.00    -0.561 OA 
HETATM    9  H   UNL     1     -13.674   6.461  70.238  1.00  0.00     0.000 HD 
BRANCH   7  10
HETATM   10  C   UNL     1     -11.134   6.243  70.164  1.00  0.00    -0.377 C  
HETATM   11  O   UNL     1     -10.290   5.375  70.367  1.00  0.00    -0.248 OA 
HETATM   12  N   UNL     1     -11.447   6.679  68.896  1.00  0.00    -0.602 N  
HETATM   13  H   UNL     1     -12.105   7.449  68.776  1.00  0.00     0.000 HD 
BRANCH  12  14
HETATM   14  C   UNL     1     -10.853   6.060  67.732  1.00  0.00    -0.290 C  
BRANCH  14  15
HETATM   15  C   UNL     1     -10.527   7.053  66.621  1.00  0.00    -0.209 C  
BRANCH  15  16
HETATM   16  C   UNL     1     -10.087   8.355  67.251  1.00  0.00    -0.253 C  
HETATM   17  O   UNL     1     -10.887   9.245  67.526  1.00  0.00    -0.259 OA 
HETATM   18  N   UNL     1      -8.737   8.432  67.506  1.00  0.00    -0.135 N  
HETATM   19  H   UNL     1      -8.170   7.615  67.282  1.00  0.00     0.000 HD 
BRANCH  18  20
HETATM   20  C   UNL     1      -8.048   9.594  68.074  1.00  0.00    -0.105 C  
BRANCH  20  21
HETATM   21  C   UNL     1      -7.742  10.757  67.125  1.00  0.00    -0.120 C  
BRANCH  21  22
HETATM   22  S   UNL     1      -6.429  10.428  65.888  1.00  0.00    -0.131 SA 
BRANCH  22  23
HETATM   23  S   UNL     1      -7.376   9.310  64.439  1.00  0.00    -0.109 SA 
BRANCH  23  24
HETATM   24  C   UNL     1      -8.163  10.610  63.432  1.00  0.00    -0.038 C  
BRANCH  24  25
HETATM   25  C   UNL     1      -9.660  10.346  63.260  1.00  0.00    -0.308 C  
BRANCH  25  26
HETATM   26  N   UNL     1     -10.463  11.531  62.967  1.00  0.00    -0.661 N  
HETATM   27  H   UNL     1     -10.471  11.882  62.009  1.00  0.00     0.000 HD 
HETATM   28  C   UNL     1     -11.210  12.201  63.913  1.00  0.00    -0.415 C  
HETATM   29  O   UNL     1     -11.230  11.901  65.102  1.00  0.00    -0.311 OA 
BRANCH  28  30
HETATM   30  C   UNL     1     -12.051  13.330  63.363  1.00  0.00    -0.508 C  
BRANCH  30  31
HETATM   31  C   UNL     1     -12.485  14.252  64.498  1.00  0.00    -0.333 C  
BRANCH  31  32
HETATM   32  N   UNL     1     -11.358  14.733  65.274  1.00  0.00    -0.352 N  
HETATM   33  H   UNL     1     -10.949  14.119  65.979  1.00  0.00     0.000 HD 
HETATM   34  C   UNL     1     -10.820  15.986  65.094  1.00  0.00    -0.395 C  
HETATM   35  O   UNL     1     -11.299  16.826  64.338  1.00  0.00    -1.089 OA 
BRANCH  34  36
HETATM   36  C   UNL     1      -9.594  16.276  65.988  1.00  0.00    -0.337 C  
HETATM   37  O   UNL     1      -8.893  15.055  66.271  1.00  0.00    -0.434 OA 
HETATM   38  H   UNL     1      -8.139  15.234  66.821  1.00  0.00     0.000 HD 
BRANCH  36  39
HETATM   39  C   UNL     1      -9.953  17.007  67.312  1.00  0.00    -0.275 C  
HETATM   40  C   UNL     1     -10.939  16.180  68.163  1.00  0.00    -0.341 C  
HETATM   41  C   UNL     1      -8.662  17.185  68.146  1.00  0.00    -0.232 C  
BRANCH  39  42
HETATM   42  C   UNL     1     -10.555  18.398  67.001  1.00  0.00    -0.366 C  
HETATM   43  O   UNL     1     -10.289  19.334  68.041  1.00  0.00    -0.385 OA 
HETATM   44  H   UNL     1     -10.658  20.188  67.851  1.00  0.00     0.000 HD 
ENDBRANCH  39  42
ENDBRANCH  36  39
ENDBRANCH  34  36
ENDBRANCH  31  32
ENDBRANCH  30  31
ENDBRANCH  28  30
ENDBRANCH  25  26
ENDBRANCH  24  25
ENDBRANCH  23  24
ENDBRANCH  22  23
ENDBRANCH  21  22
ENDBRANCH  20  21
ENDBRANCH  18  20
ENDBRANCH  15  16
ENDBRANCH  14  15
ENDBRANCH  12  14
ENDBRANCH   7  10
ENDBRANCH   2   7
TORSDOF 19
ENDMDL
MODEL       11
REMARK 921   NORMALIZED FREE ENERGY PREDICTED BY IDOCK:   -5.83 KCAL/MOL
REMARK 922        TOTAL FREE ENERGY PREDICTED BY IDOCK:  -14.48 KCAL/MOL
REMARK 923 INTER-LIGAND FREE ENERGY PREDICTED BY IDOCK:  -12.20 KCAL/MOL
REMARK 924 INTRA-LIGAND FREE ENERGY PREDICTED BY IDOCK:   -2.29 KCAL/MOL
REMARK 927      BINDING AFFINITY PREDICTED BY RF-SCORE:    0.00 PKD
ROOT
HETATM    1  C   UNL     1     -10.741   7.878  69.516  1.00  0.00    -0.195 C  
HETATM    2  C   UNL     1     -10.270   7.249  70.840  1.00  0.00    -0.203 C  
HETATM    3  C   UNL     1     -10.023   5.734  70.636  1.00  0.00    -0.251 C  
ENDROOT
BRANCH   2   4
HETATM    4  C   UNL     1      -8.912   7.868  71.236  1.00  0.00    -0.135 C  
HETATM    5  O   UNL     1      -9.022   9.275  71.433  1.00  0.00    -0.311 OA 
HETATM    6  H   UNL     1      -8.186   9.656  71.677  1.00  0.00     0.000 HD 
ENDBRANCH   2   4
BRANCH   2   7
HETATM    7  C   UNL     1     -11.308   7.483  71.982  1.00  0.00    -0.273 C  
HETATM    8  O   UNL     1     -10.699   7.921  73.209  1.00  0.00    -0.341 OA 
HETATM    9  H   UNL     1     -11.331   8.064  73.903  1.00  0.00     0.000 HD 
BRANCH   7  10
HETATM   10  C   UNL     1     -12.437   8.481  71.643  1.00  0.00    -0.330 C  
HETATM   11  O   UNL     1     -13.588   8.163  71.357  1.00  0.00    -0.299 OA 
HETATM   12  N   UNL     1     -12.049   9.797  71.763  1.00  0.00    -0.385 N  
HETATM   13  H   UNL     1     -11.069  10.019  71.937  1.00  0.00     0.000 HD 
BRANCH  12  14
HETATM   14  C   UNL     1     -13.014  10.868  71.646  1.00  0.00    -0.464 C  
BRANCH  14  15
HETATM   15  C   UNL     1     -12.456  12.109  70.957  1.00  0.00    -0.369 C  
BRANCH  15  16
HETATM   16  C   UNL     1     -11.802  11.688  69.660  1.00  0.00    -0.352 C  
HETATM   17  O   UNL     1     -12.365  10.943  68.864  1.00  0.00    -0.486 OA 
HETATM   18  N   UNL     1     -10.556  12.233  69.451  1.00  0.00    -0.425 N  
HETATM   19  H   UNL     1     -10.204  12.880  70.156  1.00  0.00     0.000 HD 
BRANCH  18  20
HETATM   20  C   UNL     1      -9.696  11.960  68.297  1.00  0.00    -0.200 C  
BRANCH  20  21
HETATM   21  C   UNL     1      -8.641  10.861  68.458  1.00  0.00    -0.152 C  
BRANCH  21  22
HETATM   22  S   UNL     1      -8.363   9.825  66.970  1.00  0.00    -0.117 SA 
BRANCH  22  23
HETATM   23  S   UNL     1     -10.028  10.167  65.804  1.00  0.00    -0.259 SA 
BRANCH  23  24
HETATM   24  C   UNL     1      -9.284  10.336  64.148  1.00  0.00    -0.267 C  
BRANCH  24  25
HETATM   25  C   UNL     1     -10.201  11.124  63.210  1.00  0.00    -0.350 C  
BRANCH  25  26
HETATM   26  N   UNL     1     -10.651  12.413  63.730  1.00  0.00    -0.433 N  
HETATM   27  H   UNL     1      -9.956  13.037  64.139  1.00  0.00     0.000 HD 
HETATM   28  C   UNL     1     -11.965  12.831  63.699  1.00  0.00    -0.539 C  
HETATM   29  O   UNL     1     -12.890  12.142  63.284  1.00  0.00    -0.735 OA 
BRANCH  28  30
HETATM   30  C   UNL     1     -12.184  14.245  64.189  1.00  0.00    -0.410 C  
BRANCH  30  31
HETATM   31  C   UNL     1     -11.323  14.505  65.421  1.00  0.00    -0.341 C  
BRANCH  31  32
HETATM   32  N   UNL     1     -10.811  15.862  65.454  1.00  0.00    -0.365 N  
HETATM   33  H   UNL     1     -11.360  16.605  65.021  1.00  0.00     0.000 HD 
HETATM   34  C   UNL     1      -9.613  16.183  66.048  1.00  0.00    -0.346 C  
HETATM   35  O   UNL     1      -8.842  15.349  66.513  1.00  0.00    -0.274 OA 
BRANCH  34  36
HETATM   36  C   UNL     1      -9.283  17.692  66.016  1.00  0.00    -0.020 C  
HETATM   37  O   UNL     1      -7.921  17.887  65.602  1.00  0.00    -0.527 OA 
HETATM   38  H   UNL     1      -7.718  18.815  65.582  1.00  0.00     0.000 HD 
BRANCH  36  39
HETATM   39  C   UNL     1      -9.538  18.410  67.370  1.00  0.00    -0.292 C  
HETATM   40  C   UNL     1     -10.509  17.607  68.260  1.00  0.00    -0.376 C  
HETATM   41  C   UNL     1      -8.198  18.520  68.135  1.00  0.00    -0.315 C  
BRANCH  39  42
HETATM   42  C   UNL     1     -10.098  19.831  67.118  1.00  0.00    -0.424 C  
HETATM   43  O   UNL     1      -9.473  20.456  66.002  1.00  0.00    -0.638 OA 
HETATM   44  H   UNL     1      -9.817  21.328  65.847  1.00  0.00     0.000 HD 
ENDBRANCH  39  42
ENDBRANCH  36  39
ENDBRANCH  34  36
ENDBRANCH  31  32
ENDBRANCH  30  31
ENDBRANCH  28  30
ENDBRANCH  25  26
ENDBRANCH  24  25
ENDBRANCH  23  24
ENDBRANCH  22  23
ENDBRANCH  21  22
ENDBRANCH  20  21
ENDBRANCH  18  20
ENDBRANCH  15  16
ENDBRANCH  14  15
ENDBRANCH  12  14
ENDBRANCH   7  10
ENDBRANCH   2   7
TORSDOF 19
ENDMDL
MODEL       12
REMARK 921   NORMALIZED FREE ENERGY PREDICTED BY IDOCK:   -5.82 KCAL/MOL
REMARK 922        TOTAL FREE ENERGY PREDICTED BY IDOCK:  -14.47 KCAL/MOL
REMARK 923 INTER-LIGAND FREE ENERGY PREDICTED BY IDOCK:  -12.85 KCAL/MOL
REMARK 924 INTRA-LIGAND FREE ENERGY PREDICTED BY IDOCK:   -1.63 KCAL/MOL
REMARK 927      BINDING AFFINITY PREDICTED BY RF-SCORE:    0.00 PKD
ROOT
HETATM    1  C   UNL     1     -10.812   6.353  70.866  1.00  0.00    -0.316 C  
HETATM    2  C   UNL     1     -11.753   6.493  72.076  1.00  0.00    -0.367 C  
HETATM    3  C   UNL     1     -11.882   5.127  72.795  1.00  0.00    -0.116 C  
ENDROOT
BRANCH   2   4
HETATM    4  C   UNL     1     -11.123   7.469  73.092  1.00  0.00    -0.326 C  
HETATM    5  O   UNL     1     -10.167   8.323  72.468  1.00  0.00    -0.286 OA 
HETATM    6  H   UNL     1      -9.779   8.924  73.094  1.00  0.00     0.000 HD 
ENDBRANCH   2   4
BRANCH   2   7
HETATM    7  C   UNL     1     -13.159   7.017  71.646  1.00  0.00    -0.330 C  
HETATM    8  O   UNL     1     -14.234   6.378  72.355  1.00  0.00    -0.647 OA 
HETATM    9  H   UNL     1     -15.089   6.697  72.093  1.00  0.00     0.000 HD 
BRANCH   7  10
HETATM   10  C   UNL     1     -13.357   8.543  71.782  1.00  0.00    -0.367 C  
HETATM   11  O   UNL     1     -14.052   9.084  72.637  1.00  0.00    -0.516 OA 
HETATM   12  N   UNL     1     -12.608   9.267  70.881  1.00  0.00    -0.498 N  
HETATM   13  H   UNL     1     -12.097   8.780  70.144  1.00  0.00     0.000 HD 
BRANCH  12  14
HETATM   14  C   UNL     1     -12.537  10.709  70.965  1.00  0.00    -0.416 C  
BRANCH  14  15
HETATM   15  C   UNL     1     -11.823  11.348  69.778  1.00  0.00    -0.435 C  
BRANCH  15  16
HETATM   16  C   UNL     1     -10.708  10.428  69.334  1.00  0.00    -0.244 C  
HETATM   17  O   UNL     1      -9.789  10.116  70.085  1.00  0.00    -0.207 OA 
HETATM   18  N   UNL     1     -10.836   9.965  68.045  1.00  0.00    -0.347 N  
HETATM   19  H   UNL     1     -11.665  10.250  67.525  1.00  0.00     0.000 HD 
BRANCH  18  20
HETATM   20  C   UNL     1      -9.876   9.096  67.359  1.00  0.00    -0.184 C  
BRANCH  20  21
HETATM   21  C   UNL     1      -9.967   9.023  65.832  1.00  0.00    -0.099 C  
BRANCH  21  22
HETATM   22  S   UNL     1      -8.590   9.831  64.929  1.00  0.00    -0.183 SA 
BRANCH  22  23
HETATM   23  S   UNL     1      -9.383  10.244  63.073  1.00  0.00    -0.302 SA 
BRANCH  23  24
HETATM   24  C   UNL     1      -9.969  11.955  63.300  1.00  0.00    -0.380 C  
BRANCH  24  25
HETATM   25  C   UNL     1     -11.355  11.983  63.949  1.00  0.00    -0.425 C  
BRANCH  25  26
HETATM   26  N   UNL     1     -11.391  12.551  65.294  1.00  0.00    -0.313 N  
HETATM   27  H   UNL     1     -10.690  12.241  65.967  1.00  0.00     0.000 HD 
HETATM   28  C   UNL     1     -12.322  13.483  65.704  1.00  0.00    -0.476 C  
HETATM   29  O   UNL     1     -13.241  13.884  64.999  1.00  0.00    -0.729 OA 
BRANCH  28  30
HETATM   30  C   UNL     1     -12.100  14.016  67.101  1.00  0.00    -0.436 C  
BRANCH  30  31
HETATM   31  C   UNL     1     -10.629  14.372  67.292  1.00  0.00    -0.279 C  
BRANCH  31  32
HETATM   32  N   UNL     1     -10.318  15.697  66.789  1.00  0.00    -0.281 N  
HETATM   33  H   UNL     1      -9.848  15.782  65.888  1.00  0.00     0.000 HD 
HETATM   34  C   UNL     1     -10.633  16.841  67.484  1.00  0.00    -0.309 C  
HETATM   35  O   UNL     1     -11.115  16.838  68.613  1.00  0.00    -0.326 OA 
BRANCH  34  36
HETATM   36  C   UNL     1     -10.259  18.146  66.745  1.00  0.00    -0.372 C  
HETATM   37  O   UNL     1     -10.505  18.000  65.337  1.00  0.00    -0.621 OA 
HETATM   38  H   UNL     1     -10.275  18.802  64.883  1.00  0.00     0.000 HD 
BRANCH  36  39
HETATM   39  C   UNL     1      -8.791  18.594  66.988  1.00  0.00    -0.286 C  
HETATM   40  C   UNL     1      -8.326  18.252  68.418  1.00  0.00    -0.323 C  
HETATM   41  C   UNL     1      -7.869  17.830  66.008  1.00  0.00    -0.193 C  
BRANCH  39  42
HETATM   42  C   UNL     1      -8.654  20.115  66.733  1.00  0.00    -0.305 C  
HETATM   43  O   UNL     1      -9.859  20.812  67.033  1.00  0.00    -0.605 OA 
HETATM   44  H   UNL     1      -9.775  21.745  66.877  1.00  0.00     0.000 HD 
ENDBRANCH  39  42
ENDBRANCH  36  39
ENDBRANCH  34  36
ENDBRANCH  31  32
ENDBRANCH  30  31
ENDBRANCH  28  30
ENDBRANCH  25  26
ENDBRANCH  24  25
ENDBRANCH  23  24
ENDBRANCH  22  23
ENDBRANCH  21  22
ENDBRANCH  20  21
ENDBRANCH  18  20
ENDBRANCH  15  16
ENDBRANCH  14  15
ENDBRANCH  12  14
ENDBRANCH   7  10
ENDBRANCH   2   7
TORSDOF 19
ENDMDL
MODEL       13
REMARK 921   NORMALIZED FREE ENERGY PREDICTED BY IDOCK:   -5.81 KCAL/MOL
REMARK 922        TOTAL FREE ENERGY PREDICTED BY IDOCK:  -14.44 KCAL/MOL
REMARK 923 INTER-LIGAND FREE ENERGY PREDICTED BY IDOCK:  -12.42 KCAL/MOL
REMARK 924 INTRA-LIGAND FREE ENERGY PREDICTED BY IDOCK:   -2.01 KCAL/MOL
REMARK 927      BINDING AFFINITY PREDICTED BY RF-SCORE:    0.00 PKD
ROOT
HETATM    1  C   UNL     1     -10.750   6.875  70.635  1.00  0.00    -0.267 C  
HETATM    2  C   UNL     1     -11.625   6.855  71.903  1.00  0.00    -0.321 C  
HETATM    3  C   UNL     1     -11.492   5.480  72.603  1.00  0.00    -0.331 C  
ENDROOT
BRANCH   2   4
HETATM    4  C   UNL     1     -11.093   7.910  72.897  1.00  0.00    -0.379 C  
HETATM    5  O   UNL     1     -10.225   8.839  72.253  1.00  0.00    -0.313 OA 
HETATM    6  H   UNL     1      -9.898   9.488  72.865  1.00  0.00     0.000 HD 
ENDBRANCH   2   4
BRANCH   2   7
HETATM    7  C   UNL     1     -13.119   7.154  71.567  1.00  0.00    -0.375 C  
HETATM    8  O   UNL     1     -14.033   6.319  72.298  1.00  0.00    -0.427 OA 
HETATM    9  H   UNL     1     -14.942   6.501  72.094  1.00  0.00     0.000 HD 
BRANCH   7  10
HETATM   10  C   UNL     1     -13.557   8.620  71.785  1.00  0.00    -0.403 C  
HETATM   11  O   UNL     1     -14.291   9.003  72.691  1.00  0.00    -0.603 OA 
HETATM   12  N   UNL     1     -12.978   9.494  70.892  1.00  0.00    -0.543 N  
HETATM   13  H   UNL     1     -12.428   9.129  70.113  1.00  0.00     0.000 HD 
BRANCH  12  14
HETATM   14  C   UNL     1     -13.139  10.923  71.043  1.00  0.00    -0.206 C  
BRANCH  14  15
HETATM   15  C   UNL     1     -12.015  11.728  70.399  1.00  0.00    -0.422 C  
BRANCH  15  16
HETATM   16  C   UNL     1     -11.284  10.838  69.418  1.00  0.00    -0.276 C  
HETATM   17  O   UNL     1     -11.802  10.470  68.368  1.00  0.00    -0.380 OA 
HETATM   18  N   UNL     1     -10.003  10.511  69.798  1.00  0.00    -0.429 N  
HETATM   19  H   UNL     1      -9.655  10.912  70.669  1.00  0.00     0.000 HD 
BRANCH  18  20
HETATM   20  C   UNL     1      -9.096   9.635  69.051  1.00  0.00    -0.148 C  
BRANCH  20  21
HETATM   21  C   UNL     1      -7.760  10.233  68.600  1.00  0.00    -0.094 C  
BRANCH  21  22
HETATM   22  S   UNL     1      -7.804  11.111  66.991  1.00  0.00    -0.148 SA 
BRANCH  22  23
HETATM   23  S   UNL     1      -7.138   9.708  65.637  1.00  0.00    -0.102 SA 
BRANCH  23  24
HETATM   24  C   UNL     1      -8.707   9.139  64.901  1.00  0.00    -0.182 C  
BRANCH  24  25
HETATM   25  C   UNL     1      -9.386  10.261  64.114  1.00  0.00    -0.287 C  
BRANCH  25  26
HETATM   26  N   UNL     1     -10.506  10.901  64.800  1.00  0.00    -0.325 N  
HETATM   27  H   UNL     1     -10.964  10.390  65.554  1.00  0.00     0.000 HD 
HETATM   28  C   UNL     1     -10.978  12.158  64.483  1.00  0.00    -0.314 C  
HETATM   29  O   UNL     1     -10.541  12.837  63.560  1.00  0.00    -0.350 OA 
BRANCH  28  30
HETATM   30  C   UNL     1     -12.069  12.666  65.397  1.00  0.00    -0.516 C  
BRANCH  30  31
HETATM   31  C   UNL     1     -12.229  14.173  65.224  1.00  0.00    -0.434 C  
BRANCH  31  32
HETATM   32  N   UNL     1     -11.082  14.906  65.727  1.00  0.00    -0.337 N  
HETATM   33  H   UNL     1     -10.538  14.504  66.490  1.00  0.00     0.000 HD 
HETATM   34  C   UNL     1     -10.702  16.123  65.211  1.00  0.00    -0.368 C  
HETATM   35  O   UNL     1     -11.344  16.727  64.357  1.00  0.00    -1.089 OA 
BRANCH  34  36
HETATM   36  C   UNL     1      -9.424  16.705  65.856  1.00  0.00    -0.183 C  
HETATM   37  O   UNL     1      -8.586  15.641  66.331  1.00  0.00    -0.285 OA 
HETATM   38  H   UNL     1      -7.800  15.999  66.728  1.00  0.00     0.000 HD 
BRANCH  36  39
HETATM   39  C   UNL     1      -9.715  17.711  67.004  1.00  0.00    -0.292 C  
HETATM   40  C   UNL     1     -10.655  18.842  66.539  1.00  0.00    -0.462 C  
HETATM   41  C   UNL     1     -10.430  16.961  68.153  1.00  0.00    -0.350 C  
BRANCH  39  42
HETATM   42  C   UNL     1      -8.388  18.306  67.534  1.00  0.00    -0.245 C  
HETATM   43  O   UNL     1      -7.683  17.380  68.355  1.00  0.00    -0.236 OA 
HETATM   44  H   UNL     1      -6.869  17.746  68.680  1.00  0.00     0.000 HD 
ENDBRANCH  39  42
ENDBRANCH  36  39
ENDBRANCH  34  36
ENDBRANCH  31  32
ENDBRANCH  30  31
ENDBRANCH  28  30
ENDBRANCH  25  26
ENDBRANCH  24  25
ENDBRANCH  23  24
ENDBRANCH  22  23
ENDBRANCH  21  22
ENDBRANCH  20  21
ENDBRANCH  18  20
ENDBRANCH  15  16
ENDBRANCH  14  15
ENDBRANCH  12  14
ENDBRANCH   7  10
ENDBRANCH   2   7
TORSDOF 19
ENDMDL
MODEL       14
REMARK 921   NORMALIZED FREE ENERGY PREDICTED BY IDOCK:   -5.79 KCAL/MOL
REMARK 922        TOTAL FREE ENERGY PREDICTED BY IDOCK:  -14.41 KCAL/MOL
REMARK 923 INTER-LIGAND FREE ENERGY PREDICTED BY IDOCK:  -12.79 KCAL/MOL
REMARK 924 INTRA-LIGAND FREE ENERGY PREDICTED BY IDOCK:   -1.62 KCAL/MOL
REMARK 927      BINDING AFFINITY PREDICTED BY RF-SCORE:    0.00 PKD
ROOT
HETATM    1  C   UNL     1     -10.160  19.904  68.569  1.00  0.00    -0.538 C  
HETATM    2  C   UNL     1      -9.612  19.055  67.406  1.00  0.00    -0.358 C  
HETATM    3  C   UNL     1     -10.395  19.383  66.111  1.00  0.00    -0.595 C  
ENDROOT
BRANCH   2   4
HETATM    4  C   UNL     1      -8.143  19.450  67.145  1.00  0.00    -0.266 C  
HETATM    5  O   UNL     1      -7.765  19.180  65.798  1.00  0.00    -0.443 OA 
HETATM    6  H   UNL     1      -6.860  19.423  65.637  1.00  0.00     0.000 HD 
ENDBRANCH   2   4
BRANCH   2   7
HETATM    7  C   UNL     1      -9.699  17.530  67.725  1.00  0.00    -0.274 C  
HETATM    8  O   UNL     1     -10.845  17.191  68.525  1.00  0.00    -0.349 OA 
HETATM    9  H   UNL     1     -10.898  16.263  68.718  1.00  0.00     0.000 HD 
BRANCH   7  10
HETATM   10  C   UNL     1      -9.707  16.604  66.488  1.00  0.00    -0.274 C  
HETATM   11  O   UNL     1      -8.747  16.422  65.746  1.00  0.00    -0.432 OA 
HETATM   12  N   UNL     1     -10.895  15.926  66.329  1.00  0.00    -0.254 N  
HETATM   13  H   UNL     1     -11.690  16.155  66.927  1.00  0.00     0.000 HD 
BRANCH  12  14
HETATM   14  C   UNL     1     -11.030  14.894  65.326  1.00  0.00    -0.380 C  
BRANCH  14  15
HETATM   15  C   UNL     1     -12.415  14.255  65.302  1.00  0.00    -0.428 C  
BRANCH  15  16
HETATM   16  C   UNL     1     -12.281  12.829  64.815  1.00  0.00    -0.459 C  
HETATM   17  O   UNL     1     -13.257  12.098  64.677  1.00  0.00    -0.659 OA 
HETATM   18  N   UNL     1     -10.991  12.451  64.522  1.00  0.00    -0.299 N  
HETATM   19  H   UNL     1     -10.261  13.154  64.626  1.00  0.00     0.000 HD 
BRANCH  18  20
HETATM   20  C   UNL     1     -10.582  11.118  64.071  1.00  0.00    -0.368 C  
BRANCH  20  21
HETATM   21  C   UNL     1     -10.174  10.110  65.149  1.00  0.00    -0.162 C  
BRANCH  21  22
HETATM   22  S   UNL     1      -8.701  10.579  66.137  1.00  0.00    -0.163 SA 
BRANCH  22  23
HETATM   23  S   UNL     1      -9.485  11.572  67.763  1.00  0.00    -0.173 SA 
BRANCH  23  24
HETATM   24  C   UNL     1     -10.808  10.431  68.284  1.00  0.00    -0.254 C  
BRANCH  24  25
HETATM   25  C   UNL     1     -11.759  11.104  69.276  1.00  0.00    -0.331 C  
BRANCH  25  26
HETATM   26  N   UNL     1     -12.499  10.184  70.137  1.00  0.00    -0.523 N  
HETATM   27  H   UNL     1     -12.561   9.205  69.855  1.00  0.00     0.000 HD 
HETATM   28  C   UNL     1     -13.118  10.566  71.309  1.00  0.00    -0.383 C  
HETATM   29  O   UNL     1     -13.155  11.723  71.714  1.00  0.00    -0.463 OA 
BRANCH  28  30
HETATM   30  C   UNL     1     -13.727   9.428  72.095  1.00  0.00    -0.490 C  
BRANCH  30  31
HETATM   31  C   UNL     1     -13.103   8.105  71.659  1.00  0.00    -0.335 C  
BRANCH  31  32
HETATM   32  N   UNL     1     -12.225   7.554  72.674  1.00  0.00    -0.550 N  
HETATM   33  H   UNL     1     -12.616   6.922  73.372  1.00  0.00     0.000 HD 
HETATM   34  C   UNL     1     -10.883   7.853  72.728  1.00  0.00    -0.386 C  
HETATM   35  O   UNL     1     -10.341   8.671  71.991  1.00  0.00    -0.301 OA 
BRANCH  34  36
HETATM   36  C   UNL     1     -10.123   7.119  73.855  1.00  0.00    -0.317 C  
HETATM   37  O   UNL     1      -8.979   7.888  74.257  1.00  0.00    -0.426 OA 
HETATM   38  H   UNL     1      -8.511   7.436  74.949  1.00  0.00     0.000 HD 
BRANCH  36  39
HETATM   39  C   UNL     1      -9.690   5.677  73.470  1.00  0.00    -0.156 C  
HETATM   40  C   UNL     1      -9.514   5.528  71.945  1.00  0.00    -0.171 C  
HETATM   41  C   UNL     1      -8.319   5.379  74.122  1.00  0.00    -0.108 C  
BRANCH  39  42
HETATM   42  C   UNL     1     -10.732   4.656  73.988  1.00  0.00    -0.289 C  
HETATM   43  O   UNL     1     -12.011   4.860  73.397  1.00  0.00    -0.428 OA 
HETATM   44  H   UNL     1     -12.651   4.234  73.714  1.00  0.00     0.000 HD 
ENDBRANCH  39  42
ENDBRANCH  36  39
ENDBRANCH  34  36
ENDBRANCH  31  32
ENDBRANCH  30  31
ENDBRANCH  28  30
ENDBRANCH  25  26
ENDBRANCH  24  25
ENDBRANCH  23  24
ENDBRANCH  22  23
ENDBRANCH  21  22
ENDBRANCH  20  21
ENDBRANCH  18  20
ENDBRANCH  15  16
ENDBRANCH  14  15
ENDBRANCH  12  14
ENDBRANCH   7  10
ENDBRANCH   2   7
TORSDOF 19
ENDMDL
MODEL       15
REMARK 921   NORMALIZED FREE ENERGY PREDICTED BY IDOCK:   -5.77 KCAL/MOL
REMARK 922        TOTAL FREE ENERGY PREDICTED BY IDOCK:  -14.37 KCAL/MOL
REMARK 923 INTER-LIGAND FREE ENERGY PREDICTED BY IDOCK:  -11.96 KCAL/MOL
REMARK 924 INTRA-LIGAND FREE ENERGY PREDICTED BY IDOCK:   -2.41 KCAL/MOL
REMARK 927      BINDING AFFINITY PREDICTED BY RF-SCORE:    0.00 PKD
ROOT
HETATM    1  C   UNL     1     -11.875  11.939  65.780  1.00  0.00    -0.109 C  
HETATM    2  C   UNL     1     -11.409  12.208  64.337  1.00  0.00    -0.407 C  
HETATM    3  C   UNL     1     -12.610  12.068  63.369  1.00  0.00    -0.592 C  
ENDROOT
BRANCH   2   4
HETATM    4  C   UNL     1     -10.923  13.669  64.230  1.00  0.00    -0.300 C  
HETATM    5  O   UNL     1      -9.832  13.920  65.112  1.00  0.00    -0.566 OA 
HETATM    6  H   UNL     1      -9.533  14.819  65.045  1.00  0.00     0.000 HD 
ENDBRANCH   2   4
BRANCH   2   7
HETATM    7  C   UNL     1     -10.258  11.239  63.922  1.00  0.00    -0.365 C  
HETATM    8  O   UNL     1      -9.250  11.880  63.121  1.00  0.00    -0.641 OA 
HETATM    9  H   UNL     1      -8.550  11.291  62.869  1.00  0.00     0.000 HD 
BRANCH   7  10
HETATM   10  C   UNL     1      -9.540  10.537  65.096  1.00  0.00    -0.260 C  
HETATM   11  O   UNL     1      -8.727  11.077  65.841  1.00  0.00    -0.178 OA 
HETATM   12  N   UNL     1      -9.956   9.238  65.284  1.00  0.00    -0.345 N  
HETATM   13  H   UNL     1     -10.582   8.806  64.603  1.00  0.00     0.000 HD 
BRANCH  12  14
HETATM   14  C   UNL     1      -9.517   8.478  66.433  1.00  0.00    -0.232 C  
BRANCH  14  15
HETATM   15  C   UNL     1     -10.650   7.735  67.132  1.00  0.00    -0.401 C  
BRANCH  15  16
HETATM   16  C   UNL     1     -10.094   7.049  68.360  1.00  0.00    -0.164 C  
HETATM   17  O   UNL     1      -8.975   7.307  68.793  1.00  0.00    -0.130 OA 
HETATM   18  N   UNL     1     -10.955   6.149  68.945  1.00  0.00    -0.342 N  
HETATM   19  H   UNL     1     -11.880   6.048  68.529  1.00  0.00     0.000 HD 
BRANCH  18  20
HETATM   20  C   UNL     1     -10.650   5.325  70.117  1.00  0.00    -0.227 C  
BRANCH  20  21
HETATM   21  C   UNL     1     -11.086   5.864  71.483  1.00  0.00    -0.250 C  
BRANCH  21  22
HETATM   22  S   UNL     1     -12.335   7.206  71.427  1.00  0.00    -0.392 SA 
BRANCH  22  23
HETATM   23  S   UNL     1     -11.237   8.923  71.732  1.00  0.00    -0.379 SA 
BRANCH  23  24
HETATM   24  C   UNL     1     -12.260  10.166  70.875  1.00  0.00    -0.356 C  
BRANCH  24  25
HETATM   25  C   UNL     1     -11.420  10.995  69.901  1.00  0.00    -0.320 C  
BRANCH  25  26
HETATM   26  N   UNL     1     -11.904  12.356  69.678  1.00  0.00    -0.319 N  
HETATM   27  H   UNL     1     -12.840  12.594  70.007  1.00  0.00     0.000 HD 
HETATM   28  C   UNL     1     -11.164  13.335  69.050  1.00  0.00    -0.270 C  
HETATM   29  O   UNL     1     -10.052  13.146  68.567  1.00  0.00    -0.238 OA 
BRANCH  28  30
HETATM   30  C   UNL     1     -11.817  14.698  69.031  1.00  0.00    -0.346 C  
BRANCH  30  31
HETATM   31  C   UNL     1     -11.563  15.376  67.688  1.00  0.00    -0.194 C  
BRANCH  31  32
HETATM   32  N   UNL     1     -10.544  16.405  67.779  1.00  0.00    -0.314 N  
HETATM   33  H   UNL     1     -10.217  16.693  68.701  1.00  0.00     0.000 HD 
HETATM   34  C   UNL     1     -10.004  17.007  66.666  1.00  0.00    -0.302 C  
HETATM   35  O   UNL     1     -10.397  16.794  65.523  1.00  0.00    -0.558 OA 
BRANCH  34  36
HETATM   36  C   UNL     1      -8.899  18.038  66.986  1.00  0.00    -0.254 C  
HETATM   37  O   UNL     1      -8.206  17.659  68.186  1.00  0.00    -0.240 OA 
HETATM   38  H   UNL     1      -7.527  18.294  68.382  1.00  0.00     0.000 HD 
BRANCH  36  39
HETATM   39  C   UNL     1      -9.430  19.494  67.112  1.00  0.00    -0.422 C  
HETATM   40  C   UNL     1      -8.334  20.451  67.623  1.00  0.00    -0.286 C  
HETATM   41  C   UNL     1      -9.858  19.990  65.710  1.00  0.00    -0.331 C  
BRANCH  39  42
HETATM   42  C   UNL     1     -10.652  19.530  68.060  1.00  0.00    -0.333 C  
HETATM   43  O   UNL     1     -10.270  19.375  69.423  1.00  0.00    -0.591 OA 
HETATM   44  H   UNL     1     -11.021  19.397  70.005  1.00  0.00     0.000 HD 
ENDBRANCH  39  42
ENDBRANCH  36  39
ENDBRANCH  34  36
ENDBRANCH  31  32
ENDBRANCH  30  31
ENDBRANCH  28  30
ENDBRANCH  25  26
ENDBRANCH  24  25
ENDBRANCH  23  24
ENDBRANCH  22  23
ENDBRANCH  21  22
ENDBRANCH  20  21
ENDBRANCH  18  20
ENDBRANCH  15  16
ENDBRANCH  14  15
ENDBRANCH  12  14
ENDBRANCH   7  10
ENDBRANCH   2   7
TORSDOF 19
ENDMDL
MODEL       16
REMARK 921   NORMALIZED FREE ENERGY PREDICTED BY IDOCK:   -5.69 KCAL/MOL
REMARK 922        TOTAL FREE ENERGY PREDICTED BY IDOCK:  -14.20 KCAL/MOL
REMARK 923 INTER-LIGAND FREE ENERGY PREDICTED BY IDOCK:  -13.56 KCAL/MOL
REMARK 924 INTRA-LIGAND FREE ENERGY PREDICTED BY IDOCK:   -0.64 KCAL/MOL
REMARK 927      BINDING AFFINITY PREDICTED BY RF-SCORE:    0.00 PKD
ROOT
HETATM    1  C   UNL     1     -11.680  15.150  72.160  1.00  0.00    -0.502 C  
HETATM    2  C   UNL     1     -12.732  14.294  71.431  1.00  0.00    -0.424 C  
HETATM    3  C   UNL     1     -14.020  15.127  71.215  1.00  0.00    -0.548 C  
ENDROOT
BRANCH   2   4
HETATM    4  C   UNL     1     -12.201  13.931  70.028  1.00  0.00    -0.344 C  
HETATM    5  O   UNL     1     -12.587  14.902  69.059  1.00  0.00    -0.566 OA 
HETATM    6  H   UNL     1     -12.261  14.678  68.195  1.00  0.00     0.000 HD 
ENDBRANCH   2   4
BRANCH   2   7
HETATM    7  C   UNL     1     -13.054  12.989  72.225  1.00  0.00    -0.340 C  
HETATM    8  O   UNL     1     -14.404  12.955  72.718  1.00  0.00    -0.621 OA 
HETATM    9  H   UNL     1     -14.600  12.162  73.202  1.00  0.00     0.000 HD 
BRANCH   7  10
HETATM   10  C   UNL     1     -12.811  11.676  71.450  1.00  0.00    -0.356 C  
HETATM   11  O   UNL     1     -12.044  11.558  70.498  1.00  0.00    -0.356 OA 
HETATM   12  N   UNL     1     -13.492  10.602  71.979  1.00  0.00    -0.459 N  
HETATM   13  H   UNL     1     -14.170  10.755  72.727  1.00  0.00     0.000 HD 
BRANCH  12  14
HETATM   14  C   UNL     1     -13.260   9.262  71.489  1.00  0.00    -0.367 C  
BRANCH  14  15
HETATM   15  C   UNL     1     -12.207   8.502  72.288  1.00  0.00    -0.454 C  
BRANCH  15  16
HETATM   16  C   UNL     1     -11.856   7.234  71.542  1.00  0.00    -0.304 C  
HETATM   17  O   UNL     1     -11.946   6.129  72.067  1.00  0.00    -0.324 OA 
HETATM   18  N   UNL     1     -11.462   7.434  70.239  1.00  0.00    -0.444 N  
HETATM   19  H   UNL     1     -11.470   8.392  69.889  1.00  0.00     0.000 HD 
BRANCH  18  20
HETATM   20  C   UNL     1     -11.033   6.382  69.313  1.00  0.00    -0.356 C  
BRANCH  20  21
HETATM   21  C   UNL     1      -9.528   6.238  69.070  1.00  0.00    -0.128 C  
BRANCH  21  22
HETATM   22  S   UNL     1      -8.687   7.754  68.473  1.00  0.00    -0.127 SA 
BRANCH  22  23
HETATM   23  S   UNL     1      -9.168   7.839  66.471  1.00  0.00    -0.187 SA 
BRANCH  23  24
HETATM   24  C   UNL     1     -10.473   9.113  66.465  1.00  0.00    -0.127 C  
BRANCH  24  25
HETATM   25  C   UNL     1      -9.881  10.508  66.250  1.00  0.00    -0.217 C  
BRANCH  25  26
HETATM   26  N   UNL     1     -10.675  11.386  65.393  1.00  0.00    -0.272 N  
HETATM   27  H   UNL     1     -10.468  11.399  64.394  1.00  0.00     0.000 HD 
HETATM   28  C   UNL     1     -11.688  12.196  65.860  1.00  0.00    -0.328 C  
HETATM   29  O   UNL     1     -11.985  12.301  67.046  1.00  0.00    -0.576 OA 
BRANCH  28  30
HETATM   30  C   UNL     1     -12.450  12.932  64.781  1.00  0.00    -0.517 C  
BRANCH  30  31
HETATM   31  C   UNL     1     -12.370  14.436  65.026  1.00  0.00    -0.396 C  
BRANCH  31  32
HETATM   32  N   UNL     1     -11.112  14.826  65.633  1.00  0.00    -0.332 N  
HETATM   33  H   UNL     1     -10.656  14.179  66.278  1.00  0.00     0.000 HD 
HETATM   34  C   UNL     1     -10.511  16.034  65.371  1.00  0.00    -0.392 C  
HETATM   35  O   UNL     1     -11.025  16.912  64.684  1.00  0.00    -0.894 OA 
BRANCH  34  36
HETATM   36  C   UNL     1      -9.152  16.226  66.082  1.00  0.00    -0.341 C  
HETATM   37  O   UNL     1      -8.660  14.960  66.550  1.00  0.00    -0.414 OA 
HETATM   38  H   UNL     1      -7.825  15.078  66.987  1.00  0.00     0.000 HD 
BRANCH  36  39
HETATM   39  C   UNL     1      -9.206  17.245  67.254  1.00  0.00    -0.233 C  
HETATM   40  C   UNL     1      -8.018  17.057  68.220  1.00  0.00    -0.222 C  
HETATM   41  C   UNL     1      -9.106  18.676  66.674  1.00  0.00    -0.306 C  
BRANCH  39  42
HETATM   42  C   UNL     1     -10.543  17.099  68.020  1.00  0.00    -0.374 C  
HETATM   43  O   UNL     1     -10.600  17.959  69.154  1.00  0.00    -0.408 OA 
HETATM   44  H   UNL     1     -11.420  17.869  69.624  1.00  0.00     0.000 HD 
ENDBRANCH  39  42
ENDBRANCH  36  39
ENDBRANCH  34  36
ENDBRANCH  31  32
ENDBRANCH  30  31
ENDBRANCH  28  30
ENDBRANCH  25  26
ENDBRANCH  24  25
ENDBRANCH  23  24
ENDBRANCH  22  23
ENDBRANCH  21  22
ENDBRANCH  20  21
ENDBRANCH  18  20
ENDBRANCH  15  16
ENDBRANCH  14  15
ENDBRANCH  12  14
ENDBRANCH   7  10
ENDBRANCH   2   7
TORSDOF 19
ENDMDL
MODEL       17
REMARK 921   NORMALIZED FREE ENERGY PREDICTED BY IDOCK:   -5.69 KCAL/MOL
REMARK 922        TOTAL FREE ENERGY PREDICTED BY IDOCK:  -14.20 KCAL/MOL
REMARK 923 INTER-LIGAND FREE ENERGY PREDICTED BY IDOCK:  -12.19 KCAL/MOL
REMARK 924 INTRA-LIGAND FREE ENERGY PREDICTED BY IDOCK:   -2.01 KCAL/MOL
REMARK 927      BINDING AFFINITY PREDICTED BY RF-SCORE:    0.00 PKD
ROOT
HETATM    1  C   UNL     1     -11.352  14.927  67.694  1.00  0.00    -0.348 C  
HETATM    2  C   UNL     1     -10.718  15.760  66.564  1.00  0.00    -0.283 C  
HETATM    3  C   UNL     1     -10.443  17.198  67.072  1.00  0.00    -0.282 C  
ENDROOT
BRANCH   2   4
HETATM    4  C   UNL     1      -9.348  15.151  66.198  1.00  0.00    -0.311 C  
HETATM    5  O   UNL     1      -9.416  13.729  66.122  1.00  0.00    -0.424 OA 
HETATM    6  H   UNL     1      -8.573  13.355  65.897  1.00  0.00     0.000 HD 
ENDBRANCH   2   4
BRANCH   2   7
HETATM    7  C   UNL     1     -11.634  15.795  65.300  1.00  0.00     0.150 C  
HETATM    8  O   UNL     1     -10.983  16.371  64.155  1.00  0.00    -1.157 OA 
HETATM    9  H   UNL     1     -11.540  16.391  63.386  1.00  0.00     0.000 HD 
BRANCH   7  10
HETATM   10  C   UNL     1     -12.204  14.425  64.870  1.00  0.00    -0.433 C  
HETATM   11  O   UNL     1     -13.264  13.953  65.268  1.00  0.00    -0.774 OA 
HETATM   12  N   UNL     1     -11.432  13.795  63.919  1.00  0.00    -0.613 N  
HETATM   13  H   UNL     1     -10.526  14.187  63.664  1.00  0.00     0.000 HD 
BRANCH  12  14
HETATM   14  C   UNL     1     -11.891  12.583  63.277  1.00  0.00    -0.413 C  
BRANCH  14  15
HETATM   15  C   UNL     1     -11.398  11.314  63.964  1.00  0.00    -0.136 C  
BRANCH  15  16
HETATM   16  C   UNL     1     -10.017  10.986  63.441  1.00  0.00    -0.380 C  
HETATM   17  O   UNL     1      -9.360  11.797  62.796  1.00  0.00    -0.351 OA 
HETATM   18  N   UNL     1      -9.570   9.728  63.775  1.00  0.00    -0.471 N  
HETATM   19  H   UNL     1     -10.179   9.153  64.356  1.00  0.00     0.000 HD 
BRANCH  18  20
HETATM   20  C   UNL     1      -8.288   9.149  63.363  1.00  0.00    -0.192 C  
BRANCH  20  21
HETATM   21  C   UNL     1      -7.309   8.758  64.474  1.00  0.00    -0.102 C  
BRANCH  21  22
HETATM   22  S   UNL     1      -7.992   8.831  66.175  1.00  0.00    -0.105 SA 
BRANCH  22  23
HETATM   23  S   UNL     1      -8.964   7.028  66.402  1.00  0.00    -0.150 SA 
BRANCH  23  24
HETATM   24  C   UNL     1     -10.536   7.555  67.159  1.00  0.00    -0.345 C  
BRANCH  24  25
HETATM   25  C   UNL     1     -10.577   9.073  67.348  1.00  0.00    -0.239 C  
BRANCH  25  26
HETATM   26  N   UNL     1     -10.957   9.515  68.688  1.00  0.00    -0.435 N  
HETATM   27  H   UNL     1     -10.614   8.981  69.486  1.00  0.00     0.000 HD 
HETATM   28  C   UNL     1     -11.755  10.613  68.931  1.00  0.00    -0.211 C  
HETATM   29  O   UNL     1     -12.267  11.293  68.049  1.00  0.00    -0.621 OA 
BRANCH  28  30
HETATM   30  C   UNL     1     -11.925  10.951  70.395  1.00  0.00    -0.453 C  
BRANCH  30  31
HETATM   31  C   UNL     1     -12.739   9.862  71.086  1.00  0.00    -0.366 C  
BRANCH  31  32
HETATM   32  N   UNL     1     -11.912   9.000  71.910  1.00  0.00    -0.360 N  
HETATM   33  H   UNL     1     -11.465   9.394  72.739  1.00  0.00     0.000 HD 
HETATM   34  C   UNL     1     -11.708   7.673  71.614  1.00  0.00    -0.281 C  
HETATM   35  O   UNL     1     -12.126   7.134  70.594  1.00  0.00    -0.308 OA 
BRANCH  34  36
HETATM   36  C   UNL     1     -10.836   6.927  72.650  1.00  0.00    -0.257 C  
HETATM   37  O   UNL     1     -10.976   7.540  73.941  1.00  0.00    -0.528 OA 
HETATM   38  H   UNL     1     -10.440   7.081  74.577  1.00  0.00     0.000 HD 
BRANCH  36  39
HETATM   39  C   UNL     1      -9.335   6.850  72.253  1.00  0.00    -0.148 C  
HETATM   40  C   UNL     1      -8.506   6.113  73.326  1.00  0.00    -0.116 C  
HETATM   41  C   UNL     1      -9.209   6.044  70.939  1.00  0.00    -0.165 C  
BRANCH  39  42
HETATM   42  C   UNL     1      -8.774   8.275  72.032  1.00  0.00    -0.182 C  
HETATM   43  O   UNL     1      -8.229   8.821  73.229  1.00  0.00    -0.402 OA 
HETATM   44  H   UNL     1      -7.885   9.696  73.094  1.00  0.00     0.000 HD 
ENDBRANCH  39  42
ENDBRANCH  36  39
ENDBRANCH  34  36
ENDBRANCH  31  32
ENDBRANCH  30  31
ENDBRANCH  28  30
ENDBRANCH  25  26
ENDBRANCH  24  25
ENDBRANCH  23  24
ENDBRANCH  22  23
ENDBRANCH  21  22
ENDBRANCH  20  21
ENDBRANCH  18  20
ENDBRANCH  15  16
ENDBRANCH  14  15
ENDBRANCH  12  14
ENDBRANCH   7  10
ENDBRANCH   2   7
TORSDOF 19
ENDMDL
MODEL       18
REMARK 921   NORMALIZED FREE ENERGY PREDICTED BY IDOCK:   -5.69 KCAL/MOL
REMARK 922        TOTAL FREE ENERGY PREDICTED BY IDOCK:  -14.19 KCAL/MOL
REMARK 923 INTER-LIGAND FREE ENERGY PREDICTED BY IDOCK:  -12.02 KCAL/MOL
REMARK 924 INTRA-LIGAND FREE ENERGY PREDICTED BY IDOCK:   -2.17 KCAL/MOL
REMARK 927      BINDING AFFINITY PREDICTED BY RF-SCORE:    0.00 PKD
ROOT
HETATM    1  C   UNL     1     -11.971  12.344  66.093  1.00  0.00    -0.397 C  
HETATM    2  C   UNL     1     -11.752  12.428  64.572  1.00  0.00    -0.427 C  
HETATM    3  C   UNL     1     -12.988  11.853  63.836  1.00  0.00    -0.244 C  
ENDROOT
BRANCH   2   4
HETATM    4  C   UNL     1     -11.644  13.912  64.160  1.00  0.00    -0.298 C  
HETATM    5  O   UNL     1     -12.435  14.189  63.007  1.00  0.00    -1.077 OA 
HETATM    6  H   UNL     1     -12.368  15.102  62.754  1.00  0.00     0.000 HD 
ENDBRANCH   2   4
BRANCH   2   7
HETATM    7  C   UNL     1     -10.459  11.667  64.141  1.00  0.00    -0.351 C  
HETATM    8  O   UNL     1      -9.477  12.529  63.540  1.00  0.00    -0.639 OA 
HETATM    9  H   UNL     1      -8.691  12.066  63.279  1.00  0.00     0.000 HD 
BRANCH   7  10
HETATM   10  C   UNL     1      -9.756  10.882  65.271  1.00  0.00    -0.246 C  
HETATM   11  O   UNL     1      -9.071  11.391  66.154  1.00  0.00    -0.199 OA 
HETATM   12  N   UNL     1     -10.032   9.533  65.244  1.00  0.00    -0.404 N  
HETATM   13  H   UNL     1     -10.549   9.140  64.458  1.00  0.00     0.000 HD 
BRANCH  12  14
HETATM   14  C   UNL     1      -9.597   8.666  66.317  1.00  0.00    -0.252 C  
BRANCH  14  15
HETATM   15  C   UNL     1     -10.651   8.477  67.403  1.00  0.00    -0.304 C  
BRANCH  15  16
HETATM   16  C   UNL     1      -9.959   8.058  68.680  1.00  0.00    -0.189 C  
HETATM   17  O   UNL     1      -9.233   8.826  69.304  1.00  0.00    -0.147 OA 
HETATM   18  N   UNL     1     -10.238   6.771  69.080  1.00  0.00    -0.170 N  
HETATM   19  H   UNL     1     -10.894   6.237  68.512  1.00  0.00     0.000 HD 
BRANCH  18  20
HETATM   20  C   UNL     1      -9.670   6.108  70.256  1.00  0.00    -0.164 C  
BRANCH  20  21
HETATM   21  C   UNL     1     -10.612   5.845  71.434  1.00  0.00    -0.252 C  
BRANCH  21  22
HETATM   22  S   UNL     1     -11.450   7.331  72.108  1.00  0.00    -0.283 SA 
BRANCH  22  23
HETATM   23  S   UNL     1     -13.405   7.127  71.488  1.00  0.00    -0.260 SA 
BRANCH  23  24
HETATM   24  C   UNL     1     -14.097   8.756  71.925  1.00  0.00    -0.420 C  
BRANCH  24  25
HETATM   25  C   UNL     1     -12.988   9.788  72.140  1.00  0.00    -0.394 C  
BRANCH  25  26
HETATM   26  N   UNL     1     -13.432  11.180  72.126  1.00  0.00    -0.526 N  
HETATM   27  H   UNL     1     -14.169  11.456  72.775  1.00  0.00     0.000 HD 
HETATM   28  C   UNL     1     -12.911  12.139  71.284  1.00  0.00    -0.250 C  
HETATM   29  O   UNL     1     -12.064  11.907  70.427  1.00  0.00    -0.348 OA 
BRANCH  28  30
HETATM   30  C   UNL     1     -13.440  13.535  71.521  1.00  0.00    -0.315 C  
BRANCH  30  31
HETATM   31  C   UNL     1     -12.282  14.528  71.561  1.00  0.00    -0.347 C  
BRANCH  31  32
HETATM   32  N   UNL     1     -11.324  14.292  70.497  1.00  0.00    -0.500 N  
HETATM   33  H   UNL     1     -10.595  13.592  70.638  1.00  0.00     0.000 HD 
HETATM   34  C   UNL     1     -11.362  14.979  69.306  1.00  0.00    -0.296 C  
HETATM   35  O   UNL     1     -12.141  15.900  69.080  1.00  0.00    -0.328 OA 
BRANCH  34  36
HETATM   36  C   UNL     1     -10.282  14.537  68.293  1.00  0.00    -0.234 C  
HETATM   37  O   UNL     1      -9.798  13.228  68.632  1.00  0.00    -0.349 OA 
HETATM   38  H   UNL     1      -9.133  12.957  68.009  1.00  0.00     0.000 HD 
BRANCH  36  39
HETATM   39  C   UNL     1      -9.094  15.534  68.182  1.00  0.00    -0.184 C  
HETATM   40  C   UNL     1      -9.569  16.995  68.327  1.00  0.00    -0.273 C  
HETATM   41  C   UNL     1      -8.101  15.255  69.334  1.00  0.00    -0.230 C  
BRANCH  39  42
HETATM   42  C   UNL     1      -8.370  15.343  66.827  1.00  0.00    -0.250 C  
HETATM   43  O   UNL     1      -8.953  14.297  66.058  1.00  0.00    -0.476 OA 
HETATM   44  H   UNL     1      -8.509  14.179  65.227  1.00  0.00     0.000 HD 
ENDBRANCH  39  42
ENDBRANCH  36  39
ENDBRANCH  34  36
ENDBRANCH  31  32
ENDBRANCH  30  31
ENDBRANCH  28  30
ENDBRANCH  25  26
ENDBRANCH  24  25
ENDBRANCH  23  24
ENDBRANCH  22  23
ENDBRANCH  21  22
ENDBRANCH  20  21
ENDBRANCH  18  20
ENDBRANCH  15  16
ENDBRANCH  14  15
ENDBRANCH  12  14
ENDBRANCH   7  10
ENDBRANCH   2   7
TORSDOF 19
ENDMDL
MODEL       19
REMARK 921   NORMALIZED FREE ENERGY PREDICTED BY IDOCK:   -5.66 KCAL/MOL
REMARK 922        TOTAL FREE ENERGY PREDICTED BY IDOCK:  -14.12 KCAL/MOL
REMARK 923 INTER-LIGAND FREE ENERGY PREDICTED BY IDOCK:  -11.74 KCAL/MOL
REMARK 924 INTRA-LIGAND FREE ENERGY PREDICTED BY IDOCK:   -2.38 KCAL/MOL
REMARK 927      BINDING AFFINITY PREDICTED BY RF-SCORE:    0.00 PKD
ROOT
HETATM    1  C   UNL     1     -12.538  11.443  63.233  1.00  0.00     0.284 C  
HETATM    2  C   UNL     1     -11.389  12.101  64.019  1.00  0.00    -0.468 C  
HETATM    3  C   UNL     1     -11.206  11.376  65.375  1.00  0.00    -0.140 C  
ENDROOT
BRANCH   2   4
HETATM    4  C   UNL     1     -10.072  11.913  63.236  1.00  0.00    -0.396 C  
HETATM    5  O   UNL     1     -10.142  10.786  62.366  1.00  0.00    -0.691 OA 
HETATM    6  H   UNL     1      -9.331  10.670  61.885  1.00  0.00     0.000 HD 
ENDBRANCH   2   4
BRANCH   2   7
HETATM    7  C   UNL     1     -11.653  13.623  64.245  1.00  0.00    -0.382 C  
HETATM    8  O   UNL     1     -12.354  14.237  63.150  1.00  0.00    -1.096 OA 
HETATM    9  H   UNL     1     -12.515  15.162  63.288  1.00  0.00     0.000 HD 
BRANCH   7  10
HETATM   10  C   UNL     1     -12.425  13.966  65.539  1.00  0.00    -0.511 C  
HETATM   11  O   UNL     1     -13.648  13.999  65.635  1.00  0.00    -0.499 OA 
HETATM   12  N   UNL     1     -11.599  14.166  66.623  1.00  0.00    -0.366 N  
HETATM   13  H   UNL     1     -10.588  14.196  66.488  1.00  0.00     0.000 HD 
BRANCH  12  14
HETATM   14  C   UNL     1     -12.147  14.334  67.951  1.00  0.00    -0.261 C  
BRANCH  14  15
HETATM   15  C   UNL     1     -11.333  13.629  69.031  1.00  0.00    -0.333 C  
BRANCH  15  16
HETATM   16  C   UNL     1     -11.884  12.233  69.218  1.00  0.00    -0.306 C  
HETATM   17  O   UNL     1     -12.504  11.658  68.329  1.00  0.00    -0.251 OA 
HETATM   18  N   UNL     1     -11.604  11.674  70.444  1.00  0.00    -0.503 N  
HETATM   19  H   UNL     1     -11.038  12.222  71.091  1.00  0.00     0.000 HD 
BRANCH  18  20
HETATM   20  C   UNL     1     -12.052  10.353  70.894  1.00  0.00    -0.374 C  
BRANCH  20  21
HETATM   21  C   UNL     1     -10.998   9.244  70.964  1.00  0.00    -0.320 C  
BRANCH  21  22
HETATM   22  S   UNL     1     -10.493   8.546  69.345  1.00  0.00    -0.199 SA 
BRANCH  22  23
HETATM   23  S   UNL     1      -8.440   8.422  69.472  1.00  0.00    -0.125 SA 
BRANCH  23  24
HETATM   24  C   UNL     1      -7.925   9.463  68.068  1.00  0.00    -0.092 C  
BRANCH  24  25
HETATM   25  C   UNL     1      -8.767  10.739  67.987  1.00  0.00    -0.132 C  
BRANCH  25  26
HETATM   26  N   UNL     1      -8.154  11.918  68.592  1.00  0.00    -0.275 N  
HETATM   27  H   UNL     1      -7.759  11.829  69.528  1.00  0.00     0.000 HD 
HETATM   28  C   UNL     1      -8.080  13.146  67.967  1.00  0.00    -0.157 C  
HETATM   29  O   UNL     1      -8.569  13.381  66.867  1.00  0.00    -0.189 OA 
BRANCH  28  30
HETATM   30  C   UNL     1      -7.302  14.192  68.732  1.00  0.00    -0.128 C  
BRANCH  30  31
HETATM   31  C   UNL     1      -6.743  15.231  67.765  1.00  0.00    -0.167 C  
BRANCH  31  32
HETATM   32  N   UNL     1      -7.279  16.556  68.014  1.00  0.00    -0.140 N  
HETATM   33  H   UNL     1      -7.283  16.912  68.970  1.00  0.00     0.000 HD 
HETATM   34  C   UNL     1      -7.782  17.348  67.009  1.00  0.00    -0.206 C  
HETATM   35  O   UNL     1      -7.904  16.972  65.847  1.00  0.00    -0.438 OA 
BRANCH  34  36
HETATM   36  C   UNL     1      -8.254  18.740  67.486  1.00  0.00    -0.260 C  
HETATM   37  O   UNL     1      -7.560  19.109  68.688  1.00  0.00    -0.319 OA 
HETATM   38  H   UNL     1      -7.850  19.965  68.981  1.00  0.00     0.000 HD 
BRANCH  36  39
HETATM   39  C   UNL     1      -9.790  18.830  67.706  1.00  0.00    -0.375 C  
HETATM   40  C   UNL     1     -10.385  17.461  68.096  1.00  0.00    -0.366 C  
HETATM   41  C   UNL     1     -10.068  19.802  68.877  1.00  0.00    -0.481 C  
BRANCH  39  42
HETATM   42  C   UNL     1     -10.477  19.364  66.426  1.00  0.00    -0.488 C  
HETATM   43  O   UNL     1      -9.906  20.594  65.993  1.00  0.00    -0.592 OA 
HETATM   44  H   UNL     1     -10.328  20.922  65.208  1.00  0.00     0.000 HD 
ENDBRANCH  39  42
ENDBRANCH  36  39
ENDBRANCH  34  36
ENDBRANCH  31  32
ENDBRANCH  30  31
ENDBRANCH  28  30
ENDBRANCH  25  26
ENDBRANCH  24  25
ENDBRANCH  23  24
ENDBRANCH  22  23
ENDBRANCH  21  22
ENDBRANCH  20  21
ENDBRANCH  18  20
ENDBRANCH  15  16
ENDBRANCH  14  15
ENDBRANCH  12  14
ENDBRANCH   7  10
ENDBRANCH   2   7
TORSDOF 19
ENDMDL
MODEL       20
REMARK 921   NORMALIZED FREE ENERGY PREDICTED BY IDOCK:   -5.63 KCAL/MOL
REMARK 922        TOTAL FREE ENERGY PREDICTED BY IDOCK:  -14.06 KCAL/MOL
REMARK 923 INTER-LIGAND FREE ENERGY PREDICTED BY IDOCK:  -11.35 KCAL/MOL
REMARK 924 INTRA-LIGAND FREE ENERGY PREDICTED BY IDOCK:   -2.71 KCAL/MOL
REMARK 927      BINDING AFFINITY PREDICTED BY RF-SCORE:    0.00 PKD
ROOT
HETATM    1  C   UNL     1     -10.731   5.273  71.857  1.00  0.00    -0.252 C  
HETATM    2  C   UNL     1     -10.388   6.773  71.807  1.00  0.00    -0.217 C  
HETATM    3  C   UNL     1     -10.864   7.458  73.112  1.00  0.00    -0.435 C  
ENDROOT
BRANCH   2   4
HETATM    4  C   UNL     1      -8.854   6.937  71.756  1.00  0.00    -0.131 C  
HETATM    5  O   UNL     1      -8.437   8.130  72.415  1.00  0.00    -0.147 OA 
HETATM    6  H   UNL     1      -7.493   8.231  72.383  1.00  0.00     0.000 HD 
ENDBRANCH   2   4
BRANCH   2   7
HETATM    7  C   UNL     1     -11.033   7.463  70.564  1.00  0.00    -0.253 C  
HETATM    8  O   UNL     1     -12.296   6.883  70.196  1.00  0.00    -0.628 OA 
HETATM    9  H   UNL     1     -12.688   7.302  69.440  1.00  0.00     0.000 HD 
BRANCH   7  10
HETATM   10  C   UNL     1     -11.245   8.987  70.700  1.00  0.00    -0.270 C  
HETATM   11  O   UNL     1     -10.342   9.815  70.769  1.00  0.00    -0.294 OA 
HETATM   12  N   UNL     1     -12.573   9.352  70.663  1.00  0.00    -0.507 N  
HETATM   13  H   UNL     1     -13.294   8.631  70.673  1.00  0.00     0.000 HD 
BRANCH  12  14
HETATM   14  C   UNL     1     -12.957  10.745  70.611  1.00  0.00    -0.232 C  
BRANCH  14  15
HETATM   15  C   UNL     1     -13.274  11.334  71.982  1.00  0.00    -0.437 C  
BRANCH  15  16
HETATM   16  C   UNL     1     -13.397  12.835  71.846  1.00  0.00    -0.413 C  
HETATM   17  O   UNL     1     -14.141  13.491  72.568  1.00  0.00    -0.731 OA 
HETATM   18  N   UNL     1     -12.590  13.384  70.876  1.00  0.00    -0.349 N  
HETATM   19  H   UNL     1     -11.974  12.751  70.366  1.00  0.00     0.000 HD 
BRANCH  18  20
HETATM   20  C   UNL     1     -12.546  14.803  70.515  1.00  0.00    -0.359 C  
BRANCH  20  21
HETATM   21  C   UNL     1     -11.401  15.257  69.605  1.00  0.00    -0.290 C  
BRANCH  21  22
HETATM   22  S   UNL     1     -11.440  14.572  67.904  1.00  0.00    -0.341 SA 
BRANCH  22  23
HETATM   23  S   UNL     1     -10.097  15.739  66.863  1.00  0.00    -0.273 SA 
BRANCH  23  24
HETATM   24  C   UNL     1     -10.800  15.691  65.182  1.00  0.00    -0.431 C  
BRANCH  24  25
HETATM   25  C   UNL     1     -11.338  14.298  64.847  1.00  0.00    -0.372 C  
BRANCH  25  26
HETATM   26  N   UNL     1     -10.403  13.436  64.127  1.00  0.00    -0.638 N  
HETATM   27  H   UNL     1      -9.430  13.734  64.057  1.00  0.00     0.000 HD 
HETATM   28  C   UNL     1     -10.765  12.243  63.538  1.00  0.00    -0.451 C  
HETATM   29  O   UNL     1     -11.914  11.816  63.513  1.00  0.00    -0.482 OA 
BRANCH  28  30
HETATM   30  C   UNL     1      -9.613  11.462  62.947  1.00  0.00    -0.366 C  
BRANCH  30  31
HETATM   31  C   UNL     1      -9.510  10.099  63.625  1.00  0.00    -0.267 C  
BRANCH  31  32
HETATM   32  N   UNL     1      -9.486  10.208  65.072  1.00  0.00    -0.248 N  
HETATM   33  H   UNL     1      -9.766  11.089  65.503  1.00  0.00     0.000 HD 
HETATM   34  C   UNL     1      -9.100   9.167  65.883  1.00  0.00    -0.205 C  
HETATM   35  O   UNL     1      -8.661   8.103  65.456  1.00  0.00    -0.161 OA 
BRANCH  34  36
HETATM   36  C   UNL     1      -9.198   9.479  67.393  1.00  0.00    -0.133 C  
HETATM   37  O   UNL     1     -10.398  10.221  67.664  1.00  0.00    -0.192 OA 
HETATM   38  H   UNL     1     -10.458  10.413  68.592  1.00  0.00     0.000 HD 
BRANCH  36  39
HETATM   39  C   UNL     1      -7.962  10.240  67.948  1.00  0.00    -0.102 C  
HETATM   40  C   UNL     1      -6.860  10.382  66.878  1.00  0.00    -0.088 C  
HETATM   41  C   UNL     1      -8.398  11.668  68.353  1.00  0.00    -0.157 C  
BRANCH  39  42
HETATM   42  C   UNL     1      -7.405   9.507  69.192  1.00  0.00    -0.072 C  
HETATM   43  O   UNL     1      -7.672  10.223  70.393  1.00  0.00    -0.427 OA 
HETATM   44  H   UNL     1      -7.330   9.773  71.156  1.00  0.00     0.000 HD 
ENDBRANCH  39  42
ENDBRANCH  36  39
ENDBRANCH  34  36
ENDBRANCH  31  32
ENDBRANCH  30  31
ENDBRANCH  28  30
ENDBRANCH  25  26
ENDBRANCH  24  25
ENDBRANCH  23  24
ENDBRANCH  22  23
ENDBRANCH  21  22
ENDBRANCH  20  21
ENDBRANCH  18  20
ENDBRANCH  15  16
ENDBRANCH  14  15
ENDBRANCH  12  14
ENDBRANCH   7  10
ENDBRANCH   2   7
TORSDOF 19
ENDMDL
MODEL       21
REMARK 921   NORMALIZED FREE ENERGY PREDICTED BY IDOCK:   -5.61 KCAL/MOL
REMARK 922        TOTAL FREE ENERGY PREDICTED BY IDOCK:  -14.01 KCAL/MOL
REMARK 923 INTER-LIGAND FREE ENERGY PREDICTED BY IDOCK:  -12.13 KCAL/MOL
REMARK 924 INTRA-LIGAND FREE ENERGY PREDICTED BY IDOCK:   -1.88 KCAL/MOL
REMARK 927      BINDING AFFINITY PREDICTED BY RF-SCORE:    0.00 PKD
ROOT
HETATM    1  C   UNL     1     -10.875   5.178  72.156  1.00  0.00    -0.218 C  
HETATM    2  C   UNL     1     -10.399   6.638  72.043  1.00  0.00    -0.218 C  
HETATM    3  C   UNL     1     -10.954   7.458  73.234  1.00  0.00    -0.367 C  
ENDROOT
BRANCH   2   4
HETATM    4  C   UNL     1      -8.861   6.677  72.159  1.00  0.00    -0.134 C  
HETATM    5  O   UNL     1      -8.309   5.362  72.180  1.00  0.00    -0.122 OA 
HETATM    6  H   UNL     1      -7.362   5.386  72.252  1.00  0.00     0.000 HD 
ENDBRANCH   2   4
BRANCH   2   7
HETATM    7  C   UNL     1     -10.841   7.277  70.689  1.00  0.00    -0.242 C  
HETATM    8  O   UNL     1     -12.087   6.749  70.204  1.00  0.00    -0.631 OA 
HETATM    9  H   UNL     1     -12.356   7.138  69.380  1.00  0.00     0.000 HD 
BRANCH   7  10
HETATM   10  C   UNL     1     -10.964   8.817  70.703  1.00  0.00    -0.238 C  
HETATM   11  O   UNL     1     -10.013   9.593  70.711  1.00  0.00    -0.270 OA 
HETATM   12  N   UNL     1     -12.267   9.255  70.630  1.00  0.00    -0.483 N  
HETATM   13  H   UNL     1     -13.030   8.580  70.693  1.00  0.00     0.000 HD 
BRANCH  12  14
HETATM   14  C   UNL     1     -12.569  10.660  70.466  1.00  0.00    -0.348 C  
BRANCH  14  15
HETATM   15  C   UNL     1     -13.140  11.304  71.725  1.00  0.00    -0.527 C  
BRANCH  15  16
HETATM   16  C   UNL     1     -13.074  12.807  71.570  1.00  0.00    -0.286 C  
HETATM   17  O   UNL     1     -13.799  13.556  72.218  1.00  0.00    -0.525 OA 
HETATM   18  N   UNL     1     -12.125  13.243  70.675  1.00  0.00    -0.496 N  
HETATM   19  H   UNL     1     -11.543  12.536  70.228  1.00  0.00     0.000 HD 
BRANCH  18  20
HETATM   20  C   UNL     1     -11.882  14.642  70.313  1.00  0.00    -0.303 C  
BRANCH  20  21
HETATM   21  C   UNL     1     -10.852  14.910  69.212  1.00  0.00    -0.266 C  
BRANCH  21  22
HETATM   22  S   UNL     1     -11.171  14.056  67.621  1.00  0.00    -0.311 SA 
BRANCH  22  23
HETATM   23  S   UNL     1      -9.908  14.991  66.288  1.00  0.00    -0.305 SA 
BRANCH  23  24
HETATM   24  C   UNL     1     -11.096  15.831  65.189  1.00  0.00    -0.324 C  
BRANCH  24  25
HETATM   25  C   UNL     1     -11.950  14.819  64.422  1.00  0.00    -0.417 C  
BRANCH  25  26
HETATM   26  N   UNL     1     -11.229  13.639  63.952  1.00  0.00    -0.570 N  
HETATM   27  H   UNL     1     -10.226  13.721  63.786  1.00  0.00     0.000 HD 
HETATM   28  C   UNL     1     -11.830  12.419  63.723  1.00  0.00    -0.502 C  
HETATM   29  O   UNL     1     -13.035  12.220  63.836  1.00  0.00    -0.753 OA 
BRANCH  28  30
HETATM   30  C   UNL     1     -10.873  11.309  63.351  1.00  0.00    -0.311 C  
BRANCH  30  31
HETATM   31  C   UNL     1      -9.828  11.137  64.449  1.00  0.00    -0.284 C  
BRANCH  31  32
HETATM   32  N   UNL     1      -9.466   9.746  64.646  1.00  0.00    -0.390 N  
HETATM   33  H   UNL     1      -9.796   9.053  63.975  1.00  0.00     0.000 HD 
HETATM   34  C   UNL     1      -8.694   9.329  65.705  1.00  0.00    -0.166 C  
HETATM   35  O   UNL     1      -8.329  10.072  66.611  1.00  0.00    -0.124 OA 
BRANCH  34  36
HETATM   36  C   UNL     1      -8.384   7.815  65.696  1.00  0.00    -0.139 C  
HETATM   37  O   UNL     1      -8.686   7.260  64.407  1.00  0.00    -0.321 OA 
HETATM   38  H   UNL     1      -8.496   6.329  64.402  1.00  0.00     0.000 HD 
BRANCH  36  39
HETATM   39  C   UNL     1      -9.131   7.025  66.807  1.00  0.00    -0.162 C  
HETATM   40  C   UNL     1      -9.188   5.517  66.485  1.00  0.00    -0.144 C  
HETATM   41  C   UNL     1      -8.356   7.183  68.136  1.00  0.00    -0.124 C  
BRANCH  39  42
HETATM   42  C   UNL     1     -10.563   7.586  66.983  1.00  0.00    -0.339 C  
HETATM   43  O   UNL     1     -11.514   6.549  67.202  1.00  0.00    -0.768 OA 
HETATM   44  H   UNL     1     -12.393   6.893  67.309  1.00  0.00     0.000 HD 
ENDBRANCH  39  42
ENDBRANCH  36  39
ENDBRANCH  34  36
ENDBRANCH  31  32
ENDBRANCH  30  31
ENDBRANCH  28  30
ENDBRANCH  25  26
ENDBRANCH  24  25
ENDBRANCH  23  24
ENDBRANCH  22  23
ENDBRANCH  21  22
ENDBRANCH  20  21
ENDBRANCH  18  20
ENDBRANCH  15  16
ENDBRANCH  14  15
ENDBRANCH  12  14
ENDBRANCH   7  10
ENDBRANCH   2   7
TORSDOF 19
ENDMDL
MODEL       22
REMARK 921   NORMALIZED FREE ENERGY PREDICTED BY IDOCK:   -5.60 KCAL/MOL
REMARK 922        TOTAL FREE ENERGY PREDICTED BY IDOCK:  -13.99 KCAL/MOL
REMARK 923 INTER-LIGAND FREE ENERGY PREDICTED BY IDOCK:  -10.52 KCAL/MOL
REMARK 924 INTRA-LIGAND FREE ENERGY PREDICTED BY IDOCK:   -3.47 KCAL/MOL
REMARK 927      BINDING AFFINITY PREDICTED BY RF-SCORE:    0.00 PKD
ROOT
HETATM    1  C   UNL     1     -11.539  15.368  64.267  1.00  0.00    -0.196 C  
HETATM    2  C   UNL     1     -11.550  13.974  64.921  1.00  0.00    -0.369 C  
HETATM    3  C   UNL     1     -12.958  13.684  65.500  1.00  0.00    -0.325 C  
ENDROOT
BRANCH   2   4
HETATM    4  C   UNL     1     -11.291  12.907  63.836  1.00  0.00    -0.436 C  
HETATM    5  O   UNL     1      -9.898  12.643  63.692  1.00  0.00    -0.659 OA 
HETATM    6  H   UNL     1      -9.738  11.986  63.024  1.00  0.00     0.000 HD 
ENDBRANCH   2   4
BRANCH   2   7
HETATM    7  C   UNL     1     -10.468  13.862  66.040  1.00  0.00    -0.298 C  
HETATM    8  O   UNL     1      -9.200  14.415  65.647  1.00  0.00    -0.497 OA 
HETATM    9  H   UNL     1      -8.542  14.347  66.328  1.00  0.00     0.000 HD 
BRANCH   7  10
HETATM   10  C   UNL     1     -10.855  14.504  67.390  1.00  0.00    -0.291 C  
HETATM   11  O   UNL     1     -11.128  15.691  67.547  1.00  0.00    -0.326 OA 
HETATM   12  N   UNL     1     -10.941  13.591  68.418  1.00  0.00    -0.256 N  
HETATM   13  H   UNL     1     -10.642  12.628  68.262  1.00  0.00     0.000 HD 
BRANCH  12  14
HETATM   14  C   UNL     1     -11.449  13.979  69.714  1.00  0.00    -0.230 C  
BRANCH  14  15
HETATM   15  C   UNL     1     -12.281  12.891  70.386  1.00  0.00    -0.381 C  
BRANCH  15  16
HETATM   16  C   UNL     1     -11.947  11.563  69.745  1.00  0.00    -0.346 C  
HETATM   17  O   UNL     1     -12.327  11.277  68.614  1.00  0.00    -0.534 OA 
HETATM   18  N   UNL     1     -11.170  10.738  70.525  1.00  0.00    -0.446 N  
HETATM   19  H   UNL     1     -10.869  11.096  71.430  1.00  0.00     0.000 HD 
BRANCH  18  20
HETATM   20  C   UNL     1     -10.739   9.386  70.158  1.00  0.00    -0.243 C  
BRANCH  20  21
HETATM   21  C   UNL     1      -9.391   9.251  69.445  1.00  0.00    -0.164 C  
BRANCH  21  22
HETATM   22  S   UNL     1      -9.477   9.226  67.613  1.00  0.00    -0.134 SA 
BRANCH  22  23
HETATM   23  S   UNL     1      -7.508   9.092  67.021  1.00  0.00    -0.087 SA 
BRANCH  23  24
HETATM   24  C   UNL     1      -6.785  10.559  67.828  1.00  0.00    -0.069 C  
BRANCH  24  25
HETATM   25  C   UNL     1      -7.765  11.734  67.817  1.00  0.00    -0.133 C  
BRANCH  25  26
HETATM   26  N   UNL     1      -7.412  12.836  68.708  1.00  0.00    -0.243 N  
HETATM   27  H   UNL     1      -7.559  12.711  69.710  1.00  0.00     0.000 HD 
HETATM   28  C   UNL     1      -6.891  14.035  68.270  1.00  0.00    -0.108 C  
HETATM   29  O   UNL     1      -6.725  14.315  67.088  1.00  0.00    -0.185 OA 
BRANCH  28  30
HETATM   30  C   UNL     1      -6.493  14.987  69.376  1.00  0.00    -0.135 C  
BRANCH  30  31
HETATM   31  C   UNL     1      -7.703  15.807  69.813  1.00  0.00     0.073 C  
BRANCH  31  32
HETATM   32  N   UNL     1      -8.374  16.433  68.689  1.00  0.00    -0.209 N  
HETATM   33  H   UNL     1      -9.158  15.947  68.252  1.00  0.00     0.000 HD 
HETATM   34  C   UNL     1      -7.993  17.657  68.192  1.00  0.00    -0.256 C  
HETATM   35  O   UNL     1      -7.009  18.273  68.590  1.00  0.00    -0.243 OA 
BRANCH  34  36
HETATM   36  C   UNL     1      -8.874  18.162  67.028  1.00  0.00    -0.262 C  
HETATM   37  O   UNL     1      -8.060  18.414  65.871  1.00  0.00    -0.502 OA 
HETATM   38  H   UNL     1      -8.602  18.726  65.155  1.00  0.00     0.000 HD 
BRANCH  36  39
HETATM   39  C   UNL     1      -9.703  19.427  67.384  1.00  0.00    -0.424 C  
HETATM   40  C   UNL     1     -10.074  19.455  68.882  1.00  0.00    -0.459 C  
HETATM   41  C   UNL     1      -8.845  20.682  67.099  1.00  0.00    -0.335 C  
BRANCH  39  42
HETATM   42  C   UNL     1     -10.985  19.480  66.518  1.00  0.00    -0.238 C  
HETATM   43  O   UNL     1     -10.847  18.719  65.323  1.00  0.00    -0.576 OA 
HETATM   44  H   UNL     1     -11.634  18.751  64.791  1.00  0.00     0.000 HD 
ENDBRANCH  39  42
ENDBRANCH  36  39
ENDBRANCH  34  36
ENDBRANCH  31  32
ENDBRANCH  30  31
ENDBRANCH  28  30
ENDBRANCH  25  26
ENDBRANCH  24  25
ENDBRANCH  23  24
ENDBRANCH  22  23
ENDBRANCH  21  22
ENDBRANCH  20  21
ENDBRANCH  18  20
ENDBRANCH  15  16
ENDBRANCH  14  15
ENDBRANCH  12  14
ENDBRANCH   7  10
ENDBRANCH   2   7
TORSDOF 19
ENDMDL
MODEL       23
REMARK 921   NORMALIZED FREE ENERGY PREDICTED BY IDOCK:   -5.59 KCAL/MOL
REMARK 922        TOTAL FREE ENERGY PREDICTED BY IDOCK:  -13.98 KCAL/MOL
REMARK 923 INTER-LIGAND FREE ENERGY PREDICTED BY IDOCK:  -11.51 KCAL/MOL
REMARK 924 INTRA-LIGAND FREE ENERGY PREDICTED BY IDOCK:   -2.47 KCAL/MOL
REMARK 927      BINDING AFFINITY PREDICTED BY RF-SCORE:    0.00 PKD
ROOT
HETATM    1  C   UNL     1     -12.771  11.881  63.503  1.00  0.00    -0.530 C  
HETATM    2  C   UNL     1     -11.845  12.657  64.458  1.00  0.00    -0.441 C  
HETATM    3  C   UNL     1     -11.693  11.874  65.785  1.00  0.00    -0.210 C  
ENDROOT
BRANCH   2   4
HETATM    4  C   UNL     1     -10.436  12.744  63.832  1.00  0.00    -0.372 C  
HETATM    5  O   UNL     1      -9.739  11.506  63.950  1.00  0.00    -0.284 OA 
HETATM    6  H   UNL     1      -8.872  11.559  63.565  1.00  0.00     0.000 HD 
ENDBRANCH   2   4
BRANCH   2   7
HETATM    7  C   UNL     1     -12.388  14.095  64.732  1.00  0.00    -0.417 C  
HETATM    8  O   UNL     1     -13.433  14.117  65.719  1.00  0.00    -0.670 OA 
HETATM    9  H   UNL     1     -13.763  14.991  65.887  1.00  0.00     0.000 HD 
BRANCH   7  10
HETATM   10  C   UNL     1     -11.320  15.125  65.164  1.00  0.00    -0.357 C  
HETATM   11  O   UNL     1     -10.979  16.098  64.499  1.00  0.00    -0.645 OA 
HETATM   12  N   UNL     1     -10.823  14.889  66.427  1.00  0.00    -0.320 N  
HETATM   13  H   UNL     1     -11.082  14.034  66.919  1.00  0.00     0.000 HD 
BRANCH  12  14
HETATM   14  C   UNL     1      -9.939  15.839  67.064  1.00  0.00    -0.239 C  
BRANCH  14  15
HETATM   15  C   UNL     1      -9.605  15.477  68.508  1.00  0.00    -0.203 C  
BRANCH  15  16
HETATM   16  C   UNL     1     -10.865  15.580  69.336  1.00  0.00    -0.261 C  
HETATM   17  O   UNL     1     -11.900  16.060  68.883  1.00  0.00    -0.379 OA 
HETATM   18  N   UNL     1     -10.750  15.068  70.608  1.00  0.00    -0.528 N  
HETATM   19  H   UNL     1      -9.857  14.647  70.865  1.00  0.00     0.000 HD 
BRANCH  18  20
HETATM   20  C   UNL     1     -11.806  15.078  71.624  1.00  0.00    -0.378 C  
BRANCH  20  21
HETATM   21  C   UNL     1     -13.114  14.360  71.278  1.00  0.00    -0.351 C  
BRANCH  21  22
HETATM   22  S   UNL     1     -13.363  12.749  72.120  1.00  0.00    -0.384 SA 
BRANCH  22  23
HETATM   23  S   UNL     1     -12.418  11.391  70.892  1.00  0.00    -0.333 SA 
BRANCH  23  24
HETATM   24  C   UNL     1     -13.272   9.843  71.335  1.00  0.00    -0.400 C  
BRANCH  24  25
HETATM   25  C   UNL     1     -12.366   8.929  72.163  1.00  0.00    -0.378 C  
BRANCH  25  26
HETATM   26  N   UNL     1     -11.999   7.674  71.511  1.00  0.00    -0.292 N  
HETATM   27  H   UNL     1     -12.671   6.907  71.532  1.00  0.00     0.000 HD 
HETATM   28  C   UNL     1     -10.795   7.471  70.870  1.00  0.00    -0.240 C  
HETATM   29  O   UNL     1      -9.894   8.302  70.832  1.00  0.00    -0.177 OA 
BRANCH  28  30
HETATM   30  C   UNL     1     -10.677   6.137  70.168  1.00  0.00    -0.366 C  
BRANCH  30  31
HETATM   31  C   UNL     1     -11.236   6.245  68.753  1.00  0.00    -0.273 C  
BRANCH  31  32
HETATM   32  N   UNL     1     -10.828   7.473  68.096  1.00  0.00    -0.439 N  
HETATM   33  H   UNL     1     -11.174   8.362  68.458  1.00  0.00     0.000 HD 
HETATM   34  C   UNL     1      -9.992   7.482  67.004  1.00  0.00    -0.234 C  
HETATM   35  O   UNL     1      -9.599   6.463  66.444  1.00  0.00    -0.164 OA 
BRANCH  34  36
HETATM   36  C   UNL     1      -9.644   8.897  66.493  1.00  0.00    -0.232 C  
HETATM   37  O   UNL     1      -9.437   8.868  65.072  1.00  0.00    -0.436 OA 
HETATM   38  H   UNL     1      -9.222   9.739  64.757  1.00  0.00     0.000 HD 
BRANCH  36  39
HETATM   39  C   UNL     1      -8.411   9.525  67.201  1.00  0.00    -0.131 C  
HETATM   40  C   UNL     1      -7.495  10.254  66.197  1.00  0.00    -0.121 C  
HETATM   41  C   UNL     1      -8.906  10.577  68.221  1.00  0.00    -0.139 C  
BRANCH  39  42
HETATM   42  C   UNL     1      -7.615   8.427  67.948  1.00  0.00    -0.099 C  
HETATM   43  O   UNL     1      -7.646   8.619  69.358  1.00  0.00    -0.088 OA 
HETATM   44  H   UNL     1      -7.158   7.945  69.817  1.00  0.00     0.000 HD 
ENDBRANCH  39  42
ENDBRANCH  36  39
ENDBRANCH  34  36
ENDBRANCH  31  32
ENDBRANCH  30  31
ENDBRANCH  28  30
ENDBRANCH  25  26
ENDBRANCH  24  25
ENDBRANCH  23  24
ENDBRANCH  22  23
ENDBRANCH  21  22
ENDBRANCH  20  21
ENDBRANCH  18  20
ENDBRANCH  15  16
ENDBRANCH  14  15
ENDBRANCH  12  14
ENDBRANCH   7  10
ENDBRANCH   2   7
TORSDOF 19
ENDMDL
MODEL       24
REMARK 921   NORMALIZED FREE ENERGY PREDICTED BY IDOCK:   -5.59 KCAL/MOL
REMARK 922        TOTAL FREE ENERGY PREDICTED BY IDOCK:  -13.98 KCAL/MOL
REMARK 923 INTER-LIGAND FREE ENERGY PREDICTED BY IDOCK:  -11.72 KCAL/MOL
REMARK 924 INTRA-LIGAND FREE ENERGY PREDICTED BY IDOCK:   -2.25 KCAL/MOL
REMARK 927      BINDING AFFINITY PREDICTED BY RF-SCORE:    0.00 PKD
ROOT
HETATM    1  C   UNL     1     -13.415  13.096  72.193  1.00  0.00    -0.653 C  
HETATM    2  C   UNL     1     -12.893  14.383  71.528  1.00  0.00    -0.411 C  
HETATM    3  C   UNL     1     -14.077  15.155  70.894  1.00  0.00    -0.195 C  
ENDROOT
BRANCH   2   4
HETATM    4  C   UNL     1     -12.295  15.303  72.612  1.00  0.00    -0.386 C  
HETATM    5  O   UNL     1     -11.924  16.569  72.072  1.00  0.00    -0.638 OA 
HETATM    6  H   UNL     1     -11.555  17.135  72.740  1.00  0.00     0.000 HD 
ENDBRANCH   2   4
BRANCH   2   7
HETATM    7  C   UNL     1     -11.810  14.066  70.449  1.00  0.00    -0.286 C  
HETATM    8  O   UNL     1     -11.718  12.664  70.146  1.00  0.00    -0.497 OA 
HETATM    9  H   UNL     1     -11.059  12.471  69.490  1.00  0.00     0.000 HD 
BRANCH   7  10
HETATM   10  C   UNL     1     -11.981  14.819  69.111  1.00  0.00    -0.282 C  
HETATM   11  O   UNL     1     -11.996  16.041  68.995  1.00  0.00    -0.342 OA 
HETATM   12  N   UNL     1     -12.044  13.978  68.023  1.00  0.00    -0.515 N  
HETATM   13  H   UNL     1     -12.096  12.969  68.168  1.00  0.00     0.000 HD 
BRANCH  12  14
HETATM   14  C   UNL     1     -12.038  14.507  66.677  1.00  0.00    -0.296 C  
BRANCH  14  15
HETATM   15  C   UNL     1     -12.991  13.774  65.738  1.00  0.00    -0.310 C  
BRANCH  15  16
HETATM   16  C   UNL     1     -12.244  13.417  64.473  1.00  0.00    -0.398 C  
HETATM   17  O   UNL     1     -12.548  13.896  63.385  1.00  0.00    -0.853 OA 
HETATM   18  N   UNL     1     -11.196  12.546  64.662  1.00  0.00    -0.300 N  
HETATM   19  H   UNL     1     -11.000  12.248  65.617  1.00  0.00     0.000 HD 
BRANCH  18  20
HETATM   20  C   UNL     1     -10.338  12.012  63.601  1.00  0.00    -0.450 C  
BRANCH  20  21
HETATM   21  C   UNL     1      -9.793  10.593  63.791  1.00  0.00    -0.335 C  
BRANCH  21  22
HETATM   22  S   UNL     1      -8.622  10.389  65.188  1.00  0.00    -0.183 SA 
BRANCH  22  23
HETATM   23  S   UNL     1      -9.795   9.673  66.723  1.00  0.00    -0.227 SA 
BRANCH  23  24
HETATM   24  C   UNL     1      -8.542   9.294  67.992  1.00  0.00    -0.121 C  
BRANCH  24  25
HETATM   25  C   UNL     1      -8.554  10.339  69.110  1.00  0.00    -0.164 C  
BRANCH  25  26
HETATM   26  N   UNL     1      -7.720  11.512  68.861  1.00  0.00    -0.248 N  
HETATM   27  H   UNL     1      -6.723  11.447  69.066  1.00  0.00     0.000 HD 
HETATM   28  C   UNL     1      -8.208  12.703  68.366  1.00  0.00    -0.129 C  
HETATM   29  O   UNL     1      -9.395  12.912  68.138  1.00  0.00    -0.206 OA 
BRANCH  28  30
HETATM   30  C   UNL     1      -7.149  13.743  68.080  1.00  0.00    -0.133 C  
BRANCH  30  31
HETATM   31  C   UNL     1      -7.146  14.796  69.184  1.00  0.00    -0.143 C  
BRANCH  31  32
HETATM   32  N   UNL     1      -6.987  16.139  68.658  1.00  0.00    -0.134 N  
HETATM   33  H   UNL     1      -6.091  16.404  68.250  1.00  0.00     0.000 HD 
HETATM   34  C   UNL     1      -8.002  17.068  68.690  1.00  0.00    -0.258 C  
HETATM   35  O   UNL     1      -9.081  16.873  69.241  1.00  0.00    -0.144 OA 
BRANCH  34  36
HETATM   36  C   UNL     1      -7.637  18.417  68.032  1.00  0.00    -0.259 C  
HETATM   37  O   UNL     1      -7.446  19.420  69.042  1.00  0.00    -0.358 OA 
HETATM   38  H   UNL     1      -7.222  20.250  68.637  1.00  0.00     0.000 HD 
BRANCH  36  39
HETATM   39  C   UNL     1      -8.685  18.900  66.991  1.00  0.00    -0.305 C  
HETATM   40  C   UNL     1      -9.437  17.712  66.354  1.00  0.00    -0.274 C  
HETATM   41  C   UNL     1      -9.736  19.776  67.712  1.00  0.00    -0.495 C  
BRANCH  39  42
HETATM   42  C   UNL     1      -7.991  19.740  65.892  1.00  0.00    -0.280 C  
HETATM   43  O   UNL     1      -7.475  20.962  66.408  1.00  0.00    -0.516 OA 
HETATM   44  H   UNL     1      -7.048  21.478  65.733  1.00  0.00     0.000 HD 
ENDBRANCH  39  42
ENDBRANCH  36  39
ENDBRANCH  34  36
ENDBRANCH  31  32
ENDBRANCH  30  31
ENDBRANCH  28  30
ENDBRANCH  25  26
ENDBRANCH  24  25
ENDBRANCH  23  24
ENDBRANCH  22  23
ENDBRANCH  21  22
ENDBRANCH  20  21
ENDBRANCH  18  20
ENDBRANCH  15  16
ENDBRANCH  14  15
ENDBRANCH  12  14
ENDBRANCH   7  10
ENDBRANCH   2   7
TORSDOF 19
ENDMDL
MODEL       25
REMARK 921   NORMALIZED FREE ENERGY PREDICTED BY IDOCK:   -5.57 KCAL/MOL
REMARK 922        TOTAL FREE ENERGY PREDICTED BY IDOCK:  -13.94 KCAL/MOL
REMARK 923 INTER-LIGAND FREE ENERGY PREDICTED BY IDOCK:  -11.66 KCAL/MOL
REMARK 924 INTRA-LIGAND FREE ENERGY PREDICTED BY IDOCK:   -2.28 KCAL/MOL
REMARK 927      BINDING AFFINITY PREDICTED BY RF-SCORE:    0.00 PKD
ROOT
HETATM    1  C   UNL     1     -12.674  12.458  64.225  1.00  0.00    -0.437 C  
HETATM    2  C   UNL     1     -11.419  13.149  64.790  1.00  0.00    -0.355 C  
HETATM    3  C   UNL     1     -10.159  12.605  64.071  1.00  0.00    -0.280 C  
ENDROOT
BRANCH   2   4
HETATM    4  C   UNL     1     -11.491  14.658  64.473  1.00  0.00    -0.335 C  
HETATM    5  O   UNL     1     -12.455  14.930  63.459  1.00  0.00    -1.001 OA 
HETATM    6  H   UNL     1     -12.499  15.859  63.264  1.00  0.00     0.000 HD 
ENDBRANCH   2   4
BRANCH   2   7
HETATM    7  C   UNL     1     -11.299  12.940  66.332  1.00  0.00    -0.319 C  
HETATM    8  O   UNL     1     -12.199  11.935  66.830  1.00  0.00    -0.493 OA 
HETATM    9  H   UNL     1     -12.126  11.808  67.768  1.00  0.00     0.000 HD 
BRANCH   7  10
HETATM   10  C   UNL     1      -9.883  12.585  66.835  1.00  0.00    -0.227 C  
HETATM   11  O   UNL     1      -9.418  11.449  66.870  1.00  0.00    -0.175 OA 
HETATM   12  N   UNL     1      -9.140  13.691  67.183  1.00  0.00    -0.230 N  
HETATM   13  H   UNL     1      -9.584  14.610  67.204  1.00  0.00     0.000 HD 
BRANCH  12  14
HETATM   14  C   UNL     1      -7.739  13.568  67.519  1.00  0.00    -0.175 C  
BRANCH  14  15
HETATM   15  C   UNL     1      -7.290  14.547  68.599  1.00  0.00    -0.128 C  
BRANCH  15  16
HETATM   16  C   UNL     1      -7.165  15.922  67.982  1.00  0.00    -0.132 C  
HETATM   17  O   UNL     1      -7.319  16.108  66.779  1.00  0.00    -0.222 OA 
HETATM   18  N   UNL     1      -6.897  16.925  68.885  1.00  0.00    -0.196 N  
HETATM   19  H   UNL     1      -6.836  16.665  69.869  1.00  0.00     0.000 HD 
BRANCH  18  20
HETATM   20  C   UNL     1      -6.690  18.336  68.547  1.00  0.00    -0.238 C  
BRANCH  20  21
HETATM   21  C   UNL     1      -7.907  19.261  68.636  1.00  0.00    -0.361 C  
BRANCH  21  22
HETATM   22  S   UNL     1      -8.662  19.712  67.027  1.00  0.00    -0.332 SA 
BRANCH  22  23
HETATM   23  S   UNL     1     -10.622  19.099  67.205  1.00  0.00    -0.475 SA 
BRANCH  23  24
HETATM   24  C   UNL     1     -10.415  17.334  67.613  1.00  0.00    -0.363 C  
BRANCH  24  25
HETATM   25  C   UNL     1     -10.776  17.060  69.075  1.00  0.00    -0.271 C  
BRANCH  25  26
HETATM   26  N   UNL     1     -11.595  15.870  69.292  1.00  0.00    -0.371 N  
HETATM   27  H   UNL     1     -11.926  15.357  68.475  1.00  0.00     0.000 HD 
HETATM   28  C   UNL     1     -11.944  15.402  70.542  1.00  0.00    -0.357 C  
HETATM   29  O   UNL     1     -11.649  15.968  71.589  1.00  0.00    -0.439 OA 
BRANCH  28  30
HETATM   30  C   UNL     1     -12.699  14.092  70.531  1.00  0.00    -0.374 C  
BRANCH  30  31
HETATM   31  C   UNL     1     -11.755  12.953  70.160  1.00  0.00    -0.159 C  
BRANCH  31  32
HETATM   32  N   UNL     1     -12.117  11.708  70.811  1.00  0.00    -0.404 N  
HETATM   33  H   UNL     1     -12.403  11.730  71.789  1.00  0.00     0.000 HD 
HETATM   34  C   UNL     1     -12.087  10.499  70.156  1.00  0.00    -0.300 C  
HETATM   35  O   UNL     1     -11.671  10.359  69.010  1.00  0.00    -0.202 OA 
BRANCH  34  36
HETATM   36  C   UNL     1     -12.560   9.308  71.019  1.00  0.00    -0.185 C  
HETATM   37  O   UNL     1     -13.135   9.787  72.245  1.00  0.00    -0.416 OA 
HETATM   38  H   UNL     1     -13.425   9.054  72.775  1.00  0.00     0.000 HD 
BRANCH  36  39
HETATM   39  C   UNL     1     -11.434   8.279  71.322  1.00  0.00    -0.314 C  
HETATM   40  C   UNL     1     -11.019   7.507  70.053  1.00  0.00    -0.252 C  
HETATM   41  C   UNL     1     -10.186   9.042  71.825  1.00  0.00    -0.389 C  
BRANCH  39  42
HETATM   42  C   UNL     1     -11.903   7.291  72.417  1.00  0.00    -0.208 C  
HETATM   43  O   UNL     1     -13.232   6.835  72.185  1.00  0.00    -0.548 OA 
HETATM   44  H   UNL     1     -13.519   6.229  72.857  1.00  0.00     0.000 HD 
ENDBRANCH  39  42
ENDBRANCH  36  39
ENDBRANCH  34  36
ENDBRANCH  31  32
ENDBRANCH  30  31
ENDBRANCH  28  30
ENDBRANCH  25  26
ENDBRANCH  24  25
ENDBRANCH  23  24
ENDBRANCH  22  23
ENDBRANCH  21  22
ENDBRANCH  20  21
ENDBRANCH  18  20
ENDBRANCH  15  16
ENDBRANCH  14  15
ENDBRANCH  12  14
ENDBRANCH   7  10
ENDBRANCH   2   7
TORSDOF 19
ENDMDL
MODEL       26
REMARK 921   NORMALIZED FREE ENERGY PREDICTED BY IDOCK:   -5.57 KCAL/MOL
REMARK 922        TOTAL FREE ENERGY PREDICTED BY IDOCK:  -13.93 KCAL/MOL
REMARK 923 INTER-LIGAND FREE ENERGY PREDICTED BY IDOCK:  -11.87 KCAL/MOL
REMARK 924 INTRA-LIGAND FREE ENERGY PREDICTED BY IDOCK:   -2.06 KCAL/MOL
REMARK 927      BINDING AFFINITY PREDICTED BY RF-SCORE:    0.00 PKD
ROOT
HETATM    1  C   UNL     1     -10.479   9.071  70.849  1.00  0.00    -0.321 C  
HETATM    2  C   UNL     1     -11.407   8.285  71.794  1.00  0.00    -0.350 C  
HETATM    3  C   UNL     1     -10.698   8.065  73.153  1.00  0.00    -0.205 C  
ENDROOT
BRANCH   2   4
HETATM    4  C   UNL     1     -12.664   9.133  72.084  1.00  0.00    -0.395 C  
HETATM    5  O   UNL     1     -13.197   9.696  70.888  1.00  0.00    -0.552 OA 
HETATM    6  H   UNL     1     -13.971  10.218  71.066  1.00  0.00     0.000 HD 
ENDBRANCH   2   4
BRANCH   2   7
HETATM    7  C   UNL     1     -11.827   6.917  71.170  1.00  0.00    -0.349 C  
HETATM    8  O   UNL     1     -13.015   7.011  70.367  1.00  0.00    -0.483 OA 
HETATM    9  H   UNL     1     -13.270   6.179  69.988  1.00  0.00     0.000 HD 
BRANCH   7  10
HETATM   10  C   UNL     1     -10.741   6.230  70.313  1.00  0.00    -0.280 C  
HETATM   11  O   UNL     1      -9.686   5.779  70.750  1.00  0.00    -0.166 OA 
HETATM   12  N   UNL     1     -11.100   6.100  68.990  1.00  0.00    -0.379 N  
HETATM   13  H   UNL     1     -11.953   6.547  68.653  1.00  0.00     0.000 HD 
BRANCH  12  14
HETATM   14  C   UNL     1     -10.284   5.338  68.071  1.00  0.00    -0.143 C  
BRANCH  14  15
HETATM   15  C   UNL     1     -10.195   5.963  66.683  1.00  0.00    -0.258 C  
BRANCH  15  16
HETATM   16  C   UNL     1      -9.536   7.319  66.804  1.00  0.00    -0.171 C  
HETATM   17  O   UNL     1      -8.856   7.622  67.780  1.00  0.00    -0.126 OA 
HETATM   18  N   UNL     1      -9.745   8.148  65.727  1.00  0.00    -0.401 N  
HETATM   19  H   UNL     1     -10.286   7.776  64.947  1.00  0.00     0.000 HD 
BRANCH  18  20
HETATM   20  C   UNL     1      -9.251   9.523  65.609  1.00  0.00    -0.223 C  
BRANCH  20  21
HETATM   21  C   UNL     1     -10.297  10.627  65.430  1.00  0.00    -0.233 C  
BRANCH  21  22
HETATM   22  S   UNL     1     -10.291  11.448  63.790  1.00  0.00    -0.433 SA 
BRANCH  22  23
HETATM   23  S   UNL     1     -12.212  12.163  63.581  1.00  0.00    -0.549 SA 
BRANCH  23  24
HETATM   24  C   UNL     1     -11.985  13.932  63.956  1.00  0.00    -0.387 C  
BRANCH  24  25
HETATM   25  C   UNL     1     -12.352  14.241  65.409  1.00  0.00    -0.415 C  
BRANCH  25  26
HETATM   26  N   UNL     1     -11.213  14.462  66.296  1.00  0.00    -0.332 N  
HETATM   27  H   UNL     1     -10.569  15.221  66.073  1.00  0.00     0.000 HD 
HETATM   28  C   UNL     1     -10.960  13.701  67.419  1.00  0.00    -0.276 C  
HETATM   29  O   UNL     1     -11.634  12.732  67.750  1.00  0.00    -0.309 OA 
BRANCH  28  30
HETATM   30  C   UNL     1      -9.792  14.180  68.250  1.00  0.00    -0.235 C  
BRANCH  30  31
HETATM   31  C   UNL     1     -10.293  15.081  69.375  1.00  0.00    -0.235 C  
BRANCH  31  32
HETATM   32  N   UNL     1      -9.743  16.421  69.288  1.00  0.00    -0.248 N  
HETATM   33  H   UNL     1      -8.912  16.647  69.834  1.00  0.00     0.000 HD 
HETATM   34  C   UNL     1     -10.302  17.397  68.497  1.00  0.00    -0.378 C  
HETATM   35  O   UNL     1     -11.351  17.249  67.877  1.00  0.00    -0.047 OA 
BRANCH  34  36
HETATM   36  C   UNL     1      -9.529  18.735  68.512  1.00  0.00    -0.358 C  
HETATM   37  O   UNL     1     -10.375  19.785  69.007  1.00  0.00    -0.609 OA 
HETATM   38  H   UNL     1      -9.899  20.607  69.016  1.00  0.00     0.000 HD 
BRANCH  36  39
HETATM   39  C   UNL     1      -8.945  19.127  67.126  1.00  0.00    -0.320 C  
HETATM   40  C   UNL     1     -10.015  19.783  66.228  1.00  0.00    -0.581 C  
HETATM   41  C   UNL     1      -7.820  20.168  67.337  1.00  0.00    -0.348 C  
BRANCH  39  42
HETATM   42  C   UNL     1      -8.358  17.877  66.427  1.00  0.00    -0.242 C  
HETATM   43  O   UNL     1      -7.268  18.211  65.574  1.00  0.00    -0.539 OA 
HETATM   44  H   UNL     1      -6.907  17.444  65.145  1.00  0.00     0.000 HD 
ENDBRANCH  39  42
ENDBRANCH  36  39
ENDBRANCH  34  36
ENDBRANCH  31  32
ENDBRANCH  30  31
ENDBRANCH  28  30
ENDBRANCH  25  26
ENDBRANCH  24  25
ENDBRANCH  23  24
ENDBRANCH  22  23
ENDBRANCH  21  22
ENDBRANCH  20  21
ENDBRANCH  18  20
ENDBRANCH  15  16
ENDBRANCH  14  15
ENDBRANCH  12  14
ENDBRANCH   7  10
ENDBRANCH   2   7
TORSDOF 19
ENDMDL
MODEL       27
REMARK 921   NORMALIZED FREE ENERGY PREDICTED BY IDOCK:   -5.56 KCAL/MOL
REMARK 922        TOTAL FREE ENERGY PREDICTED BY IDOCK:  -13.92 KCAL/MOL
REMARK 923 INTER-LIGAND FREE ENERGY PREDICTED BY IDOCK:  -11.86 KCAL/MOL
REMARK 924 INTRA-LIGAND FREE ENERGY PREDICTED BY IDOCK:   -2.06 KCAL/MOL
REMARK 927      BINDING AFFINITY PREDICTED BY RF-SCORE:    0.00 PKD
ROOT
HETATM    1  C   UNL     1      -8.540  16.464  68.245  1.00  0.00    -0.200 C  
HETATM    2  C   UNL     1      -9.622  16.902  67.241  1.00  0.00    -0.246 C  
HETATM    3  C   UNL     1     -11.025  16.611  67.830  1.00  0.00    -0.276 C  
ENDROOT
BRANCH   2   4
HETATM    4  C   UNL     1      -9.535  18.430  67.043  1.00  0.00    -0.281 C  
HETATM    5  O   UNL     1     -10.828  19.007  66.879  1.00  0.00    -0.419 OA 
HETATM    6  H   UNL     1     -10.774  19.948  66.757  1.00  0.00     0.000 HD 
ENDBRANCH   2   4
BRANCH   2   7
HETATM    7  C   UNL     1      -9.448  16.182  65.867  1.00  0.00    -0.302 C  
HETATM    8  O   UNL     1      -8.883  14.866  65.995  1.00  0.00    -0.467 OA 
HETATM    9  H   UNL     1      -8.777  14.428  65.159  1.00  0.00     0.000 HD 
BRANCH   7  10
HETATM   10  C   UNL     1     -10.739  16.053  65.030  1.00  0.00    -0.378 C  
HETATM   11  O   UNL     1     -11.215  16.947  64.336  1.00  0.00    -1.159 OA 
HETATM   12  N   UNL     1     -11.286  14.789  65.073  1.00  0.00    -0.374 N  
HETATM   13  H   UNL     1     -10.900  14.095  65.713  1.00  0.00     0.000 HD 
BRANCH  12  14
HETATM   14  C   UNL     1     -12.401  14.435  64.223  1.00  0.00    -0.373 C  
BRANCH  14  15
HETATM   15  C   UNL     1     -12.240  13.074  63.554  1.00  0.00    -0.580 C  
BRANCH  15  16
HETATM   16  C   UNL     1     -10.949  12.449  64.035  1.00  0.00    -0.391 C  
HETATM   17  O   UNL     1      -9.859  12.792  63.588  1.00  0.00    -0.271 OA 
HETATM   18  N   UNL     1     -11.111  11.501  65.019  1.00  0.00    -0.244 N  
HETATM   19  H   UNL     1     -12.060  11.328  65.351  1.00  0.00     0.000 HD 
BRANCH  18  20
HETATM   20  C   UNL     1     -10.031  10.720  65.628  1.00  0.00    -0.260 C  
BRANCH  20  21
HETATM   21  C   UNL     1     -10.047  10.577  67.153  1.00  0.00    -0.209 C  
BRANCH  21  22
HETATM   22  S   UNL     1      -9.807  12.139  68.084  1.00  0.00    -0.209 SA 
BRANCH  22  23
HETATM   23  S   UNL     1     -11.718  12.863  68.347  1.00  0.00    -0.343 SA 
BRANCH  23  24
HETATM   24  C   UNL     1     -11.982  12.554  70.125  1.00  0.00    -0.301 C  
BRANCH  24  25
HETATM   25  C   UNL     1     -12.278  11.077  70.391  1.00  0.00    -0.373 C  
BRANCH  25  26
HETATM   26  N   UNL     1     -11.125  10.286  70.813  1.00  0.00    -0.380 N  
HETATM   27  H   UNL     1     -10.202  10.564  70.478  1.00  0.00     0.000 HD 
HETATM   28  C   UNL     1     -11.215   9.185  71.638  1.00  0.00    -0.377 C  
HETATM   29  O   UNL     1     -12.275   8.729  72.053  1.00  0.00    -0.329 OA 
BRANCH  28  30
HETATM   30  C   UNL     1      -9.883   8.589  72.035  1.00  0.00    -0.383 C  
BRANCH  30  31
HETATM   31  C   UNL     1      -9.803   7.140  71.565  1.00  0.00    -0.171 C  
BRANCH  31  32
HETATM   32  N   UNL     1      -9.671   7.039  70.124  1.00  0.00    -0.175 N  
HETATM   33  H   UNL     1      -8.786   7.306  69.692  1.00  0.00     0.000 HD 
HETATM   34  C   UNL     1     -10.695   6.598  69.319  1.00  0.00    -0.265 C  
HETATM   35  O   UNL     1     -11.822   6.342  69.735  1.00  0.00    -0.357 OA 
BRANCH  34  36
HETATM   36  C   UNL     1     -10.326   6.519  67.821  1.00  0.00    -0.192 C  
HETATM   37  O   UNL     1     -11.508   6.648  67.017  1.00  0.00    -0.763 OA 
HETATM   38  H   UNL     1     -11.281   6.599  66.096  1.00  0.00     0.000 HD 
BRANCH  36  39
HETATM   39  C   UNL     1      -9.560   5.221  67.441  1.00  0.00    -0.146 C  
HETATM   40  C   UNL     1      -9.561   4.205  68.602  1.00  0.00    -0.199 C  
HETATM   41  C   UNL     1     -10.277   4.553  66.244  1.00  0.00    -0.270 C  
BRANCH  39  42
HETATM   42  C   UNL     1      -8.106   5.564  67.036  1.00  0.00    -0.101 C  
HETATM   43  O   UNL     1      -7.569   6.614  67.834  1.00  0.00    -0.102 OA 
HETATM   44  H   UNL     1      -6.676   6.826  67.585  1.00  0.00     0.000 HD 
ENDBRANCH  39  42
ENDBRANCH  36  39
ENDBRANCH  34  36
ENDBRANCH  31  32
ENDBRANCH  30  31
ENDBRANCH  28  30
ENDBRANCH  25  26
ENDBRANCH  24  25
ENDBRANCH  23  24
ENDBRANCH  22  23
ENDBRANCH  21  22
ENDBRANCH  20  21
ENDBRANCH  18  20
ENDBRANCH  15  16
ENDBRANCH  14  15
ENDBRANCH  12  14
ENDBRANCH   7  10
ENDBRANCH   2   7
TORSDOF 19
ENDMDL
MODEL       28
REMARK 921   NORMALIZED FREE ENERGY PREDICTED BY IDOCK:   -5.53 KCAL/MOL
REMARK 922        TOTAL FREE ENERGY PREDICTED BY IDOCK:  -13.86 KCAL/MOL
REMARK 923 INTER-LIGAND FREE ENERGY PREDICTED BY IDOCK:  -11.66 KCAL/MOL
REMARK 924 INTRA-LIGAND FREE ENERGY PREDICTED BY IDOCK:   -2.19 KCAL/MOL
REMARK 927      BINDING AFFINITY PREDICTED BY RF-SCORE:    0.00 PKD
ROOT
HETATM    1  C   UNL     1      -9.777   7.836  71.773  1.00  0.00    -0.206 C  
HETATM    2  C   UNL     1     -10.843   6.725  71.758  1.00  0.00    -0.257 C  
HETATM    3  C   UNL     1     -10.370   5.564  70.848  1.00  0.00    -0.310 C  
ENDROOT
BRANCH   2   4
HETATM    4  C   UNL     1     -10.983   6.143  73.180  1.00  0.00    -0.231 C  
HETATM    5  O   UNL     1     -11.486   4.810  73.148  1.00  0.00    -0.309 OA 
HETATM    6  H   UNL     1     -11.573   4.451  74.023  1.00  0.00     0.000 HD 
ENDBRANCH   2   4
BRANCH   2   7
HETATM    7  C   UNL     1     -12.224   7.269  71.273  1.00  0.00    -0.354 C  
HETATM    8  O   UNL     1     -13.328   6.740  72.026  1.00  0.00    -0.526 OA 
HETATM    9  H   UNL     1     -14.167   7.071  71.732  1.00  0.00     0.000 HD 
BRANCH   7  10
HETATM   10  C   UNL     1     -12.356   8.809  71.276  1.00  0.00    -0.270 C  
HETATM   11  O   UNL     1     -12.666   9.481  72.256  1.00  0.00    -0.363 OA 
HETATM   12  N   UNL     1     -12.018   9.382  70.071  1.00  0.00    -0.444 N  
HETATM   13  H   UNL     1     -11.832   8.786  69.264  1.00  0.00     0.000 HD 
BRANCH  12  14
HETATM   14  C   UNL     1     -11.923  10.819  69.934  1.00  0.00    -0.342 C  
BRANCH  14  15
HETATM   15  C   UNL     1     -11.456  11.263  68.552  1.00  0.00    -0.372 C  
BRANCH  15  16
HETATM   16  C   UNL     1      -9.975  10.982  68.430  1.00  0.00    -0.186 C  
HETATM   17  O   UNL     1      -9.330  10.492  69.352  1.00  0.00    -0.190 OA 
HETATM   18  N   UNL     1      -9.439  11.297  67.202  1.00  0.00    -0.169 N  
HETATM   19  H   UNL     1     -10.076  11.654  66.490  1.00  0.00     0.000 HD 
BRANCH  18  20
HETATM   20  C   UNL     1      -8.027  11.160  66.834  1.00  0.00    -0.151 C  
BRANCH  20  21
HETATM   21  C   UNL     1      -7.605   9.853  66.157  1.00  0.00    -0.104 C  
BRANCH  21  22
HETATM   22  S   UNL     1      -6.322  10.028  64.858  1.00  0.00    -0.124 SA 
BRANCH  22  23
HETATM   23  S   UNL     1      -7.161   9.134  63.202  1.00  0.00    -0.087 SA 
BRANCH  23  24
HETATM   24  C   UNL     1      -8.219  10.473  62.562  1.00  0.00    -0.186 C  
BRANCH  24  25
HETATM   25  C   UNL     1      -9.588  10.470  63.246  1.00  0.00    -0.331 C  
BRANCH  25  26
HETATM   26  N   UNL     1     -10.442  11.608  62.915  1.00  0.00    -0.664 N  
HETATM   27  H   UNL     1     -10.391  11.990  61.971  1.00  0.00     0.000 HD 
HETATM   28  C   UNL     1     -11.313  12.194  63.809  1.00  0.00    -0.451 C  
HETATM   29  O   UNL     1     -11.416  11.854  64.983  1.00  0.00    -0.309 OA 
BRANCH  28  30
HETATM   30  C   UNL     1     -12.179  13.283  63.218  1.00  0.00    -0.387 C  
BRANCH  30  31
HETATM   31  C   UNL     1     -12.488  14.333  64.280  1.00  0.00    -0.272 C  
BRANCH  31  32
HETATM   32  N   UNL     1     -11.333  14.631  65.107  1.00  0.00    -0.359 N  
HETATM   33  H   UNL     1     -10.992  13.916  65.750  1.00  0.00     0.000 HD 
HETATM   34  C   UNL     1     -10.682  15.841  65.055  1.00  0.00    -0.421 C  
HETATM   35  O   UNL     1     -11.071  16.791  64.383  1.00  0.00    -1.072 OA 
BRANCH  34  36
HETATM   36  C   UNL     1      -9.448  15.928  65.980  1.00  0.00    -0.354 C  
HETATM   37  O   UNL     1      -8.832  14.636  66.101  1.00  0.00    -0.476 OA 
HETATM   38  H   UNL     1      -8.073  14.690  66.670  1.00  0.00     0.000 HD 
BRANCH  36  39
HETATM   39  C   UNL     1      -9.770  16.500  67.389  1.00  0.00    -0.246 C  
HETATM   40  C   UNL     1      -8.508  17.066  68.071  1.00  0.00    -0.216 C  
HETATM   41  C   UNL     1     -10.772  17.668  67.234  1.00  0.00    -0.234 C  
BRANCH  39  42
HETATM   42  C   UNL     1     -10.405  15.400  68.273  1.00  0.00    -0.238 C  
HETATM   43  O   UNL     1     -11.828  15.435  68.223  1.00  0.00    -0.451 OA 
HETATM   44  H   UNL     1     -12.217  14.760  68.766  1.00  0.00     0.000 HD 
ENDBRANCH  39  42
ENDBRANCH  36  39
ENDBRANCH  34  36
ENDBRANCH  31  32
ENDBRANCH  30  31
ENDBRANCH  28  30
ENDBRANCH  25  26
ENDBRANCH  24  25
ENDBRANCH  23  24
ENDBRANCH  22  23
ENDBRANCH  21  22
ENDBRANCH  20  21
ENDBRANCH  18  20
ENDBRANCH  15  16
ENDBRANCH  14  15
ENDBRANCH  12  14
ENDBRANCH   7  10
ENDBRANCH   2   7
TORSDOF 19
ENDMDL
MODEL       29
REMARK 921   NORMALIZED FREE ENERGY PREDICTED BY IDOCK:   -5.53 KCAL/MOL
REMARK 922        TOTAL FREE ENERGY PREDICTED BY IDOCK:  -13.85 KCAL/MOL
REMARK 923 INTER-LIGAND FREE ENERGY PREDICTED BY IDOCK:  -10.76 KCAL/MOL
REMARK 924 INTRA-LIGAND FREE ENERGY PREDICTED BY IDOCK:   -3.09 KCAL/MOL
REMARK 927      BINDING AFFINITY PREDICTED BY RF-SCORE:    0.00 PKD
ROOT
HETATM    1  C   UNL     1      -6.248  11.852  69.622  1.00  0.00    -0.129 C  
HETATM    2  C   UNL     1      -6.476  11.060  68.321  1.00  0.00    -0.057 C  
HETATM    3  C   UNL     1      -5.296  10.082  68.096  1.00  0.00    -0.035 C  
ENDROOT
BRANCH   2   4
HETATM    4  C   UNL     1      -7.744  10.193  68.476  1.00  0.00    -0.090 C  
HETATM    5  O   UNL     1      -7.820   9.198  67.457  1.00  0.00    -0.099 OA 
HETATM    6  H   UNL     1      -8.601   8.665  67.552  1.00  0.00     0.000 HD 
ENDBRANCH   2   4
BRANCH   2   7
HETATM    7  C   UNL     1      -6.637  12.013  67.096  1.00  0.00    -0.143 C  
HETATM    8  O   UNL     1      -7.172  11.349  65.939  1.00  0.00    -0.366 OA 
HETATM    9  H   UNL     1      -7.269  11.929  65.193  1.00  0.00     0.000 HD 
BRANCH   7  10
HETATM   10  C   UNL     1      -7.502  13.267  67.353  1.00  0.00    -0.124 C  
HETATM   11  O   UNL     1      -8.675  13.244  67.715  1.00  0.00    -0.170 OA 
HETATM   12  N   UNL     1      -6.803  14.444  67.206  1.00  0.00    -0.168 N  
HETATM   13  H   UNL     1      -5.852  14.423  66.839  1.00  0.00     0.000 HD 
BRANCH  12  14
HETATM   14  C   UNL     1      -7.402  15.711  67.565  1.00  0.00    -0.185 C  
BRANCH  14  15
HETATM   15  C   UNL     1      -7.983  16.462  66.372  1.00  0.00    -0.329 C  
BRANCH  15  16
HETATM   16  C   UNL     1      -9.488  16.509  66.516  1.00  0.00    -0.273 C  
HETATM   17  O   UNL     1     -10.206  16.995  65.649  1.00  0.00    -0.556 OA 
HETATM   18  N   UNL     1      -9.963  15.940  67.676  1.00  0.00    -0.235 N  
HETATM   19  H   UNL     1      -9.280  15.522  68.306  1.00  0.00     0.000 HD 
BRANCH  18  20
HETATM   20  C   UNL     1     -11.371  15.889  68.078  1.00  0.00    -0.284 C  
BRANCH  20  21
HETATM   21  C   UNL     1     -11.720  15.018  69.288  1.00  0.00    -0.323 C  
BRANCH  21  22
HETATM   22  S   UNL     1     -11.715  15.888  70.902  1.00  0.00    -0.417 SA 
BRANCH  22  23
HETATM   23  S   UNL     1     -13.559  15.452  71.712  1.00  0.00    -0.509 SA 
BRANCH  23  24
HETATM   24  C   UNL     1     -13.164  14.017  72.765  1.00  0.00    -0.481 C  
BRANCH  24  25
HETATM   25  C   UNL     1     -13.751  12.728  72.185  1.00  0.00    -0.362 C  
BRANCH  25  26
HETATM   26  N   UNL     1     -12.940  12.099  71.145  1.00  0.00    -0.225 N  
HETATM   27  H   UNL     1     -12.694  12.653  70.325  1.00  0.00     0.000 HD 
HETATM   28  C   UNL     1     -12.491  10.797  71.212  1.00  0.00    -0.399 C  
HETATM   29  O   UNL     1     -12.772  10.024  72.122  1.00  0.00    -0.363 OA 
BRANCH  28  30
HETATM   30  C   UNL     1     -11.574  10.392  70.080  1.00  0.00    -0.392 C  
BRANCH  30  31
HETATM   31  C   UNL     1     -11.405  11.556  69.110  1.00  0.00    -0.286 C  
BRANCH  31  32
HETATM   32  N   UNL     1     -11.059  11.109  67.773  1.00  0.00    -0.263 N  
HETATM   33  H   UNL     1     -10.490  10.269  67.668  1.00  0.00     0.000 HD 
HETATM   34  C   UNL     1     -11.470  11.777  66.644  1.00  0.00    -0.267 C  
HETATM   35  O   UNL     1     -12.078  12.843  66.670  1.00  0.00    -0.408 OA 
BRANCH  34  36
HETATM   36  C   UNL     1     -11.035  11.102  65.324  1.00  0.00    -0.083 C  
HETATM   37  O   UNL     1      -9.790  10.412  65.513  1.00  0.00    -0.232 OA 
HETATM   38  H   UNL     1      -9.523   9.997  64.701  1.00  0.00     0.000 HD 
BRANCH  36  39
HETATM   39  C   UNL     1     -10.922  12.093  64.131  1.00  0.00    -0.416 C  
HETATM   40  C   UNL     1      -9.904  11.599  63.083  1.00  0.00    -0.407 C  
HETATM   41  C   UNL     1     -12.297  12.186  63.430  1.00  0.00    -0.648 C  
BRANCH  39  42
HETATM   42  C   UNL     1     -10.517  13.495  64.646  1.00  0.00    -0.421 C  
HETATM   43  O   UNL     1     -11.334  14.520  64.089  1.00  0.00    -0.614 OA 
HETATM   44  H   UNL     1     -11.086  15.381  64.405  1.00  0.00     0.000 HD 
ENDBRANCH  39  42
ENDBRANCH  36  39
ENDBRANCH  34  36
ENDBRANCH  31  32
ENDBRANCH  30  31
ENDBRANCH  28  30
ENDBRANCH  25  26
ENDBRANCH  24  25
ENDBRANCH  23  24
ENDBRANCH  22  23
ENDBRANCH  21  22
ENDBRANCH  20  21
ENDBRANCH  18  20
ENDBRANCH  15  16
ENDBRANCH  14  15
ENDBRANCH  12  14
ENDBRANCH   7  10
ENDBRANCH   2   7
TORSDOF 19
ENDMDL
MODEL       30
REMARK 921   NORMALIZED FREE ENERGY PREDICTED BY IDOCK:   -5.52 KCAL/MOL
REMARK 922        TOTAL FREE ENERGY PREDICTED BY IDOCK:  -13.83 KCAL/MOL
REMARK 923 INTER-LIGAND FREE ENERGY PREDICTED BY IDOCK:  -12.16 KCAL/MOL
REMARK 924 INTRA-LIGAND FREE ENERGY PREDICTED BY IDOCK:   -1.67 KCAL/MOL
REMARK 927      BINDING AFFINITY PREDICTED BY RF-SCORE:    0.00 PKD
ROOT
HETATM    1  C   UNL     1     -11.564   6.535  70.439  1.00  0.00    -0.470 C  
HETATM    2  C   UNL     1     -10.839   6.524  71.797  1.00  0.00    -0.277 C  
HETATM    3  C   UNL     1     -11.529   5.513  72.746  1.00  0.00    -0.339 C  
ENDROOT
BRANCH   2   4
HETATM    4  C   UNL     1      -9.394   6.022  71.593  1.00  0.00    -0.148 C  
HETATM    5  O   UNL     1      -9.348   4.936  70.670  1.00  0.00    -0.145 OA 
HETATM    6  H   UNL     1      -8.458   4.627  70.544  1.00  0.00     0.000 HD 
ENDBRANCH   2   4
BRANCH   2   7
HETATM    7  C   UNL     1     -10.815   7.947  72.440  1.00  0.00    -0.317 C  
HETATM    8  O   UNL     1      -9.643   8.700  72.086  1.00  0.00    -0.287 OA 
HETATM    9  H   UNL     1      -9.629   9.565  72.477  1.00  0.00     0.000 HD 
BRANCH   7  10
HETATM   10  C   UNL     1     -12.045   8.827  72.123  1.00  0.00    -0.371 C  
HETATM   11  O   UNL     1     -13.187   8.595  72.507  1.00  0.00    -0.361 OA 
HETATM   12  N   UNL     1     -11.726   9.963  71.413  1.00  0.00    -0.381 N  
HETATM   13  H   UNL     1     -10.779  10.085  71.055  1.00  0.00     0.000 HD 
BRANCH  12  14
HETATM   14  C   UNL     1     -12.719  10.986  71.168  1.00  0.00    -0.419 C  
BRANCH  14  15
HETATM   15  C   UNL     1     -12.146  12.234  70.504  1.00  0.00    -0.371 C  
BRANCH  15  16
HETATM   16  C   UNL     1     -11.465  11.827  69.217  1.00  0.00    -0.306 C  
HETATM   17  O   UNL     1     -11.987  11.046  68.427  1.00  0.00    -0.565 OA 
HETATM   18  N   UNL     1     -10.243  12.426  69.010  1.00  0.00    -0.427 N  
HETATM   19  H   UNL     1      -9.926  13.096  69.708  1.00  0.00     0.000 HD 
BRANCH  18  20
HETATM   20  C   UNL     1      -9.362  12.177  67.866  1.00  0.00    -0.192 C  
BRANCH  20  21
HETATM   21  C   UNL     1      -8.316  11.069  68.018  1.00  0.00    -0.125 C  
BRANCH  21  22
HETATM   22  S   UNL     1      -8.067  10.023  66.531  1.00  0.00    -0.121 SA 
BRANCH  22  23
HETATM   23  S   UNL     1      -9.918   9.991  65.627  1.00  0.00    -0.259 SA 
BRANCH  23  24
HETATM   24  C   UNL     1      -9.519  10.610  63.959  1.00  0.00    -0.285 C  
BRANCH  24  25
HETATM   25  C   UNL     1     -10.393  11.812  63.592  1.00  0.00    -0.434 C  
BRANCH  25  26
HETATM   26  N   UNL     1     -10.049  13.054  64.280  1.00  0.00    -0.617 N  
HETATM   27  H   UNL     1      -9.123  13.451  64.123  1.00  0.00     0.000 HD 
HETATM   28  C   UNL     1     -10.908  13.718  65.130  1.00  0.00    -0.345 C  
HETATM   29  O   UNL     1     -12.022  13.304  65.434  1.00  0.00    -0.352 OA 
BRANCH  28  30
HETATM   30  C   UNL     1     -10.385  15.041  65.641  1.00  0.00    -0.374 C  
BRANCH  30  31
HETATM   31  C   UNL     1     -11.206  15.492  66.845  1.00  0.00    -0.159 C  
BRANCH  31  32
HETATM   32  N   UNL     1     -10.442  16.339  67.741  1.00  0.00    -0.288 N  
HETATM   33  H   UNL     1     -10.081  15.939  68.607  1.00  0.00     0.000 HD 
HETATM   34  C   UNL     1     -10.186  17.662  67.466  1.00  0.00    -0.348 C  
HETATM   35  O   UNL     1     -10.654  18.255  66.498  1.00  0.00    -0.362 OA 
BRANCH  34  36
HETATM   36  C   UNL     1      -9.312  18.366  68.527  1.00  0.00    -0.335 C  
HETATM   37  O   UNL     1     -10.089  19.350  69.229  1.00  0.00    -0.562 OA 
HETATM   38  H   UNL     1      -9.551  19.783  69.881  1.00  0.00     0.000 HD 
BRANCH  36  39
HETATM   39  C   UNL     1      -8.030  19.018  67.939  1.00  0.00    -0.307 C  
HETATM   40  C   UNL     1      -8.357  20.314  67.170  1.00  0.00    -0.394 C  
HETATM   41  C   UNL     1      -7.086  19.399  69.104  1.00  0.00    -0.384 C  
BRANCH  39  42
HETATM   42  C   UNL     1      -7.308  18.015  67.007  1.00  0.00    -0.202 C  
HETATM   43  O   UNL     1      -7.625  18.242  65.637  1.00  0.00    -0.532 OA 
HETATM   44  H   UNL     1      -7.182  17.626  65.065  1.00  0.00     0.000 HD 
ENDBRANCH  39  42
ENDBRANCH  36  39
ENDBRANCH  34  36
ENDBRANCH  31  32
ENDBRANCH  30  31
ENDBRANCH  28  30
ENDBRANCH  25  26
ENDBRANCH  24  25
ENDBRANCH  23  24
ENDBRANCH  22  23
ENDBRANCH  21  22
ENDBRANCH  20  21
ENDBRANCH  18  20
ENDBRANCH  15  16
ENDBRANCH  14  15
ENDBRANCH  12  14
ENDBRANCH   7  10
ENDBRANCH   2   7
TORSDOF 19
ENDMDL
MODEL       31
REMARK 921   NORMALIZED FREE ENERGY PREDICTED BY IDOCK:   -5.52 KCAL/MOL
REMARK 922        TOTAL FREE ENERGY PREDICTED BY IDOCK:  -13.83 KCAL/MOL
REMARK 923 INTER-LIGAND FREE ENERGY PREDICTED BY IDOCK:  -11.15 KCAL/MOL
REMARK 924 INTRA-LIGAND FREE ENERGY PREDICTED BY IDOCK:   -2.68 KCAL/MOL
REMARK 927      BINDING AFFINITY PREDICTED BY RF-SCORE:    0.00 PKD
ROOT
HETATM    1  C   UNL     1     -11.713  12.673  67.079  1.00  0.00    -0.438 C  
HETATM    2  C   UNL     1     -10.521  11.712  66.907  1.00  0.00    -0.262 C  
HETATM    3  C   UNL     1     -10.941  10.284  67.335  1.00  0.00    -0.317 C  
ENDROOT
BRANCH   2   4
HETATM    4  C   UNL     1     -10.149  11.634  65.412  1.00  0.00    -0.259 C  
HETATM    5  O   UNL     1      -9.816  12.919  64.892  1.00  0.00    -0.499 OA 
HETATM    6  H   UNL     1      -9.587  12.870  63.971  1.00  0.00     0.000 HD 
ENDBRANCH   2   4
BRANCH   2   7
HETATM    7  C   UNL     1      -9.285  12.187  67.734  1.00  0.00    -0.189 C  
HETATM    8  O   UNL     1      -9.652  12.853  68.954  1.00  0.00    -0.411 OA 
HETATM    9  H   UNL     1      -8.900  13.141  69.456  1.00  0.00     0.000 HD 
BRANCH   7  10
HETATM   10  C   UNL     1      -8.277  11.074  68.098  1.00  0.00    -0.124 C  
HETATM   11  O   UNL     1      -7.470  10.580  67.316  1.00  0.00    -0.092 OA 
HETATM   12  N   UNL     1      -8.314  10.727  69.430  1.00  0.00    -0.368 N  
HETATM   13  H   UNL     1      -9.043  11.113  70.031  1.00  0.00     0.000 HD 
BRANCH  12  14
HETATM   14  C   UNL     1      -7.332   9.824  69.988  1.00  0.00    -0.144 C  
BRANCH  14  15
HETATM   15  C   UNL     1      -7.796   8.371  70.013  1.00  0.00    -0.103 C  
BRANCH  15  16
HETATM   16  C   UNL     1      -8.510   8.114  71.321  1.00  0.00    -0.132 C  
HETATM   17  O   UNL     1      -8.525   8.945  72.224  1.00  0.00    -0.391 OA 
HETATM   18  N   UNL     1      -9.149   6.898  71.388  1.00  0.00    -0.148 N  
HETATM   19  H   UNL     1      -9.112   6.303  70.560  1.00  0.00     0.000 HD 
BRANCH  18  20
HETATM   20  C   UNL     1      -9.877   6.387  72.552  1.00  0.00    -0.166 C  
BRANCH  20  21
HETATM   21  C   UNL     1     -11.338   5.980  72.338  1.00  0.00    -0.301 C  
BRANCH  21  22
HETATM   22  S   UNL     1     -12.306   7.093  71.248  1.00  0.00    -0.379 SA 
BRANCH  22  23
HETATM   23  S   UNL     1     -12.249   8.913  72.214  1.00  0.00    -0.303 SA 
BRANCH  23  24
HETATM   24  C   UNL     1     -11.644  10.009  70.889  1.00  0.00    -0.378 C  
BRANCH  24  25
HETATM   25  C   UNL     1     -12.613  11.168  70.646  1.00  0.00    -0.318 C  
BRANCH  25  26
HETATM   26  N   UNL     1     -11.994  12.491  70.618  1.00  0.00    -0.513 N  
HETATM   27  H   UNL     1     -11.105  12.596  70.128  1.00  0.00     0.000 HD 
HETATM   28  C   UNL     1     -12.544  13.605  71.217  1.00  0.00    -0.351 C  
HETATM   29  O   UNL     1     -13.577  13.583  71.877  1.00  0.00    -0.406 OA 
BRANCH  28  30
HETATM   30  C   UNL     1     -11.789  14.889  70.963  1.00  0.00    -0.380 C  
BRANCH  30  31
HETATM   31  C   UNL     1     -12.157  15.444  69.590  1.00  0.00    -0.327 C  
BRANCH  31  32
HETATM   32  N   UNL     1     -11.391  16.630  69.256  1.00  0.00    -0.263 N  
HETATM   33  H   UNL     1     -11.740  17.540  69.555  1.00  0.00     0.000 HD 
HETATM   34  C   UNL     1     -10.212  16.570  68.551  1.00  0.00    -0.266 C  
HETATM   35  O   UNL     1      -9.760  15.534  68.072  1.00  0.00    -0.207 OA 
BRANCH  34  36
HETATM   36  C   UNL     1      -9.533  17.943  68.349  1.00  0.00    -0.303 C  
HETATM   37  O   UNL     1     -10.384  18.989  68.843  1.00  0.00    -0.501 OA 
HETATM   38  H   UNL     1      -9.967  19.834  68.718  1.00  0.00     0.000 HD 
BRANCH  36  39
HETATM   39  C   UNL     1      -9.140  18.227  66.872  1.00  0.00    -0.282 C  
HETATM   40  C   UNL     1      -7.947  17.356  66.428  1.00  0.00    -0.325 C  
HETATM   41  C   UNL     1     -10.337  17.866  65.961  1.00  0.00    -0.318 C  
BRANCH  39  42
HETATM   42  C   UNL     1      -8.800  19.726  66.694  1.00  0.00    -0.359 C  
HETATM   43  O   UNL     1      -9.897  20.458  66.158  1.00  0.00    -0.621 OA 
HETATM   44  H   UNL     1      -9.688  21.379  66.049  1.00  0.00     0.000 HD 
ENDBRANCH  39  42
ENDBRANCH  36  39
ENDBRANCH  34  36
ENDBRANCH  31  32
ENDBRANCH  30  31
ENDBRANCH  28  30
ENDBRANCH  25  26
ENDBRANCH  24  25
ENDBRANCH  23  24
ENDBRANCH  22  23
ENDBRANCH  21  22
ENDBRANCH  20  21
ENDBRANCH  18  20
ENDBRANCH  15  16
ENDBRANCH  14  15
ENDBRANCH  12  14
ENDBRANCH   7  10
ENDBRANCH   2   7
TORSDOF 19
ENDMDL
MODEL       32
REMARK 921   NORMALIZED FREE ENERGY PREDICTED BY IDOCK:   -5.49 KCAL/MOL
REMARK 922        TOTAL FREE ENERGY PREDICTED BY IDOCK:  -13.78 KCAL/MOL
REMARK 923 INTER-LIGAND FREE ENERGY PREDICTED BY IDOCK:  -11.70 KCAL/MOL
REMARK 924 INTRA-LIGAND FREE ENERGY PREDICTED BY IDOCK:   -2.07 KCAL/MOL
REMARK 927      BINDING AFFINITY PREDICTED BY RF-SCORE:    0.00 PKD
ROOT
HETATM    1  C   UNL     1     -13.435   7.043  71.258  1.00  0.00    -0.265 C  
HETATM    2  C   UNL     1     -11.952   6.931  71.657  1.00  0.00    -0.379 C  
HETATM    3  C   UNL     1     -11.745   5.673  72.537  1.00  0.00    -0.255 C  
ENDROOT
BRANCH   2   4
HETATM    4  C   UNL     1     -11.102   6.724  70.385  1.00  0.00    -0.308 C  
HETATM    5  O   UNL     1     -11.917   6.695  69.216  1.00  0.00    -0.545 OA 
HETATM    6  H   UNL     1     -11.394   6.567  68.433  1.00  0.00     0.000 HD 
ENDBRANCH   2   4
BRANCH   2   7
HETATM    7  C   UNL     1     -11.468   8.209  72.411  1.00  0.00    -0.397 C  
HETATM    8  O   UNL     1     -10.411   7.938  73.347  1.00  0.00    -0.311 OA 
HETATM    9  H   UNL     1     -10.116   8.716  73.805  1.00  0.00     0.000 HD 
BRANCH   7  10
HETATM   10  C   UNL     1     -10.997   9.365  71.501  1.00  0.00    -0.359 C  
HETATM   11  O   UNL     1      -9.872   9.462  71.020  1.00  0.00    -0.283 OA 
HETATM   12  N   UNL     1     -11.998  10.265  71.210  1.00  0.00    -0.373 N  
HETATM   13  H   UNL     1     -12.899  10.187  71.682  1.00  0.00     0.000 HD 
BRANCH  12  14
HETATM   14  C   UNL     1     -11.789  11.319  70.242  1.00  0.00    -0.357 C  
BRANCH  14  15
HETATM   15  C   UNL     1     -12.142  10.908  68.817  1.00  0.00    -0.124 C  
BRANCH  15  16
HETATM   16  C   UNL     1     -10.862  10.636  68.060  1.00  0.00    -0.261 C  
HETATM   17  O   UNL     1     -10.147  11.545  67.651  1.00  0.00    -0.181 OA 
HETATM   18  N   UNL     1     -10.569   9.300  67.904  1.00  0.00    -0.342 N  
HETATM   19  H   UNL     1     -11.208   8.628  68.327  1.00  0.00     0.000 HD 
BRANCH  18  20
HETATM   20  C   UNL     1      -9.413   8.767  67.179  1.00  0.00    -0.162 C  
BRANCH  20  21
HETATM   21  C   UNL     1      -9.440   8.866  65.651  1.00  0.00    -0.159 C  
BRANCH  21  22
HETATM   22  S   UNL     1      -8.418  10.213  64.941  1.00  0.00    -0.180 SA 
BRANCH  22  23
HETATM   23  S   UNL     1      -9.397  10.716  63.198  1.00  0.00    -0.347 SA 
BRANCH  23  24
HETATM   24  C   UNL     1     -10.893  11.534  63.844  1.00  0.00    -0.401 C  
BRANCH  24  25
HETATM   25  C   UNL     1     -10.613  12.997  64.198  1.00  0.00    -0.397 C  
BRANCH  25  26
HETATM   26  N   UNL     1     -10.940  13.368  65.572  1.00  0.00    -0.281 N  
HETATM   27  H   UNL     1     -10.252  13.174  66.300  1.00  0.00     0.000 HD 
HETATM   28  C   UNL     1     -12.126  13.968  65.940  1.00  0.00    -0.428 C  
HETATM   29  O   UNL     1     -13.045  14.196  65.160  1.00  0.00    -0.757 OA 
BRANCH  28  30
HETATM   30  C   UNL     1     -12.201  14.367  67.396  1.00  0.00    -0.230 C  
BRANCH  30  31
HETATM   31  C   UNL     1     -10.812  14.741  67.902  1.00  0.00    -0.269 C  
BRANCH  31  32
HETATM   32  N   UNL     1     -10.600  16.177  67.908  1.00  0.00    -0.300 N  
HETATM   33  H   UNL     1     -11.347  16.785  67.572  1.00  0.00     0.000 HD 
HETATM   34  C   UNL     1      -9.430  16.747  68.351  1.00  0.00    -0.241 C  
HETATM   35  O   UNL     1      -8.444  16.097  68.686  1.00  0.00    -0.192 OA 
BRANCH  34  36
HETATM   36  C   UNL     1      -9.434  18.291  68.320  1.00  0.00    -0.308 C  
HETATM   37  O   UNL     1     -10.704  18.788  68.772  1.00  0.00    -0.298 OA 
HETATM   38  H   UNL     1     -10.706  19.738  68.752  1.00  0.00     0.000 HD 
BRANCH  36  39
HETATM   39  C   UNL     1      -9.095  18.883  66.923  1.00  0.00    -0.314 C  
HETATM   40  C   UNL     1      -8.225  17.914  66.096  1.00  0.00    -0.185 C  
HETATM   41  C   UNL     1     -10.412  19.099  66.142  1.00  0.00    -0.558 C  
BRANCH  39  42
HETATM   42  C   UNL     1      -8.371  20.241  67.086  1.00  0.00    -0.336 C  
HETATM   43  O   UNL     1      -9.288  21.330  67.114  1.00  0.00    -0.618 OA 
HETATM   44  H   UNL     1      -8.844  22.163  67.214  1.00  0.00     0.000 HD 
ENDBRANCH  39  42
ENDBRANCH  36  39
ENDBRANCH  34  36
ENDBRANCH  31  32
ENDBRANCH  30  31
ENDBRANCH  28  30
ENDBRANCH  25  26
ENDBRANCH  24  25
ENDBRANCH  23  24
ENDBRANCH  22  23
ENDBRANCH  21  22
ENDBRANCH  20  21
ENDBRANCH  18  20
ENDBRANCH  15  16
ENDBRANCH  14  15
ENDBRANCH  12  14
ENDBRANCH   7  10
ENDBRANCH   2   7
TORSDOF 19
ENDMDL
MODEL       33
REMARK 921   NORMALIZED FREE ENERGY PREDICTED BY IDOCK:   -5.48 KCAL/MOL
REMARK 922        TOTAL FREE ENERGY PREDICTED BY IDOCK:  -13.75 KCAL/MOL
REMARK 923 INTER-LIGAND FREE ENERGY PREDICTED BY IDOCK:  -10.75 KCAL/MOL
REMARK 924 INTRA-LIGAND FREE ENERGY PREDICTED BY IDOCK:   -3.00 KCAL/MOL
REMARK 927      BINDING AFFINITY PREDICTED BY RF-SCORE:    0.00 PKD
ROOT
HETATM    1  C   UNL     1     -10.992  11.679  65.634  1.00  0.00    -0.322 C  
HETATM    2  C   UNL     1     -11.157  12.268  64.221  1.00  0.00    -0.401 C  
HETATM    3  C   UNL     1      -9.938  11.874  63.349  1.00  0.00    -0.435 C  
ENDROOT
BRANCH   2   4
HETATM    4  C   UNL     1     -12.398  11.637  63.555  1.00  0.00    -0.238 C  
HETATM    5  O   UNL     1     -13.601  12.068  64.187  1.00  0.00    -0.519 OA 
HETATM    6  H   UNL     1     -14.365  11.679  63.777  1.00  0.00     0.000 HD 
ENDBRANCH   2   4
BRANCH   2   7
HETATM    7  C   UNL     1     -11.315  13.820  64.267  1.00  0.00    -0.326 C  
HETATM    8  O   UNL     1     -12.307  14.307  63.346  1.00  0.00    -1.113 OA 
HETATM    9  H   UNL     1     -12.404  15.251  63.375  1.00  0.00     0.000 HD 
BRANCH   7  10
HETATM   10  C   UNL     1     -11.650  14.401  65.659  1.00  0.00    -0.347 C  
HETATM   11  O   UNL     1     -12.610  14.063  66.344  1.00  0.00    -0.428 OA 
HETATM   12  N   UNL     1     -10.711  15.304  66.106  1.00  0.00    -0.314 N  
HETATM   13  H   UNL     1      -9.965  15.608  65.480  1.00  0.00     0.000 HD 
BRANCH  12  14
HETATM   14  C   UNL     1     -10.769  15.826  67.453  1.00  0.00    -0.317 C  
BRANCH  14  15
HETATM   15  C   UNL     1      -9.935  15.024  68.447  1.00  0.00    -0.225 C  
BRANCH  15  16
HETATM   16  C   UNL     1     -10.850  14.491  69.527  1.00  0.00    -0.184 C  
HETATM   17  O   UNL     1     -11.168  15.170  70.498  1.00  0.00    -0.266 OA 
HETATM   18  N   UNL     1     -11.303  13.211  69.303  1.00  0.00    -0.354 N  
HETATM   19  H   UNL     1     -11.014  12.756  68.438  1.00  0.00     0.000 HD 
BRANCH  18  20
HETATM   20  C   UNL     1     -12.166  12.449  70.209  1.00  0.00    -0.267 C  
BRANCH  20  21
HETATM   21  C   UNL     1     -12.039  10.923  70.177  1.00  0.00    -0.349 C  
BRANCH  21  22
HETATM   22  S   UNL     1     -13.102  10.027  71.373  1.00  0.00    -0.423 SA 
BRANCH  22  23
HETATM   23  S   UNL     1     -11.823   8.684  72.271  1.00  0.00    -0.336 SA 
BRANCH  23  24
HETATM   24  C   UNL     1     -12.480   7.095  71.665  1.00  0.00    -0.370 C  
BRANCH  24  25
HETATM   25  C   UNL     1     -11.439   6.350  70.827  1.00  0.00    -0.353 C  
BRANCH  25  26
HETATM   26  N   UNL     1     -11.543   6.565  69.386  1.00  0.00    -0.653 N  
HETATM   27  H   UNL     1     -12.431   6.899  69.012  1.00  0.00     0.000 HD 
HETATM   28  C   UNL     1     -10.506   6.341  68.504  1.00  0.00    -0.229 C  
HETATM   29  O   UNL     1      -9.416   5.888  68.835  1.00  0.00    -0.124 OA 
BRANCH  28  30
HETATM   30  C   UNL     1     -10.802   6.739  67.076  1.00  0.00    -0.453 C  
BRANCH  30  31
HETATM   31  C   UNL     1     -10.553   8.232  66.892  1.00  0.00    -0.232 C  
BRANCH  31  32
HETATM   32  N   UNL     1      -9.315   8.661  67.516  1.00  0.00    -0.135 N  
HETATM   33  H   UNL     1      -9.286   8.764  68.531  1.00  0.00     0.000 HD 
HETATM   34  C   UNL     1      -8.180   8.934  66.790  1.00  0.00    -0.111 C  
HETATM   35  O   UNL     1      -8.143   8.928  65.563  1.00  0.00    -0.102 OA 
BRANCH  34  36
HETATM   36  C   UNL     1      -6.961   9.325  67.655  1.00  0.00    -0.078 C  
HETATM   37  O   UNL     1      -6.960   8.563  68.873  1.00  0.00    -0.060 OA 
HETATM   38  H   UNL     1      -6.210   8.804  69.405  1.00  0.00     0.000 HD 
BRANCH  36  39
HETATM   39  C   UNL     1      -6.891  10.844  67.975  1.00  0.00    -0.068 C  
HETATM   40  C   UNL     1      -5.432  11.340  68.042  1.00  0.00    -0.042 C  
HETATM   41  C   UNL     1      -7.591  11.624  66.836  1.00  0.00    -0.138 C  
BRANCH  39  42
HETATM   42  C   UNL     1      -7.615  11.137  69.311  1.00  0.00    -0.055 C  
HETATM   43  O   UNL     1      -8.976  11.502  69.107  1.00  0.00    -0.380 OA 
HETATM   44  H   UNL     1      -9.421  11.682  69.927  1.00  0.00     0.000 HD 
ENDBRANCH  39  42
ENDBRANCH  36  39
ENDBRANCH  34  36
ENDBRANCH  31  32
ENDBRANCH  30  31
ENDBRANCH  28  30
ENDBRANCH  25  26
ENDBRANCH  24  25
ENDBRANCH  23  24
ENDBRANCH  22  23
ENDBRANCH  21  22
ENDBRANCH  20  21
ENDBRANCH  18  20
ENDBRANCH  15  16
ENDBRANCH  14  15
ENDBRANCH  12  14
ENDBRANCH   7  10
ENDBRANCH   2   7
TORSDOF 19
ENDMDL
MODEL       34
REMARK 921   NORMALIZED FREE ENERGY PREDICTED BY IDOCK:   -5.45 KCAL/MOL
REMARK 922        TOTAL FREE ENERGY PREDICTED BY IDOCK:  -13.69 KCAL/MOL
REMARK 923 INTER-LIGAND FREE ENERGY PREDICTED BY IDOCK:  -11.42 KCAL/MOL
REMARK 924 INTRA-LIGAND FREE ENERGY PREDICTED BY IDOCK:   -2.27 KCAL/MOL
REMARK 927      BINDING AFFINITY PREDICTED BY RF-SCORE:    0.00 PKD
ROOT
HETATM    1  C   UNL     1     -11.153   6.447  66.987  1.00  0.00    -0.405 C  
HETATM    2  C   UNL     1      -9.953   5.483  66.939  1.00  0.00    -0.204 C  
HETATM    3  C   UNL     1      -9.946   4.600  68.212  1.00  0.00    -0.130 C  
ENDROOT
BRANCH   2   4
HETATM    4  C   UNL     1     -10.123   4.527  65.740  1.00  0.00    -0.255 C  
HETATM    5  O   UNL     1     -11.449   4.580  65.218  1.00  0.00    -1.068 OA 
HETATM    6  H   UNL     1     -11.554   3.991  64.480  1.00  0.00     0.000 HD 
ENDBRANCH   2   4
BRANCH   2   7
HETATM    7  C   UNL     1      -8.605   6.259  66.807  1.00  0.00    -0.116 C  
HETATM    8  O   UNL     1      -7.702   5.653  65.866  1.00  0.00    -0.091 OA 
HETATM    9  H   UNL     1      -6.883   6.125  65.786  1.00  0.00     0.000 HD 
BRANCH   7  10
HETATM   10  C   UNL     1      -8.744   7.748  66.421  1.00  0.00    -0.150 C  
HETATM   11  O   UNL     1      -8.689   8.181  65.274  1.00  0.00    -0.147 OA 
HETATM   12  N   UNL     1      -9.015   8.562  67.499  1.00  0.00    -0.134 N  
HETATM   13  H   UNL     1      -8.987   8.174  68.443  1.00  0.00     0.000 HD 
BRANCH  12  14
HETATM   14  C   UNL     1      -9.340   9.958  67.311  1.00  0.00    -0.145 C  
BRANCH  14  15
HETATM   15  C   UNL     1     -10.834  10.210  67.132  1.00  0.00    -0.257 C  
BRANCH  15  16
HETATM   16  C   UNL     1     -11.025  11.596  66.558  1.00  0.00    -0.299 C  
HETATM   17  O   UNL     1     -10.510  11.934  65.497  1.00  0.00    -0.249 OA 
HETATM   18  N   UNL     1     -11.836  12.414  67.311  1.00  0.00    -0.344 N  
HETATM   19  H   UNL     1     -12.252  12.015  68.152  1.00  0.00     0.000 HD 
BRANCH  18  20
HETATM   20  C   UNL     1     -12.151  13.811  67.002  1.00  0.00    -0.397 C  
BRANCH  20  21
HETATM   21  C   UNL     1     -10.979  14.794  66.939  1.00  0.00    -0.328 C  
BRANCH  21  22
HETATM   22  S   UNL     1      -9.976  14.908  68.470  1.00  0.00    -0.229 SA 
BRANCH  22  23
HETATM   23  S   UNL     1     -10.695  16.591  69.416  1.00  0.00    -0.315 SA 
BRANCH  23  24
HETATM   24  C   UNL     1     -11.423  15.876  70.927  1.00  0.00    -0.409 C  
BRANCH  24  25
HETATM   25  C   UNL     1     -12.742  15.164  70.621  1.00  0.00    -0.398 C  
BRANCH  25  26
HETATM   26  N   UNL     1     -12.723  13.718  70.833  1.00  0.00    -0.336 N  
HETATM   27  H   UNL     1     -12.226  13.139  70.157  1.00  0.00     0.000 HD 
HETATM   28  C   UNL     1     -13.340  13.095  71.898  1.00  0.00    -0.455 C  
HETATM   29  O   UNL     1     -14.011  13.685  72.738  1.00  0.00    -0.725 OA 
BRANCH  28  30
HETATM   30  C   UNL     1     -13.094  11.606  71.979  1.00  0.00    -0.433 C  
BRANCH  30  31
HETATM   31  C   UNL     1     -12.828  11.048  70.584  1.00  0.00    -0.220 C  
BRANCH  31  32
HETATM   32  N   UNL     1     -12.576   9.619  70.606  1.00  0.00    -0.507 N  
HETATM   33  H   UNL     1     -13.371   8.980  70.628  1.00  0.00     0.000 HD 
HETATM   34  C   UNL     1     -11.305   9.096  70.597  1.00  0.00    -0.273 C  
HETATM   35  O   UNL     1     -10.289   9.782  70.663  1.00  0.00    -0.289 OA 
BRANCH  34  36
HETATM   36  C   UNL     1     -11.263   7.551  70.571  1.00  0.00    -0.269 C  
HETATM   37  O   UNL     1     -12.597   7.026  70.484  1.00  0.00    -0.618 OA 
HETATM   38  H   UNL     1     -12.571   6.076  70.468  1.00  0.00     0.000 HD 
BRANCH  36  39
HETATM   39  C   UNL     1     -10.523   6.932  71.789  1.00  0.00    -0.224 C  
HETATM   40  C   UNL     1     -10.547   7.881  73.006  1.00  0.00    -0.406 C  
HETATM   41  C   UNL     1     -11.251   5.632  72.205  1.00  0.00    -0.317 C  
BRANCH  39  42
HETATM   42  C   UNL     1      -9.061   6.597  71.405  1.00  0.00    -0.143 C  
HETATM   43  O   UNL     1      -8.656   7.278  70.222  1.00  0.00    -0.139 OA 
HETATM   44  H   UNL     1      -7.759   7.072  69.986  1.00  0.00     0.000 HD 
ENDBRANCH  39  42
ENDBRANCH  36  39
ENDBRANCH  34  36
ENDBRANCH  31  32
ENDBRANCH  30  31
ENDBRANCH  28  30
ENDBRANCH  25  26
ENDBRANCH  24  25
ENDBRANCH  23  24
ENDBRANCH  22  23
ENDBRANCH  21  22
ENDBRANCH  20  21
ENDBRANCH  18  20
ENDBRANCH  15  16
ENDBRANCH  14  15
ENDBRANCH  12  14
ENDBRANCH   7  10
ENDBRANCH   2   7
TORSDOF 19
ENDMDL
MODEL       35
REMARK 921   NORMALIZED FREE ENERGY PREDICTED BY IDOCK:   -5.45 KCAL/MOL
REMARK 922        TOTAL FREE ENERGY PREDICTED BY IDOCK:  -13.69 KCAL/MOL
REMARK 923 INTER-LIGAND FREE ENERGY PREDICTED BY IDOCK:  -12.43 KCAL/MOL
REMARK 924 INTRA-LIGAND FREE ENERGY PREDICTED BY IDOCK:   -1.26 KCAL/MOL
REMARK 927      BINDING AFFINITY PREDICTED BY RF-SCORE:    0.00 PKD
ROOT
HETATM    1  C   UNL     1      -8.303   5.266  67.975  1.00  0.00    -0.098 C  
HETATM    2  C   UNL     1      -9.352   6.094  68.741  1.00  0.00    -0.123 C  
HETATM    3  C   UNL     1      -8.638   7.051  69.727  1.00  0.00    -0.141 C  
ENDROOT
BRANCH   2   4
HETATM    4  C   UNL     1     -10.119   6.984  67.739  1.00  0.00    -0.165 C  
HETATM    5  O   UNL     1     -11.384   6.417  67.405  1.00  0.00    -0.662 OA 
HETATM    6  H   UNL     1     -11.855   6.965  66.788  1.00  0.00     0.000 HD 
ENDBRANCH   2   4
BRANCH   2   7
HETATM    7  C   UNL     1     -10.356   5.174  69.504  1.00  0.00    -0.222 C  
HETATM    8  O   UNL     1      -9.786   3.904  69.865  1.00  0.00    -0.199 OA 
HETATM    9  H   UNL     1     -10.397   3.345  70.329  1.00  0.00     0.000 HD 
BRANCH   7  10
HETATM   10  C   UNL     1     -10.963   5.790  70.784  1.00  0.00    -0.242 C  
HETATM   11  O   UNL     1     -10.551   5.584  71.921  1.00  0.00    -0.222 OA 
HETATM   12  N   UNL     1     -11.989   6.672  70.524  1.00  0.00    -0.488 N  
HETATM   13  H   UNL     1     -12.346   6.764  69.573  1.00  0.00     0.000 HD 
BRANCH  12  14
HETATM   14  C   UNL     1     -12.567   7.468  71.584  1.00  0.00    -0.348 C  
BRANCH  14  15
HETATM   15  C   UNL     1     -11.674   8.622  72.026  1.00  0.00    -0.439 C  
BRANCH  15  16
HETATM   16  C   UNL     1     -11.744   9.715  70.984  1.00  0.00    -0.353 C  
HETATM   17  O   UNL     1     -12.805  10.253  70.681  1.00  0.00    -0.336 OA 
HETATM   18  N   UNL     1     -10.527  10.059  70.441  1.00  0.00    -0.362 N  
HETATM   19  H   UNL     1      -9.702   9.580  70.801  1.00  0.00     0.000 HD 
BRANCH  18  20
HETATM   20  C   UNL     1     -10.322  11.056  69.388  1.00  0.00    -0.104 C  
BRANCH  20  21
HETATM   21  C   UNL     1     -10.439  10.576  67.938  1.00  0.00    -0.210 C  
BRANCH  21  22
HETATM   22  S   UNL     1      -8.849  10.154  67.127  1.00  0.00    -0.131 SA 
BRANCH  22  23
HETATM   23  S   UNL     1      -9.403   9.480  65.260  1.00  0.00    -0.234 SA 
BRANCH  23  24
HETATM   24  C   UNL     1      -8.918  10.887  64.207  1.00  0.00    -0.100 C  
BRANCH  24  25
HETATM   25  C   UNL     1     -10.147  11.623  63.669  1.00  0.00    -0.402 C  
BRANCH  25  26
HETATM   26  N   UNL     1     -10.829  12.472  64.642  1.00  0.00    -0.294 N  
HETATM   27  H   UNL     1     -10.281  12.863  65.409  1.00  0.00     0.000 HD 
HETATM   28  C   UNL     1     -12.174  12.774  64.582  1.00  0.00    -0.447 C  
HETATM   29  O   UNL     1     -12.938  12.317  63.739  1.00  0.00    -0.766 OA 
BRANCH  28  30
HETATM   30  C   UNL     1     -12.641  13.762  65.627  1.00  0.00    -0.551 C  
BRANCH  30  31
HETATM   31  C   UNL     1     -11.849  13.565  66.916  1.00  0.00    -0.407 C  
BRANCH  31  32
HETATM   32  N   UNL     1     -12.291  14.456  67.971  1.00  0.00    -0.589 N  
HETATM   33  H   UNL     1     -13.250  14.806  67.950  1.00  0.00     0.000 HD 
HETATM   34  C   UNL     1     -11.466  14.848  68.999  1.00  0.00    -0.301 C  
HETATM   35  O   UNL     1     -10.275  14.555  69.061  1.00  0.00    -0.234 OA 
BRANCH  34  36
HETATM   36  C   UNL     1     -12.152  15.757  70.043  1.00  0.00    -0.324 C  
HETATM   37  O   UNL     1     -11.279  16.839  70.401  1.00  0.00    -0.471 OA 
HETATM   38  H   UNL     1     -11.701  17.398  71.043  1.00  0.00     0.000 HD 
BRANCH  36  39
HETATM   39  C   UNL     1     -12.613  14.997  71.318  1.00  0.00    -0.409 C  
HETATM   40  C   UNL     1     -14.098  15.272  71.633  1.00  0.00    -0.640 C  
HETATM   41  C   UNL     1     -12.469  13.477  71.070  1.00  0.00    -0.451 C  
BRANCH  39  42
HETATM   42  C   UNL     1     -11.729  15.402  72.522  1.00  0.00    -0.463 C  
HETATM   43  O   UNL     1     -12.451  15.351  73.749  1.00  0.00    -0.501 OA 
HETATM   44  H   UNL     1     -11.909  15.599  74.488  1.00  0.00     0.000 HD 
ENDBRANCH  39  42
ENDBRANCH  36  39
ENDBRANCH  34  36
ENDBRANCH  31  32
ENDBRANCH  30  31
ENDBRANCH  28  30
ENDBRANCH  25  26
ENDBRANCH  24  25
ENDBRANCH  23  24
ENDBRANCH  22  23
ENDBRANCH  21  22
ENDBRANCH  20  21
ENDBRANCH  18  20
ENDBRANCH  15  16
ENDBRANCH  14  15
ENDBRANCH  12  14
ENDBRANCH   7  10
ENDBRANCH   2   7
TORSDOF 19
ENDMDL
MODEL       36
REMARK 921   NORMALIZED FREE ENERGY PREDICTED BY IDOCK:   -5.45 KCAL/MOL
REMARK 922        TOTAL FREE ENERGY PREDICTED BY IDOCK:  -13.68 KCAL/MOL
REMARK 923 INTER-LIGAND FREE ENERGY PREDICTED BY IDOCK:  -12.54 KCAL/MOL
REMARK 924 INTRA-LIGAND FREE ENERGY PREDICTED BY IDOCK:   -1.14 KCAL/MOL
REMARK 927      BINDING AFFINITY PREDICTED BY RF-SCORE:    0.00 PKD
ROOT
HETATM    1  C   UNL     1     -10.195  19.676  68.850  1.00  0.00    -0.419 C  
HETATM    2  C   UNL     1      -9.860  18.951  67.533  1.00  0.00    -0.377 C  
HETATM    3  C   UNL     1     -10.839  19.411  66.425  1.00  0.00    -0.421 C  
ENDROOT
BRANCH   2   4
HETATM    4  C   UNL     1      -8.447  19.367  67.075  1.00  0.00    -0.287 C  
HETATM    5  O   UNL     1      -8.309  20.786  67.041  1.00  0.00    -0.547 OA 
HETATM    6  H   UNL     1      -7.439  21.042  66.759  1.00  0.00     0.000 HD 
ENDBRANCH   2   4
BRANCH   2   7
HETATM    7  C   UNL     1      -9.923  17.401  67.706  1.00  0.00    -0.301 C  
HETATM    8  O   UNL     1     -11.161  16.953  68.284  1.00  0.00    -0.349 OA 
HETATM    9  H   UNL     1     -11.198  16.010  68.389  1.00  0.00     0.000 HD 
BRANCH   7  10
HETATM   10  C   UNL     1      -9.696  16.590  66.410  1.00  0.00    -0.285 C  
HETATM   11  O   UNL     1      -8.644  16.563  65.778  1.00  0.00    -0.442 OA 
HETATM   12  N   UNL     1     -10.783  15.823  66.057  1.00  0.00    -0.323 N  
HETATM   13  H   UNL     1     -11.660  15.924  66.569  1.00  0.00     0.000 HD 
BRANCH  12  14
HETATM   14  C   UNL     1     -10.699  14.874  64.968  1.00  0.00    -0.431 C  
BRANCH  14  15
HETATM   15  C   UNL     1     -12.061  14.392  64.482  1.00  0.00    -0.498 C  
BRANCH  15  16
HETATM   16  C   UNL     1     -11.892  13.035  63.837  1.00  0.00    -0.477 C  
HETATM   17  O   UNL     1     -12.837  12.435  63.335  1.00  0.00    -0.732 OA 
HETATM   18  N   UNL     1     -10.600  12.562  63.845  1.00  0.00    -0.421 N  
HETATM   19  H   UNL     1      -9.883  13.166  64.246  1.00  0.00     0.000 HD 
BRANCH  18  20
HETATM   20  C   UNL     1     -10.171  11.262  63.322  1.00  0.00    -0.368 C  
BRANCH  20  21
HETATM   21  C   UNL     1      -9.838  10.173  64.346  1.00  0.00    -0.237 C  
BRANCH  21  22
HETATM   22  S   UNL     1      -8.287  10.439  65.288  1.00  0.00    -0.160 SA 
BRANCH  22  23
HETATM   23  S   UNL     1      -8.925  11.177  67.103  1.00  0.00    -0.147 SA 
BRANCH  23  24
HETATM   24  C   UNL     1     -10.732  10.988  66.958  1.00  0.00    -0.270 C  
BRANCH  24  25
HETATM   25  C   UNL     1     -11.463  12.200  67.541  1.00  0.00    -0.340 C  
BRANCH  25  26
HETATM   26  N   UNL     1     -11.901  12.044  68.926  1.00  0.00    -0.307 N  
HETATM   27  H   UNL     1     -12.061  11.100  69.278  1.00  0.00     0.000 HD 
HETATM   28  C   UNL     1     -12.111  13.104  69.784  1.00  0.00    -0.270 C  
HETATM   29  O   UNL     1     -12.004  14.280  69.453  1.00  0.00    -0.304 OA 
BRANCH  28  30
HETATM   30  C   UNL     1     -12.451  12.704  71.201  1.00  0.00    -0.326 C  
BRANCH  30  31
HETATM   31  C   UNL     1     -12.980  11.273  71.223  1.00  0.00    -0.327 C  
BRANCH  31  32
HETATM   32  N   UNL     1     -11.949  10.314  71.574  1.00  0.00    -0.328 N  
HETATM   33  H   UNL     1     -10.971  10.577  71.450  1.00  0.00     0.000 HD 
HETATM   34  C   UNL     1     -12.243   9.065  72.068  1.00  0.00    -0.375 C  
HETATM   35  O   UNL     1     -13.386   8.627  72.166  1.00  0.00    -0.361 OA 
BRANCH  34  36
HETATM   36  C   UNL     1     -10.998   8.223  72.425  1.00  0.00    -0.368 C  
HETATM   37  O   UNL     1      -9.806   8.997  72.214  1.00  0.00    -0.218 OA 
HETATM   38  H   UNL     1      -9.040   8.479  72.433  1.00  0.00     0.000 HD 
BRANCH  36  39
HETATM   39  C   UNL     1     -10.911   6.884  71.641  1.00  0.00    -0.262 C  
HETATM   40  C   UNL     1      -9.477   6.616  71.139  1.00  0.00    -0.167 C  
HETATM   41  C   UNL     1     -11.290   5.725  72.593  1.00  0.00    -0.349 C  
BRANCH  39  42
HETATM   42  C   UNL     1     -11.897   6.906  70.448  1.00  0.00    -0.299 C  
HETATM   43  O   UNL     1     -11.242   7.227  69.225  1.00  0.00    -0.446 OA 
HETATM   44  H   UNL     1     -11.847   7.240  68.493  1.00  0.00     0.000 HD 
ENDBRANCH  39  42
ENDBRANCH  36  39
ENDBRANCH  34  36
ENDBRANCH  31  32
ENDBRANCH  30  31
ENDBRANCH  28  30
ENDBRANCH  25  26
ENDBRANCH  24  25
ENDBRANCH  23  24
ENDBRANCH  22  23
ENDBRANCH  21  22
ENDBRANCH  20  21
ENDBRANCH  18  20
ENDBRANCH  15  16
ENDBRANCH  14  15
ENDBRANCH  12  14
ENDBRANCH   7  10
ENDBRANCH   2   7
TORSDOF 19
ENDMDL
MODEL       37
REMARK 921   NORMALIZED FREE ENERGY PREDICTED BY IDOCK:   -5.45 KCAL/MOL
REMARK 922        TOTAL FREE ENERGY PREDICTED BY IDOCK:  -13.67 KCAL/MOL
REMARK 923 INTER-LIGAND FREE ENERGY PREDICTED BY IDOCK:  -11.13 KCAL/MOL
REMARK 924 INTRA-LIGAND FREE ENERGY PREDICTED BY IDOCK:   -2.54 KCAL/MOL
REMARK 927      BINDING AFFINITY PREDICTED BY RF-SCORE:    0.00 PKD
ROOT
HETATM    1  C   UNL     1      -7.070  18.458  68.329  1.00  0.00    -0.269 C  
HETATM    2  C   UNL     1      -7.605  19.569  67.406  1.00  0.00    -0.283 C  
HETATM    3  C   UNL     1      -6.746  20.846  67.579  1.00  0.00    -0.422 C  
ENDROOT
BRANCH   2   4
HETATM    4  C   UNL     1      -7.445  19.123  65.938  1.00  0.00    -0.238 C  
HETATM    5  O   UNL     1      -7.538  17.706  65.812  1.00  0.00    -0.530 OA 
HETATM    6  H   UNL     1      -7.438  17.432  64.908  1.00  0.00     0.000 HD 
ENDBRANCH   2   4
BRANCH   2   7
HETATM    7  C   UNL     1      -9.107  19.878  67.701  1.00  0.00    -0.340 C  
HETATM    8  O   UNL     1      -9.681  20.803  66.763  1.00  0.00    -0.649 OA 
HETATM    9  H   UNL     1     -10.594  20.991  66.942  1.00  0.00     0.000 HD 
BRANCH   7  10
HETATM   10  C   UNL     1     -10.030  18.640  67.756  1.00  0.00    -0.346 C  
HETATM   11  O   UNL     1     -10.471  18.055  66.771  1.00  0.00    -0.354 OA 
HETATM   12  N   UNL     1     -10.262  18.196  69.038  1.00  0.00    -0.433 N  
HETATM   13  H   UNL     1      -9.933  18.749  69.830  1.00  0.00     0.000 HD 
BRANCH  12  14
HETATM   14  C   UNL     1     -10.966  16.956  69.277  1.00  0.00    -0.112 C  
BRANCH  14  15
HETATM   15  C   UNL     1     -10.047  15.739  69.317  1.00  0.00    -0.255 C  
BRANCH  15  16
HETATM   16  C   UNL     1     -10.565  14.709  68.339  1.00  0.00    -0.241 C  
HETATM   17  O   UNL     1     -10.282  13.520  68.441  1.00  0.00    -0.237 OA 
HETATM   18  N   UNL     1     -11.388  15.221  67.362  1.00  0.00    -0.318 N  
HETATM   19  H   UNL     1     -11.596  16.218  67.399  1.00  0.00     0.000 HD 
BRANCH  18  20
HETATM   20  C   UNL     1     -11.990  14.448  66.273  1.00  0.00    -0.376 C  
BRANCH  20  21
HETATM   21  C   UNL     1     -11.279  14.481  64.917  1.00  0.00    -0.391 C  
BRANCH  21  22
HETATM   22  S   UNL     1     -10.477  12.908  64.419  1.00  0.00    -0.384 SA 
BRANCH  22  23
HETATM   23  S   UNL     1     -11.470  11.472  65.513  1.00  0.00     0.124 SA 
BRANCH  23  24
HETATM   24  C   UNL     1     -10.081  10.489  66.168  1.00  0.00    -0.246 C  
BRANCH  24  25
HETATM   25  C   UNL     1     -10.526   9.622  67.348  1.00  0.00    -0.257 C  
BRANCH  25  26
HETATM   26  N   UNL     1     -11.438  10.277  68.281  1.00  0.00    -0.525 N  
HETATM   27  H   UNL     1     -12.386  10.483  67.964  1.00  0.00     0.000 HD 
HETATM   28  C   UNL     1     -11.089  10.634  69.567  1.00  0.00    -0.274 C  
HETATM   29  O   UNL     1      -9.964  10.486  70.034  1.00  0.00    -0.082 OA 
BRANCH  28  30
HETATM   30  C   UNL     1     -12.225  11.195  70.392  1.00  0.00    -0.457 C  
BRANCH  30  31
HETATM   31  C   UNL     1     -12.960  10.061  71.100  1.00  0.00    -0.387 C  
BRANCH  31  32
HETATM   32  N   UNL     1     -12.046   9.127  71.731  1.00  0.00    -0.352 N  
HETATM   33  H   UNL     1     -11.171   9.481  72.118  1.00  0.00     0.000 HD 
HETATM   34  C   UNL     1     -12.317   7.783  71.827  1.00  0.00    -0.317 C  
HETATM   35  O   UNL     1     -13.297   7.251  71.313  1.00  0.00    -0.369 OA 
BRANCH  34  36
HETATM   36  C   UNL     1     -11.236   6.977  72.581  1.00  0.00    -0.272 C  
HETATM   37  O   UNL     1     -10.853   7.672  73.779  1.00  0.00    -0.450 OA 
HETATM   38  H   UNL     1     -10.188   7.176  74.242  1.00  0.00     0.000 HD 
BRANCH  36  39
HETATM   39  C   UNL     1      -9.981   6.668  71.718  1.00  0.00    -0.188 C  
HETATM   40  C   UNL     1      -9.633   5.166  71.746  1.00  0.00    -0.199 C  
HETATM   41  C   UNL     1     -10.284   7.043  70.248  1.00  0.00    -0.206 C  
BRANCH  39  42
HETATM   42  C   UNL     1      -8.777   7.503  72.217  1.00  0.00    -0.119 C  
HETATM   43  O   UNL     1      -9.051   8.900  72.183  1.00  0.00    -0.375 OA 
HETATM   44  H   UNL     1      -8.312   9.412  72.489  1.00  0.00     0.000 HD 
ENDBRANCH  39  42
ENDBRANCH  36  39
ENDBRANCH  34  36
ENDBRANCH  31  32
ENDBRANCH  30  31
ENDBRANCH  28  30
ENDBRANCH  25  26
ENDBRANCH  24  25
ENDBRANCH  23  24
ENDBRANCH  22  23
ENDBRANCH  21  22
ENDBRANCH  20  21
ENDBRANCH  18  20
ENDBRANCH  15  16
ENDBRANCH  14  15
ENDBRANCH  12  14
ENDBRANCH   7  10
ENDBRANCH   2   7
TORSDOF 19
ENDMDL
MODEL       38
REMARK 921   NORMALIZED FREE ENERGY PREDICTED BY IDOCK:   -5.44 KCAL/MOL
REMARK 922        TOTAL FREE ENERGY PREDICTED BY IDOCK:  -13.67 KCAL/MOL
REMARK 923 INTER-LIGAND FREE ENERGY PREDICTED BY IDOCK:  -11.40 KCAL/MOL
REMARK 924 INTRA-LIGAND FREE ENERGY PREDICTED BY IDOCK:   -2.28 KCAL/MOL
REMARK 927      BINDING AFFINITY PREDICTED BY RF-SCORE:    0.00 PKD
ROOT
HETATM    1  C   UNL     1      -6.599  15.065  67.954  1.00  0.00    -0.174 C  
HETATM    2  C   UNL     1      -7.853  15.947  67.811  1.00  0.00    -0.153 C  
HETATM    3  C   UNL     1      -7.779  17.122  68.818  1.00  0.00    -0.259 C  
ENDROOT
BRANCH   2   4
HETATM    4  C   UNL     1      -7.869  16.575  66.401  1.00  0.00    -0.289 C  
HETATM    5  O   UNL     1      -9.171  17.043  66.056  1.00  0.00    -0.457 OA 
HETATM    6  H   UNL     1      -9.180  17.429  65.188  1.00  0.00     0.000 HD 
ENDBRANCH   2   4
BRANCH   2   7
HETATM    7  C   UNL     1      -9.158  15.120  68.034  1.00  0.00    -0.180 C  
HETATM    8  O   UNL     1      -8.903  13.804  68.552  1.00  0.00    -0.227 OA 
HETATM    9  H   UNL     1      -9.696  13.301  68.688  1.00  0.00     0.000 HD 
BRANCH   7  10
HETATM   10  C   UNL     1     -10.204  15.786  68.955  1.00  0.00    -0.219 C  
HETATM   11  O   UNL     1     -10.864  16.778  68.660  1.00  0.00    -0.336 OA 
HETATM   12  N   UNL     1     -10.389  15.109  70.139  1.00  0.00    -0.497 N  
HETATM   13  H   UNL     1      -9.775  14.329  70.376  1.00  0.00     0.000 HD 
BRANCH  12  14
HETATM   14  C   UNL     1     -11.443  15.489  71.054  1.00  0.00    -0.383 C  
BRANCH  14  15
HETATM   15  C   UNL     1     -12.809  14.936  70.662  1.00  0.00    -0.406 C  
BRANCH  15  16
HETATM   16  C   UNL     1     -13.148  13.787  71.585  1.00  0.00    -0.375 C  
HETATM   17  O   UNL     1     -13.713  13.966  72.660  1.00  0.00    -0.627 OA 
HETATM   18  N   UNL     1     -12.795  12.549  71.101  1.00  0.00    -0.281 N  
HETATM   19  H   UNL     1     -12.374  12.511  70.173  1.00  0.00     0.000 HD 
BRANCH  18  20
HETATM   20  C   UNL     1     -12.975  11.280  71.811  1.00  0.00    -0.414 C  
BRANCH  20  21
HETATM   21  C   UNL     1     -12.706   9.994  71.023  1.00  0.00    -0.362 C  
BRANCH  21  22
HETATM   22  S   UNL     1     -11.382   8.925  71.706  1.00  0.00    -0.379 SA 
BRANCH  22  23
HETATM   23  S   UNL     1     -11.732   7.084  70.848  1.00  0.00    -0.354 SA 
BRANCH  23  24
HETATM   24  C   UNL     1     -10.718   7.189  69.337  1.00  0.00    -0.231 C  
BRANCH  24  25
HETATM   25  C   UNL     1     -10.063   8.566  69.205  1.00  0.00    -0.203 C  
BRANCH  25  26
HETATM   26  N   UNL     1      -9.115   8.691  68.101  1.00  0.00    -0.141 N  
HETATM   27  H   UNL     1      -8.610   7.856  67.802  1.00  0.00     0.000 HD 
HETATM   28  C   UNL     1      -8.865   9.875  67.440  1.00  0.00    -0.132 C  
HETATM   29  O   UNL     1      -9.371  10.949  67.750  1.00  0.00    -0.153 OA 
BRANCH  28  30
HETATM   30  C   UNL     1      -7.932   9.748  66.257  1.00  0.00    -0.109 C  
BRANCH  30  31
HETATM   31  C   UNL     1      -8.735   9.448  64.995  1.00  0.00    -0.186 C  
BRANCH  31  32
HETATM   32  N   UNL     1     -10.028  10.104  65.001  1.00  0.00    -0.332 N  
HETATM   33  H   UNL     1     -10.702   9.857  65.726  1.00  0.00     0.000 HD 
HETATM   34  C   UNL     1     -10.379  11.048  64.064  1.00  0.00    -0.371 C  
HETATM   35  O   UNL     1      -9.674  11.344  63.104  1.00  0.00    -0.345 OA 
BRANCH  34  36
HETATM   36  C   UNL     1     -11.782  11.658  64.284  1.00  0.00    -0.175 C  
HETATM   37  O   UNL     1     -12.542  11.592  63.067  1.00  0.00    -0.958 OA 
HETATM   38  H   UNL     1     -13.404  11.967  63.203  1.00  0.00     0.000 HD 
BRANCH  36  39
HETATM   39  C   UNL     1     -11.744  13.120  64.812  1.00  0.00    -0.387 C  
HETATM   40  C   UNL     1     -12.285  14.113  63.763  1.00  0.00    -0.183 C  
HETATM   41  C   UNL     1     -12.657  13.222  66.057  1.00  0.00    -0.279 C  
BRANCH  39  42
HETATM   42  C   UNL     1     -10.298  13.501  65.209  1.00  0.00    -0.331 C  
HETATM   43  O   UNL     1      -9.837  14.644  64.496  1.00  0.00    -0.508 OA 
HETATM   44  H   UNL     1      -8.949  14.878  64.739  1.00  0.00     0.000 HD 
ENDBRANCH  39  42
ENDBRANCH  36  39
ENDBRANCH  34  36
ENDBRANCH  31  32
ENDBRANCH  30  31
ENDBRANCH  28  30
ENDBRANCH  25  26
ENDBRANCH  24  25
ENDBRANCH  23  24
ENDBRANCH  22  23
ENDBRANCH  21  22
ENDBRANCH  20  21
ENDBRANCH  18  20
ENDBRANCH  15  16
ENDBRANCH  14  15
ENDBRANCH  12  14
ENDBRANCH   7  10
ENDBRANCH   2   7
TORSDOF 19
ENDMDL
MODEL       39
REMARK 921   NORMALIZED FREE ENERGY PREDICTED BY IDOCK:   -5.44 KCAL/MOL
REMARK 922        TOTAL FREE ENERGY PREDICTED BY IDOCK:  -13.66 KCAL/MOL
REMARK 923 INTER-LIGAND FREE ENERGY PREDICTED BY IDOCK:  -12.20 KCAL/MOL
REMARK 924 INTRA-LIGAND FREE ENERGY PREDICTED BY IDOCK:   -1.46 KCAL/MOL
REMARK 927      BINDING AFFINITY PREDICTED BY RF-SCORE:    0.00 PKD
ROOT
HETATM    1  C   UNL     1     -10.518   5.756  68.556  1.00  0.00    -0.290 C  
HETATM    2  C   UNL     1      -9.654   5.680  69.829  1.00  0.00    -0.206 C  
HETATM    3  C   UNL     1      -9.873   4.313  70.524  1.00  0.00    -0.269 C  
ENDROOT
BRANCH   2   4
HETATM    4  C   UNL     1      -8.165   5.739  69.430  1.00  0.00    -0.108 C  
HETATM    5  O   UNL     1      -7.926   6.758  68.462  1.00  0.00    -0.115 OA 
HETATM    6  H   UNL     1      -7.010   6.794  68.216  1.00  0.00     0.000 HD 
ENDBRANCH   2   4
BRANCH   2   7
HETATM    7  C   UNL     1      -9.983   6.849  70.810  1.00  0.00    -0.190 C  
HETATM    8  O   UNL     1      -9.768   8.145  70.225  1.00  0.00    -0.174 OA 
HETATM    9  H   UNL     1      -9.969   8.856  70.822  1.00  0.00     0.000 HD 
BRANCH   7  10
HETATM   10  C   UNL     1     -11.416   6.833  71.387  1.00  0.00    -0.292 C  
HETATM   11  O   UNL     1     -11.785   6.126  72.320  1.00  0.00    -0.309 OA 
HETATM   12  N   UNL     1     -12.247   7.758  70.796  1.00  0.00    -0.504 N  
HETATM   13  H   UNL     1     -11.922   8.278  69.980  1.00  0.00     0.000 HD 
BRANCH  12  14
HETATM   14  C   UNL     1     -13.574   8.002  71.316  1.00  0.00    -0.144 C  
BRANCH  14  15
HETATM   15  C   UNL     1     -13.599   9.021  72.449  1.00  0.00    -0.533 C  
BRANCH  15  16
HETATM   16  C   UNL     1     -12.949  10.298  71.966  1.00  0.00    -0.402 C  
HETATM   17  O   UNL     1     -11.889  10.291  71.348  1.00  0.00    -0.355 OA 
HETATM   18  N   UNL     1     -13.660  11.440  72.255  1.00  0.00    -0.450 N  
HETATM   19  H   UNL     1     -14.555  11.327  72.731  1.00  0.00     0.000 HD 
BRANCH  18  20
HETATM   20  C   UNL     1     -13.236  12.805  71.933  1.00  0.00    -0.412 C  
BRANCH  20  21
HETATM   21  C   UNL     1     -14.336  13.861  71.782  1.00  0.00    -0.180 C  
BRANCH  21  22
HETATM   22  S   UNL     1     -13.986  15.470  72.590  1.00  0.00    -0.430 SA 
BRANCH  22  23
HETATM   23  S   UNL     1     -11.956  15.722  72.346  1.00  0.00    -0.545 SA 
BRANCH  23  24
HETATM   24  C   UNL     1     -11.755  15.366  70.570  1.00  0.00    -0.325 C  
BRANCH  24  25
HETATM   25  C   UNL     1     -10.591  16.162  69.975  1.00  0.00    -0.269 C  
BRANCH  25  26
HETATM   26  N   UNL     1     -10.957  17.060  68.882  1.00  0.00    -0.257 N  
HETATM   27  H   UNL     1     -11.945  17.271  68.742  1.00  0.00     0.000 HD 
HETATM   28  C   UNL     1     -10.040  17.639  68.031  1.00  0.00    -0.343 C  
HETATM   29  O   UNL     1      -8.835  17.414  68.071  1.00  0.00    -0.239 OA 
BRANCH  28  30
HETATM   30  C   UNL     1     -10.632  18.622  67.047  1.00  0.00    -0.448 C  
BRANCH  30  31
HETATM   31  C   UNL     1     -10.444  18.107  65.623  1.00  0.00    -0.095 C  
BRANCH  31  32
HETATM   32  N   UNL     1     -10.130  16.691  65.591  1.00  0.00    -0.265 N  
HETATM   33  H   UNL     1      -9.319  16.355  66.111  1.00  0.00     0.000 HD 
HETATM   34  C   UNL     1     -10.886  15.785  64.885  1.00  0.00    -0.413 C  
HETATM   35  O   UNL     1     -11.823  16.105  64.158  1.00  0.00    -0.769 OA 
BRANCH  34  36
HETATM   36  C   UNL     1     -10.408  14.323  65.027  1.00  0.00    -0.421 C  
HETATM   37  O   UNL     1     -10.418  13.676  63.745  1.00  0.00    -0.456 OA 
HETATM   38  H   UNL     1     -10.123  12.777  63.833  1.00  0.00     0.000 HD 
BRANCH  36  39
HETATM   39  C   UNL     1     -11.239  13.498  66.049  1.00  0.00    -0.305 C  
HETATM   40  C   UNL     1     -10.337  12.869  67.132  1.00  0.00    -0.239 C  
HETATM   41  C   UNL     1     -12.228  14.446  66.767  1.00  0.00    -0.319 C  
BRANCH  39  42
HETATM   42  C   UNL     1     -12.035  12.393  65.313  1.00  0.00    -0.404 C  
HETATM   43  O   UNL     1     -13.107  12.934  64.549  1.00  0.00    -0.728 OA 
HETATM   44  H   UNL     1     -13.596  12.256  64.097  1.00  0.00     0.000 HD 
ENDBRANCH  39  42
ENDBRANCH  36  39
ENDBRANCH  34  36
ENDBRANCH  31  32
ENDBRANCH  30  31
ENDBRANCH  28  30
ENDBRANCH  25  26
ENDBRANCH  24  25
ENDBRANCH  23  24
ENDBRANCH  22  23
ENDBRANCH  21  22
ENDBRANCH  20  21
ENDBRANCH  18  20
ENDBRANCH  15  16
ENDBRANCH  14  15
ENDBRANCH  12  14
ENDBRANCH   7  10
ENDBRANCH   2   7
TORSDOF 19
ENDMDL
MODEL       40
REMARK 921   NORMALIZED FREE ENERGY PREDICTED BY IDOCK:   -5.43 KCAL/MOL
REMARK 922        TOTAL FREE ENERGY PREDICTED BY IDOCK:  -13.64 KCAL/MOL
REMARK 923 INTER-LIGAND FREE ENERGY PREDICTED BY IDOCK:  -11.28 KCAL/MOL
REMARK 924 INTRA-LIGAND FREE ENERGY PREDICTED BY IDOCK:   -2.36 KCAL/MOL
REMARK 927      BINDING AFFINITY PREDICTED BY RF-SCORE:    0.00 PKD
ROOT
HETATM    1  C   UNL     1     -10.007   8.677  72.233  1.00  0.00    -0.361 C  
HETATM    2  C   UNL     1     -11.304   8.610  71.406  1.00  0.00    -0.350 C  
HETATM    3  C   UNL     1     -12.527   8.763  72.345  1.00  0.00    -0.421 C  
ENDROOT
BRANCH   2   4
HETATM    4  C   UNL     1     -11.343   9.806  70.432  1.00  0.00    -0.297 C  
HETATM    5  O   UNL     1     -12.676  10.093  70.016  1.00  0.00    -0.549 OA 
HETATM    6  H   UNL     1     -12.700  10.830  69.416  1.00  0.00     0.000 HD 
ENDBRANCH   2   4
BRANCH   2   7
HETATM    7  C   UNL     1     -11.398   7.274  70.603  1.00  0.00    -0.284 C  
HETATM    8  O   UNL     1     -12.754   6.858  70.369  1.00  0.00    -0.565 OA 
HETATM    9  H   UNL     1     -12.810   6.045  69.881  1.00  0.00     0.000 HD 
BRANCH   7  10
HETATM   10  C   UNL     1     -10.673   7.281  69.239  1.00  0.00    -0.198 C  
HETATM   11  O   UNL     1      -9.518   7.658  69.063  1.00  0.00    -0.150 OA 
HETATM   12  N   UNL     1     -11.432   6.746  68.222  1.00  0.00    -0.505 N  
HETATM   13  H   UNL     1     -12.409   6.507  68.394  1.00  0.00     0.000 HD 
BRANCH  12  14
HETATM   14  C   UNL     1     -10.862   6.518  66.913  1.00  0.00    -0.357 C  
BRANCH  14  15
HETATM   15  C   UNL     1     -10.175   5.162  66.782  1.00  0.00    -0.289 C  
BRANCH  15  16
HETATM   16  C   UNL     1      -8.679   5.380  66.750  1.00  0.00    -0.113 C  
HETATM   17  O   UNL     1      -7.887   4.449  66.861  1.00  0.00    -0.096 OA 
HETATM   18  N   UNL     1      -8.301   6.689  66.559  1.00  0.00    -0.113 N  
HETATM   19  H   UNL     1      -9.043   7.376  66.429  1.00  0.00     0.000 HD 
BRANCH  18  20
HETATM   20  C   UNL     1      -6.920   7.176  66.526  1.00  0.00    -0.076 C  
BRANCH  20  21
HETATM   21  C   UNL     1      -6.667   8.597  67.038  1.00  0.00    -0.062 C  
BRANCH  21  22
HETATM   22  S   UNL     1      -6.316   9.842  65.738  1.00  0.00    -0.084 SA 
BRANCH  22  23
HETATM   23  S   UNL     1      -7.138   9.030  64.032  1.00  0.00    -0.096 SA 
BRANCH  23  24
HETATM   24  C   UNL     1      -8.845   9.664  64.113  1.00  0.00    -0.226 C  
BRANCH  24  25
HETATM   25  C   UNL     1      -9.173  10.526  62.892  1.00  0.00    -0.304 C  
BRANCH  25  26
HETATM   26  N   UNL     1     -10.507  11.121  62.901  1.00  0.00    -0.778 N  
HETATM   27  H   UNL     1     -11.267  10.604  62.459  1.00  0.00     0.000 HD 
HETATM   28  C   UNL     1     -10.795  12.342  63.473  1.00  0.00    -0.454 C  
HETATM   29  O   UNL     1      -9.951  13.072  63.981  1.00  0.00    -0.308 OA 
BRANCH  28  30
HETATM   30  C   UNL     1     -12.262  12.707  63.465  1.00  0.00    -0.638 C  
BRANCH  30  31
HETATM   31  C   UNL     1     -12.858  12.486  64.852  1.00  0.00    -0.128 C  
BRANCH  31  32
HETATM   32  N   UNL     1     -12.258  13.352  65.850  1.00  0.00    -0.439 N  
HETATM   33  H   UNL     1     -12.107  14.334  65.621  1.00  0.00     0.000 HD 
HETATM   34  C   UNL     1     -11.885  12.896  67.092  1.00  0.00    -0.362 C  
HETATM   35  O   UNL     1     -11.942  11.716  67.426  1.00  0.00    -0.621 OA 
BRANCH  34  36
HETATM   36  C   UNL     1     -11.314  13.994  68.017  1.00  0.00    -0.293 C  
HETATM   37  O   UNL     1     -12.137  15.169  67.950  1.00  0.00    -0.484 OA 
HETATM   38  H   UNL     1     -11.786  15.844  68.519  1.00  0.00     0.000 HD 
BRANCH  36  39
HETATM   39  C   UNL     1      -9.836  14.358  67.705  1.00  0.00    -0.221 C  
HETATM   40  C   UNL     1      -8.992  13.097  67.425  1.00  0.00    -0.201 C  
HETATM   41  C   UNL     1      -9.797  15.231  66.429  1.00  0.00    -0.295 C  
BRANCH  39  42
HETATM   42  C   UNL     1      -9.227  15.154  68.885  1.00  0.00    -0.209 C  
HETATM   43  O   UNL     1      -8.100  14.489  69.446  1.00  0.00    -0.355 OA 
HETATM   44  H   UNL     1      -7.726  14.978  70.170  1.00  0.00     0.000 HD 
ENDBRANCH  39  42
ENDBRANCH  36  39
ENDBRANCH  34  36
ENDBRANCH  31  32
ENDBRANCH  30  31
ENDBRANCH  28  30
ENDBRANCH  25  26
ENDBRANCH  24  25
ENDBRANCH  23  24
ENDBRANCH  22  23
ENDBRANCH  21  22
ENDBRANCH  20  21
ENDBRANCH  18  20
ENDBRANCH  15  16
ENDBRANCH  14  15
ENDBRANCH  12  14
ENDBRANCH   7  10
ENDBRANCH   2   7
TORSDOF 19
ENDMDL
MODEL       41
REMARK 921   NORMALIZED FREE ENERGY PREDICTED BY IDOCK:   -5.43 KCAL/MOL
REMARK 922        TOTAL FREE ENERGY PREDICTED BY IDOCK:  -13.64 KCAL/MOL
REMARK 923 INTER-LIGAND FREE ENERGY PREDICTED BY IDOCK:  -11.28 KCAL/MOL
REMARK 924 INTRA-LIGAND FREE ENERGY PREDICTED BY IDOCK:   -2.36 KCAL/MOL
REMARK 927      BINDING AFFINITY PREDICTED BY RF-SCORE:    0.00 PKD
ROOT
HETATM    1  C   UNL     1      -9.993  20.272  68.509  1.00  0.00    -0.276 C  
HETATM    2  C   UNL     1      -9.487  19.351  67.384  1.00  0.00    -0.397 C  
HETATM    3  C   UNL     1     -10.416  19.479  66.151  1.00  0.00    -0.613 C  
ENDROOT
BRANCH   2   4
HETATM    4  C   UNL     1      -8.089  19.826  66.935  1.00  0.00    -0.297 C  
HETATM    5  O   UNL     1      -7.085  18.868  67.261  1.00  0.00    -0.207 OA 
HETATM    6  H   UNL     1      -6.225  19.161  66.984  1.00  0.00     0.000 HD 
ENDBRANCH   2   4
BRANCH   2   7
HETATM    7  C   UNL     1      -9.410  17.865  67.857  1.00  0.00    -0.271 C  
HETATM    8  O   UNL     1     -10.338  17.568  68.914  1.00  0.00    -0.353 OA 
HETATM    9  H   UNL     1     -10.292  16.664  69.201  1.00  0.00     0.000 HD 
BRANCH   7  10
HETATM   10  C   UNL     1      -9.623  16.814  66.744  1.00  0.00    -0.249 C  
HETATM   11  O   UNL     1      -8.835  16.597  65.829  1.00  0.00    -0.493 OA 
HETATM   12  N   UNL     1     -10.771  16.072  66.915  1.00  0.00    -0.298 N  
HETATM   13  H   UNL     1     -11.432  16.329  67.649  1.00  0.00     0.000 HD 
BRANCH  12  14
HETATM   14  C   UNL     1     -11.051  14.935  66.067  1.00  0.00    -0.334 C  
BRANCH  14  15
HETATM   15  C   UNL     1     -11.821  13.828  66.779  1.00  0.00    -0.454 C  
BRANCH  15  16
HETATM   16  C   UNL     1     -11.433  13.833  68.241  1.00  0.00    -0.312 C  
HETATM   17  O   UNL     1     -10.260  13.786  68.599  1.00  0.00    -0.232 OA 
HETATM   18  N   UNL     1     -12.497  13.920  69.109  1.00  0.00    -0.388 N  
HETATM   19  H   UNL     1     -13.428  14.002  68.702  1.00  0.00     0.000 HD 
BRANCH  18  20
HETATM   20  C   UNL     1     -12.400  13.904  70.571  1.00  0.00    -0.369 C  
BRANCH  20  21
HETATM   21  C   UNL     1     -12.880  12.640  71.289  1.00  0.00    -0.250 C  
BRANCH  21  22
HETATM   22  S   UNL     1     -12.353  11.060  70.521  1.00  0.00    -0.377 SA 
BRANCH  22  23
HETATM   23  S   UNL     1     -12.893   9.628  71.901  1.00  0.00    -0.432 SA 
BRANCH  23  24
HETATM   24  C   UNL     1     -11.605   8.365  71.638  1.00  0.00    -0.289 C  
BRANCH  24  25
HETATM   25  C   UNL     1     -12.195   7.092  71.029  1.00  0.00    -0.374 C  
BRANCH  25  26
HETATM   26  N   UNL     1     -11.630   6.710  69.737  1.00  0.00    -0.616 N  
HETATM   27  H   UNL     1     -11.928   7.226  68.909  1.00  0.00     0.000 HD 
HETATM   28  C   UNL     1     -10.715   5.690  69.576  1.00  0.00    -0.310 C  
HETATM   29  O   UNL     1     -10.329   4.970  70.490  1.00  0.00    -0.254 OA 
BRANCH  28  30
HETATM   30  C   UNL     1     -10.180   5.546  68.170  1.00  0.00    -0.232 C  
BRANCH  30  31
HETATM   31  C   UNL     1     -11.028   6.370  67.206  1.00  0.00    -0.392 C  
BRANCH  31  32
HETATM   32  N   UNL     1     -10.230   7.309  66.440  1.00  0.00    -0.475 N  
HETATM   33  H   UNL     1      -9.663   6.957  65.669  1.00  0.00     0.000 HD 
HETATM   34  C   UNL     1     -10.210   8.656  66.717  1.00  0.00    -0.291 C  
HETATM   35  O   UNL     1     -10.784   9.158  67.678  1.00  0.00    -0.262 OA 
BRANCH  34  36
HETATM   36  C   UNL     1      -9.334   9.481  65.748  1.00  0.00    -0.233 C  
HETATM   37  O   UNL     1      -9.107   8.740  64.539  1.00  0.00    -0.424 OA 
HETATM   38  H   UNL     1      -8.569   9.248  63.944  1.00  0.00     0.000 HD 
BRANCH  36  39
HETATM   39  C   UNL     1      -7.979   9.925  66.366  1.00  0.00    -0.111 C  
HETATM   40  C   UNL     1      -6.944  10.263  65.272  1.00  0.00    -0.130 C  
HETATM   41  C   UNL     1      -8.208  11.211  67.195  1.00  0.00    -0.137 C  
BRANCH  39  42
HETATM   42  C   UNL     1      -7.431   8.813  67.292  1.00  0.00    -0.089 C  
HETATM   43  O   UNL     1      -6.972   7.686  66.552  1.00  0.00    -0.064 OA 
HETATM   44  H   UNL     1      -6.636   7.004  67.120  1.00  0.00     0.000 HD 
ENDBRANCH  39  42
ENDBRANCH  36  39
ENDBRANCH  34  36
ENDBRANCH  31  32
ENDBRANCH  30  31
ENDBRANCH  28  30
ENDBRANCH  25  26
ENDBRANCH  24  25
ENDBRANCH  23  24
ENDBRANCH  22  23
ENDBRANCH  21  22
ENDBRANCH  20  21
ENDBRANCH  18  20
ENDBRANCH  15  16
ENDBRANCH  14  15
ENDBRANCH  12  14
ENDBRANCH   7  10
ENDBRANCH   2   7
TORSDOF 19
ENDMDL
MODEL       42
REMARK 921   NORMALIZED FREE ENERGY PREDICTED BY IDOCK:   -5.41 KCAL/MOL
REMARK 922        TOTAL FREE ENERGY PREDICTED BY IDOCK:  -13.61 KCAL/MOL
REMARK 923 INTER-LIGAND FREE ENERGY PREDICTED BY IDOCK:  -11.26 KCAL/MOL
REMARK 924 INTRA-LIGAND FREE ENERGY PREDICTED BY IDOCK:   -2.34 KCAL/MOL
REMARK 927      BINDING AFFINITY PREDICTED BY RF-SCORE:    0.00 PKD
ROOT
HETATM    1  C   UNL     1     -12.985  14.260  65.431  1.00  0.00    -0.230 C  
HETATM    2  C   UNL     1     -11.608  13.602  65.226  1.00  0.00    -0.334 C  
HETATM    3  C   UNL     1     -11.653  12.683  63.980  1.00  0.00    -0.486 C  
ENDROOT
BRANCH   2   4
HETATM    4  C   UNL     1     -10.566  14.701  64.927  1.00  0.00    -0.422 C  
HETATM    5  O   UNL     1     -11.170  15.837  64.315  1.00  0.00    -0.759 OA 
HETATM    6  H   UNL     1     -10.528  16.513  64.131  1.00  0.00     0.000 HD 
ENDBRANCH   2   4
BRANCH   2   7
HETATM    7  C   UNL     1     -11.172  12.792  66.486  1.00  0.00    -0.307 C  
HETATM    8  O   UNL     1     -11.961  11.606  66.688  1.00  0.00    -0.503 OA 
HETATM    9  H   UNL     1     -11.695  11.113  67.454  1.00  0.00     0.000 HD 
BRANCH   7  10
HETATM   10  C   UNL     1      -9.686  12.369  66.509  1.00  0.00    -0.240 C  
HETATM   11  O   UNL     1      -9.174  11.573  65.727  1.00  0.00    -0.223 OA 
HETATM   12  N   UNL     1      -8.950  13.036  67.463  1.00  0.00    -0.183 N  
HETATM   13  H   UNL     1      -9.425  13.639  68.136  1.00  0.00     0.000 HD 
BRANCH  12  14
HETATM   14  C   UNL     1      -7.512  12.893  67.523  1.00  0.00    -0.155 C  
BRANCH  14  15
HETATM   15  C   UNL     1      -6.851  13.864  68.496  1.00  0.00    -0.098 C  
BRANCH  15  16
HETATM   16  C   UNL     1      -7.014  15.270  67.962  1.00  0.00    -0.133 C  
HETATM   17  O   UNL     1      -6.493  15.627  66.910  1.00  0.00    -0.254 OA 
HETATM   18  N   UNL     1      -7.809  16.081  68.739  1.00  0.00    -0.177 N  
HETATM   19  H   UNL     1      -8.232  15.667  69.568  1.00  0.00     0.000 HD 
BRANCH  18  20
HETATM   20  C   UNL     1      -8.096  17.492  68.469  1.00  0.00    -0.275 C  
BRANCH  20  21
HETATM   21  C   UNL     1      -9.494  18.002  68.832  1.00  0.00    -0.199 C  
BRANCH  21  22
HETATM   22  S   UNL     1     -10.858  17.332  67.806  1.00  0.00    -0.167 SA 
BRANCH  22  23
HETATM   23  S   UNL     1     -11.551  15.719  68.885  1.00  0.00    -0.382 SA 
BRANCH  23  24
HETATM   24  C   UNL     1     -10.992  16.140  70.568  1.00  0.00    -0.269 C  
BRANCH  24  25
HETATM   25  C   UNL     1     -11.893  15.500  71.626  1.00  0.00    -0.415 C  
BRANCH  25  26
HETATM   26  N   UNL     1     -12.205  14.091  71.395  1.00  0.00    -0.359 N  
HETATM   27  H   UNL     1     -11.679  13.593  70.677  1.00  0.00     0.000 HD 
HETATM   28  C   UNL     1     -13.172  13.399  72.094  1.00  0.00    -0.462 C  
HETATM   29  O   UNL     1     -13.900  13.910  72.938  1.00  0.00    -0.662 OA 
BRANCH  28  30
HETATM   30  C   UNL     1     -13.245  11.925  71.768  1.00  0.00    -0.426 C  
BRANCH  30  31
HETATM   31  C   UNL     1     -12.253  11.590  70.658  1.00  0.00    -0.378 C  
BRANCH  31  32
HETATM   32  N   UNL     1     -11.301  10.574  71.064  1.00  0.00    -0.292 N  
HETATM   33  H   UNL     1     -11.130  10.429  72.059  1.00  0.00     0.000 HD 
HETATM   34  C   UNL     1     -10.619   9.798  70.155  1.00  0.00    -0.285 C  
HETATM   35  O   UNL     1     -10.688   9.960  68.940  1.00  0.00    -0.210 OA 
BRANCH  34  36
HETATM   36  C   UNL     1      -9.694   8.744  70.801  1.00  0.00    -0.208 C  
HETATM   37  O   UNL     1      -8.701   8.316  69.854  1.00  0.00    -0.131 OA 
HETATM   38  H   UNL     1      -8.132   7.667  70.252  1.00  0.00     0.000 HD 
BRANCH  36  39
HETATM   39  C   UNL     1     -10.458   7.514  71.367  1.00  0.00    -0.226 C  
HETATM   40  C   UNL     1     -11.669   7.147  70.484  1.00  0.00    -0.314 C  
HETATM   41  C   UNL     1      -9.505   6.295  71.371  1.00  0.00    -0.167 C  
BRANCH  39  42
HETATM   42  C   UNL     1     -10.922   7.802  72.815  1.00  0.00    -0.388 C  
HETATM   43  O   UNL     1     -12.224   8.378  72.848  1.00  0.00    -0.548 OA 
HETATM   44  H   UNL     1     -12.509   8.555  73.737  1.00  0.00     0.000 HD 
ENDBRANCH  39  42
ENDBRANCH  36  39
ENDBRANCH  34  36
ENDBRANCH  31  32
ENDBRANCH  30  31
ENDBRANCH  28  30
ENDBRANCH  25  26
ENDBRANCH  24  25
ENDBRANCH  23  24
ENDBRANCH  22  23
ENDBRANCH  21  22
ENDBRANCH  20  21
ENDBRANCH  18  20
ENDBRANCH  15  16
ENDBRANCH  14  15
ENDBRANCH  12  14
ENDBRANCH   7  10
ENDBRANCH   2   7
TORSDOF 19
ENDMDL
MODEL       43
REMARK 921   NORMALIZED FREE ENERGY PREDICTED BY IDOCK:   -5.38 KCAL/MOL
REMARK 922        TOTAL FREE ENERGY PREDICTED BY IDOCK:  -13.54 KCAL/MOL
REMARK 923 INTER-LIGAND FREE ENERGY PREDICTED BY IDOCK:  -10.39 KCAL/MOL
REMARK 924 INTRA-LIGAND FREE ENERGY PREDICTED BY IDOCK:   -3.15 KCAL/MOL
REMARK 927      BINDING AFFINITY PREDICTED BY RF-SCORE:    0.00 PKD
ROOT
HETATM    1  C   UNL     1      -7.537  10.584  65.214  1.00  0.00    -0.074 C  
HETATM    2  C   UNL     1      -8.651  10.031  64.307  1.00  0.00    -0.197 C  
HETATM    3  C   UNL     1      -8.569  10.706  62.915  1.00  0.00    -0.208 C  
ENDROOT
BRANCH   2   4
HETATM    4  C   UNL     1      -8.415   8.523  64.081  1.00  0.00    -0.037 C  
HETATM    5  O   UNL     1      -7.294   8.056  64.827  1.00  0.00    -0.074 OA 
HETATM    6  H   UNL     1      -7.149   7.127  64.688  1.00  0.00     0.000 HD 
ENDBRANCH   2   4
BRANCH   2   7
HETATM    7  C   UNL     1     -10.061  10.255  64.938  1.00  0.00    -0.276 C  
HETATM    8  O   UNL     1     -10.019  10.376  66.370  1.00  0.00    -0.204 OA 
HETATM    9  H   UNL     1     -10.877  10.512  66.754  1.00  0.00     0.000 HD 
BRANCH   7  10
HETATM   10  C   UNL     1     -10.834  11.476  64.393  1.00  0.00    -0.342 C  
HETATM   11  O   UNL     1     -11.692  11.426  63.516  1.00  0.00    -0.297 OA 
HETATM   12  N   UNL     1     -10.521  12.648  65.045  1.00  0.00    -0.300 N  
HETATM   13  H   UNL     1      -9.756  12.660  65.720  1.00  0.00     0.000 HD 
BRANCH  12  14
HETATM   14  C   UNL     1     -11.262  13.862  64.784  1.00  0.00    -0.369 C  
BRANCH  14  15
HETATM   15  C   UNL     1     -12.478  14.032  65.689  1.00  0.00    -0.531 C  
BRANCH  15  16
HETATM   16  C   UNL     1     -12.047  13.814  67.122  1.00  0.00    -0.378 C  
HETATM   17  O   UNL     1     -11.850  12.691  67.574  1.00  0.00    -0.366 OA 
HETATM   18  N   UNL     1     -11.875  14.973  67.844  1.00  0.00    -0.471 N  
HETATM   19  H   UNL     1     -12.020  15.855  67.355  1.00  0.00     0.000 HD 
BRANCH  18  20
HETATM   20  C   UNL     1     -11.502  15.041  69.259  1.00  0.00    -0.307 C  
BRANCH  20  21
HETATM   21  C   UNL     1     -12.592  15.456  70.251  1.00  0.00    -0.336 C  
BRANCH  21  22
HETATM   22  S   UNL     1     -12.322  14.910  71.980  1.00  0.00    -0.349 SA 
BRANCH  22  23
HETATM   23  S   UNL     1     -13.504  13.232  72.166  1.00  0.00    -0.547 SA 
BRANCH  23  24
HETATM   24  C   UNL     1     -12.685  12.080  71.014  1.00  0.00    -0.241 C  
BRANCH  24  25
HETATM   25  C   UNL     1     -13.081  10.631  71.307  1.00  0.00    -0.359 C  
BRANCH  25  26
HETATM   26  N   UNL     1     -11.994   9.785  71.793  1.00  0.00    -0.372 N  
HETATM   27  H   UNL     1     -11.073  10.205  71.914  1.00  0.00     0.000 HD 
HETATM   28  C   UNL     1     -12.147   8.448  72.099  1.00  0.00    -0.373 C  
HETATM   29  O   UNL     1     -13.192   7.828  71.940  1.00  0.00    -0.314 OA 
BRANCH  28  30
HETATM   30  C   UNL     1     -10.918   7.798  72.693  1.00  0.00    -0.422 C  
BRANCH  30  31
HETATM   31  C   UNL     1      -9.662   8.466  72.143  1.00  0.00    -0.300 C  
BRANCH  31  32
HETATM   32  N   UNL     1      -9.142   7.777  70.977  1.00  0.00    -0.146 N  
HETATM   33  H   UNL     1      -8.550   6.958  71.114  1.00  0.00     0.000 HD 
HETATM   34  C   UNL     1      -9.418   8.188  69.694  1.00  0.00    -0.159 C  
HETATM   35  O   UNL     1     -10.042   9.212  69.431  1.00  0.00    -0.185 OA 
BRANCH  34  36
HETATM   36  C   UNL     1      -8.807   7.284  68.601  1.00  0.00    -0.129 C  
HETATM   37  O   UNL     1      -8.296   8.089  67.527  1.00  0.00    -0.121 OA 
HETATM   38  H   UNL     1      -7.921   7.532  66.854  1.00  0.00     0.000 HD 
BRANCH  36  39
HETATM   39  C   UNL     1      -9.801   6.224  68.049  1.00  0.00    -0.128 C  
HETATM   40  C   UNL     1     -10.720   6.824  66.965  1.00  0.00    -0.435 C  
HETATM   41  C   UNL     1      -8.994   5.082  67.388  1.00  0.00    -0.111 C  
BRANCH  39  42
HETATM   42  C   UNL     1     -10.650   5.644  69.205  1.00  0.00    -0.288 C  
HETATM   43  O   UNL     1     -11.769   6.471  69.507  1.00  0.00    -0.640 OA 
HETATM   44  H   UNL     1     -12.291   6.115  70.217  1.00  0.00     0.000 HD 
ENDBRANCH  39  42
ENDBRANCH  36  39
ENDBRANCH  34  36
ENDBRANCH  31  32
ENDBRANCH  30  31
ENDBRANCH  28  30
ENDBRANCH  25  26
ENDBRANCH  24  25
ENDBRANCH  23  24
ENDBRANCH  22  23
ENDBRANCH  21  22
ENDBRANCH  20  21
ENDBRANCH  18  20
ENDBRANCH  15  16
ENDBRANCH  14  15
ENDBRANCH  12  14
ENDBRANCH   7  10
ENDBRANCH   2   7
TORSDOF 19
ENDMDL
MODEL       44
REMARK 921   NORMALIZED FREE ENERGY PREDICTED BY IDOCK:   -5.36 KCAL/MOL
REMARK 922        TOTAL FREE ENERGY PREDICTED BY IDOCK:  -13.50 KCAL/MOL
REMARK 923 INTER-LIGAND FREE ENERGY PREDICTED BY IDOCK:  -11.21 KCAL/MOL
REMARK 924 INTRA-LIGAND FREE ENERGY PREDICTED BY IDOCK:   -2.29 KCAL/MOL
REMARK 927      BINDING AFFINITY PREDICTED BY RF-SCORE:    0.00 PKD
ROOT
HETATM    1  C   UNL     1     -10.966  15.847  67.580  1.00  0.00    -0.298 C  
HETATM    2  C   UNL     1     -10.471  16.105  66.145  1.00  0.00    -0.334 C  
HETATM    3  C   UNL     1      -9.797  17.497  66.070  1.00  0.00    -0.195 C  
ENDROOT
BRANCH   2   4
HETATM    4  C   UNL     1      -9.382  15.068  65.795  1.00  0.00    -0.136 C  
HETATM    5  O   UNL     1      -8.312  15.101  66.736  1.00  0.00    -0.249 OA 
HETATM    6  H   UNL     1      -7.642  14.463  66.521  1.00  0.00     0.000 HD 
ENDBRANCH   2   4
BRANCH   2   7
HETATM    7  C   UNL     1     -11.639  16.009  65.115  1.00  0.00     0.192 C  
HETATM    8  O   UNL     1     -11.294  16.549  63.828  1.00  0.00    -1.553 OA 
HETATM    9  H   UNL     1     -12.005  16.491  63.201  1.00  0.00     0.000 HD 
BRANCH   7  10
HETATM   10  C   UNL     1     -12.193  14.585  64.886  1.00  0.00    -0.402 C  
HETATM   11  O   UNL     1     -13.092  14.071  65.545  1.00  0.00    -0.713 OA 
HETATM   12  N   UNL     1     -11.625  13.952  63.803  1.00  0.00    -0.617 N  
HETATM   13  H   UNL     1     -10.836  14.386  63.323  1.00  0.00     0.000 HD 
BRANCH  12  14
HETATM   14  C   UNL     1     -12.133  12.681  63.337  1.00  0.00    -0.525 C  
BRANCH  14  15
HETATM   15  C   UNL     1     -11.616  11.494  64.143  1.00  0.00    -0.251 C  
BRANCH  15  16
HETATM   16  C   UNL     1     -10.232  11.140  63.649  1.00  0.00    -0.387 C  
HETATM   17  O   UNL     1      -9.547  11.938  63.015  1.00  0.00    -0.376 OA 
HETATM   18  N   UNL     1      -9.813   9.876  63.995  1.00  0.00    -0.467 N  
HETATM   19  H   UNL     1     -10.444   9.313  64.565  1.00  0.00     0.000 HD 
BRANCH  18  20
HETATM   20  C   UNL     1      -8.534   9.273  63.610  1.00  0.00    -0.195 C  
BRANCH  20  21
HETATM   21  C   UNL     1      -7.426   9.252  64.667  1.00  0.00    -0.102 C  
BRANCH  21  22
HETATM   22  S   UNL     1      -6.935   7.583  65.248  1.00  0.00    -0.060 SA 
BRANCH  22  23
HETATM   23  S   UNL     1      -8.008   6.299  64.045  1.00  0.00    -0.064 SA 
BRANCH  23  24
HETATM   24  C   UNL     1      -8.878   5.282  65.283  1.00  0.00    -0.143 C  
BRANCH  24  25
HETATM   25  C   UNL     1      -8.688   5.846  66.693  1.00  0.00    -0.121 C  
BRANCH  25  26
HETATM   26  N   UNL     1      -9.852   5.720  67.567  1.00  0.00    -0.122 N  
HETATM   27  H   UNL     1     -10.674   5.236  67.207  1.00  0.00     0.000 HD 
HETATM   28  C   UNL     1      -9.900   6.221  68.851  1.00  0.00    -0.134 C  
HETATM   29  O   UNL     1      -8.993   6.867  69.365  1.00  0.00    -0.138 OA 
BRANCH  28  30
HETATM   30  C   UNL     1     -11.160   5.876  69.611  1.00  0.00    -0.414 C  
BRANCH  30  31
HETATM   31  C   UNL     1     -11.466   6.969  70.630  1.00  0.00    -0.324 C  
BRANCH  31  32
HETATM   32  N   UNL     1     -11.634   8.267  70.006  1.00  0.00    -0.450 N  
HETATM   33  H   UNL     1     -12.137   8.325  69.120  1.00  0.00     0.000 HD 
HETATM   34  C   UNL     1     -11.142   9.423  70.565  1.00  0.00    -0.273 C  
HETATM   35  O   UNL     1     -10.448   9.443  71.578  1.00  0.00    -0.337 OA 
BRANCH  34  36
HETATM   36  C   UNL     1     -11.477  10.700  69.763  1.00  0.00    -0.302 C  
HETATM   37  O   UNL     1     -12.866  10.700  69.398  1.00  0.00    -0.629 OA 
HETATM   38  H   UNL     1     -13.072  11.485  68.904  1.00  0.00     0.000 HD 
BRANCH  36  39
HETATM   39  C   UNL     1     -10.592  10.886  68.498  1.00  0.00    -0.219 C  
HETATM   40  C   UNL     1     -10.737   9.694  67.529  1.00  0.00    -0.321 C  
HETATM   41  C   UNL     1     -11.062  12.152  67.745  1.00  0.00    -0.302 C  
BRANCH  39  42
HETATM   42  C   UNL     1      -9.111  11.059  68.911  1.00  0.00    -0.123 C  
HETATM   43  O   UNL     1      -8.507   9.814  69.249  1.00  0.00    -0.128 OA 
HETATM   44  H   UNL     1      -7.597   9.921  69.503  1.00  0.00     0.000 HD 
ENDBRANCH  39  42
ENDBRANCH  36  39
ENDBRANCH  34  36
ENDBRANCH  31  32
ENDBRANCH  30  31
ENDBRANCH  28  30
ENDBRANCH  25  26
ENDBRANCH  24  25
ENDBRANCH  23  24
ENDBRANCH  22  23
ENDBRANCH  21  22
ENDBRANCH  20  21
ENDBRANCH  18  20
ENDBRANCH  15  16
ENDBRANCH  14  15
ENDBRANCH  12  14
ENDBRANCH   7  10
ENDBRANCH   2   7
TORSDOF 19
ENDMDL
MODEL       45
REMARK 921   NORMALIZED FREE ENERGY PREDICTED BY IDOCK:   -5.36 KCAL/MOL
REMARK 922        TOTAL FREE ENERGY PREDICTED BY IDOCK:  -13.49 KCAL/MOL
REMARK 923 INTER-LIGAND FREE ENERGY PREDICTED BY IDOCK:  -12.06 KCAL/MOL
REMARK 924 INTRA-LIGAND FREE ENERGY PREDICTED BY IDOCK:   -1.43 KCAL/MOL
REMARK 927      BINDING AFFINITY PREDICTED BY RF-SCORE:    0.00 PKD
ROOT
HETATM    1  C   UNL     1     -10.935   7.809  73.067  1.00  0.00    -0.442 C  
HETATM    2  C   UNL     1     -11.758   8.228  71.835  1.00  0.00    -0.381 C  
HETATM    3  C   UNL     1     -12.564   7.013  71.313  1.00  0.00    -0.418 C  
ENDROOT
BRANCH   2   4
HETATM    4  C   UNL     1     -12.791   9.294  72.259  1.00  0.00    -0.384 C  
HETATM    5  O   UNL     1     -13.559   8.856  73.378  1.00  0.00    -0.970 OA 
HETATM    6  H   UNL     1     -14.195   9.512  73.638  1.00  0.00     0.000 HD 
ENDBRANCH   2   4
BRANCH   2   7
HETATM    7  C   UNL     1     -10.843   8.801  70.708  1.00  0.00    -0.234 C  
HETATM    8  O   UNL     1      -9.662   9.441  71.219  1.00  0.00    -0.262 OA 
HETATM    9  H   UNL     1      -9.105   9.789  70.533  1.00  0.00     0.000 HD 
BRANCH   7  10
HETATM   10  C   UNL     1     -10.391   7.771  69.649  1.00  0.00    -0.212 C  
HETATM   11  O   UNL     1      -9.728   6.766  69.889  1.00  0.00    -0.159 OA 
HETATM   12  N   UNL     1     -10.870   8.048  68.388  1.00  0.00    -0.432 N  
HETATM   13  H   UNL     1     -11.360   8.927  68.216  1.00  0.00     0.000 HD 
BRANCH  12  14
HETATM   14  C   UNL     1     -10.688   7.109  67.303  1.00  0.00    -0.329 C  
BRANCH  14  15
HETATM   15  C   UNL     1      -9.402   7.341  66.515  1.00  0.00    -0.216 C  
BRANCH  15  16
HETATM   16  C   UNL     1      -9.191   8.831  66.363  1.00  0.00    -0.189 C  
HETATM   17  O   UNL     1      -8.706   9.511  67.263  1.00  0.00    -0.127 OA 
HETATM   18  N   UNL     1      -9.560   9.332  65.136  1.00  0.00    -0.458 N  
HETATM   19  H   UNL     1      -9.906   8.669  64.444  1.00  0.00     0.000 HD 
BRANCH  18  20
HETATM   20  C   UNL     1      -9.494  10.743  64.744  1.00  0.00    -0.247 C  
BRANCH  20  21
HETATM   21  C   UNL     1     -10.152  11.130  63.416  1.00  0.00    -0.390 C  
BRANCH  21  22
HETATM   22  S   UNL     1     -11.574  12.280  63.557  1.00  0.00    -0.481 SA 
BRANCH  22  23
HETATM   23  S   UNL     1     -11.035  13.557  65.081  1.00  0.00    -0.337 SA 
BRANCH  23  24
HETATM   24  C   UNL     1     -12.380  13.281  66.280  1.00  0.00    -0.317 C  
BRANCH  24  25
HETATM   25  C   UNL     1     -11.890  13.483  67.716  1.00  0.00    -0.362 C  
BRANCH  25  26
HETATM   26  N   UNL     1     -11.144  14.719  67.942  1.00  0.00    -0.282 N  
HETATM   27  H   UNL     1     -10.379  14.942  67.306  1.00  0.00     0.000 HD 
HETATM   28  C   UNL     1     -11.418  15.599  68.968  1.00  0.00    -0.363 C  
HETATM   29  O   UNL     1     -12.277  15.405  69.822  1.00  0.00    -0.337 OA 
BRANCH  28  30
HETATM   30  C   UNL     1     -10.595  16.866  68.942  1.00  0.00    -0.353 C  
BRANCH  30  31
HETATM   31  C   UNL     1     -10.864  17.632  67.650  1.00  0.00    -0.221 C  
BRANCH  31  32
HETATM   32  N   UNL     1      -9.714  18.408  67.224  1.00  0.00    -0.290 N  
HETATM   33  H   UNL     1      -9.039  17.978  66.591  1.00  0.00     0.000 HD 
HETATM   34  C   UNL     1      -9.501  19.700  67.642  1.00  0.00    -0.337 C  
HETATM   35  O   UNL     1     -10.205  20.269  68.472  1.00  0.00    -0.352 OA 
BRANCH  34  36
HETATM   36  C   UNL     1      -8.245  20.358  67.029  1.00  0.00    -0.292 C  
HETATM   37  O   UNL     1      -8.212  20.125  65.612  1.00  0.00    -0.475 OA 
HETATM   38  H   UNL     1      -7.439  20.530  65.235  1.00  0.00     0.000 HD 
BRANCH  36  39
HETATM   39  C   UNL     1      -6.917  19.883  67.681  1.00  0.00    -0.282 C  
HETATM   40  C   UNL     1      -5.977  21.070  67.975  1.00  0.00    -0.396 C  
HETATM   41  C   UNL     1      -7.242  19.206  69.033  1.00  0.00    -0.370 C  
BRANCH  39  42
HETATM   42  C   UNL     1      -6.211  18.861  66.757  1.00  0.00    -0.181 C  
HETATM   43  O   UNL     1      -6.964  17.661  66.622  1.00  0.00    -0.181 OA 
HETATM   44  H   UNL     1      -6.531  17.034  66.054  1.00  0.00     0.000 HD 
ENDBRANCH  39  42
ENDBRANCH  36  39
ENDBRANCH  34  36
ENDBRANCH  31  32
ENDBRANCH  30  31
ENDBRANCH  28  30
ENDBRANCH  25  26
ENDBRANCH  24  25
ENDBRANCH  23  24
ENDBRANCH  22  23
ENDBRANCH  21  22
ENDBRANCH  20  21
ENDBRANCH  18  20
ENDBRANCH  15  16
ENDBRANCH  14  15
ENDBRANCH  12  14
ENDBRANCH   7  10
ENDBRANCH   2   7
TORSDOF 19
ENDMDL
MODEL       46
REMARK 921   NORMALIZED FREE ENERGY PREDICTED BY IDOCK:   -5.32 KCAL/MOL
REMARK 922        TOTAL FREE ENERGY PREDICTED BY IDOCK:  -13.42 KCAL/MOL
REMARK 923 INTER-LIGAND FREE ENERGY PREDICTED BY IDOCK:  -11.25 KCAL/MOL
REMARK 924 INTRA-LIGAND FREE ENERGY PREDICTED BY IDOCK:   -2.16 KCAL/MOL
REMARK 927      BINDING AFFINITY PREDICTED BY RF-SCORE:    0.00 PKD
ROOT
HETATM    1  C   UNL     1     -10.014   8.085  72.710  1.00  0.00    -0.364 C  
HETATM    2  C   UNL     1     -10.957   8.146  71.494  1.00  0.00    -0.294 C  
HETATM    3  C   UNL     1     -12.003   9.269  71.705  1.00  0.00    -0.455 C  
ENDROOT
BRANCH   2   4
HETATM    4  C   UNL     1     -10.141   8.533  70.243  1.00  0.00    -0.186 C  
HETATM    5  O   UNL     1     -10.966   8.592  69.083  1.00  0.00    -0.419 OA 
HETATM    6  H   UNL     1     -10.463   8.830  68.312  1.00  0.00     0.000 HD 
ENDBRANCH   2   4
BRANCH   2   7
HETATM    7  C   UNL     1     -11.668   6.777  71.257  1.00  0.00    -0.336 C  
HETATM    8  O   UNL     1     -12.700   6.849  70.259  1.00  0.00    -0.539 OA 
HETATM    9  H   UNL     1     -13.132   6.016  70.115  1.00  0.00     0.000 HD 
BRANCH   7  10
HETATM   10  C   UNL     1     -10.729   5.613  70.868  1.00  0.00    -0.243 C  
HETATM   11  O   UNL     1     -10.223   4.827  71.664  1.00  0.00    -0.194 OA 
HETATM   12  N   UNL     1     -10.561   5.487  69.507  1.00  0.00    -0.306 N  
HETATM   13  H   UNL     1     -10.943   6.199  68.884  1.00  0.00     0.000 HD 
BRANCH  12  14
HETATM   14  C   UNL     1      -9.851   4.357  68.949  1.00  0.00    -0.093 C  
BRANCH  14  15
HETATM   15  C   UNL     1      -9.738   4.407  67.429  1.00  0.00    -0.217 C  
BRANCH  15  16
HETATM   16  C   UNL     1      -9.984   5.828  66.973  1.00  0.00    -0.165 C  
HETATM   17  O   UNL     1     -11.118   6.284  66.862  1.00  0.00    -0.361 OA 
HETATM   18  N   UNL     1      -8.839   6.550  66.727  1.00  0.00    -0.125 N  
HETATM   19  H   UNL     1      -7.948   6.087  66.899  1.00  0.00     0.000 HD 
BRANCH  18  20
HETATM   20  C   UNL     1      -8.798   7.931  66.240  1.00  0.00    -0.159 C  
BRANCH  20  21
HETATM   21  C   UNL     1      -7.924   8.920  67.016  1.00  0.00    -0.102 C  
BRANCH  21  22
HETATM   22  S   UNL     1      -8.366  10.687  66.799  1.00  0.00    -0.136 SA 
BRANCH  22  23
HETATM   23  S   UNL     1     -10.238  10.632  65.939  1.00  0.00    -0.231 SA 
BRANCH  23  24
HETATM   24  C   UNL     1      -9.822  10.568  64.166  1.00  0.00    -0.337 C  
BRANCH  24  25
HETATM   25  C   UNL     1     -10.347  11.803  63.430  1.00  0.00    -0.439 C  
BRANCH  25  26
HETATM   26  N   UNL     1     -10.518  12.988  64.265  1.00  0.00    -0.432 N  
HETATM   27  H   UNL     1      -9.814  13.182  64.977  1.00  0.00     0.000 HD 
HETATM   28  C   UNL     1     -11.580  13.860  64.145  1.00  0.00    -0.298 C  
HETATM   29  O   UNL     1     -12.511  13.696  63.364  1.00  0.00    -0.784 OA 
BRANCH  28  30
HETATM   30  C   UNL     1     -11.494  15.079  65.035  1.00  0.00    -0.364 C  
BRANCH  30  31
HETATM   31  C   UNL     1     -10.611  14.777  66.242  1.00  0.00    -0.305 C  
BRANCH  31  32
HETATM   32  N   UNL     1      -9.633  15.822  66.479  1.00  0.00    -0.247 N  
HETATM   33  H   UNL     1      -8.759  15.804  65.953  1.00  0.00     0.000 HD 
HETATM   34  C   UNL     1      -9.841  16.834  67.386  1.00  0.00    -0.252 C  
HETATM   35  O   UNL     1     -10.818  16.889  68.127  1.00  0.00    -0.362 OA 
BRANCH  34  36
HETATM   36  C   UNL     1      -8.695  17.869  67.444  1.00  0.00    -0.237 C  
HETATM   37  O   UNL     1      -8.191  17.967  68.785  1.00  0.00    -0.291 OA 
HETATM   38  H   UNL     1      -7.486  18.604  68.821  1.00  0.00     0.000 HD 
BRANCH  36  39
HETATM   39  C   UNL     1      -9.105  19.275  66.922  1.00  0.00    -0.358 C  
HETATM   40  C   UNL     1      -8.007  19.885  66.026  1.00  0.00    -0.328 C  
HETATM   41  C   UNL     1     -10.379  19.132  66.057  1.00  0.00    -0.538 C  
BRANCH  39  42
HETATM   42  C   UNL     1      -9.401  20.215  68.115  1.00  0.00    -0.184 C  
HETATM   43  O   UNL     1     -10.489  19.743  68.903  1.00  0.00    -0.571 OA 
HETATM   44  H   UNL     1     -10.672  20.320  69.635  1.00  0.00     0.000 HD 
ENDBRANCH  39  42
ENDBRANCH  36  39
ENDBRANCH  34  36
ENDBRANCH  31  32
ENDBRANCH  30  31
ENDBRANCH  28  30
ENDBRANCH  25  26
ENDBRANCH  24  25
ENDBRANCH  23  24
ENDBRANCH  22  23
ENDBRANCH  21  22
ENDBRANCH  20  21
ENDBRANCH  18  20
ENDBRANCH  15  16
ENDBRANCH  14  15
ENDBRANCH  12  14
ENDBRANCH   7  10
ENDBRANCH   2   7
TORSDOF 19
ENDMDL
MODEL       47
REMARK 921   NORMALIZED FREE ENERGY PREDICTED BY IDOCK:   -5.31 KCAL/MOL
REMARK 922        TOTAL FREE ENERGY PREDICTED BY IDOCK:  -13.39 KCAL/MOL
REMARK 923 INTER-LIGAND FREE ENERGY PREDICTED BY IDOCK:  -10.99 KCAL/MOL
REMARK 924 INTRA-LIGAND FREE ENERGY PREDICTED BY IDOCK:   -2.40 KCAL/MOL
REMARK 927      BINDING AFFINITY PREDICTED BY RF-SCORE:    0.00 PKD
ROOT
HETATM    1  C   UNL     1     -10.255  17.424  66.407  1.00  0.00    -0.339 C  
HETATM    2  C   UNL     1     -10.582  15.965  66.037  1.00  0.00    -0.331 C  
HETATM    3  C   UNL     1      -9.317  15.280  65.463  1.00  0.00     0.001 C  
ENDROOT
BRANCH   2   4
HETATM    4  C   UNL     1     -10.960  15.193  67.318  1.00  0.00    -0.327 C  
HETATM    5  O   UNL     1     -10.228  13.974  67.425  1.00  0.00    -0.245 OA 
HETATM    6  H   UNL     1     -10.462  13.499  68.213  1.00  0.00     0.000 HD 
ENDBRANCH   2   4
BRANCH   2   7
HETATM    7  C   UNL     1     -11.755  15.889  65.010  1.00  0.00     0.164 C  
HETATM    8  O   UNL     1     -11.424  16.473  63.739  1.00  0.00    -1.615 OA 
HETATM    9  H   UNL     1     -12.138  16.426  63.115  1.00  0.00     0.000 HD 
BRANCH   7  10
HETATM   10  C   UNL     1     -12.295  14.467  64.741  1.00  0.00    -0.414 C  
HETATM   11  O   UNL     1     -13.392  14.055  65.107  1.00  0.00    -0.703 OA 
HETATM   12  N   UNL     1     -11.446  13.704  63.970  1.00  0.00    -0.593 N  
HETATM   13  H   UNL     1     -10.517  14.058  63.743  1.00  0.00     0.000 HD 
BRANCH  12  14
HETATM   14  C   UNL     1     -11.855  12.407  63.479  1.00  0.00    -0.521 C  
BRANCH  14  15
HETATM   15  C   UNL     1     -10.765  11.347  63.598  1.00  0.00    -0.470 C  
BRANCH  15  16
HETATM   16  C   UNL     1     -10.224  11.365  65.010  1.00  0.00    -0.281 C  
HETATM   17  O   UNL     1     -10.960  11.503  65.982  1.00  0.00    -0.291 OA 
HETATM   18  N   UNL     1      -8.863  11.188  65.097  1.00  0.00    -0.366 N  
HETATM   19  H   UNL     1      -8.354  11.034  64.228  1.00  0.00     0.000 HD 
BRANCH  18  20
HETATM   20  C   UNL     1      -8.085  11.203  66.339  1.00  0.00    -0.159 C  
BRANCH  20  21
HETATM   21  C   UNL     1      -8.094   9.926  67.184  1.00  0.00    -0.117 C  
BRANCH  21  22
HETATM   22  S   UNL     1      -6.443   9.194  67.507  1.00  0.00    -0.064 SA 
BRANCH  22  23
HETATM   23  S   UNL     1      -6.338   9.084  69.562  1.00  0.00    -0.044 SA 
BRANCH  23  24
HETATM   24  C   UNL     1      -6.334   7.280  69.830  1.00  0.00    -0.035 C  
BRANCH  24  25
HETATM   25  C   UNL     1      -6.877   6.539  68.606  1.00  0.00    -0.070 C  
BRANCH  25  26
HETATM   26  N   UNL     1      -8.315   6.284  68.630  1.00  0.00    -0.112 N  
HETATM   27  H   UNL     1      -8.806   6.377  69.520  1.00  0.00     0.000 HD 
HETATM   28  C   UNL     1      -9.046   5.926  67.517  1.00  0.00    -0.106 C  
HETATM   29  O   UNL     1      -8.552   5.731  66.411  1.00  0.00    -0.119 OA 
BRANCH  28  30
HETATM   30  C   UNL     1     -10.536   5.824  67.751  1.00  0.00    -0.289 C  
BRANCH  30  31
HETATM   31  C   UNL     1     -10.838   5.993  69.237  1.00  0.00    -0.358 C  
BRANCH  31  32
HETATM   32  N   UNL     1     -11.557   7.222  69.514  1.00  0.00    -0.455 N  
HETATM   33  H   UNL     1     -12.565   7.247  69.363  1.00  0.00     0.000 HD 
HETATM   34  C   UNL     1     -10.927   8.356  69.970  1.00  0.00    -0.194 C  
HETATM   35  O   UNL     1      -9.709   8.452  70.094  1.00  0.00    -0.171 OA 
BRANCH  34  36
HETATM   36  C   UNL     1     -11.885   9.536  70.249  1.00  0.00    -0.057 C  
HETATM   37  O   UNL     1     -11.137  10.755  70.382  1.00  0.00    -0.440 OA 
HETATM   38  H   UNL     1     -11.726  11.480  70.553  1.00  0.00     0.000 HD 
BRANCH  36  39
HETATM   39  C   UNL     1     -12.784   9.321  71.498  1.00  0.00    -0.426 C  
HETATM   40  C   UNL     1     -12.073   8.460  72.563  1.00  0.00    -0.403 C  
HETATM   41  C   UNL     1     -13.080  10.696  72.141  1.00  0.00    -0.382 C  
BRANCH  39  42
HETATM   42  C   UNL     1     -14.118   8.656  71.082  1.00  0.00    -0.067 C  
HETATM   43  O   UNL     1     -13.993   7.242  70.971  1.00  0.00    -0.593 OA 
HETATM   44  H   UNL     1     -14.812   6.834  70.715  1.00  0.00     0.000 HD 
ENDBRANCH  39  42
ENDBRANCH  36  39
ENDBRANCH  34  36
ENDBRANCH  31  32
ENDBRANCH  30  31
ENDBRANCH  28  30
ENDBRANCH  25  26
ENDBRANCH  24  25
ENDBRANCH  23  24
ENDBRANCH  22  23
ENDBRANCH  21  22
ENDBRANCH  20  21
ENDBRANCH  18  20
ENDBRANCH  15  16
ENDBRANCH  14  15
ENDBRANCH  12  14
ENDBRANCH   7  10
ENDBRANCH   2   7
TORSDOF 19
ENDMDL
MODEL       48
REMARK 921   NORMALIZED FREE ENERGY PREDICTED BY IDOCK:   -5.30 KCAL/MOL
REMARK 922        TOTAL FREE ENERGY PREDICTED BY IDOCK:  -13.36 KCAL/MOL
REMARK 923 INTER-LIGAND FREE ENERGY PREDICTED BY IDOCK:  -11.22 KCAL/MOL
REMARK 924 INTRA-LIGAND FREE ENERGY PREDICTED BY IDOCK:   -2.14 KCAL/MOL
REMARK 927      BINDING AFFINITY PREDICTED BY RF-SCORE:    0.00 PKD
ROOT
HETATM    1  C   UNL     1     -10.980   6.855  68.858  1.00  0.00    -0.217 C  
HETATM    2  C   UNL     1     -10.654   6.460  70.310  1.00  0.00    -0.290 C  
HETATM    3  C   UNL     1     -10.013   5.050  70.333  1.00  0.00    -0.317 C  
ENDROOT
BRANCH   2   4
HETATM    4  C   UNL     1      -9.598   7.434  70.872  1.00  0.00    -0.166 C  
HETATM    5  O   UNL     1      -9.082   6.978  72.120  1.00  0.00    -0.132 OA 
HETATM    6  H   UNL     1      -8.432   7.578  72.466  1.00  0.00     0.000 HD 
ENDBRANCH   2   4
BRANCH   2   7
HETATM    7  C   UNL     1     -11.931   6.492  71.208  1.00  0.00    -0.306 C  
HETATM    8  O   UNL     1     -11.855   5.584  72.320  1.00  0.00    -0.163 OA 
HETATM    9  H   UNL     1     -12.631   5.604  72.866  1.00  0.00     0.000 HD 
BRANCH   7  10
HETATM   10  C   UNL     1     -12.297   7.884  71.771  1.00  0.00    -0.320 C  
HETATM   11  O   UNL     1     -11.870   8.346  72.825  1.00  0.00    -0.371 OA 
HETATM   12  N   UNL     1     -13.111   8.609  70.929  1.00  0.00    -0.479 N  
HETATM   13  H   UNL     1     -13.499   8.165  70.096  1.00  0.00     0.000 HD 
BRANCH  12  14
HETATM   14  C   UNL     1     -13.423   9.992  71.211  1.00  0.00    -0.258 C  
BRANCH  14  15
HETATM   15  C   UNL     1     -12.212  10.915  71.117  1.00  0.00    -0.441 C  
BRANCH  15  16
HETATM   16  C   UNL     1     -11.659  10.844  69.711  1.00  0.00    -0.322 C  
HETATM   17  O   UNL     1     -12.393  10.798  68.729  1.00  0.00    -0.435 OA 
HETATM   18  N   UNL     1     -10.285  10.863  69.643  1.00  0.00    -0.445 N  
HETATM   19  H   UNL     1      -9.773  10.952  70.520  1.00  0.00     0.000 HD 
BRANCH  18  20
HETATM   20  C   UNL     1      -9.498  10.767  68.411  1.00  0.00    -0.174 C  
BRANCH  20  21
HETATM   21  C   UNL     1      -8.008  10.442  68.557  1.00  0.00    -0.114 C  
BRANCH  21  22
HETATM   22  S   UNL     1      -7.017  10.625  67.024  1.00  0.00    -0.101 SA 
BRANCH  22  23
HETATM   23  S   UNL     1      -6.924   8.715  66.258  1.00  0.00    -0.078 SA 
BRANCH  23  24
HETATM   24  C   UNL     1      -8.509   8.604  65.363  1.00  0.00    -0.172 C  
BRANCH  24  25
HETATM   25  C   UNL     1      -8.523   9.536  64.149  1.00  0.00    -0.186 C  
BRANCH  25  26
HETATM   26  N   UNL     1      -9.839  10.067  63.799  1.00  0.00    -0.489 N  
HETATM   27  H   UNL     1     -10.384   9.575  63.091  1.00  0.00     0.000 HD 
HETATM   28  C   UNL     1     -10.382  11.197  64.373  1.00  0.00    -0.344 C  
HETATM   29  O   UNL     1      -9.794  11.897  65.190  1.00  0.00    -0.245 OA 
BRANCH  28  30
HETATM   30  C   UNL     1     -11.800  11.498  63.943  1.00  0.00    -0.210 C  
BRANCH  30  31
HETATM   31  C   UNL     1     -11.849  12.842  63.224  1.00  0.00    -0.398 C  
BRANCH  31  32
HETATM   32  N   UNL     1     -11.381  13.929  64.063  1.00  0.00    -0.596 N  
HETATM   33  H   UNL     1     -10.440  14.294  63.915  1.00  0.00     0.000 HD 
HETATM   34  C   UNL     1     -12.160  14.485  65.051  1.00  0.00    -0.389 C  
HETATM   35  O   UNL     1     -13.266  14.055  65.363  1.00  0.00    -0.761 OA 
BRANCH  34  36
HETATM   36  C   UNL     1     -11.487  15.663  65.791  1.00  0.00     0.146 C  
HETATM   37  O   UNL     1     -10.495  16.269  64.948  1.00  0.00    -0.624 OA 
HETATM   38  H   UNL     1     -10.081  16.993  65.403  1.00  0.00     0.000 HD 
BRANCH  36  39
HETATM   39  C   UNL     1     -10.858  15.258  67.153  1.00  0.00    -0.322 C  
HETATM   40  C   UNL     1      -9.367  14.893  66.999  1.00  0.00    -0.240 C  
HETATM   41  C   UNL     1     -10.939  16.466  68.116  1.00  0.00    -0.339 C  
BRANCH  39  42
HETATM   42  C   UNL     1     -11.638  14.068  67.763  1.00  0.00    -0.345 C  
HETATM   43  O   UNL     1     -12.479  14.480  68.835  1.00  0.00    -0.573 OA 
HETATM   44  H   UNL     1     -12.957  13.750  69.209  1.00  0.00     0.000 HD 
ENDBRANCH  39  42
ENDBRANCH  36  39
ENDBRANCH  34  36
ENDBRANCH  31  32
ENDBRANCH  30  31
ENDBRANCH  28  30
ENDBRANCH  25  26
ENDBRANCH  24  25
ENDBRANCH  23  24
ENDBRANCH  22  23
ENDBRANCH  21  22
ENDBRANCH  20  21
ENDBRANCH  18  20
ENDBRANCH  15  16
ENDBRANCH  14  15
ENDBRANCH  12  14
ENDBRANCH   7  10
ENDBRANCH   2   7
TORSDOF 19
ENDMDL
MODEL       49
REMARK 921   NORMALIZED FREE ENERGY PREDICTED BY IDOCK:   -5.29 KCAL/MOL
REMARK 922        TOTAL FREE ENERGY PREDICTED BY IDOCK:  -13.35 KCAL/MOL
REMARK 923 INTER-LIGAND FREE ENERGY PREDICTED BY IDOCK:  -10.50 KCAL/MOL
REMARK 924 INTRA-LIGAND FREE ENERGY PREDICTED BY IDOCK:   -2.84 KCAL/MOL
REMARK 927      BINDING AFFINITY PREDICTED BY RF-SCORE:    0.00 PKD
ROOT
HETATM    1  C   UNL     1     -11.804  11.995  67.725  1.00  0.00    -0.308 C  
HETATM    2  C   UNL     1     -11.416  13.364  68.315  1.00  0.00    -0.350 C  
HETATM    3  C   UNL     1     -12.026  13.510  69.731  1.00  0.00    -0.405 C  
ENDROOT
BRANCH   2   4
HETATM    4  C   UNL     1      -9.883  13.420  68.487  1.00  0.00    -0.178 C  
HETATM    5  O   UNL     1      -9.280  12.166  68.181  1.00  0.00    -0.187 OA 
HETATM    6  H   UNL     1      -8.336  12.200  68.287  1.00  0.00     0.000 HD 
ENDBRANCH   2   4
BRANCH   2   7
HETATM    7  C   UNL     1     -11.886  14.533  67.395  1.00  0.00    -0.388 C  
HETATM    8  O   UNL     1     -11.386  15.813  67.819  1.00  0.00    -0.322 OA 
HETATM    9  H   UNL     1     -11.671  16.524  67.259  1.00  0.00     0.000 HD 
BRANCH   7  10
HETATM   10  C   UNL     1     -11.532  14.370  65.900  1.00  0.00    -0.341 C  
HETATM   11  O   UNL     1     -10.469  14.715  65.392  1.00  0.00    -0.327 OA 
HETATM   12  N   UNL     1     -12.511  13.722  65.181  1.00  0.00    -0.523 N  
HETATM   13  H   UNL     1     -13.406  13.513  65.624  1.00  0.00     0.000 HD 
BRANCH  12  14
HETATM   14  C   UNL     1     -12.287  13.334  63.806  1.00  0.00    -0.367 C  
BRANCH  14  15
HETATM   15  C   UNL     1     -12.221  11.823  63.610  1.00  0.00    -0.489 C  
BRANCH  15  16
HETATM   16  C   UNL     1     -10.791  11.372  63.810  1.00  0.00    -0.395 C  
HETATM   17  O   UNL     1     -10.215  11.505  64.885  1.00  0.00    -0.247 OA 
HETATM   18  N   UNL     1     -10.222  10.787  62.702  1.00  0.00    -0.774 N  
HETATM   19  H   UNL     1     -10.808  10.683  61.874  1.00  0.00     0.000 HD 
BRANCH  18  20
HETATM   20  C   UNL     1      -8.842  10.301  62.616  1.00  0.00    -0.238 C  
BRANCH  20  21
HETATM   21  C   UNL     1      -8.566   8.887  63.135  1.00  0.00    -0.117 C  
BRANCH  21  22
HETATM   22  S   UNL     1      -7.715   8.805  64.758  1.00  0.00    -0.120 SA 
BRANCH  22  23
HETATM   23  S   UNL     1      -9.221   8.359  66.092  1.00  0.00    -0.191 SA 
BRANCH  23  24
HETATM   24  C   UNL     1      -8.268   7.841  67.557  1.00  0.00    -0.124 C  
BRANCH  24  25
HETATM   25  C   UNL     1      -8.214   8.956  68.604  1.00  0.00    -0.116 C  
BRANCH  25  26
HETATM   26  N   UNL     1      -9.517   9.445  69.046  1.00  0.00    -0.156 N  
HETATM   27  H   UNL     1     -10.217   9.661  68.336  1.00  0.00     0.000 HD 
HETATM   28  C   UNL     1      -9.853   9.631  70.371  1.00  0.00    -0.256 C  
HETATM   29  O   UNL     1      -9.074   9.458  71.303  1.00  0.00    -0.277 OA 
BRANCH  28  30
HETATM   30  C   UNL     1     -11.291  10.035  70.602  1.00  0.00    -0.425 C  
BRANCH  30  31
HETATM   31  C   UNL     1     -11.859   9.270  71.794  1.00  0.00    -0.384 C  
BRANCH  31  32
HETATM   32  N   UNL     1     -11.824   7.834  71.589  1.00  0.00    -0.276 N  
HETATM   33  H   UNL     1     -12.244   7.448  70.743  1.00  0.00     0.000 HD 
HETATM   34  C   UNL     1     -11.245   6.975  72.493  1.00  0.00    -0.275 C  
HETATM   35  O   UNL     1     -10.797   7.335  73.578  1.00  0.00    -0.375 OA 
BRANCH  34  36
HETATM   36  C   UNL     1     -11.272   5.494  72.056  1.00  0.00    -0.156 C  
HETATM   37  O   UNL     1     -11.310   4.642  73.212  1.00  0.00    -0.312 OA 
HETATM   38  H   UNL     1     -11.326   3.731  72.942  1.00  0.00     0.000 HD 
BRANCH  36  39
HETATM   39  C   UNL     1     -10.081   5.098  71.139  1.00  0.00    -0.291 C  
HETATM   40  C   UNL     1      -8.850   5.993  71.395  1.00  0.00    -0.136 C  
HETATM   41  C   UNL     1      -9.668   3.643  71.461  1.00  0.00    -0.238 C  
BRANCH  39  42
HETATM   42  C   UNL     1     -10.505   5.190  69.653  1.00  0.00    -0.191 C  
HETATM   43  O   UNL     1     -10.805   6.528  69.270  1.00  0.00    -0.248 OA 
HETATM   44  H   UNL     1     -11.065   6.585  68.359  1.00  0.00     0.000 HD 
ENDBRANCH  39  42
ENDBRANCH  36  39
ENDBRANCH  34  36
ENDBRANCH  31  32
ENDBRANCH  30  31
ENDBRANCH  28  30
ENDBRANCH  25  26
ENDBRANCH  24  25
ENDBRANCH  23  24
ENDBRANCH  22  23
ENDBRANCH  21  22
ENDBRANCH  20  21
ENDBRANCH  18  20
ENDBRANCH  15  16
ENDBRANCH  14  15
ENDBRANCH  12  14
ENDBRANCH   7  10
ENDBRANCH   2   7
TORSDOF 19
ENDMDL
MODEL       50
REMARK 921   NORMALIZED FREE ENERGY PREDICTED BY IDOCK:   -5.29 KCAL/MOL
REMARK 922        TOTAL FREE ENERGY PREDICTED BY IDOCK:  -13.34 KCAL/MOL
REMARK 923 INTER-LIGAND FREE ENERGY PREDICTED BY IDOCK:  -11.01 KCAL/MOL
REMARK 924 INTRA-LIGAND FREE ENERGY PREDICTED BY IDOCK:   -2.33 KCAL/MOL
REMARK 927      BINDING AFFINITY PREDICTED BY RF-SCORE:    0.00 PKD
ROOT
HETATM    1  C   UNL     1     -11.266  11.394  66.615  1.00  0.00    -0.298 C  
HETATM    2  C   UNL     1     -10.990  12.709  65.864  1.00  0.00    -0.310 C  
HETATM    3  C   UNL     1     -10.351  12.396  64.488  1.00  0.00    -0.351 C  
ENDROOT
BRANCH   2   4
HETATM    4  C   UNL     1     -12.332  13.416  65.577  1.00  0.00    -0.480 C  
HETATM    5  O   UNL     1     -13.186  12.603  64.775  1.00  0.00    -0.846 OA 
HETATM    6  H   UNL     1     -14.011  13.039  64.599  1.00  0.00     0.000 HD 
ENDBRANCH   2   4
BRANCH   2   7
HETATM    7  C   UNL     1     -10.064  13.654  66.692  1.00  0.00    -0.277 C  
HETATM    8  O   UNL     1      -8.915  14.100  65.951  1.00  0.00    -0.434 OA 
HETATM    9  H   UNL     1      -8.352  14.675  66.455  1.00  0.00     0.000 HD 
BRANCH   7  10
HETATM   10  C   UNL     1     -10.758  14.908  67.269  1.00  0.00    -0.294 C  
HETATM   11  O   UNL     1     -10.946  15.950  66.648  1.00  0.00    -0.262 OA 
HETATM   12  N   UNL     1     -11.226  14.724  68.551  1.00  0.00    -0.263 N  
HETATM   13  H   UNL     1     -10.991  13.869  69.055  1.00  0.00     0.000 HD 
BRANCH  12  14
HETATM   14  C   UNL     1     -12.045  15.728  69.192  1.00  0.00    -0.198 C  
BRANCH  14  15
HETATM   15  C   UNL     1     -11.906  15.739  70.711  1.00  0.00    -0.438 C  
BRANCH  15  16
HETATM   16  C   UNL     1     -12.882  14.742  71.293  1.00  0.00    -0.338 C  
HETATM   17  O   UNL     1     -13.994  15.079  71.686  1.00  0.00    -0.412 OA 
HETATM   18  N   UNL     1     -12.422  13.445  71.312  1.00  0.00    -0.324 N  
HETATM   19  H   UNL     1     -11.500  13.269  70.915  1.00  0.00     0.000 HD 
BRANCH  18  20
HETATM   20  C   UNL     1     -13.151  12.296  71.856  1.00  0.00    -0.363 C  
BRANCH  20  21
HETATM   21  C   UNL     1     -12.816  10.918  71.279  1.00  0.00    -0.433 C  
BRANCH  21  22
HETATM   22  S   UNL     1     -13.445   9.494  72.247  1.00  0.00    -0.376 SA 
BRANCH  22  23
HETATM   23  S   UNL     1     -11.856   8.183  72.299  1.00  0.00    -0.394 SA 
BRANCH  23  24
HETATM   24  C   UNL     1     -11.070   8.500  70.685  1.00  0.00    -0.252 C  
BRANCH  24  25
HETATM   25  C   UNL     1      -9.644   9.029  70.860  1.00  0.00    -0.262 C  
BRANCH  25  26
HETATM   26  N   UNL     1      -9.219   9.994  69.849  1.00  0.00    -0.350 N  
HETATM   27  H   UNL     1      -9.888  10.704  69.550  1.00  0.00     0.000 HD 
HETATM   28  C   UNL     1      -7.964   9.999  69.278  1.00  0.00    -0.130 C  
HETATM   29  O   UNL     1      -7.102   9.161  69.520  1.00  0.00    -0.056 OA 
BRANCH  28  30
HETATM   30  C   UNL     1      -7.707  11.157  68.341  1.00  0.00    -0.125 C  
BRANCH  30  31
HETATM   31  C   UNL     1      -7.788  10.679  66.894  1.00  0.00    -0.121 C  
BRANCH  31  32
HETATM   32  N   UNL     1      -7.800   9.232  66.795  1.00  0.00    -0.104 N  
HETATM   33  H   UNL     1      -7.221   8.691  67.437  1.00  0.00     0.000 HD 
HETATM   34  C   UNL     1      -8.565   8.563  65.868  1.00  0.00    -0.163 C  
HETATM   35  O   UNL     1      -9.221   9.127  64.997  1.00  0.00    -0.208 OA 
BRANCH  34  36
HETATM   36  C   UNL     1      -8.469   7.024  65.970  1.00  0.00    -0.139 C  
HETATM   37  O   UNL     1      -8.677   6.434  64.677  1.00  0.00    -0.347 OA 
HETATM   38  H   UNL     1      -8.618   5.487  64.740  1.00  0.00     0.000 HD 
BRANCH  36  39
HETATM   39  C   UNL     1      -9.455   6.411  67.003  1.00  0.00    -0.159 C  
HETATM   40  C   UNL     1      -8.799   6.265  68.391  1.00  0.00    -0.114 C  
HETATM   41  C   UNL     1     -10.664   7.362  67.162  1.00  0.00    -0.400 C  
BRANCH  39  42
HETATM   42  C   UNL     1      -9.954   5.033  66.503  1.00  0.00    -0.224 C  
HETATM   43  O   UNL     1     -11.100   5.157  65.668  1.00  0.00    -0.763 OA 
HETATM   44  H   UNL     1     -11.407   4.311  65.361  1.00  0.00     0.000 HD 
ENDBRANCH  39  42
ENDBRANCH  36  39
ENDBRANCH  34  36
ENDBRANCH  31  32
ENDBRANCH  30  31
ENDBRANCH  28  30
ENDBRANCH  25  26
ENDBRANCH  24  25
ENDBRANCH  23  24
ENDBRANCH  22  23
ENDBRANCH  21  22
ENDBRANCH  20  21
ENDBRANCH  18  20
ENDBRANCH  15  16
ENDBRANCH  14  15
ENDBRANCH  12  14
ENDBRANCH   7  10
ENDBRANCH   2   7
TORSDOF 19
ENDMDL
MODEL       51
REMARK 921   NORMALIZED FREE ENERGY PREDICTED BY IDOCK:   -5.29 KCAL/MOL
REMARK 922        TOTAL FREE ENERGY PREDICTED BY IDOCK:  -13.34 KCAL/MOL
REMARK 923 INTER-LIGAND FREE ENERGY PREDICTED BY IDOCK:  -10.61 KCAL/MOL
REMARK 924 INTRA-LIGAND FREE ENERGY PREDICTED BY IDOCK:   -2.73 KCAL/MOL
REMARK 927      BINDING AFFINITY PREDICTED BY RF-SCORE:    0.00 PKD
ROOT
HETATM    1  C   UNL     1     -13.061   9.032  72.095  1.00  0.00    -0.496 C  
HETATM    2  C   UNL     1     -11.896   8.445  71.277  1.00  0.00    -0.327 C  
HETATM    3  C   UNL     1     -10.577   8.585  72.078  1.00  0.00    -0.408 C  
ENDROOT
BRANCH   2   4
HETATM    4  C   UNL     1     -12.133   6.933  71.078  1.00  0.00    -0.380 C  
HETATM    5  O   UNL     1     -11.457   6.450  69.919  1.00  0.00    -0.404 OA 
HETATM    6  H   UNL     1     -11.603   5.519  69.797  1.00  0.00     0.000 HD 
ENDBRANCH   2   4
BRANCH   2   7
HETATM    7  C   UNL     1     -11.767   9.145  69.888  1.00  0.00     0.248 C  
HETATM    8  O   UNL     1     -12.568  10.334  69.785  1.00  0.00    -0.555 OA 
HETATM    9  H   UNL     1     -12.490  10.760  68.940  1.00  0.00     0.000 HD 
BRANCH   7  10
HETATM   10  C   UNL     1     -10.325   9.521  69.478  1.00  0.00    -0.217 C  
HETATM   11  O   UNL     1      -9.752  10.554  69.810  1.00  0.00    -0.139 OA 
HETATM   12  N   UNL     1      -9.698   8.537  68.747  1.00  0.00    -0.161 N  
HETATM   13  H   UNL     1     -10.230   7.724  68.434  1.00  0.00     0.000 HD 
BRANCH  12  14
HETATM   14  C   UNL     1      -8.294   8.641  68.416  1.00  0.00    -0.127 C  
BRANCH  14  15
HETATM   15  C   UNL     1      -7.675   7.312  67.995  1.00  0.00    -0.117 C  
BRANCH  15  16
HETATM   16  C   UNL     1      -8.192   6.952  66.620  1.00  0.00    -0.115 C  
HETATM   17  O   UNL     1      -9.393   6.887  66.377  1.00  0.00    -0.169 OA 
HETATM   18  N   UNL     1      -7.207   6.738  65.683  1.00  0.00    -0.071 N  
HETATM   19  H   UNL     1      -6.241   6.867  65.982  1.00  0.00     0.000 HD 
BRANCH  18  20
HETATM   20  C   UNL     1      -7.435   6.341  64.291  1.00  0.00    -0.086 C  
BRANCH  20  21
HETATM   21  C   UNL     1      -7.853   7.440  63.310  1.00  0.00    -0.122 C  
BRANCH  21  22
HETATM   22  S   UNL     1      -6.688   8.850  63.178  1.00  0.00    -0.089 SA 
BRANCH  22  23
HETATM   23  S   UNL     1      -7.400  10.217  64.547  1.00  0.00    -0.086 SA 
BRANCH  23  24
HETATM   24  C   UNL     1      -9.196  10.128  64.249  1.00  0.00    -0.266 C  
BRANCH  24  25
HETATM   25  C   UNL     1      -9.984  10.514  65.503  1.00  0.00    -0.279 C  
BRANCH  25  26
HETATM   26  N   UNL     1     -10.562  11.856  65.476  1.00  0.00    -0.260 N  
HETATM   27  H   UNL     1     -10.212  12.517  64.782  1.00  0.00     0.000 HD 
HETATM   28  C   UNL     1     -11.554  12.277  66.337  1.00  0.00    -0.383 C  
HETATM   29  O   UNL     1     -12.008  11.587  67.243  1.00  0.00    -0.605 OA 
BRANCH  28  30
HETATM   30  C   UNL     1     -12.080  13.665  66.054  1.00  0.00    -0.480 C  
BRANCH  30  31
HETATM   31  C   UNL     1     -11.566  14.639  67.109  1.00  0.00    -0.378 C  
BRANCH  31  32
HETATM   32  N   UNL     1     -11.709  14.114  68.454  1.00  0.00    -0.325 N  
HETATM   33  H   UNL     1     -11.890  13.118  68.576  1.00  0.00     0.000 HD 
HETATM   34  C   UNL     1     -11.610  14.912  69.570  1.00  0.00    -0.303 C  
HETATM   35  O   UNL     1     -11.486  16.132  69.522  1.00  0.00    -0.326 OA 
BRANCH  34  36
HETATM   36  C   UNL     1     -11.743  14.143  70.904  1.00  0.00    -0.121 C  
HETATM   37  O   UNL     1     -11.921  12.741  70.646  1.00  0.00    -0.510 OA 
HETATM   38  H   UNL     1     -12.003  12.268  71.466  1.00  0.00     0.000 HD 
BRANCH  36  39
HETATM   39  C   UNL     1     -12.891  14.670  71.809  1.00  0.00    -0.402 C  
HETATM   40  C   UNL     1     -14.035  15.278  70.973  1.00  0.00    -0.368 C  
HETATM   41  C   UNL     1     -13.482  13.482  72.604  1.00  0.00    -0.572 C  
BRANCH  39  42
HETATM   42  C   UNL     1     -12.340  15.722  72.802  1.00  0.00    -0.463 C  
HETATM   43  O   UNL     1     -13.153  15.829  73.965  1.00  0.00    -0.744 OA 
HETATM   44  H   UNL     1     -12.815  16.475  74.575  1.00  0.00     0.000 HD 
ENDBRANCH  39  42
ENDBRANCH  36  39
ENDBRANCH  34  36
ENDBRANCH  31  32
ENDBRANCH  30  31
ENDBRANCH  28  30
ENDBRANCH  25  26
ENDBRANCH  24  25
ENDBRANCH  23  24
ENDBRANCH  22  23
ENDBRANCH  21  22
ENDBRANCH  20  21
ENDBRANCH  18  20
ENDBRANCH  15  16
ENDBRANCH  14  15
ENDBRANCH  12  14
ENDBRANCH   7  10
ENDBRANCH   2   7
TORSDOF 19
ENDMDL
MODEL       52
REMARK 921   NORMALIZED FREE ENERGY PREDICTED BY IDOCK:   -5.29 KCAL/MOL
REMARK 922        TOTAL FREE ENERGY PREDICTED BY IDOCK:  -13.34 KCAL/MOL
REMARK 923 INTER-LIGAND FREE ENERGY PREDICTED BY IDOCK:  -11.67 KCAL/MOL
REMARK 924 INTRA-LIGAND FREE ENERGY PREDICTED BY IDOCK:   -1.67 KCAL/MOL
REMARK 927      BINDING AFFINITY PREDICTED BY RF-SCORE:    0.00 PKD
ROOT
HETATM    1  C   UNL     1      -8.277   5.169  67.500  1.00  0.00    -0.103 C  
HETATM    2  C   UNL     1      -9.381   6.067  68.088  1.00  0.00    -0.115 C  
HETATM    3  C   UNL     1      -8.776   7.433  68.495  1.00  0.00    -0.127 C  
ENDROOT
BRANCH   2   4
HETATM    4  C   UNL     1     -10.430   6.356  66.994  1.00  0.00    -0.282 C  
HETATM    5  O   UNL     1     -11.727   6.544  67.555  1.00  0.00    -0.596 OA 
HETATM    6  H   UNL     1     -12.373   6.722  66.881  1.00  0.00     0.000 HD 
ENDBRANCH   2   4
BRANCH   2   7
HETATM    7  C   UNL     1     -10.071   5.389  69.314  1.00  0.00    -0.231 C  
HETATM    8  O   UNL     1      -9.532   4.090  69.610  1.00  0.00    -0.161 OA 
HETATM    9  H   UNL     1      -9.952   3.678  70.355  1.00  0.00     0.000 HD 
BRANCH   7  10
HETATM   10  C   UNL     1     -10.038   6.214  70.620  1.00  0.00    -0.193 C  
HETATM   11  O   UNL     1      -9.117   6.200  71.431  1.00  0.00    -0.143 OA 
HETATM   12  N   UNL     1     -11.129   7.043  70.763  1.00  0.00    -0.261 N  
HETATM   13  H   UNL     1     -11.903   6.975  70.102  1.00  0.00     0.000 HD 
BRANCH  12  14
HETATM   14  C   UNL     1     -11.191   8.007  71.838  1.00  0.00    -0.280 C  
BRANCH  14  15
HETATM   15  C   UNL     1     -10.506   9.328  71.502  1.00  0.00    -0.385 C  
BRANCH  15  16
HETATM   16  C   UNL     1     -11.449  10.162  70.664  1.00  0.00    -0.349 C  
HETATM   17  O   UNL     1     -12.666  10.018  70.722  1.00  0.00    -0.315 OA 
HETATM   18  N   UNL     1     -10.824  11.095  69.869  1.00  0.00    -0.470 N  
HETATM   19  H   UNL     1      -9.809  11.163  69.935  1.00  0.00     0.000 HD 
BRANCH  18  20
HETATM   20  C   UNL     1     -11.500  12.000  68.936  1.00  0.00    -0.301 C  
BRANCH  20  21
HETATM   21  C   UNL     1     -11.364  11.692  67.442  1.00  0.00    -0.300 C  
BRANCH  21  22
HETATM   22  S   UNL     1      -9.648  11.418  66.856  1.00  0.00    -0.188 SA 
BRANCH  22  23
HETATM   23  S   UNL     1      -9.824   9.882  65.493  1.00  0.00    -0.289 SA 
BRANCH  23  24
HETATM   24  C   UNL     1      -9.079  10.628  64.006  1.00  0.00    -0.224 C  
BRANCH  24  25
HETATM   25  C   UNL     1     -10.155  11.094  63.023  1.00  0.00    -0.268 C  
BRANCH  25  26
HETATM   26  N   UNL     1     -10.730  12.404  63.318  1.00  0.00    -0.605 N  
HETATM   27  H   UNL     1     -10.096  13.196  63.422  1.00  0.00     0.000 HD 
HETATM   28  C   UNL     1     -12.084  12.628  63.462  1.00  0.00    -0.561 C  
HETATM   29  O   UNL     1     -12.930  11.742  63.412  1.00  0.00    -0.646 OA 
BRANCH  28  30
HETATM   30  C   UNL     1     -12.461  14.079  63.651  1.00  0.00     0.028 C  
BRANCH  30  31
HETATM   31  C   UNL     1     -12.554  14.400  65.140  1.00  0.00    -0.315 C  
BRANCH  31  32
HETATM   32  N   UNL     1     -11.282  14.833  65.687  1.00  0.00    -0.338 N  
HETATM   33  H   UNL     1     -10.861  14.290  66.440  1.00  0.00     0.000 HD 
HETATM   34  C   UNL     1     -10.624  15.950  65.226  1.00  0.00    -0.419 C  
HETATM   35  O   UNL     1     -11.093  16.716  64.390  1.00  0.00    -0.985 OA 
BRANCH  34  36
HETATM   36  C   UNL     1      -9.262  16.201  65.911  1.00  0.00    -0.261 C  
HETATM   37  O   UNL     1      -8.749  14.972  66.448  1.00  0.00    -0.419 OA 
HETATM   38  H   UNL     1      -7.911  15.127  66.869  1.00  0.00     0.000 HD 
BRANCH  36  39
HETATM   39  C   UNL     1      -9.320  17.287  67.021  1.00  0.00    -0.257 C  
HETATM   40  C   UNL     1     -10.646  17.221  67.807  1.00  0.00    -0.367 C  
HETATM   41  C   UNL     1      -8.174  17.030  68.029  1.00  0.00    -0.206 C  
BRANCH  39  42
HETATM   42  C   UNL     1      -9.141  18.692  66.396  1.00  0.00    -0.284 C  
HETATM   43  O   UNL     1     -10.376  19.225  65.931  1.00  0.00    -0.454 OA 
HETATM   44  H   UNL     1     -10.267  20.087  65.547  1.00  0.00     0.000 HD 
ENDBRANCH  39  42
ENDBRANCH  36  39
ENDBRANCH  34  36
ENDBRANCH  31  32
ENDBRANCH  30  31
ENDBRANCH  28  30
ENDBRANCH  25  26
ENDBRANCH  24  25
ENDBRANCH  23  24
ENDBRANCH  22  23
ENDBRANCH  21  22
ENDBRANCH  20  21
ENDBRANCH  18  20
ENDBRANCH  15  16
ENDBRANCH  14  15
ENDBRANCH  12  14
ENDBRANCH   7  10
ENDBRANCH   2   7
TORSDOF 19
ENDMDL
MODEL       53
REMARK 921   NORMALIZED FREE ENERGY PREDICTED BY IDOCK:   -5.27 KCAL/MOL
REMARK 922        TOTAL FREE ENERGY PREDICTED BY IDOCK:  -13.31 KCAL/MOL
REMARK 923 INTER-LIGAND FREE ENERGY PREDICTED BY IDOCK:  -10.36 KCAL/MOL
REMARK 924 INTRA-LIGAND FREE ENERGY PREDICTED BY IDOCK:   -2.95 KCAL/MOL
REMARK 927      BINDING AFFINITY PREDICTED BY RF-SCORE:    0.00 PKD
ROOT
HETATM    1  C   UNL     1      -7.018  11.542  68.885  1.00  0.00    -0.100 C  
HETATM    2  C   UNL     1      -6.764  12.972  68.372  1.00  0.00    -0.093 C  
HETATM    3  C   UNL     1      -6.439  13.902  69.567  1.00  0.00    -0.115 C  
ENDROOT
BRANCH   2   4
HETATM    4  C   UNL     1      -5.515  12.966  67.465  1.00  0.00    -0.070 C  
HETATM    5  O   UNL     1      -5.666  12.055  66.379  1.00  0.00    -0.502 OA 
HETATM    6  H   UNL     1      -4.897  12.051  65.822  1.00  0.00     0.000 HD 
ENDBRANCH   2   4
BRANCH   2   7
HETATM    7  C   UNL     1      -7.990  13.516  67.575  1.00  0.00    -0.181 C  
HETATM    8  O   UNL     1      -8.321  12.704  66.436  1.00  0.00    -0.406 OA 
HETATM    9  H   UNL     1      -9.067  13.035  65.951  1.00  0.00     0.000 HD 
BRANCH   7  10
HETATM   10  C   UNL     1      -9.281  13.696  68.406  1.00  0.00    -0.169 C  
HETATM   11  O   UNL     1      -9.494  14.632  69.171  1.00  0.00    -0.166 OA 
HETATM   12  N   UNL     1     -10.226  12.728  68.151  1.00  0.00    -0.235 N  
HETATM   13  H   UNL     1      -9.985  11.931  67.561  1.00  0.00     0.000 HD 
BRANCH  12  14
HETATM   14  C   UNL     1     -11.556  12.825  68.711  1.00  0.00    -0.312 C  
BRANCH  14  15
HETATM   15  C   UNL     1     -12.143  11.474  69.105  1.00  0.00    -0.329 C  
BRANCH  15  16
HETATM   16  C   UNL     1     -11.048  10.433  69.040  1.00  0.00    -0.248 C  
HETATM   17  O   UNL     1     -10.101  10.440  69.820  1.00  0.00    -0.227 OA 
HETATM   18  N   UNL     1     -11.229   9.483  68.061  1.00  0.00    -0.509 N  
HETATM   19  H   UNL     1     -12.078   9.544  67.499  1.00  0.00     0.000 HD 
BRANCH  18  20
HETATM   20  C   UNL     1     -10.300   8.391  67.760  1.00  0.00    -0.235 C  
BRANCH  20  21
HETATM   21  C   UNL     1      -9.913   8.187  66.292  1.00  0.00    -0.077 C  
BRANCH  21  22
HETATM   22  S   UNL     1      -8.406   9.083  65.753  1.00  0.00    -0.135 SA 
BRANCH  22  23
HETATM   23  S   UNL     1      -8.994  10.066  64.040  1.00  0.00    -0.257 SA 
BRANCH  23  24
HETATM   24  C   UNL     1     -10.608  10.746  64.548  1.00  0.00    -0.188 C  
BRANCH  24  25
HETATM   25  C   UNL     1     -10.891  12.078  63.850  1.00  0.00    -0.399 C  
BRANCH  25  26
HETATM   26  N   UNL     1     -10.279  13.244  64.482  1.00  0.00    -0.592 N  
HETATM   27  H   UNL     1      -9.300  13.182  64.761  1.00  0.00     0.000 HD 
HETATM   28  C   UNL     1     -10.952  14.423  64.722  1.00  0.00    -0.397 C  
HETATM   29  O   UNL     1     -12.143  14.590  64.480  1.00  0.00    -0.455 OA 
BRANCH  28  30
HETATM   30  C   UNL     1     -10.092  15.533  65.282  1.00  0.00    -0.337 C  
BRANCH  30  31
HETATM   31  C   UNL     1     -10.888  16.834  65.324  1.00  0.00    -0.138 C  
BRANCH  31  32
HETATM   32  N   UNL     1     -10.153  17.903  65.974  1.00  0.00    -0.296 N  
HETATM   33  H   UNL     1      -9.533  18.486  65.411  1.00  0.00     0.000 HD 
HETATM   34  C   UNL     1     -10.263  18.160  67.320  1.00  0.00    -0.367 C  
HETATM   35  O   UNL     1     -10.911  17.460  68.093  1.00  0.00    -0.373 OA 
BRANCH  34  36
HETATM   36  C   UNL     1      -9.436  19.375  67.796  1.00  0.00    -0.326 C  
HETATM   37  O   UNL     1      -9.676  20.500  66.936  1.00  0.00    -0.541 OA 
HETATM   38  H   UNL     1      -9.167  21.247  67.229  1.00  0.00     0.000 HD 
BRANCH  36  39
HETATM   39  C   UNL     1      -7.911  19.087  67.886  1.00  0.00    -0.307 C  
HETATM   40  C   UNL     1      -7.250  19.896  69.022  1.00  0.00    -0.281 C  
HETATM   41  C   UNL     1      -7.706  17.588  68.209  1.00  0.00    -0.247 C  
BRANCH  39  42
HETATM   42  C   UNL     1      -7.231  19.414  66.535  1.00  0.00    -0.229 C  
HETATM   43  O   UNL     1      -7.323  18.327  65.620  1.00  0.00    -0.519 OA 
HETATM   44  H   UNL     1      -6.905  18.528  64.790  1.00  0.00     0.000 HD 
ENDBRANCH  39  42
ENDBRANCH  36  39
ENDBRANCH  34  36
ENDBRANCH  31  32
ENDBRANCH  30  31
ENDBRANCH  28  30
ENDBRANCH  25  26
ENDBRANCH  24  25
ENDBRANCH  23  24
ENDBRANCH  22  23
ENDBRANCH  21  22
ENDBRANCH  20  21
ENDBRANCH  18  20
ENDBRANCH  15  16
ENDBRANCH  14  15
ENDBRANCH  12  14
ENDBRANCH   7  10
ENDBRANCH   2   7
TORSDOF 19
ENDMDL
MODEL       54
REMARK 921   NORMALIZED FREE ENERGY PREDICTED BY IDOCK:   -5.27 KCAL/MOL
REMARK 922        TOTAL FREE ENERGY PREDICTED BY IDOCK:  -13.30 KCAL/MOL
REMARK 923 INTER-LIGAND FREE ENERGY PREDICTED BY IDOCK:  -10.42 KCAL/MOL
REMARK 924 INTRA-LIGAND FREE ENERGY PREDICTED BY IDOCK:   -2.88 KCAL/MOL
REMARK 927      BINDING AFFINITY PREDICTED BY RF-SCORE:    0.00 PKD
ROOT
HETATM    1  C   UNL     1     -11.573   7.870  72.778  1.00  0.00    -0.387 C  
HETATM    2  C   UNL     1     -10.958   6.640  72.086  1.00  0.00    -0.277 C  
HETATM    3  C   UNL     1      -9.417   6.787  72.041  1.00  0.00    -0.144 C  
ENDROOT
BRANCH   2   4
HETATM    4  C   UNL     1     -11.257   5.385  72.932  1.00  0.00    -0.314 C  
HETATM    5  O   UNL     1     -12.659   5.141  73.021  1.00  0.00    -0.358 OA 
HETATM    6  H   UNL     1     -12.843   4.368  73.543  1.00  0.00     0.000 HD 
ENDBRANCH   2   4
BRANCH   2   7
HETATM    7  C   UNL     1     -11.530   6.453  70.646  1.00  0.00    -0.362 C  
HETATM    8  O   UNL     1     -12.868   6.959  70.507  1.00  0.00    -0.535 OA 
HETATM    9  H   UNL     1     -13.216   6.845  69.630  1.00  0.00     0.000 HD 
BRANCH   7  10
HETATM   10  C   UNL     1     -10.678   7.078  69.519  1.00  0.00    -0.241 C  
HETATM   11  O   UNL     1      -9.864   6.464  68.836  1.00  0.00    -0.134 OA 
HETATM   12  N   UNL     1     -10.973   8.404  69.292  1.00  0.00    -0.428 N  
HETATM   13  H   UNL     1     -11.606   8.895  69.924  1.00  0.00     0.000 HD 
BRANCH  12  14
HETATM   14  C   UNL     1     -10.396   9.111  68.170  1.00  0.00    -0.216 C  
BRANCH  14  15
HETATM   15  C   UNL     1      -9.856  10.488  68.539  1.00  0.00    -0.175 C  
BRANCH  15  16
HETATM   16  C   UNL     1     -10.966  11.502  68.376  1.00  0.00    -0.221 C  
HETATM   17  O   UNL     1     -12.058  11.196  67.908  1.00  0.00    -0.627 OA 
HETATM   18  N   UNL     1     -10.649  12.765  68.819  1.00  0.00    -0.357 N  
HETATM   19  H   UNL     1      -9.728  12.898  69.235  1.00  0.00     0.000 HD 
BRANCH  18  20
HETATM   20  C   UNL     1     -11.527  13.935  68.741  1.00  0.00    -0.292 C  
BRANCH  20  21
HETATM   21  C   UNL     1     -11.134  15.040  67.755  1.00  0.00    -0.310 C  
BRANCH  21  22
HETATM   22  S   UNL     1     -10.741  14.466  66.058  1.00  0.00    -0.313 SA 
BRANCH  22  23
HETATM   23  S   UNL     1     -12.534  13.740  65.348  1.00  0.00    -0.500 SA 
BRANCH  23  24
HETATM   24  C   UNL     1     -12.125  13.400  63.604  1.00  0.00    -0.450 C  
BRANCH  24  25
HETATM   25  C   UNL     1     -12.062  11.895  63.334  1.00  0.00    -0.432 C  
BRANCH  25  26
HETATM   26  N   UNL     1     -10.738  11.390  62.980  1.00  0.00    -0.768 N  
HETATM   27  H   UNL     1     -10.395  11.561  62.035  1.00  0.00     0.000 HD 
HETATM   28  C   UNL     1      -9.928  10.695  63.853  1.00  0.00    -0.326 C  
HETATM   29  O   UNL     1     -10.260  10.385  64.992  1.00  0.00    -0.324 OA 
BRANCH  28  30
HETATM   30  C   UNL     1      -8.556  10.368  63.308  1.00  0.00    -0.190 C  
BRANCH  30  31
HETATM   31  C   UNL     1      -8.461   8.876  63.005  1.00  0.00    -0.169 C  
BRANCH  31  32
HETATM   32  N   UNL     1      -8.648   8.064  64.193  1.00  0.00    -0.384 N  
HETATM   33  H   UNL     1      -9.590   7.756  64.434  1.00  0.00     0.000 HD 
HETATM   34  C   UNL     1      -7.601   7.693  65.004  1.00  0.00    -0.097 C  
HETATM   35  O   UNL     1      -6.450   8.089  64.847  1.00  0.00    -0.048 OA 
BRANCH  34  36
HETATM   36  C   UNL     1      -8.014   6.787  66.185  1.00  0.00    -0.110 C  
HETATM   37  O   UNL     1      -7.152   7.023  67.309  1.00  0.00    -0.078 OA 
HETATM   38  H   UNL     1      -7.406   6.465  68.035  1.00  0.00     0.000 HD 
BRANCH  36  39
HETATM   39  C   UNL     1      -8.025   5.274  65.828  1.00  0.00    -0.105 C  
HETATM   40  C   UNL     1      -7.197   4.988  64.558  1.00  0.00    -0.058 C  
HETATM   41  C   UNL     1      -7.375   4.484  66.989  1.00  0.00    -0.080 C  
BRANCH  39  42
HETATM   42  C   UNL     1      -9.482   4.787  65.634  1.00  0.00    -0.167 C  
HETATM   43  O   UNL     1     -10.426   5.796  65.978  1.00  0.00    -0.446 OA 
HETATM   44  H   UNL     1     -11.320   5.497  65.859  1.00  0.00     0.000 HD 
ENDBRANCH  39  42
ENDBRANCH  36  39
ENDBRANCH  34  36
ENDBRANCH  31  32
ENDBRANCH  30  31
ENDBRANCH  28  30
ENDBRANCH  25  26
ENDBRANCH  24  25
ENDBRANCH  23  24
ENDBRANCH  22  23
ENDBRANCH  21  22
ENDBRANCH  20  21
ENDBRANCH  18  20
ENDBRANCH  15  16
ENDBRANCH  14  15
ENDBRANCH  12  14
ENDBRANCH   7  10
ENDBRANCH   2   7
TORSDOF 19
ENDMDL
MODEL       55
REMARK 921   NORMALIZED FREE ENERGY PREDICTED BY IDOCK:   -5.25 KCAL/MOL
REMARK 922        TOTAL FREE ENERGY PREDICTED BY IDOCK:  -13.25 KCAL/MOL
REMARK 923 INTER-LIGAND FREE ENERGY PREDICTED BY IDOCK:  -11.24 KCAL/MOL
REMARK 924 INTRA-LIGAND FREE ENERGY PREDICTED BY IDOCK:   -2.01 KCAL/MOL
REMARK 927      BINDING AFFINITY PREDICTED BY RF-SCORE:    0.00 PKD
ROOT
HETATM    1  C   UNL     1     -11.713   6.924  70.458  1.00  0.00    -0.401 C  
HETATM    2  C   UNL     1     -11.893   8.179  71.332  1.00  0.00    -0.329 C  
HETATM    3  C   UNL     1     -11.619   9.446  70.483  1.00  0.00    -0.291 C  
ENDROOT
BRANCH   2   4
HETATM    4  C   UNL     1     -13.364   8.265  71.792  1.00  0.00    -0.352 C  
HETATM    5  O   UNL     1     -13.487   9.017  72.996  1.00  0.00    -0.888 OA 
HETATM    6  H   UNL     1     -14.393   9.070  73.279  1.00  0.00     0.000 HD 
ENDBRANCH   2   4
BRANCH   2   7
HETATM    7  C   UNL     1     -10.953   8.144  72.577  1.00  0.00    -0.369 C  
HETATM    8  O   UNL     1     -11.414   7.244  73.599  1.00  0.00    -0.473 OA 
HETATM    9  H   UNL     1     -10.843   7.222  74.357  1.00  0.00     0.000 HD 
BRANCH   7  10
HETATM   10  C   UNL     1      -9.481   7.785  72.274  1.00  0.00    -0.170 C  
HETATM   11  O   UNL     1      -9.000   6.661  72.379  1.00  0.00    -0.136 OA 
HETATM   12  N   UNL     1      -8.754   8.852  71.795  1.00  0.00    -0.143 N  
HETATM   13  H   UNL     1      -9.170   9.783  71.787  1.00  0.00     0.000 HD 
BRANCH  12  14
HETATM   14  C   UNL     1      -7.406   8.668  71.303  1.00  0.00    -0.096 C  
BRANCH  14  15
HETATM   15  C   UNL     1      -7.029   9.652  70.200  1.00  0.00    -0.105 C  
BRANCH  15  16
HETATM   16  C   UNL     1      -8.052   9.550  69.091  1.00  0.00    -0.103 C  
HETATM   17  O   UNL     1      -8.561   8.479  68.776  1.00  0.00    -0.129 OA 
HETATM   18  N   UNL     1      -8.369  10.753  68.502  1.00  0.00    -0.131 N  
HETATM   19  H   UNL     1      -7.922  11.589  68.874  1.00  0.00     0.000 HD 
BRANCH  18  20
HETATM   20  C   UNL     1      -9.298  10.927  67.382  1.00  0.00    -0.155 C  
BRANCH  20  21
HETATM   21  C   UNL     1      -8.696  10.971  65.975  1.00  0.00    -0.188 C  
BRANCH  21  22
HETATM   22  S   UNL     1      -9.742  10.242  64.657  1.00  0.00    -0.325 SA 
BRANCH  22  23
HETATM   23  S   UNL     1     -10.438  11.874  63.609  1.00  0.00    -0.485 SA 
BRANCH  23  24
HETATM   24  C   UNL     1     -12.111  12.069  64.308  1.00  0.00    -0.322 C  
BRANCH  24  25
HETATM   25  C   UNL     1     -12.404  13.534  64.640  1.00  0.00    -0.372 C  
BRANCH  25  26
HETATM   26  N   UNL     1     -12.484  13.835  66.068  1.00  0.00    -0.459 N  
HETATM   27  H   UNL     1     -13.407  13.891  66.497  1.00  0.00     0.000 HD 
HETATM   28  C   UNL     1     -11.379  14.048  66.866  1.00  0.00    -0.329 C  
HETATM   29  O   UNL     1     -10.227  14.060  66.446  1.00  0.00    -0.277 OA 
BRANCH  28  30
HETATM   30  C   UNL     1     -11.693  14.231  68.333  1.00  0.00    -0.373 C  
BRANCH  30  31
HETATM   31  C   UNL     1     -11.631  15.711  68.695  1.00  0.00    -0.382 C  
BRANCH  31  32
HETATM   32  N   UNL     1     -10.845  16.474  67.744  1.00  0.00    -0.332 N  
HETATM   33  H   UNL     1     -10.755  16.127  66.790  1.00  0.00     0.000 HD 
HETATM   34  C   UNL     1     -10.216  17.649  68.084  1.00  0.00    -0.371 C  
HETATM   35  O   UNL     1     -10.189  18.098  69.226  1.00  0.00    -0.286 OA 
BRANCH  34  36
HETATM   36  C   UNL     1      -9.476  18.326  66.908  1.00  0.00    -0.290 C  
HETATM   37  O   UNL     1     -10.038  17.893  65.660  1.00  0.00    -0.567 OA 
HETATM   38  H   UNL     1      -9.583  18.309  64.937  1.00  0.00     0.000 HD 
BRANCH  36  39
HETATM   39  C   UNL     1      -7.941  18.077  66.918  1.00  0.00    -0.251 C  
HETATM   40  C   UNL     1      -7.351  18.253  68.332  1.00  0.00    -0.285 C  
HETATM   41  C   UNL     1      -7.672  16.616  66.486  1.00  0.00    -0.337 C  
BRANCH  39  42
HETATM   42  C   UNL     1      -7.244  19.039  65.926  1.00  0.00    -0.258 C  
HETATM   43  O   UNL     1      -8.053  20.172  65.631  1.00  0.00    -0.483 OA 
HETATM   44  H   UNL     1      -7.624  20.763  65.022  1.00  0.00     0.000 HD 
ENDBRANCH  39  42
ENDBRANCH  36  39
ENDBRANCH  34  36
ENDBRANCH  31  32
ENDBRANCH  30  31
ENDBRANCH  28  30
ENDBRANCH  25  26
ENDBRANCH  24  25
ENDBRANCH  23  24
ENDBRANCH  22  23
ENDBRANCH  21  22
ENDBRANCH  20  21
ENDBRANCH  18  20
ENDBRANCH  15  16
ENDBRANCH  14  15
ENDBRANCH  12  14
ENDBRANCH   7  10
ENDBRANCH   2   7
TORSDOF 19
ENDMDL
MODEL       56
REMARK 921   NORMALIZED FREE ENERGY PREDICTED BY IDOCK:   -5.24 KCAL/MOL
REMARK 922        TOTAL FREE ENERGY PREDICTED BY IDOCK:  -13.25 KCAL/MOL
REMARK 923 INTER-LIGAND FREE ENERGY PREDICTED BY IDOCK:  -10.95 KCAL/MOL
REMARK 924 INTRA-LIGAND FREE ENERGY PREDICTED BY IDOCK:   -2.29 KCAL/MOL
REMARK 927      BINDING AFFINITY PREDICTED BY RF-SCORE:    0.00 PKD
ROOT
HETATM    1  C   UNL     1     -10.907   7.801  72.943  1.00  0.00    -0.453 C  
HETATM    2  C   UNL     1     -11.321   7.666  71.466  1.00  0.00    -0.286 C  
HETATM    3  C   UNL     1     -12.760   7.098  71.380  1.00  0.00    -0.433 C  
ENDROOT
BRANCH   2   4
HETATM    4  C   UNL     1     -11.362   9.070  70.824  1.00  0.00    -0.277 C  
HETATM    5  O   UNL     1     -12.702   9.489  70.577  1.00  0.00    -0.504 OA 
HETATM    6  H   UNL     1     -12.726  10.353  70.182  1.00  0.00     0.000 HD 
ENDBRANCH   2   4
BRANCH   2   7
HETATM    7  C   UNL     1     -10.328   6.756  70.677  1.00  0.00    -0.201 C  
HETATM    8  O   UNL     1     -10.631   5.356  70.808  1.00  0.00    -0.256 OA 
HETATM    9  H   UNL     1     -10.027   4.803  70.328  1.00  0.00     0.000 HD 
BRANCH   7  10
HETATM   10  C   UNL     1     -10.215   7.067  69.168  1.00  0.00    -0.187 C  
HETATM   11  O   UNL     1      -9.320   7.735  68.658  1.00  0.00    -0.148 OA 
HETATM   12  N   UNL     1     -11.191   6.452  68.416  1.00  0.00    -0.532 N  
HETATM   13  H   UNL     1     -11.954   5.962  68.883  1.00  0.00     0.000 HD 
BRANCH  12  14
HETATM   14  C   UNL     1     -11.148   6.494  66.971  1.00  0.00    -0.339 C  
BRANCH  14  15
HETATM   15  C   UNL     1     -10.510   5.255  66.351  1.00  0.00    -0.347 C  
BRANCH  15  16
HETATM   16  C   UNL     1      -9.152   5.633  65.804  1.00  0.00    -0.128 C  
HETATM   17  O   UNL     1      -8.316   4.786  65.505  1.00  0.00    -0.114 OA 
HETATM   18  N   UNL     1      -8.961   6.987  65.651  1.00  0.00    -0.364 N  
HETATM   19  H   UNL     1      -9.741   7.600  65.886  1.00  0.00     0.000 HD 
BRANCH  18  20
HETATM   20  C   UNL     1      -7.726   7.619  65.179  1.00  0.00    -0.110 C  
BRANCH  20  21
HETATM   21  C   UNL     1      -7.476   9.068  65.606  1.00  0.00    -0.086 C  
BRANCH  21  22
HETATM   22  S   UNL     1      -8.460  10.327  64.706  1.00  0.00    -0.176 SA 
BRANCH  22  23
HETATM   23  S   UNL     1     -10.110  10.623  65.905  1.00  0.00    -0.259 SA 
BRANCH  23  24
HETATM   24  C   UNL     1      -9.331  10.986  67.513  1.00  0.00    -0.159 C  
BRANCH  24  25
HETATM   25  C   UNL     1      -9.222  12.494  67.746  1.00  0.00    -0.198 C  
BRANCH  25  26
HETATM   26  N   UNL     1     -10.153  13.032  68.734  1.00  0.00    -0.423 N  
HETATM   27  H   UNL     1      -9.844  13.092  69.705  1.00  0.00     0.000 HD 
HETATM   28  C   UNL     1     -11.427  13.463  68.427  1.00  0.00    -0.316 C  
HETATM   29  O   UNL     1     -11.921  13.387  67.308  1.00  0.00    -0.362 OA 
BRANCH  28  30
HETATM   30  C   UNL     1     -12.173  14.087  69.585  1.00  0.00    -0.383 C  
BRANCH  30  31
HETATM   31  C   UNL     1     -11.638  15.491  69.849  1.00  0.00    -0.335 C  
BRANCH  31  32
HETATM   32  N   UNL     1     -11.417  16.232  68.622  1.00  0.00    -0.346 N  
HETATM   33  H   UNL     1     -12.225  16.519  68.069  1.00  0.00     0.000 HD 
HETATM   34  C   UNL     1     -10.159  16.562  68.176  1.00  0.00    -0.255 C  
HETATM   35  O   UNL     1      -9.126  16.184  68.722  1.00  0.00    -0.206 OA 
BRANCH  34  36
HETATM   36  C   UNL     1     -10.153  17.397  66.876  1.00  0.00    -0.314 C  
HETATM   37  O   UNL     1      -9.302  16.777  65.899  1.00  0.00    -0.476 OA 
HETATM   38  H   UNL     1      -9.298  17.290  65.099  1.00  0.00     0.000 HD 
BRANCH  36  39
HETATM   39  C   UNL     1      -9.730  18.876  67.093  1.00  0.00    -0.345 C  
HETATM   40  C   UNL     1     -10.529  19.831  66.182  1.00  0.00    -0.613 C  
HETATM   41  C   UNL     1     -10.035  19.271  68.557  1.00  0.00    -0.513 C  
BRANCH  39  42
HETATM   42  C   UNL     1      -8.213  19.036  66.829  1.00  0.00    -0.279 C  
HETATM   43  O   UNL     1      -7.431  18.411  67.842  1.00  0.00    -0.229 OA 
HETATM   44  H   UNL     1      -6.500  18.509  67.680  1.00  0.00     0.000 HD 
ENDBRANCH  39  42
ENDBRANCH  36  39
ENDBRANCH  34  36
ENDBRANCH  31  32
ENDBRANCH  30  31
ENDBRANCH  28  30
ENDBRANCH  25  26
ENDBRANCH  24  25
ENDBRANCH  23  24
ENDBRANCH  22  23
ENDBRANCH  21  22
ENDBRANCH  20  21
ENDBRANCH  18  20
ENDBRANCH  15  16
ENDBRANCH  14  15
ENDBRANCH  12  14
ENDBRANCH   7  10
ENDBRANCH   2   7
TORSDOF 19
ENDMDL
MODEL       57
REMARK 921   NORMALIZED FREE ENERGY PREDICTED BY IDOCK:   -5.24 KCAL/MOL
REMARK 922        TOTAL FREE ENERGY PREDICTED BY IDOCK:  -13.23 KCAL/MOL
REMARK 923 INTER-LIGAND FREE ENERGY PREDICTED BY IDOCK:  -11.36 KCAL/MOL
REMARK 924 INTRA-LIGAND FREE ENERGY PREDICTED BY IDOCK:   -1.87 KCAL/MOL
REMARK 927      BINDING AFFINITY PREDICTED BY RF-SCORE:    0.00 PKD
ROOT
HETATM    1  C   UNL     1     -13.306   7.284  71.219  1.00  0.00    -0.338 C  
HETATM    2  C   UNL     1     -12.175   8.268  71.571  1.00  0.00    -0.334 C  
HETATM    3  C   UNL     1     -12.781   9.647  71.933  1.00  0.00    -0.499 C  
ENDROOT
BRANCH   2   4
HETATM    4  C   UNL     1     -11.443   7.763  72.833  1.00  0.00    -0.303 C  
HETATM    5  O   UNL     1     -11.597   6.355  72.993  1.00  0.00    -0.477 OA 
HETATM    6  H   UNL     1     -11.147   6.044  73.770  1.00  0.00     0.000 HD 
ENDBRANCH   2   4
BRANCH   2   7
HETATM    7  C   UNL     1     -11.159   8.411  70.395  1.00  0.00    -0.231 C  
HETATM    8  O   UNL     1      -9.886   8.930  70.817  1.00  0.00    -0.189 OA 
HETATM    9  H   UNL     1      -9.268   9.017  70.101  1.00  0.00     0.000 HD 
BRANCH   7  10
HETATM   10  C   UNL     1     -10.889   7.111  69.604  1.00  0.00    -0.234 C  
HETATM   11  O   UNL     1     -10.621   6.027  70.113  1.00  0.00    -0.227 OA 
HETATM   12  N   UNL     1     -11.052   7.263  68.245  1.00  0.00    -0.464 N  
HETATM   13  H   UNL     1     -11.208   8.194  67.857  1.00  0.00     0.000 HD 
BRANCH  12  14
HETATM   14  C   UNL     1     -11.003   6.121  67.360  1.00  0.00    -0.314 C  
BRANCH  14  15
HETATM   15  C   UNL     1      -9.598   5.810  66.854  1.00  0.00    -0.153 C  
BRANCH  15  16
HETATM   16  C   UNL     1      -8.912   7.112  66.503  1.00  0.00    -0.151 C  
HETATM   17  O   UNL     1      -8.213   7.713  67.313  1.00  0.00    -0.116 OA 
HETATM   18  N   UNL     1      -9.121   7.531  65.210  1.00  0.00    -0.316 N  
HETATM   19  H   UNL     1      -9.681   6.928  64.607  1.00  0.00     0.000 HD 
BRANCH  18  20
HETATM   20  C   UNL     1      -8.605   8.773  64.628  1.00  0.00    -0.113 C  
BRANCH  20  21
HETATM   21  C   UNL     1      -9.400  10.054  64.898  1.00  0.00    -0.266 C  
BRANCH  21  22
HETATM   22  S   UNL     1     -10.020  10.915  63.403  1.00  0.00    -0.351 SA 
BRANCH  22  23
HETATM   23  S   UNL     1     -10.325  12.854  64.032  1.00  0.00    -0.178 SA 
BRANCH  23  24
HETATM   24  C   UNL     1     -12.114  13.052  63.744  1.00  0.00    -0.502 C  
BRANCH  24  25
HETATM   25  C   UNL     1     -12.860  13.311  65.055  1.00  0.00    -0.289 C  
BRANCH  25  26
HETATM   26  N   UNL     1     -12.038  13.865  66.129  1.00  0.00    -0.422 N  
HETATM   27  H   UNL     1     -11.690  14.818  66.026  1.00  0.00     0.000 HD 
HETATM   28  C   UNL     1     -11.709  13.171  67.274  1.00  0.00    -0.374 C  
HETATM   29  O   UNL     1     -12.026  12.004  67.478  1.00  0.00    -0.572 OA 
BRANCH  28  30
HETATM   30  C   UNL     1     -10.947  13.979  68.299  1.00  0.00    -0.272 C  
BRANCH  30  31
HETATM   31  C   UNL     1      -9.647  14.493  67.690  1.00  0.00    -0.214 C  
BRANCH  31  32
HETATM   32  N   UNL     1      -9.542  15.938  67.764  1.00  0.00    -0.217 N  
HETATM   33  H   UNL     1      -9.331  16.370  68.664  1.00  0.00     0.000 HD 
HETATM   34  C   UNL     1      -9.716  16.747  66.665  1.00  0.00    -0.269 C  
HETATM   35  O   UNL     1     -10.061  16.328  65.564  1.00  0.00    -0.477 OA 
BRANCH  34  36
HETATM   36  C   UNL     1      -9.510  18.250  66.955  1.00  0.00    -0.290 C  
HETATM   37  O   UNL     1     -10.048  19.035  65.879  1.00  0.00    -0.484 OA 
HETATM   38  H   UNL     1      -9.921  19.960  66.057  1.00  0.00     0.000 HD 
BRANCH  36  39
HETATM   39  C   UNL     1      -8.025  18.634  67.206  1.00  0.00    -0.245 C  
HETATM   40  C   UNL     1      -7.603  18.333  68.659  1.00  0.00    -0.311 C  
HETATM   41  C   UNL     1      -7.128  17.780  66.279  1.00  0.00    -0.329 C  
BRANCH  39  42
HETATM   42  C   UNL     1      -7.805  20.132  66.887  1.00  0.00    -0.315 C  
HETATM   43  O   UNL     1      -7.629  20.357  65.493  1.00  0.00    -0.524 OA 
HETATM   44  H   UNL     1      -7.494  21.277  65.297  1.00  0.00     0.000 HD 
ENDBRANCH  39  42
ENDBRANCH  36  39
ENDBRANCH  34  36
ENDBRANCH  31  32
ENDBRANCH  30  31
ENDBRANCH  28  30
ENDBRANCH  25  26
ENDBRANCH  24  25
ENDBRANCH  23  24
ENDBRANCH  22  23
ENDBRANCH  21  22
ENDBRANCH  20  21
ENDBRANCH  18  20
ENDBRANCH  15  16
ENDBRANCH  14  15
ENDBRANCH  12  14
ENDBRANCH   7  10
ENDBRANCH   2   7
TORSDOF 19
ENDMDL
MODEL       58
REMARK 921   NORMALIZED FREE ENERGY PREDICTED BY IDOCK:   -5.23 KCAL/MOL
REMARK 922        TOTAL FREE ENERGY PREDICTED BY IDOCK:  -13.22 KCAL/MOL
REMARK 923 INTER-LIGAND FREE ENERGY PREDICTED BY IDOCK:  -10.90 KCAL/MOL
REMARK 924 INTRA-LIGAND FREE ENERGY PREDICTED BY IDOCK:   -2.33 KCAL/MOL
REMARK 927      BINDING AFFINITY PREDICTED BY RF-SCORE:    0.00 PKD
ROOT
HETATM    1  C   UNL     1      -9.943   4.219  70.982  1.00  0.00    -0.223 C  
HETATM    2  C   UNL     1     -10.385   5.268  72.019  1.00  0.00    -0.273 C  
HETATM    3  C   UNL     1     -10.751   4.561  73.348  1.00  0.00    -0.320 C  
ENDROOT
BRANCH   2   4
HETATM    4  C   UNL     1      -9.195   6.202  72.329  1.00  0.00    -0.143 C  
HETATM    5  O   UNL     1      -9.469   7.036  73.451  1.00  0.00    -0.151 OA 
HETATM    6  H   UNL     1      -8.737   7.611  73.642  1.00  0.00     0.000 HD 
ENDBRANCH   2   4
BRANCH   2   7
HETATM    7  C   UNL     1     -11.592   6.109  71.498  1.00  0.00    -0.241 C  
HETATM    8  O   UNL     1     -12.280   6.808  72.550  1.00  0.00    -0.502 OA 
HETATM    9  H   UNL     1     -13.014   7.320  72.233  1.00  0.00     0.000 HD 
BRANCH   7  10
HETATM   10  C   UNL     1     -11.244   7.143  70.405  1.00  0.00    -0.287 C  
HETATM   11  O   UNL     1     -11.097   6.879  69.215  1.00  0.00    -0.233 OA 
HETATM   12  N   UNL     1     -11.183   8.434  70.882  1.00  0.00    -0.258 N  
HETATM   13  H   UNL     1     -11.244   8.603  71.886  1.00  0.00     0.000 HD 
BRANCH  12  14
HETATM   14  C   UNL     1     -11.033   9.552  69.978  1.00  0.00    -0.251 C  
BRANCH  14  15
HETATM   15  C   UNL     1      -9.587  10.012  69.825  1.00  0.00    -0.249 C  
BRANCH  15  16
HETATM   16  C   UNL     1      -9.062   9.523  68.493  1.00  0.00    -0.131 C  
HETATM   17  O   UNL     1      -7.866   9.328  68.301  1.00  0.00    -0.096 OA 
HETATM   18  N   UNL     1     -10.038   9.296  67.550  1.00  0.00    -0.203 N  
HETATM   19  H   UNL     1     -11.006   9.444  67.832  1.00  0.00     0.000 HD 
BRANCH  18  20
HETATM   20  C   UNL     1      -9.797   8.857  66.173  1.00  0.00    -0.256 C  
BRANCH  20  21
HETATM   21  C   UNL     1      -9.739   9.943  65.094  1.00  0.00    -0.306 C  
BRANCH  21  22
HETATM   22  S   UNL     1     -10.003  11.655  65.697  1.00  0.00    -0.248 SA 
BRANCH  22  23
HETATM   23  S   UNL     1     -10.957  12.595  64.132  1.00  0.00    -0.419 SA 
BRANCH  23  24
HETATM   24  C   UNL     1     -11.687  14.042  64.967  1.00  0.00    -0.364 C  
BRANCH  24  25
HETATM   25  C   UNL     1     -12.509  13.620  66.187  1.00  0.00    -0.395 C  
BRANCH  25  26
HETATM   26  N   UNL     1     -12.349  14.475  67.360  1.00  0.00    -0.575 N  
HETATM   27  H   UNL     1     -12.442  15.484  67.238  1.00  0.00     0.000 HD 
HETATM   28  C   UNL     1     -12.079  13.994  68.624  1.00  0.00    -0.297 C  
HETATM   29  O   UNL     1     -11.892  12.809  68.877  1.00  0.00    -0.305 OA 
BRANCH  28  30
HETATM   30  C   UNL     1     -12.068  15.049  69.707  1.00  0.00    -0.354 C  
BRANCH  30  31
HETATM   31  C   UNL     1     -10.671  15.651  69.829  1.00  0.00    -0.306 C  
BRANCH  31  32
HETATM   32  N   UNL     1     -10.498  16.809  68.973  1.00  0.00    -0.318 N  
HETATM   33  H   UNL     1     -10.898  17.701  69.266  1.00  0.00     0.000 HD 
HETATM   34  C   UNL     1      -9.815  16.749  67.781  1.00  0.00    -0.257 C  
HETATM   35  O   UNL     1      -9.380  15.706  67.302  1.00  0.00    -0.210 OA 
BRANCH  34  36
HETATM   36  C   UNL     1      -9.705  18.107  67.052  1.00  0.00    -0.307 C  
HETATM   37  O   UNL     1     -10.059  17.952  65.669  1.00  0.00    -0.567 OA 
HETATM   38  H   UNL     1      -9.990  18.787  65.221  1.00  0.00     0.000 HD 
BRANCH  36  39
HETATM   39  C   UNL     1      -8.301  18.762  67.175  1.00  0.00    -0.281 C  
HETATM   40  C   UNL     1      -7.705  18.559  68.583  1.00  0.00    -0.332 C  
HETATM   41  C   UNL     1      -7.345  18.081  66.167  1.00  0.00    -0.317 C  
BRANCH  39  42
HETATM   42  C   UNL     1      -8.392  20.272  66.849  1.00  0.00    -0.289 C  
HETATM   43  O   UNL     1      -9.701  20.645  66.432  1.00  0.00    -0.632 OA 
HETATM   44  H   UNL     1      -9.757  21.572  66.231  1.00  0.00     0.000 HD 
ENDBRANCH  39  42
ENDBRANCH  36  39
ENDBRANCH  34  36
ENDBRANCH  31  32
ENDBRANCH  30  31
ENDBRANCH  28  30
ENDBRANCH  25  26
ENDBRANCH  24  25
ENDBRANCH  23  24
ENDBRANCH  22  23
ENDBRANCH  21  22
ENDBRANCH  20  21
ENDBRANCH  18  20
ENDBRANCH  15  16
ENDBRANCH  14  15
ENDBRANCH  12  14
ENDBRANCH   7  10
ENDBRANCH   2   7
TORSDOF 19
ENDMDL
MODEL       59
REMARK 921   NORMALIZED FREE ENERGY PREDICTED BY IDOCK:   -5.22 KCAL/MOL
REMARK 922        TOTAL FREE ENERGY PREDICTED BY IDOCK:  -13.21 KCAL/MOL
REMARK 923 INTER-LIGAND FREE ENERGY PREDICTED BY IDOCK:  -11.70 KCAL/MOL
REMARK 924 INTRA-LIGAND FREE ENERGY PREDICTED BY IDOCK:   -1.51 KCAL/MOL
REMARK 927      BINDING AFFINITY PREDICTED BY RF-SCORE:    0.00 PKD
ROOT
HETATM    1  C   UNL     1     -10.862   7.536  73.006  1.00  0.00    -0.445 C  
HETATM    2  C   UNL     1     -11.377   8.110  71.673  1.00  0.00    -0.315 C  
HETATM    3  C   UNL     1     -10.377   9.167  71.143  1.00  0.00    -0.387 C  
ENDROOT
BRANCH   2   4
HETATM    4  C   UNL     1     -11.423   6.980  70.623  1.00  0.00    -0.324 C  
HETATM    5  O   UNL     1     -11.033   5.730  71.188  1.00  0.00    -0.265 OA 
HETATM    6  H   UNL     1     -11.061   5.035  70.542  1.00  0.00     0.000 HD 
ENDBRANCH   2   4
BRANCH   2   7
HETATM    7  C   UNL     1     -12.798   8.736  71.835  1.00  0.00    -0.375 C  
HETATM    8  O   UNL     1     -13.224   8.806  73.206  1.00  0.00    -0.845 OA 
HETATM    9  H   UNL     1     -14.088   9.187  73.304  1.00  0.00     0.000 HD 
BRANCH   7  10
HETATM   10  C   UNL     1     -12.962  10.147  71.226  1.00  0.00    -0.413 C  
HETATM   11  O   UNL     1     -12.930  10.398  70.025  1.00  0.00    -0.123 OA 
HETATM   12  N   UNL     1     -13.227  11.114  72.170  1.00  0.00    -0.571 N  
HETATM   13  H   UNL     1     -13.178  10.878  73.161  1.00  0.00     0.000 HD 
BRANCH  12  14
HETATM   14  C   UNL     1     -13.573  12.461  71.774  1.00  0.00    -0.002 C  
BRANCH  14  15
HETATM   15  C   UNL     1     -12.738  13.528  72.474  1.00  0.00    -0.122 C  
BRANCH  15  16
HETATM   16  C   UNL     1     -12.755  14.785  71.633  1.00  0.00    -0.330 C  
HETATM   17  O   UNL     1     -13.237  15.834  72.047  1.00  0.00    -0.457 OA 
HETATM   18  N   UNL     1     -12.165  14.646  70.397  1.00  0.00    -0.308 N  
HETATM   19  H   UNL     1     -11.752  13.741  70.174  1.00  0.00     0.000 HD 
BRANCH  18  20
HETATM   20  C   UNL     1     -12.083  15.694  69.376  1.00  0.00    -0.266 C  
BRANCH  20  21
HETATM   21  C   UNL     1     -10.785  16.504  69.310  1.00  0.00    -0.331 C  
BRANCH  21  22
HETATM   22  S   UNL     1     -10.339  17.126  67.643  1.00  0.00    -0.353 SA 
BRANCH  22  23
HETATM   23  S   UNL     1     -10.275  15.429  66.477  1.00  0.00    -0.292 SA 
BRANCH  23  24
HETATM   24  C   UNL     1     -10.764  16.088  64.849  1.00  0.00    -0.316 C  
BRANCH  24  25
HETATM   25  C   UNL     1     -11.965  15.327  64.282  1.00  0.00    -0.223 C  
BRANCH  25  26
HETATM   26  N   UNL     1     -11.652  14.012  63.728  1.00  0.00    -0.597 N  
HETATM   27  H   UNL     1     -10.920  13.949  63.020  1.00  0.00     0.000 HD 
HETATM   28  C   UNL     1     -12.292  12.851  64.110  1.00  0.00    -0.376 C  
HETATM   29  O   UNL     1     -13.221  12.816  64.909  1.00  0.00    -0.808 OA 
BRANCH  28  30
HETATM   30  C   UNL     1     -11.728  11.593  63.490  1.00  0.00    -0.384 C  
BRANCH  30  31
HETATM   31  C   UNL     1     -10.281  11.401  63.932  1.00  0.00    -0.363 C  
BRANCH  31  32
HETATM   32  N   UNL     1     -10.101  10.186  64.705  1.00  0.00    -0.350 N  
HETATM   33  H   UNL     1      -9.840   9.329  64.218  1.00  0.00     0.000 HD 
HETATM   34  C   UNL     1     -10.269  10.149  66.069  1.00  0.00    -0.218 C  
HETATM   35  O   UNL     1     -10.670  11.104  66.729  1.00  0.00    -0.256 OA 
BRANCH  34  36
HETATM   36  C   UNL     1      -9.979   8.769  66.699  1.00  0.00    -0.285 C  
HETATM   37  O   UNL     1     -10.968   8.466  67.696  1.00  0.00    -0.501 OA 
HETATM   38  H   UNL     1     -10.789   7.617  68.083  1.00  0.00     0.000 HD 
BRANCH  36  39
HETATM   39  C   UNL     1      -8.553   8.655  67.308  1.00  0.00    -0.125 C  
HETATM   40  C   UNL     1      -8.248   9.835  68.254  1.00  0.00    -0.105 C  
HETATM   41  C   UNL     1      -8.474   7.359  68.149  1.00  0.00    -0.124 C  
BRANCH  39  42
HETATM   42  C   UNL     1      -7.499   8.593  66.177  1.00  0.00    -0.086 C  
HETATM   43  O   UNL     1      -6.171   8.599  66.691  1.00  0.00    -0.056 OA 
HETATM   44  H   UNL     1      -5.523   8.561  65.997  1.00  0.00     0.000 HD 
ENDBRANCH  39  42
ENDBRANCH  36  39
ENDBRANCH  34  36
ENDBRANCH  31  32
ENDBRANCH  30  31
ENDBRANCH  28  30
ENDBRANCH  25  26
ENDBRANCH  24  25
ENDBRANCH  23  24
ENDBRANCH  22  23
ENDBRANCH  21  22
ENDBRANCH  20  21
ENDBRANCH  18  20
ENDBRANCH  15  16
ENDBRANCH  14  15
ENDBRANCH  12  14
ENDBRANCH   7  10
ENDBRANCH   2   7
TORSDOF 19
ENDMDL
MODEL       60
REMARK 921   NORMALIZED FREE ENERGY PREDICTED BY IDOCK:   -5.22 KCAL/MOL
REMARK 922        TOTAL FREE ENERGY PREDICTED BY IDOCK:  -13.19 KCAL/MOL
REMARK 923 INTER-LIGAND FREE ENERGY PREDICTED BY IDOCK:  -10.38 KCAL/MOL
REMARK 924 INTRA-LIGAND FREE ENERGY PREDICTED BY IDOCK:   -2.81 KCAL/MOL
REMARK 927      BINDING AFFINITY PREDICTED BY RF-SCORE:    0.00 PKD
ROOT
HETATM    1  C   UNL     1     -13.266  11.249  72.164  1.00  0.00    -0.286 C  
HETATM    2  C   UNL     1     -12.712  10.309  71.077  1.00  0.00    -0.491 C  
HETATM    3  C   UNL     1     -13.887   9.617  70.343  1.00  0.00     0.726 C  
ENDROOT
BRANCH   2   4
HETATM    4  C   UNL     1     -11.964  11.148  70.020  1.00  0.00    -0.367 C  
HETATM    5  O   UNL     1     -12.375  10.805  68.699  1.00  0.00    -0.825 OA 
HETATM    6  H   UNL     1     -11.914  11.321  68.048  1.00  0.00     0.000 HD 
ENDBRANCH   2   4
BRANCH   2   7
HETATM    7  C   UNL     1     -11.746   9.244  71.684  1.00  0.00    -0.392 C  
HETATM    8  O   UNL     1     -12.326   8.530  72.789  1.00  0.00    -0.517 OA 
HETATM    9  H   UNL     1     -11.738   7.882  73.158  1.00  0.00     0.000 HD 
BRANCH   7  10
HETATM   10  C   UNL     1     -11.217   8.195  70.681  1.00  0.00    -0.260 C  
HETATM   11  O   UNL     1     -10.811   8.452  69.551  1.00  0.00    -0.210 OA 
HETATM   12  N   UNL     1     -11.170   6.923  71.205  1.00  0.00    -0.257 N  
HETATM   13  H   UNL     1     -11.578   6.740  72.122  1.00  0.00     0.000 HD 
BRANCH  12  14
HETATM   14  C   UNL     1     -10.551   5.841  70.472  1.00  0.00    -0.289 C  
BRANCH  14  15
HETATM   15  C   UNL     1      -9.207   5.412  71.052  1.00  0.00    -0.179 C  
BRANCH  15  16
HETATM   16  C   UNL     1      -8.451   6.648  71.486  1.00  0.00    -0.120 C  
HETATM   17  O   UNL     1      -8.389   6.988  72.663  1.00  0.00    -0.108 OA 
HETATM   18  N   UNL     1      -7.830   7.321  70.459  1.00  0.00    -0.097 N  
HETATM   19  H   UNL     1      -7.907   6.923  69.524  1.00  0.00     0.000 HD 
BRANCH  18  20
HETATM   20  C   UNL     1      -7.069   8.565  70.601  1.00  0.00    -0.047 C  
BRANCH  20  21
HETATM   21  C   UNL     1      -7.567   9.783  69.818  1.00  0.00    -0.137 C  
BRANCH  21  22
HETATM   22  S   UNL     1      -6.471  10.333  68.454  1.00  0.00    -0.048 SA 
BRANCH  22  23
HETATM   23  S   UNL     1      -7.386   9.610  66.754  1.00  0.00    -0.091 SA 
BRANCH  23  24
HETATM   24  C   UNL     1      -8.610  10.919  66.416  1.00  0.00    -0.160 C  
BRANCH  24  25
HETATM   25  C   UNL     1      -9.958  10.321  66.006  1.00  0.00    -0.245 C  
BRANCH  25  26
HETATM   26  N   UNL     1     -10.630  11.016  64.911  1.00  0.00    -0.288 N  
HETATM   27  H   UNL     1     -10.316  10.831  63.959  1.00  0.00     0.000 HD 
HETATM   28  C   UNL     1     -11.666  11.908  65.095  1.00  0.00    -0.179 C  
HETATM   29  O   UNL     1     -12.087  12.247  66.196  1.00  0.00    -0.625 OA 
BRANCH  28  30
HETATM   30  C   UNL     1     -12.286  12.420  63.815  1.00  0.00    -0.625 C  
BRANCH  30  31
HETATM   31  C   UNL     1     -12.077  13.927  63.706  1.00  0.00    -0.285 C  
BRANCH  31  32
HETATM   32  N   UNL     1     -11.064  14.407  64.627  1.00  0.00    -0.526 N  
HETATM   33  H   UNL     1     -10.514  13.727  65.151  1.00  0.00     0.000 HD 
HETATM   34  C   UNL     1     -10.819  15.747  64.820  1.00  0.00    -0.344 C  
HETATM   35  O   UNL     1     -11.487  16.639  64.306  1.00  0.00    -1.075 OA 
BRANCH  34  36
HETATM   36  C   UNL     1      -9.665  16.037  65.805  1.00  0.00    -0.305 C  
HETATM   37  O   UNL     1      -8.828  14.877  65.936  1.00  0.00    -0.425 OA 
HETATM   38  H   UNL     1      -8.119  15.056  66.542  1.00  0.00     0.000 HD 
BRANCH  36  39
HETATM   39  C   UNL     1     -10.150  16.508  67.204  1.00  0.00    -0.274 C  
HETATM   40  C   UNL     1      -9.029  16.394  68.258  1.00  0.00    -0.206 C  
HETATM   41  C   UNL     1     -10.550  18.000  67.116  1.00  0.00    -0.337 C  
BRANCH  39  42
HETATM   42  C   UNL     1     -11.380  15.677  67.644  1.00  0.00    -0.228 C  
HETATM   43  O   UNL     1     -11.035  14.320  67.907  1.00  0.00    -0.257 OA 
HETATM   44  H   UNL     1     -11.790  13.810  68.176  1.00  0.00     0.000 HD 
ENDBRANCH  39  42
ENDBRANCH  36  39
ENDBRANCH  34  36
ENDBRANCH  31  32
ENDBRANCH  30  31
ENDBRANCH  28  30
ENDBRANCH  25  26
ENDBRANCH  24  25
ENDBRANCH  23  24
ENDBRANCH  22  23
ENDBRANCH  21  22
ENDBRANCH  20  21
ENDBRANCH  18  20
ENDBRANCH  15  16
ENDBRANCH  14  15
ENDBRANCH  12  14
ENDBRANCH   7  10
ENDBRANCH   2   7
TORSDOF 19
ENDMDL
MODEL       61
REMARK 921   NORMALIZED FREE ENERGY PREDICTED BY IDOCK:   -5.19 KCAL/MOL
REMARK 922        TOTAL FREE ENERGY PREDICTED BY IDOCK:  -13.13 KCAL/MOL
REMARK 923 INTER-LIGAND FREE ENERGY PREDICTED BY IDOCK:  -10.20 KCAL/MOL
REMARK 924 INTRA-LIGAND FREE ENERGY PREDICTED BY IDOCK:   -2.93 KCAL/MOL
REMARK 927      BINDING AFFINITY PREDICTED BY RF-SCORE:    0.00 PKD
ROOT
HETATM    1  C   UNL     1     -11.150  11.766  65.795  1.00  0.00    -0.351 C  
HETATM    2  C   UNL     1     -11.221  12.343  64.369  1.00  0.00    -0.384 C  
HETATM    3  C   UNL     1      -9.914  12.009  63.608  1.00  0.00    -0.387 C  
ENDROOT
BRANCH   2   4
HETATM    4  C   UNL     1     -12.368  11.650  63.603  1.00  0.00    -0.230 C  
HETATM    5  O   UNL     1     -13.631  11.912  64.210  1.00  0.00    -0.425 OA 
HETATM    6  H   UNL     1     -14.336  11.485  63.739  1.00  0.00     0.000 HD 
ENDBRANCH   2   4
BRANCH   2   7
HETATM    7  C   UNL     1     -11.460  13.886  64.392  1.00  0.00    -0.361 C  
HETATM    8  O   UNL     1     -12.501  14.302  63.492  1.00  0.00    -1.095 OA 
HETATM    9  H   UNL     1     -12.647  15.240  63.506  1.00  0.00     0.000 HD 
BRANCH   7  10
HETATM   10  C   UNL     1     -11.786  14.476  65.782  1.00  0.00    -0.344 C  
HETATM   11  O   UNL     1     -12.770  14.181  66.453  1.00  0.00    -0.356 OA 
HETATM   12  N   UNL     1     -10.811  15.330  66.247  1.00  0.00    -0.314 N  
HETATM   13  H   UNL     1     -10.043  15.601  65.632  1.00  0.00     0.000 HD 
BRANCH  12  14
HETATM   14  C   UNL     1     -10.862  15.849  67.596  1.00  0.00    -0.312 C  
BRANCH  14  15
HETATM   15  C   UNL     1      -9.977  15.079  68.571  1.00  0.00    -0.219 C  
BRANCH  15  16
HETATM   16  C   UNL     1     -10.860  14.413  69.603  1.00  0.00    -0.111 C  
HETATM   17  O   UNL     1     -11.159  14.970  70.655  1.00  0.00    -0.260 OA 
HETATM   18  N   UNL     1     -11.309  13.164  69.242  1.00  0.00    -0.354 N  
HETATM   19  H   UNL     1     -11.039  12.817  68.322  1.00  0.00     0.000 HD 
BRANCH  18  20
HETATM   20  C   UNL     1     -12.143  12.291  70.072  1.00  0.00    -0.273 C  
BRANCH  20  21
HETATM   21  C   UNL     1     -11.889  10.784  69.977  1.00  0.00    -0.344 C  
BRANCH  21  22
HETATM   22  S   UNL     1     -12.288   9.830  71.492  1.00  0.00    -0.429 SA 
BRANCH  22  23
HETATM   23  S   UNL     1     -10.605   8.686  71.820  1.00  0.00    -0.351 SA 
BRANCH  23  24
HETATM   24  C   UNL     1     -11.172   7.041  71.275  1.00  0.00    -0.264 C  
BRANCH  24  25
HETATM   25  C   UNL     1     -10.022   6.233  70.670  1.00  0.00    -0.186 C  
BRANCH  25  26
HETATM   26  N   UNL     1     -10.339   5.559  69.413  1.00  0.00    -0.257 N  
HETATM   27  H   UNL     1     -11.320   5.474  69.146  1.00  0.00     0.000 HD 
HETATM   28  C   UNL     1      -9.385   5.033  68.568  1.00  0.00    -0.127 C  
HETATM   29  O   UNL     1      -8.183   5.028  68.815  1.00  0.00    -0.084 OA 
BRANCH  28  30
HETATM   30  C   UNL     1      -9.932   4.484  67.270  1.00  0.00    -0.187 C  
BRANCH  30  31
HETATM   31  C   UNL     1     -10.845   5.517  66.616  1.00  0.00    -0.179 C  
BRANCH  31  32
HETATM   32  N   UNL     1     -10.104   6.651  66.097  1.00  0.00    -0.406 N  
HETATM   33  H   UNL     1      -9.558   6.533  65.244  1.00  0.00     0.000 HD 
HETATM   34  C   UNL     1     -10.111   7.880  66.715  1.00  0.00    -0.281 C  
HETATM   35  O   UNL     1     -10.661   8.094  67.791  1.00  0.00    -0.194 OA 
BRANCH  34  36
HETATM   36  C   UNL     1      -9.298   8.961  65.969  1.00  0.00    -0.242 C  
HETATM   37  O   UNL     1      -9.019   8.527  64.628  1.00  0.00    -0.420 OA 
HETATM   38  H   UNL     1      -8.518   9.192  64.170  1.00  0.00     0.000 HD 
BRANCH  36  39
HETATM   39  C   UNL     1      -7.977   9.349  66.691  1.00  0.00    -0.108 C  
HETATM   40  C   UNL     1      -6.876   9.738  65.683  1.00  0.00    -0.096 C  
HETATM   41  C   UNL     1      -8.243  10.585  67.582  1.00  0.00    -0.111 C  
BRANCH  39  42
HETATM   42  C   UNL     1      -7.495   8.176  67.578  1.00  0.00    -0.094 C  
HETATM   43  O   UNL     1      -6.991   7.096  66.800  1.00  0.00    -0.069 OA 
HETATM   44  H   UNL     1      -6.695   6.376  67.344  1.00  0.00     0.000 HD 
ENDBRANCH  39  42
ENDBRANCH  36  39
ENDBRANCH  34  36
ENDBRANCH  31  32
ENDBRANCH  30  31
ENDBRANCH  28  30
ENDBRANCH  25  26
ENDBRANCH  24  25
ENDBRANCH  23  24
ENDBRANCH  22  23
ENDBRANCH  21  22
ENDBRANCH  20  21
ENDBRANCH  18  20
ENDBRANCH  15  16
ENDBRANCH  14  15
ENDBRANCH  12  14
ENDBRANCH   7  10
ENDBRANCH   2   7
TORSDOF 19
ENDMDL
MODEL       62
REMARK 921   NORMALIZED FREE ENERGY PREDICTED BY IDOCK:   -5.18 KCAL/MOL
REMARK 922        TOTAL FREE ENERGY PREDICTED BY IDOCK:  -13.12 KCAL/MOL
REMARK 923 INTER-LIGAND FREE ENERGY PREDICTED BY IDOCK:  -10.81 KCAL/MOL
REMARK 924 INTRA-LIGAND FREE ENERGY PREDICTED BY IDOCK:   -2.31 KCAL/MOL
REMARK 927      BINDING AFFINITY PREDICTED BY RF-SCORE:    0.00 PKD
ROOT
HETATM    1  C   UNL     1     -11.777  12.518  67.172  1.00  0.00    -0.425 C  
HETATM    2  C   UNL     1     -10.466  12.247  66.411  1.00  0.00    -0.263 C  
HETATM    3  C   UNL     1     -10.783  11.560  65.060  1.00  0.00    -0.350 C  
ENDROOT
BRANCH   2   4
HETATM    4  C   UNL     1      -9.792  13.594  66.074  1.00  0.00    -0.276 C  
HETATM    5  O   UNL     1      -8.497  13.688  66.663  1.00  0.00    -0.437 OA 
HETATM    6  H   UNL     1      -8.083  14.517  66.456  1.00  0.00     0.000 HD 
ENDBRANCH   2   4
BRANCH   2   7
HETATM    7  C   UNL     1      -9.491  11.367  67.254  1.00  0.00    -0.167 C  
HETATM    8  O   UNL     1      -9.479  11.724  68.647  1.00  0.00    -0.293 OA 
HETATM    9  H   UNL     1      -8.886  11.188  69.160  1.00  0.00     0.000 HD 
BRANCH   7  10
HETATM   10  C   UNL     1      -9.745   9.845  67.168  1.00  0.00    -0.178 C  
HETATM   11  O   UNL     1     -10.736   9.276  67.616  1.00  0.00    -0.269 OA 
HETATM   12  N   UNL     1      -8.771   9.174  66.463  1.00  0.00    -0.126 N  
HETATM   13  H   UNL     1      -7.931   9.672  66.165  1.00  0.00     0.000 HD 
BRANCH  12  14
HETATM   14  C   UNL     1      -8.923   7.774  66.138  1.00  0.00    -0.163 C  
BRANCH  14  15
HETATM   15  C   UNL     1      -7.913   6.878  66.847  1.00  0.00    -0.109 C  
BRANCH  15  16
HETATM   16  C   UNL     1      -8.635   6.084  67.913  1.00  0.00    -0.113 C  
HETATM   17  O   UNL     1      -8.081   5.184  68.536  1.00  0.00    -0.086 OA 
HETATM   18  N   UNL     1      -9.935   6.479  68.129  1.00  0.00    -0.134 N  
HETATM   19  H   UNL     1     -10.280   7.271  67.588  1.00  0.00     0.000 HD 
BRANCH  18  20
HETATM   20  C   UNL     1     -10.864   5.854  69.074  1.00  0.00    -0.313 C  
BRANCH  20  21
HETATM   21  C   UNL     1     -10.863   6.385  70.510  1.00  0.00    -0.279 C  
BRANCH  21  22
HETATM   22  S   UNL     1     -12.245   7.519  70.922  1.00  0.00    -0.134 SA 
BRANCH  22  23
HETATM   23  S   UNL     1     -11.320   9.326  71.278  1.00  0.00    -0.383 SA 
BRANCH  23  24
HETATM   24  C   UNL     1     -12.539  10.499  70.598  1.00  0.00    -0.369 C  
BRANCH  24  25
HETATM   25  C   UNL     1     -12.805  11.647  71.575  1.00  0.00    -0.364 C  
BRANCH  25  26
HETATM   26  N   UNL     1     -12.559  12.982  71.034  1.00  0.00    -0.349 N  
HETATM   27  H   UNL     1     -12.088  13.057  70.133  1.00  0.00     0.000 HD 
HETATM   28  C   UNL     1     -12.931  14.145  71.675  1.00  0.00    -0.347 C  
HETATM   29  O   UNL     1     -13.452  14.175  72.785  1.00  0.00    -0.545 OA 
BRANCH  28  30
HETATM   30  C   UNL     1     -12.680  15.406  70.880  1.00  0.00    -0.520 C  
BRANCH  30  31
HETATM   31  C   UNL     1     -11.607  15.148  69.826  1.00  0.00    -0.311 C  
BRANCH  31  32
HETATM   32  N   UNL     1     -11.574  16.187  68.813  1.00  0.00    -0.351 N  
HETATM   33  H   UNL     1     -12.450  16.627  68.532  1.00  0.00     0.000 HD 
HETATM   34  C   UNL     1     -10.405  16.599  68.219  1.00  0.00    -0.304 C  
HETATM   35  O   UNL     1      -9.317  16.068  68.424  1.00  0.00    -0.198 OA 
BRANCH  34  36
HETATM   36  C   UNL     1     -10.589  17.751  67.206  1.00  0.00    -0.316 C  
HETATM   37  O   UNL     1     -10.292  17.289  65.879  1.00  0.00    -0.461 OA 
HETATM   38  H   UNL     1     -10.405  17.998  65.256  1.00  0.00     0.000 HD 
BRANCH  36  39
HETATM   39  C   UNL     1      -9.737  19.008  67.538  1.00  0.00    -0.371 C  
HETATM   40  C   UNL     1     -10.221  20.242  66.749  1.00  0.00    -0.497 C  
HETATM   41  C   UNL     1      -9.894  19.332  69.042  1.00  0.00    -0.466 C  
BRANCH  39  42
HETATM   42  C   UNL     1      -8.245  18.732  67.230  1.00  0.00    -0.263 C  
HETATM   43  O   UNL     1      -7.383  19.442  68.112  1.00  0.00    -0.275 OA 
HETATM   44  H   UNL     1      -6.467  19.273  67.923  1.00  0.00     0.000 HD 
ENDBRANCH  39  42
ENDBRANCH  36  39
ENDBRANCH  34  36
ENDBRANCH  31  32
ENDBRANCH  30  31
ENDBRANCH  28  30
ENDBRANCH  25  26
ENDBRANCH  24  25
ENDBRANCH  23  24
ENDBRANCH  22  23
ENDBRANCH  21  22
ENDBRANCH  20  21
ENDBRANCH  18  20
ENDBRANCH  15  16
ENDBRANCH  14  15
ENDBRANCH  12  14
ENDBRANCH   7  10
ENDBRANCH   2   7
TORSDOF 19
ENDMDL
MODEL       63
REMARK 921   NORMALIZED FREE ENERGY PREDICTED BY IDOCK:   -5.18 KCAL/MOL
REMARK 922        TOTAL FREE ENERGY PREDICTED BY IDOCK:  -13.11 KCAL/MOL
REMARK 923 INTER-LIGAND FREE ENERGY PREDICTED BY IDOCK:  -11.31 KCAL/MOL
REMARK 924 INTRA-LIGAND FREE ENERGY PREDICTED BY IDOCK:   -1.80 KCAL/MOL
REMARK 927      BINDING AFFINITY PREDICTED BY RF-SCORE:    0.00 PKD
ROOT
HETATM    1  C   UNL     1     -11.263   4.733  73.353  1.00  0.00    -0.425 C  
HETATM    2  C   UNL     1     -10.888   5.972  72.519  1.00  0.00    -0.286 C  
HETATM    3  C   UNL     1     -10.619   7.171  73.463  1.00  0.00    -0.416 C  
ENDROOT
BRANCH   2   4
HETATM    4  C   UNL     1      -9.567   5.694  71.771  1.00  0.00    -0.156 C  
HETATM    5  O   UNL     1      -9.300   4.296  71.693  1.00  0.00    -0.126 OA 
HETATM    6  H   UNL     1      -8.487   4.125  71.232  1.00  0.00     0.000 HD 
ENDBRANCH   2   4
BRANCH   2   7
HETATM    7  C   UNL     1     -12.010   6.328  71.493  1.00  0.00    -0.183 C  
HETATM    8  O   UNL     1     -13.108   7.037  72.091  1.00  0.00    -0.532 OA 
HETATM    9  H   UNL     1     -13.790   7.253  71.467  1.00  0.00     0.000 HD 
BRANCH   7  10
HETATM   10  C   UNL     1     -11.540   7.147  70.270  1.00  0.00    -0.217 C  
HETATM   11  O   UNL     1     -11.148   8.309  70.317  1.00  0.00    -0.255 OA 
HETATM   12  N   UNL     1     -11.531   6.416  69.103  1.00  0.00    -0.608 N  
HETATM   13  H   UNL     1     -11.927   5.476  69.094  1.00  0.00     0.000 HD 
BRANCH  12  14
HETATM   14  C   UNL     1     -10.967   6.965  67.890  1.00  0.00    -0.183 C  
BRANCH  14  15
HETATM   15  C   UNL     1     -10.490   5.897  66.911  1.00  0.00    -0.349 C  
BRANCH  15  16
HETATM   16  C   UNL     1      -9.106   6.269  66.426  1.00  0.00    -0.153 C  
HETATM   17  O   UNL     1      -8.712   5.971  65.303  1.00  0.00    -0.134 OA 
HETATM   18  N   UNL     1      -8.361   6.982  67.337  1.00  0.00    -0.122 N  
HETATM   19  H   UNL     1      -8.805   7.217  68.224  1.00  0.00     0.000 HD 
BRANCH  18  20
HETATM   20  C   UNL     1      -6.980   7.430  67.135  1.00  0.00    -0.083 C  
BRANCH  20  21
HETATM   21  C   UNL     1      -6.718   8.937  67.204  1.00  0.00    -0.066 C  
BRANCH  21  22
HETATM   22  S   UNL     1      -7.640   9.829  68.514  1.00  0.00    -0.080 SA 
BRANCH  22  23
HETATM   23  S   UNL     1      -8.957  11.024  67.473  1.00  0.00    -0.138 SA 
BRANCH  23  24
HETATM   24  C   UNL     1      -8.710  10.437  65.765  1.00  0.00    -0.168 C  
BRANCH  24  25
HETATM   25  C   UNL     1     -10.045  10.102  65.097  1.00  0.00    -0.259 C  
BRANCH  25  26
HETATM   26  N   UNL     1     -10.576  11.149  64.227  1.00  0.00    -0.357 N  
HETATM   27  H   UNL     1     -10.230  11.201  63.269  1.00  0.00     0.000 HD 
HETATM   28  C   UNL     1     -11.520  12.071  64.631  1.00  0.00    -0.308 C  
HETATM   29  O   UNL     1     -11.963  12.137  65.772  1.00  0.00    -0.536 OA 
BRANCH  28  30
HETATM   30  C   UNL     1     -12.007  12.989  63.533  1.00  0.00    -0.615 C  
BRANCH  30  31
HETATM   31  C   UNL     1     -12.272  14.379  64.101  1.00  0.00    -0.363 C  
BRANCH  31  32
HETATM   32  N   UNL     1     -11.234  14.800  65.023  1.00  0.00    -0.375 N  
HETATM   33  H   UNL     1     -10.868  14.124  65.693  1.00  0.00     0.000 HD 
HETATM   34  C   UNL     1     -10.726  16.078  65.027  1.00  0.00    -0.378 C  
HETATM   35  O   UNL     1     -11.165  16.984  64.324  1.00  0.00    -1.186 OA 
BRANCH  34  36
HETATM   36  C   UNL     1      -9.593  16.299  66.054  1.00  0.00    -0.337 C  
HETATM   37  O   UNL     1      -8.773  15.123  66.140  1.00  0.00    -0.455 OA 
HETATM   38  H   UNL     1      -8.077  15.260  66.772  1.00  0.00     0.000 HD 
BRANCH  36  39
HETATM   39  C   UNL     1     -10.107  16.698  67.465  1.00  0.00    -0.273 C  
HETATM   40  C   UNL     1      -8.978  16.637  68.515  1.00  0.00    -0.235 C  
HETATM   41  C   UNL     1     -10.612  18.160  67.416  1.00  0.00    -0.406 C  
BRANCH  39  42
HETATM   42  C   UNL     1     -11.274  15.771  67.884  1.00  0.00    -0.313 C  
HETATM   43  O   UNL     1     -10.816  14.465  68.222  1.00  0.00    -0.233 OA 
HETATM   44  H   UNL     1     -11.532  13.896  68.479  1.00  0.00     0.000 HD 
ENDBRANCH  39  42
ENDBRANCH  36  39
ENDBRANCH  34  36
ENDBRANCH  31  32
ENDBRANCH  30  31
ENDBRANCH  28  30
ENDBRANCH  25  26
ENDBRANCH  24  25
ENDBRANCH  23  24
ENDBRANCH  22  23
ENDBRANCH  21  22
ENDBRANCH  20  21
ENDBRANCH  18  20
ENDBRANCH  15  16
ENDBRANCH  14  15
ENDBRANCH  12  14
ENDBRANCH   7  10
ENDBRANCH   2   7
TORSDOF 19
ENDMDL
MODEL       64
REMARK 921   NORMALIZED FREE ENERGY PREDICTED BY IDOCK:   -5.17 KCAL/MOL
REMARK 922        TOTAL FREE ENERGY PREDICTED BY IDOCK:  -13.09 KCAL/MOL
REMARK 923 INTER-LIGAND FREE ENERGY PREDICTED BY IDOCK:  -11.00 KCAL/MOL
REMARK 924 INTRA-LIGAND FREE ENERGY PREDICTED BY IDOCK:   -2.09 KCAL/MOL
REMARK 927      BINDING AFFINITY PREDICTED BY RF-SCORE:    0.00 PKD
ROOT
HETATM    1  C   UNL     1     -13.588   8.548  71.607  1.00  0.00    -0.393 C  
HETATM    2  C   UNL     1     -12.072   8.535  71.334  1.00  0.00    -0.345 C  
HETATM    3  C   UNL     1     -11.307   8.328  72.665  1.00  0.00    -0.421 C  
ENDROOT
BRANCH   2   4
HETATM    4  C   UNL     1     -11.734   7.325  70.437  1.00  0.00    -0.182 C  
HETATM    5  O   UNL     1     -10.346   7.292  70.113  1.00  0.00    -0.204 OA 
HETATM    6  H   UNL     1     -10.138   6.548  69.561  1.00  0.00     0.000 HD 
ENDBRANCH   2   4
BRANCH   2   7
HETATM    7  C   UNL     1     -11.608   9.853  70.638  1.00  0.00    -0.335 C  
HETATM    8  O   UNL     1     -11.749   9.808  69.208  1.00  0.00    -0.456 OA 
HETATM    9  H   UNL     1     -11.467  10.610  68.785  1.00  0.00     0.000 HD 
BRANCH   7  10
HETATM   10  C   UNL     1     -12.313  11.135  71.133  1.00  0.00    -0.346 C  
HETATM   11  O   UNL     1     -13.103  11.181  72.072  1.00  0.00    -0.492 OA 
HETATM   12  N   UNL     1     -11.912  12.267  70.458  1.00  0.00    -0.512 N  
HETATM   13  H   UNL     1     -11.307  12.178  69.641  1.00  0.00     0.000 HD 
BRANCH  12  14
HETATM   14  C   UNL     1     -12.339  13.579  70.891  1.00  0.00    -0.356 C  
BRANCH  14  15
HETATM   15  C   UNL     1     -12.767  14.483  69.740  1.00  0.00    -0.044 C  
BRANCH  15  16
HETATM   16  C   UNL     1     -11.808  14.284  68.587  1.00  0.00    -0.344 C  
HETATM   17  O   UNL     1     -10.615  14.062  68.768  1.00  0.00    -0.247 OA 
HETATM   18  N   UNL     1     -12.396  14.347  67.344  1.00  0.00    -0.600 N  
HETATM   19  H   UNL     1     -13.405  14.489  67.311  1.00  0.00     0.000 HD 
BRANCH  18  20
HETATM   20  C   UNL     1     -11.690  14.228  66.067  1.00  0.00    -0.379 C  
BRANCH  20  21
HETATM   21  C   UNL     1     -11.819  12.898  65.319  1.00  0.00    -0.392 C  
BRANCH  21  22
HETATM   22  S   UNL     1     -10.230  12.110  64.850  1.00  0.00    -0.272 SA 
BRANCH  22  23
HETATM   23  S   UNL     1     -10.135  10.429  66.038  1.00  0.00    -0.231 SA 
BRANCH  23  24
HETATM   24  C   UNL     1      -9.074  11.007  67.403  1.00  0.00    -0.141 C  
BRANCH  24  25
HETATM   25  C   UNL     1      -7.954  11.913  66.886  1.00  0.00    -0.132 C  
BRANCH  25  26
HETATM   26  N   UNL     1      -7.558  12.981  67.801  1.00  0.00    -0.136 N  
HETATM   27  H   UNL     1      -8.281  13.420  68.371  1.00  0.00     0.000 HD 
HETATM   28  C   UNL     1      -6.260  13.428  67.936  1.00  0.00    -0.147 C  
HETATM   29  O   UNL     1      -5.323  13.012  67.263  1.00  0.00    -0.331 OA 
BRANCH  28  30
HETATM   30  C   UNL     1      -6.063  14.461  69.022  1.00  0.00    -0.091 C  
BRANCH  30  31
HETATM   31  C   UNL     1      -7.409  15.066  69.410  1.00  0.00    -0.194 C  
BRANCH  31  32
HETATM   32  N   UNL     1      -7.575  16.411  68.891  1.00  0.00    -0.209 N  
HETATM   33  H   UNL     1      -7.298  17.200  69.474  1.00  0.00     0.000 HD 
HETATM   34  C   UNL     1      -8.091  16.659  67.641  1.00  0.00    -0.171 C  
HETATM   35  O   UNL     1      -8.535  15.783  66.905  1.00  0.00    -0.200 OA 
BRANCH  34  36
HETATM   36  C   UNL     1      -8.133  18.157  67.266  1.00  0.00    -0.225 C  
HETATM   37  O   UNL     1      -7.142  18.878  68.016  1.00  0.00    -0.230 OA 
HETATM   38  H   UNL     1      -7.169  19.800  67.785  1.00  0.00     0.000 HD 
BRANCH  36  39
HETATM   39  C   UNL     1      -9.531  18.806  67.466  1.00  0.00    -0.326 C  
HETATM   40  C   UNL     1      -9.786  19.153  68.947  1.00  0.00    -0.474 C  
HETATM   41  C   UNL     1      -9.585  20.129  66.667  1.00  0.00    -0.547 C  
BRANCH  39  42
HETATM   42  C   UNL     1     -10.635  17.853  66.946  1.00  0.00    -0.265 C  
HETATM   43  O   UNL     1     -10.614  17.743  65.526  1.00  0.00    -0.632 OA 
HETATM   44  H   UNL     1     -11.291  17.159  65.207  1.00  0.00     0.000 HD 
ENDBRANCH  39  42
ENDBRANCH  36  39
ENDBRANCH  34  36
ENDBRANCH  31  32
ENDBRANCH  30  31
ENDBRANCH  28  30
ENDBRANCH  25  26
ENDBRANCH  24  25
ENDBRANCH  23  24
ENDBRANCH  22  23
ENDBRANCH  21  22
ENDBRANCH  20  21
ENDBRANCH  18  20
ENDBRANCH  15  16
ENDBRANCH  14  15
ENDBRANCH  12  14
ENDBRANCH   7  10
ENDBRANCH   2   7
TORSDOF 19
ENDMDL
MODEL       65
REMARK 921   NORMALIZED FREE ENERGY PREDICTED BY IDOCK:   -5.15 KCAL/MOL
REMARK 922        TOTAL FREE ENERGY PREDICTED BY IDOCK:  -13.05 KCAL/MOL
REMARK 923 INTER-LIGAND FREE ENERGY PREDICTED BY IDOCK:  -10.38 KCAL/MOL
REMARK 924 INTRA-LIGAND FREE ENERGY PREDICTED BY IDOCK:   -2.67 KCAL/MOL
REMARK 927      BINDING AFFINITY PREDICTED BY RF-SCORE:    0.00 PKD
ROOT
HETATM    1  C   UNL     1     -13.712  13.390  72.207  1.00  0.00    -0.705 C  
HETATM    2  C   UNL     1     -12.731  14.006  71.193  1.00  0.00    -0.436 C  
HETATM    3  C   UNL     1     -13.512  14.880  70.180  1.00  0.00     0.440 C  
ENDROOT
BRANCH   2   4
HETATM    4  C   UNL     1     -11.764  14.951  71.938  1.00  0.00    -0.313 C  
HETATM    5  O   UNL     1     -12.032  16.317  71.630  1.00  0.00    -0.595 OA 
HETATM    6  H   UNL     1     -11.437  16.898  72.088  1.00  0.00     0.000 HD 
ENDBRANCH   2   4
BRANCH   2   7
HETATM    7  C   UNL     1     -11.917  12.903  70.446  1.00  0.00    -0.249 C  
HETATM    8  O   UNL     1     -12.591  11.633  70.423  1.00  0.00    -0.224 OA 
HETATM    9  H   UNL     1     -12.096  10.962  69.969  1.00  0.00     0.000 HD 
BRANCH   7  10
HETATM   10  C   UNL     1     -11.530  13.249  68.991  1.00  0.00    -0.302 C  
HETATM   11  O   UNL     1     -10.850  14.215  68.660  1.00  0.00    -0.240 OA 
HETATM   12  N   UNL     1     -11.967  12.313  68.080  1.00  0.00    -0.292 N  
HETATM   13  H   UNL     1     -12.586  11.562  68.386  1.00  0.00     0.000 HD 
BRANCH  12  14
HETATM   14  C   UNL     1     -11.559  12.382  66.694  1.00  0.00    -0.385 C  
BRANCH  14  15
HETATM   15  C   UNL     1     -12.648  12.922  65.772  1.00  0.00    -0.174 C  
BRANCH  15  16
HETATM   16  C   UNL     1     -12.115  14.143  65.058  1.00  0.00    -0.421 C  
HETATM   17  O   UNL     1     -12.484  14.444  63.927  1.00  0.00    -0.798 OA 
HETATM   18  N   UNL     1     -11.217  14.883  65.794  1.00  0.00    -0.338 N  
HETATM   19  H   UNL     1     -11.018  14.568  66.743  1.00  0.00     0.000 HD 
BRANCH  18  20
HETATM   20  C   UNL     1     -10.525  16.086  65.324  1.00  0.00    -0.358 C  
BRANCH  20  21
HETATM   21  C   UNL     1      -9.205  16.445  66.011  1.00  0.00    -0.293 C  
BRANCH  21  22
HETATM   22  S   UNL     1      -9.291  17.863  67.171  1.00  0.00    -0.272 SA 
BRANCH  22  23
HETATM   23  S   UNL     1      -7.694  17.570  68.439  1.00  0.00    -0.268 SA 
BRANCH  23  24
HETATM   24  C   UNL     1      -8.133  15.981  69.217  1.00  0.00    -0.212 C  
BRANCH  24  25
HETATM   25  C   UNL     1      -7.362  14.823  68.580  1.00  0.00    -0.118 C  
BRANCH  25  26
HETATM   26  N   UNL     1      -7.667  13.505  69.132  1.00  0.00    -0.328 N  
HETATM   27  H   UNL     1      -7.681  13.399  70.147  1.00  0.00     0.000 HD 
HETATM   28  C   UNL     1      -7.938  12.397  68.357  1.00  0.00    -0.149 C  
HETATM   29  O   UNL     1      -7.894  12.395  67.131  1.00  0.00    -0.170 OA 
BRANCH  28  30
HETATM   30  C   UNL     1      -8.338  11.168  69.140  1.00  0.00     0.014 C  
BRANCH  30  31
HETATM   31  C   UNL     1      -8.183   9.925  68.269  1.00  0.00    -0.109 C  
BRANCH  31  32
HETATM   32  N   UNL     1      -8.780   8.752  68.878  1.00  0.00    -0.133 N  
HETATM   33  H   UNL     1      -8.185   7.950  69.088  1.00  0.00     0.000 HD 
HETATM   34  C   UNL     1     -10.119   8.681  69.183  1.00  0.00    -0.199 C  
HETATM   35  O   UNL     1     -10.929   9.554  68.886  1.00  0.00    -0.185 OA 
BRANCH  34  36
HETATM   36  C   UNL     1     -10.536   7.362  69.873  1.00  0.00    -0.231 C  
HETATM   37  O   UNL     1     -11.624   6.757  69.157  1.00  0.00    -0.592 OA 
HETATM   38  H   UNL     1     -11.880   5.946  69.581  1.00  0.00     0.000 HD 
BRANCH  36  39
HETATM   39  C   UNL     1     -10.913   7.540  71.370  1.00  0.00    -0.254 C  
HETATM   40  C   UNL     1     -10.007   8.580  72.060  1.00  0.00    -0.383 C  
HETATM   41  C   UNL     1     -12.366   8.066  71.457  1.00  0.00    -0.335 C  
BRANCH  39  42
HETATM   42  C   UNL     1     -10.819   6.181  72.104  1.00  0.00    -0.247 C  
HETATM   43  O   UNL     1     -11.953   5.947  72.933  1.00  0.00    -0.526 OA 
HETATM   44  H   UNL     1     -11.895   5.113  73.384  1.00  0.00     0.000 HD 
ENDBRANCH  39  42
ENDBRANCH  36  39
ENDBRANCH  34  36
ENDBRANCH  31  32
ENDBRANCH  30  31
ENDBRANCH  28  30
ENDBRANCH  25  26
ENDBRANCH  24  25
ENDBRANCH  23  24
ENDBRANCH  22  23
ENDBRANCH  21  22
ENDBRANCH  20  21
ENDBRANCH  18  20
ENDBRANCH  15  16
ENDBRANCH  14  15
ENDBRANCH  12  14
ENDBRANCH   7  10
ENDBRANCH   2   7
TORSDOF 19
ENDMDL
MODEL       66
REMARK 921   NORMALIZED FREE ENERGY PREDICTED BY IDOCK:   -5.15 KCAL/MOL
REMARK 922        TOTAL FREE ENERGY PREDICTED BY IDOCK:  -13.05 KCAL/MOL
REMARK 923 INTER-LIGAND FREE ENERGY PREDICTED BY IDOCK:  -10.55 KCAL/MOL
REMARK 924 INTRA-LIGAND FREE ENERGY PREDICTED BY IDOCK:   -2.51 KCAL/MOL
REMARK 927      BINDING AFFINITY PREDICTED BY RF-SCORE:    0.00 PKD
ROOT
HETATM    1  C   UNL     1     -12.024  10.849  69.558  1.00  0.00    -0.401 C  
HETATM    2  C   UNL     1     -10.687  10.581  68.842  1.00  0.00    -0.253 C  
HETATM    3  C   UNL     1      -9.591  10.271  69.892  1.00  0.00    -0.082 C  
ENDROOT
BRANCH   2   4
HETATM    4  C   UNL     1     -10.829   9.319  67.965  1.00  0.00    -0.106 C  
HETATM    5  O   UNL     1     -11.068   8.160  68.759  1.00  0.00    -0.417 OA 
HETATM    6  H   UNL     1     -11.155   7.383  68.220  1.00  0.00     0.000 HD 
ENDBRANCH   2   4
BRANCH   2   7
HETATM    7  C   UNL     1     -10.264  11.794  67.955  1.00  0.00    -0.193 C  
HETATM    8  O   UNL     1      -9.355  11.426  66.904  1.00  0.00    -0.175 OA 
HETATM    9  H   UNL     1      -9.098  12.164  66.364  1.00  0.00     0.000 HD 
BRANCH   7  10
HETATM   10  C   UNL     1     -11.434  12.567  67.307  1.00  0.00    -0.353 C  
HETATM   11  O   UNL     1     -12.035  13.498  67.836  1.00  0.00    -0.357 OA 
HETATM   12  N   UNL     1     -11.703  12.159  66.019  1.00  0.00    -0.373 N  
HETATM   13  H   UNL     1     -11.227  11.339  65.641  1.00  0.00     0.000 HD 
BRANCH  12  14
HETATM   14  C   UNL     1     -12.652  12.876  65.197  1.00  0.00    -0.471 C  
BRANCH  14  15
HETATM   15  C   UNL     1     -12.403  12.705  63.702  1.00  0.00    -0.584 C  
BRANCH  15  16
HETATM   16  C   UNL     1     -10.951  12.342  63.492  1.00  0.00    -0.459 C  
HETATM   17  O   UNL     1     -10.040  13.072  63.869  1.00  0.00    -0.365 OA 
HETATM   18  N   UNL     1     -10.755  11.127  62.876  1.00  0.00    -0.804 N  
HETATM   19  H   UNL     1     -11.583  10.578  62.649  1.00  0.00     0.000 HD 
BRANCH  18  20
HETATM   20  C   UNL     1      -9.452  10.558  62.522  1.00  0.00    -0.254 C  
BRANCH  20  21
HETATM   21  C   UNL     1      -8.798   9.620  63.541  1.00  0.00    -0.234 C  
BRANCH  21  22
HETATM   22  S   UNL     1      -7.054  10.011  63.952  1.00  0.00    -0.107 SA 
BRANCH  22  23
HETATM   23  S   UNL     1      -6.584   8.681  65.455  1.00  0.00    -0.067 SA 
BRANCH  23  24
HETATM   24  C   UNL     1      -6.035   9.807  66.779  1.00  0.00    -0.055 C  
BRANCH  24  25
HETATM   25  C   UNL     1      -5.756  11.209  66.231  1.00  0.00    -0.144 C  
BRANCH  25  26
HETATM   26  N   UNL     1      -6.616  12.260  66.769  1.00  0.00    -0.343 N  
HETATM   27  H   UNL     1      -7.543  12.380  66.360  1.00  0.00     0.000 HD 
HETATM   28  C   UNL     1      -6.243  13.098  67.799  1.00  0.00    -0.156 C  
HETATM   29  O   UNL     1      -5.136  13.080  68.326  1.00  0.00    -0.067 OA 
BRANCH  28  30
HETATM   30  C   UNL     1      -7.333  14.035  68.269  1.00  0.00    -0.115 C  
BRANCH  30  31
HETATM   31  C   UNL     1      -8.211  14.440  67.090  1.00  0.00    -0.178 C  
BRANCH  31  32
HETATM   32  N   UNL     1      -8.058  15.843  66.750  1.00  0.00    -0.249 N  
HETATM   33  H   UNL     1      -7.165  16.162  66.374  1.00  0.00     0.000 HD 
HETATM   34  C   UNL     1      -9.072  16.756  66.917  1.00  0.00    -0.229 C  
HETATM   35  O   UNL     1     -10.146  16.486  67.445  1.00  0.00    -0.265 OA 
BRANCH  34  36
HETATM   36  C   UNL     1      -8.714  18.183  66.444  1.00  0.00    -0.231 C  
HETATM   37  O   UNL     1      -7.550  18.144  65.604  1.00  0.00    -0.538 OA 
HETATM   38  H   UNL     1      -7.330  19.022  65.314  1.00  0.00     0.000 HD 
BRANCH  36  39
HETATM   39  C   UNL     1      -8.497  19.185  67.613  1.00  0.00    -0.323 C  
HETATM   40  C   UNL     1      -7.737  18.528  68.785  1.00  0.00    -0.305 C  
HETATM   41  C   UNL     1      -7.631  20.361  67.105  1.00  0.00    -0.367 C  
BRANCH  39  42
HETATM   42  C   UNL     1      -9.860  19.730  68.102  1.00  0.00    -0.424 C  
HETATM   43  O   UNL     1     -10.325  19.037  69.256  1.00  0.00    -0.506 OA 
HETATM   44  H   UNL     1     -11.162  19.371  69.556  1.00  0.00     0.000 HD 
ENDBRANCH  39  42
ENDBRANCH  36  39
ENDBRANCH  34  36
ENDBRANCH  31  32
ENDBRANCH  30  31
ENDBRANCH  28  30
ENDBRANCH  25  26
ENDBRANCH  24  25
ENDBRANCH  23  24
ENDBRANCH  22  23
ENDBRANCH  21  22
ENDBRANCH  20  21
ENDBRANCH  18  20
ENDBRANCH  15  16
ENDBRANCH  14  15
ENDBRANCH  12  14
ENDBRANCH   7  10
ENDBRANCH   2   7
TORSDOF 19
ENDMDL
MODEL       67
REMARK 921   NORMALIZED FREE ENERGY PREDICTED BY IDOCK:   -5.11 KCAL/MOL
REMARK 922        TOTAL FREE ENERGY PREDICTED BY IDOCK:  -12.97 KCAL/MOL
REMARK 923 INTER-LIGAND FREE ENERGY PREDICTED BY IDOCK:  -10.58 KCAL/MOL
REMARK 924 INTRA-LIGAND FREE ENERGY PREDICTED BY IDOCK:   -2.39 KCAL/MOL
REMARK 927      BINDING AFFINITY PREDICTED BY RF-SCORE:    0.00 PKD
ROOT
HETATM    1  C   UNL     1     -11.762  11.828  66.349  1.00  0.00    -0.131 C  
HETATM    2  C   UNL     1     -11.401  12.787  65.199  1.00  0.00    -0.346 C  
HETATM    3  C   UNL     1     -11.447  12.023  63.852  1.00  0.00    -0.518 C  
ENDROOT
BRANCH   2   4
HETATM    4  C   UNL     1     -12.472  13.896  65.114  1.00  0.00    -0.453 C  
HETATM    5  O   UNL     1     -12.349  14.644  63.907  1.00  0.00    -0.962 OA 
HETATM    6  H   UNL     1     -13.008  15.327  63.855  1.00  0.00     0.000 HD 
ENDBRANCH   2   4
BRANCH   2   7
HETATM    7  C   UNL     1      -9.995  13.429  65.414  1.00  0.00    -0.192 C  
HETATM    8  O   UNL     1     -10.066  14.780  65.902  1.00  0.00    -0.286 OA 
HETATM    9  H   UNL     1      -9.211  15.170  66.033  1.00  0.00     0.000 HD 
BRANCH   7  10
HETATM   10  C   UNL     1      -9.057  12.645  66.358  1.00  0.00    -0.110 C  
HETATM   11  O   UNL     1      -8.853  12.928  67.535  1.00  0.00    -0.171 OA 
HETATM   12  N   UNL     1      -8.509  11.527  65.768  1.00  0.00    -0.377 N  
HETATM   13  H   UNL     1      -8.649  11.364  64.771  1.00  0.00     0.000 HD 
BRANCH  12  14
HETATM   14  C   UNL     1      -7.739  10.582  66.545  1.00  0.00    -0.131 C  
BRANCH  14  15
HETATM   15  C   UNL     1      -7.988   9.130  66.148  1.00  0.00    -0.103 C  
BRANCH  15  16
HETATM   16  C   UNL     1      -9.348   8.715  66.663  1.00  0.00    -0.192 C  
HETATM   17  O   UNL     1     -10.383   9.030  66.084  1.00  0.00    -0.212 OA 
HETATM   18  N   UNL     1      -9.310   7.944  67.802  1.00  0.00    -0.140 N  
HETATM   19  H   UNL     1      -8.392   7.700  68.172  1.00  0.00     0.000 HD 
BRANCH  18  20
HETATM   20  C   UNL     1     -10.482   7.444  68.525  1.00  0.00    -0.186 C  
BRANCH  20  21
HETATM   21  C   UNL     1     -10.224   6.578  69.761  1.00  0.00    -0.187 C  
BRANCH  21  22
HETATM   22  S   UNL     1     -10.733   7.327  71.356  1.00  0.00    -0.228 SA 
BRANCH  22  23
HETATM   23  S   UNL     1     -10.617   9.356  71.017  1.00  0.00    -0.334 SA 
BRANCH  23  24
HETATM   24  C   UNL     1     -12.377   9.796  70.838  1.00  0.00    -0.290 C  
BRANCH  24  25
HETATM   25  C   UNL     1     -12.619  11.262  71.207  1.00  0.00    -0.382 C  
BRANCH  25  26
HETATM   26  N   UNL     1     -11.914  12.230  70.372  1.00  0.00    -0.502 N  
HETATM   27  H   UNL     1     -11.374  11.880  69.580  1.00  0.00     0.000 HD 
HETATM   28  C   UNL     1     -11.937  13.591  70.595  1.00  0.00    -0.230 C  
HETATM   29  O   UNL     1     -12.506  14.116  71.546  1.00  0.00    -0.336 OA 
BRANCH  28  30
HETATM   30  C   UNL     1     -11.231  14.411  69.540  1.00  0.00    -0.294 C  
BRANCH  30  31
HETATM   31  C   UNL     1     -11.781  15.834  69.535  1.00  0.00    -0.360 C  
BRANCH  31  32
HETATM   32  N   UNL     1     -10.725  16.829  69.515  1.00  0.00    -0.324 N  
HETATM   33  H   UNL     1     -10.328  17.141  70.401  1.00  0.00     0.000 HD 
HETATM   34  C   UNL     1     -10.241  17.365  68.345  1.00  0.00    -0.362 C  
HETATM   35  O   UNL     1     -10.716  17.121  67.240  1.00  0.00    -0.302 OA 
BRANCH  34  36
HETATM   36  C   UNL     1      -9.084  18.369  68.548  1.00  0.00    -0.324 C  
HETATM   37  O   UNL     1      -9.351  19.579  67.821  1.00  0.00    -0.307 OA 
HETATM   38  H   UNL     1      -8.639  20.195  67.946  1.00  0.00     0.000 HD 
BRANCH  36  39
HETATM   39  C   UNL     1      -7.695  17.799  68.147  1.00  0.00    -0.254 C  
HETATM   40  C   UNL     1      -7.432  16.432  68.812  1.00  0.00    -0.207 C  
HETATM   41  C   UNL     1      -7.671  17.578  66.616  1.00  0.00    -0.289 C  
BRANCH  39  42
HETATM   42  C   UNL     1      -6.581  18.802  68.534  1.00  0.00    -0.243 C  
HETATM   43  O   UNL     1      -7.076  19.848  69.364  1.00  0.00    -0.318 OA 
HETATM   44  H   UNL     1      -6.392  20.463  69.601  1.00  0.00     0.000 HD 
ENDBRANCH  39  42
ENDBRANCH  36  39
ENDBRANCH  34  36
ENDBRANCH  31  32
ENDBRANCH  30  31
ENDBRANCH  28  30
ENDBRANCH  25  26
ENDBRANCH  24  25
ENDBRANCH  23  24
ENDBRANCH  22  23
ENDBRANCH  21  22
ENDBRANCH  20  21
ENDBRANCH  18  20
ENDBRANCH  15  16
ENDBRANCH  14  15
ENDBRANCH  12  14
ENDBRANCH   7  10
ENDBRANCH   2   7
TORSDOF 19
ENDMDL
MODEL       68
REMARK 921   NORMALIZED FREE ENERGY PREDICTED BY IDOCK:   -5.10 KCAL/MOL
REMARK 922        TOTAL FREE ENERGY PREDICTED BY IDOCK:  -12.95 KCAL/MOL
REMARK 923 INTER-LIGAND FREE ENERGY PREDICTED BY IDOCK:  -10.60 KCAL/MOL
REMARK 924 INTRA-LIGAND FREE ENERGY PREDICTED BY IDOCK:   -2.35 KCAL/MOL
REMARK 927      BINDING AFFINITY PREDICTED BY RF-SCORE:    0.00 PKD
ROOT
HETATM    1  C   UNL     1     -10.670  16.846  67.976  1.00  0.00    -0.364 C  
HETATM    2  C   UNL     1      -9.723  17.325  66.860  1.00  0.00    -0.275 C  
HETATM    3  C   UNL     1     -10.234  18.671  66.287  1.00  0.00    -0.462 C  
ENDROOT
BRANCH   2   4
HETATM    4  C   UNL     1      -8.331  17.603  67.466  1.00  0.00    -0.218 C  
HETATM    5  O   UNL     1      -8.037  16.699  68.528  1.00  0.00    -0.203 OA 
HETATM    6  H   UNL     1      -7.181  16.870  68.901  1.00  0.00     0.000 HD 
ENDBRANCH   2   4
BRANCH   2   7
HETATM    7  C   UNL     1      -9.600  16.261  65.724  1.00  0.00    -0.231 C  
HETATM    8  O   UNL     1      -8.937  15.060  66.154  1.00  0.00    -0.448 OA 
HETATM    9  H   UNL     1      -8.862  14.413  65.463  1.00  0.00     0.000 HD 
BRANCH   7  10
HETATM   10  C   UNL     1     -10.937  15.845  65.072  1.00  0.00    -0.412 C  
HETATM   11  O   UNL     1     -11.466  16.427  64.130  1.00  0.00    -0.951 OA 
HETATM   12  N   UNL     1     -11.461  14.689  65.607  1.00  0.00    -0.342 N  
HETATM   13  H   UNL     1     -11.028  14.273  66.431  1.00  0.00     0.000 HD 
BRANCH  12  14
HETATM   14  C   UNL     1     -12.619  14.057  65.014  1.00  0.00    -0.390 C  
BRANCH  14  15
HETATM   15  C   UNL     1     -12.520  12.536  64.973  1.00  0.00    -0.494 C  
BRANCH  15  16
HETATM   16  C   UNL     1     -11.194  12.122  65.570  1.00  0.00    -0.334 C  
HETATM   17  O   UNL     1     -10.141  12.242  64.952  1.00  0.00    -0.275 OA 
HETATM   18  N   UNL     1     -11.278  11.634  66.854  1.00  0.00    -0.308 N  
HETATM   19  H   UNL     1     -12.199  11.622  67.291  1.00  0.00     0.000 HD 
BRANCH  18  20
HETATM   20  C   UNL     1     -10.152  11.129  67.643  1.00  0.00    -0.179 C  
BRANCH  20  21
HETATM   21  C   UNL     1     -10.354  11.019  69.157  1.00  0.00    -0.188 C  
BRANCH  21  22
HETATM   22  S   UNL     1     -12.102  10.998  69.710  1.00  0.00    -0.340 SA 
BRANCH  22  23
HETATM   23  S   UNL     1     -12.056   9.937  71.476  1.00  0.00    -0.387 SA 
BRANCH  23  24
HETATM   24  C   UNL     1     -13.522   8.868  71.297  1.00  0.00    -0.176 C  
BRANCH  24  25
HETATM   25  C   UNL     1     -13.175   7.403  71.574  1.00  0.00    -0.372 C  
BRANCH  25  26
HETATM   26  N   UNL     1     -12.433   6.736  70.508  1.00  0.00    -0.523 N  
HETATM   27  H   UNL     1     -12.923   6.526  69.638  1.00  0.00     0.000 HD 
HETATM   28  C   UNL     1     -11.106   6.375  70.613  1.00  0.00    -0.317 C  
HETATM   29  O   UNL     1     -10.436   6.527  71.629  1.00  0.00    -0.209 OA 
BRANCH  28  30
HETATM   30  C   UNL     1     -10.511   5.800  69.347  1.00  0.00    -0.360 C  
BRANCH  30  31
HETATM   31  C   UNL     1     -11.247   6.356  68.132  1.00  0.00    -0.167 C  
BRANCH  31  32
HETATM   32  N   UNL     1     -10.468   7.362  67.434  1.00  0.00    -0.267 N  
HETATM   33  H   UNL     1     -10.628   8.345  67.652  1.00  0.00     0.000 HD 
HETATM   34  C   UNL     1      -9.522   7.038  66.490  1.00  0.00    -0.150 C  
HETATM   35  O   UNL     1      -9.324   5.892  66.096  1.00  0.00    -0.160 OA 
BRANCH  34  36
HETATM   36  C   UNL     1      -8.774   8.257  65.908  1.00  0.00    -0.159 C  
HETATM   37  O   UNL     1      -8.698   8.150  64.478  1.00  0.00    -0.400 OA 
HETATM   38  H   UNL     1      -8.238   8.900  64.120  1.00  0.00     0.000 HD 
BRANCH  36  39
HETATM   39  C   UNL     1      -7.352   8.453  66.506  1.00  0.00    -0.081 C  
HETATM   40  C   UNL     1      -7.406   8.653  68.034  1.00  0.00    -0.092 C  
HETATM   41  C   UNL     1      -6.520   7.177  66.237  1.00  0.00    -0.051 C  
BRANCH  39  42
HETATM   42  C   UNL     1      -6.659   9.663  65.834  1.00  0.00    -0.080 C  
HETATM   43  O   UNL     1      -7.594  10.673  65.469  1.00  0.00    -0.233 OA 
HETATM   44  H   UNL     1      -7.169  11.416  65.057  1.00  0.00     0.000 HD 
ENDBRANCH  39  42
ENDBRANCH  36  39
ENDBRANCH  34  36
ENDBRANCH  31  32
ENDBRANCH  30  31
ENDBRANCH  28  30
ENDBRANCH  25  26
ENDBRANCH  24  25
ENDBRANCH  23  24
ENDBRANCH  22  23
ENDBRANCH  21  22
ENDBRANCH  20  21
ENDBRANCH  18  20
ENDBRANCH  15  16
ENDBRANCH  14  15
ENDBRANCH  12  14
ENDBRANCH   7  10
ENDBRANCH   2   7
TORSDOF 19
ENDMDL
MODEL       69
REMARK 921   NORMALIZED FREE ENERGY PREDICTED BY IDOCK:   -5.09 KCAL/MOL
REMARK 922        TOTAL FREE ENERGY PREDICTED BY IDOCK:  -12.92 KCAL/MOL
REMARK 923 INTER-LIGAND FREE ENERGY PREDICTED BY IDOCK:  -10.71 KCAL/MOL
REMARK 924 INTRA-LIGAND FREE ENERGY PREDICTED BY IDOCK:   -2.21 KCAL/MOL
REMARK 927      BINDING AFFINITY PREDICTED BY RF-SCORE:    0.00 PKD
ROOT
HETATM    1  C   UNL     1      -9.285   7.099  70.742  1.00  0.00    -0.157 C  
HETATM    2  C   UNL     1     -10.331   5.970  70.785  1.00  0.00    -0.280 C  
HETATM    3  C   UNL     1     -10.649   5.502  69.344  1.00  0.00    -0.349 C  
ENDROOT
BRANCH   2   4
HETATM    4  C   UNL     1      -9.729   4.754  71.521  1.00  0.00    -0.172 C  
HETATM    5  O   UNL     1      -9.148   5.137  72.766  1.00  0.00    -0.133 OA 
HETATM    6  H   UNL     1      -8.777   4.388  73.219  1.00  0.00     0.000 HD 
ENDBRANCH   2   4
BRANCH   2   7
HETATM    7  C   UNL     1     -11.635   6.431  71.509  1.00  0.00    -0.310 C  
HETATM    8  O   UNL     1     -11.969   5.603  72.637  1.00  0.00    -0.466 OA 
HETATM    9  H   UNL     1     -12.762   5.884  73.077  1.00  0.00     0.000 HD 
BRANCH   7  10
HETATM   10  C   UNL     1     -11.628   7.897  71.996  1.00  0.00    -0.308 C  
HETATM   11  O   UNL     1     -11.031   8.300  72.990  1.00  0.00    -0.253 OA 
HETATM   12  N   UNL     1     -12.309   8.748  71.155  1.00  0.00    -0.414 N  
HETATM   13  H   UNL     1     -12.848   8.364  70.378  1.00  0.00     0.000 HD 
BRANCH  12  14
HETATM   14  C   UNL     1     -12.272  10.179  71.359  1.00  0.00    -0.397 C  
BRANCH  14  15
HETATM   15  C   UNL     1     -12.082  10.967  70.068  1.00  0.00    -0.441 C  
BRANCH  15  16
HETATM   16  C   UNL     1     -10.905  10.388  69.316  1.00  0.00    -0.241 C  
HETATM   17  O   UNL     1     -11.047   9.516  68.464  1.00  0.00    -0.120 OA 
HETATM   18  N   UNL     1      -9.691  10.940  69.654  1.00  0.00    -0.403 N  
HETATM   19  H   UNL     1      -9.694  11.693  70.341  1.00  0.00     0.000 HD 
BRANCH  18  20
HETATM   20  C   UNL     1      -8.394  10.534  69.106  1.00  0.00    -0.151 C  
BRANCH  20  21
HETATM   21  C   UNL     1      -8.114  10.886  67.642  1.00  0.00    -0.115 C  
BRANCH  21  22
HETATM   22  S   UNL     1      -8.834  12.472  67.070  1.00  0.00    -0.206 SA 
BRANCH  22  23
HETATM   23  S   UNL     1     -10.046  11.932  65.494  1.00  0.00    -0.250 SA 
BRANCH  23  24
HETATM   24  C   UNL     1     -11.413  13.127  65.659  1.00  0.00    -0.323 C  
BRANCH  24  25
HETATM   25  C   UNL     1     -12.104  12.991  67.018  1.00  0.00    -0.267 C  
BRANCH  25  26
HETATM   26  N   UNL     1     -12.271  14.244  67.750  1.00  0.00    -0.598 N  
HETATM   27  H   UNL     1     -12.910  14.943  67.371  1.00  0.00     0.000 HD 
HETATM   28  C   UNL     1     -11.610  14.534  68.926  1.00  0.00    -0.309 C  
HETATM   29  O   UNL     1     -10.780  13.794  69.442  1.00  0.00    -0.126 OA 
BRANCH  28  30
HETATM   30  C   UNL     1     -12.021  15.839  69.569  1.00  0.00    -0.326 C  
BRANCH  30  31
HETATM   31  C   UNL     1     -10.801  16.741  69.735  1.00  0.00    -0.153 C  
BRANCH  31  32
HETATM   32  N   UNL     1     -10.409  17.366  68.486  1.00  0.00    -0.360 N  
HETATM   33  H   UNL     1     -11.064  17.999  68.027  1.00  0.00     0.000 HD 
HETATM   34  C   UNL     1      -9.186  17.137  67.900  1.00  0.00    -0.241 C  
HETATM   35  O   UNL     1      -8.371  16.324  68.327  1.00  0.00    -0.174 OA 
BRANCH  34  36
HETATM   36  C   UNL     1      -8.953  17.942  66.602  1.00  0.00    -0.268 C  
HETATM   37  O   UNL     1      -7.947  17.302  65.802  1.00  0.00    -0.511 OA 
HETATM   38  H   UNL     1      -7.803  17.798  65.004  1.00  0.00     0.000 HD 
BRANCH  36  39
HETATM   39  C   UNL     1      -8.569  19.427  66.857  1.00  0.00    -0.325 C  
HETATM   40  C   UNL     1      -8.039  19.634  68.291  1.00  0.00    -0.357 C  
HETATM   41  C   UNL     1      -7.433  19.821  65.884  1.00  0.00    -0.335 C  
BRANCH  39  42
HETATM   42  C   UNL     1      -9.794  20.339  66.606  1.00  0.00    -0.426 C  
HETATM   43  O   UNL     1     -11.021  19.650  66.822  1.00  0.00    -0.444 OA 
HETATM   44  H   UNL     1     -11.773  20.210  66.668  1.00  0.00     0.000 HD 
ENDBRANCH  39  42
ENDBRANCH  36  39
ENDBRANCH  34  36
ENDBRANCH  31  32
ENDBRANCH  30  31
ENDBRANCH  28  30
ENDBRANCH  25  26
ENDBRANCH  24  25
ENDBRANCH  23  24
ENDBRANCH  22  23
ENDBRANCH  21  22
ENDBRANCH  20  21
ENDBRANCH  18  20
ENDBRANCH  15  16
ENDBRANCH  14  15
ENDBRANCH  12  14
ENDBRANCH   7  10
ENDBRANCH   2   7
TORSDOF 19
ENDMDL
MODEL       70
REMARK 921   NORMALIZED FREE ENERGY PREDICTED BY IDOCK:   -5.07 KCAL/MOL
REMARK 922        TOTAL FREE ENERGY PREDICTED BY IDOCK:  -12.89 KCAL/MOL
REMARK 923 INTER-LIGAND FREE ENERGY PREDICTED BY IDOCK:  -11.28 KCAL/MOL
REMARK 924 INTRA-LIGAND FREE ENERGY PREDICTED BY IDOCK:   -1.60 KCAL/MOL
REMARK 927      BINDING AFFINITY PREDICTED BY RF-SCORE:    0.00 PKD
ROOT
HETATM    1  C   UNL     1     -12.842  13.747  65.775  1.00  0.00    -0.430 C  
HETATM    2  C   UNL     1     -11.762  12.803  65.215  1.00  0.00    -0.403 C  
HETATM    3  C   UNL     1     -12.373  11.922  64.097  1.00  0.00    -0.370 C  
ENDROOT
BRANCH   2   4
HETATM    4  C   UNL     1     -10.650  13.646  64.556  1.00  0.00    -0.411 C  
HETATM    5  O   UNL     1     -10.033  12.941  63.481  1.00  0.00    -0.681 OA 
HETATM    6  H   UNL     1      -9.348  13.459  63.075  1.00  0.00     0.000 HD 
ENDBRANCH   2   4
BRANCH   2   7
HETATM    7  C   UNL     1     -11.150  11.910  66.339  1.00  0.00    -0.309 C  
HETATM    8  O   UNL     1     -12.109  11.542  67.344  1.00  0.00    -0.593 OA 
HETATM    9  H   UNL     1     -11.737  10.998  68.028  1.00  0.00     0.000 HD 
BRANCH   7  10
HETATM   10  C   UNL     1     -10.475  10.611  65.845  1.00  0.00    -0.174 C  
HETATM   11  O   UNL     1     -10.098  10.413  64.694  1.00  0.00    -0.345 OA 
HETATM   12  N   UNL     1     -10.261   9.697  66.853  1.00  0.00    -0.230 N  
HETATM   13  H   UNL     1     -10.649   9.870  67.781  1.00  0.00     0.000 HD 
BRANCH  12  14
HETATM   14  C   UNL     1      -9.495   8.494  66.613  1.00  0.00    -0.207 C  
BRANCH  14  15
HETATM   15  C   UNL     1      -8.183   8.451  67.389  1.00  0.00    -0.120 C  
BRANCH  15  16
HETATM   16  C   UNL     1      -7.402   9.711  67.088  1.00  0.00    -0.087 C  
HETATM   17  O   UNL     1      -7.052   9.999  65.948  1.00  0.00    -0.101 OA 
HETATM   18  N   UNL     1      -7.154  10.499  68.189  1.00  0.00    -0.081 N  
HETATM   19  H   UNL     1      -7.534  10.188  69.082  1.00  0.00     0.000 HD 
BRANCH  18  20
HETATM   20  C   UNL     1      -6.389  11.748  68.180  1.00  0.00    -0.051 C  
BRANCH  20  21
HETATM   21  C   UNL     1      -6.673  12.749  69.303  1.00  0.00    -0.058 C  
BRANCH  21  22
HETATM   22  S   UNL     1      -7.293  14.385  68.751  1.00  0.00    -0.135 SA 
BRANCH  22  23
HETATM   23  S   UNL     1      -9.244  14.019  68.198  1.00  0.00    -0.200 SA 
BRANCH  23  24
HETATM   24  C   UNL     1     -10.156  15.113  69.335  1.00  0.00    -0.240 C  
BRANCH  24  25
HETATM   25  C   UNL     1     -11.602  15.307  68.874  1.00  0.00    -0.347 C  
BRANCH  25  26
HETATM   26  N   UNL     1     -12.596  14.555  69.636  1.00  0.00    -0.565 N  
HETATM   27  H   UNL     1     -12.906  13.655  69.267  1.00  0.00     0.000 HD 
HETATM   28  C   UNL     1     -13.137  14.993  70.827  1.00  0.00    -0.369 C  
HETATM   29  O   UNL     1     -12.880  16.080  71.333  1.00  0.00    -0.412 OA 
BRANCH  28  30
HETATM   30  C   UNL     1     -14.060  14.002  71.498  1.00  0.00    -0.270 C  
BRANCH  30  31
HETATM   31  C   UNL     1     -13.278  13.172  72.512  1.00  0.00    -0.332 C  
BRANCH  31  32
HETATM   32  N   UNL     1     -13.466  11.747  72.313  1.00  0.00    -0.547 N  
HETATM   33  H   UNL     1     -14.111  11.246  72.924  1.00  0.00     0.000 HD 
HETATM   34  C   UNL     1     -12.805  11.047  71.331  1.00  0.00    -0.443 C  
HETATM   35  O   UNL     1     -11.944  11.542  70.609  1.00  0.00    -0.361 OA 
BRANCH  34  36
HETATM   36  C   UNL     1     -13.189   9.552  71.261  1.00  0.00    -0.328 C  
HETATM   37  O   UNL     1     -14.034   9.210  72.370  1.00  0.00    -0.490 OA 
HETATM   38  H   UNL     1     -14.270   8.290  72.327  1.00  0.00     0.000 HD 
BRANCH  36  39
HETATM   39  C   UNL     1     -11.961   8.600  71.210  1.00  0.00    -0.339 C  
HETATM   40  C   UNL     1     -12.392   7.134  70.999  1.00  0.00    -0.376 C  
HETATM   41  C   UNL     1     -11.074   8.997  70.007  1.00  0.00    -0.197 C  
BRANCH  39  42
HETATM   42  C   UNL     1     -11.138   8.730  72.514  1.00  0.00    -0.038 C  
HETATM   43  O   UNL     1     -11.463   7.706  73.449  1.00  0.00    -0.643 OA 
HETATM   44  H   UNL     1     -10.958   7.786  74.250  1.00  0.00     0.000 HD 
ENDBRANCH  39  42
ENDBRANCH  36  39
ENDBRANCH  34  36
ENDBRANCH  31  32
ENDBRANCH  30  31
ENDBRANCH  28  30
ENDBRANCH  25  26
ENDBRANCH  24  25
ENDBRANCH  23  24
ENDBRANCH  22  23
ENDBRANCH  21  22
ENDBRANCH  20  21
ENDBRANCH  18  20
ENDBRANCH  15  16
ENDBRANCH  14  15
ENDBRANCH  12  14
ENDBRANCH   7  10
ENDBRANCH   2   7
TORSDOF 19
ENDMDL
MODEL       71
REMARK 921   NORMALIZED FREE ENERGY PREDICTED BY IDOCK:   -5.07 KCAL/MOL
REMARK 922        TOTAL FREE ENERGY PREDICTED BY IDOCK:  -12.88 KCAL/MOL
REMARK 923 INTER-LIGAND FREE ENERGY PREDICTED BY IDOCK:  -10.88 KCAL/MOL
REMARK 924 INTRA-LIGAND FREE ENERGY PREDICTED BY IDOCK:   -2.00 KCAL/MOL
REMARK 927      BINDING AFFINITY PREDICTED BY RF-SCORE:    0.00 PKD
ROOT
HETATM    1  C   UNL     1     -12.550  14.079  64.234  1.00  0.00    -0.171 C  
HETATM    2  C   UNL     1     -11.370  14.360  65.182  1.00  0.00    -0.359 C  
HETATM    3  C   UNL     1     -11.856  14.289  66.651  1.00  0.00    -0.442 C  
ENDROOT
BRANCH   2   4
HETATM    4  C   UNL     1     -10.314  13.247  65.013  1.00  0.00    -0.340 C  
HETATM    5  O   UNL     1     -10.109  12.931  63.638  1.00  0.00    -0.676 OA 
HETATM    6  H   UNL     1      -9.459  12.246  63.534  1.00  0.00     0.000 HD 
ENDBRANCH   2   4
BRANCH   2   7
HETATM    7  C   UNL     1     -10.723  15.749  64.889  1.00  0.00    -0.361 C  
HETATM    8  O   UNL     1     -11.484  16.533  63.954  1.00  0.00    -1.608 OA 
HETATM    9  H   UNL     1     -11.090  17.378  63.775  1.00  0.00     0.000 HD 
BRANCH   7  10
HETATM   10  C   UNL     1     -10.471  16.629  66.134  1.00  0.00    -0.285 C  
HETATM   11  O   UNL     1     -11.096  17.650  66.406  1.00  0.00     0.141 OA 
HETATM   12  N   UNL     1      -9.508  16.114  66.972  1.00  0.00    -0.218 N  
HETATM   13  H   UNL     1      -8.965  15.301  66.678  1.00  0.00     0.000 HD 
BRANCH  12  14
HETATM   14  C   UNL     1      -9.255  16.711  68.265  1.00  0.00    -0.217 C  
BRANCH  14  15
HETATM   15  C   UNL     1      -8.548  15.770  69.235  1.00  0.00    -0.259 C  
BRANCH  15  16
HETATM   16  C   UNL     1      -7.971  14.612  68.451  1.00  0.00    -0.137 C  
HETATM   17  O   UNL     1      -7.086  14.772  67.617  1.00  0.00    -0.156 OA 
HETATM   18  N   UNL     1      -8.505  13.386  68.778  1.00  0.00    -0.362 N  
HETATM   19  H   UNL     1      -9.202  13.362  69.522  1.00  0.00     0.000 HD 
BRANCH  18  20
HETATM   20  C   UNL     1      -8.152  12.113  68.144  1.00  0.00    -0.161 C  
BRANCH  20  21
HETATM   21  C   UNL     1      -7.380  11.100  68.995  1.00  0.00    -0.120 C  
BRANCH  21  22
HETATM   22  S   UNL     1      -6.448   9.837  68.047  1.00  0.00    -0.056 SA 
BRANCH  22  23
HETATM   23  S   UNL     1      -7.821   8.334  67.730  1.00  0.00    -0.115 SA 
BRANCH  23  24
HETATM   24  C   UNL     1      -8.770   8.998  66.322  1.00  0.00    -0.135 C  
BRANCH  24  25
HETATM   25  C   UNL     1     -10.209   9.320  66.729  1.00  0.00    -0.255 C  
BRANCH  25  26
HETATM   26  N   UNL     1     -10.414   9.508  68.163  1.00  0.00    -0.213 N  
HETATM   27  H   UNL     1      -9.883   8.921  68.807  1.00  0.00     0.000 HD 
HETATM   28  C   UNL     1     -11.285  10.436  68.695  1.00  0.00    -0.248 C  
HETATM   29  O   UNL     1     -12.013  11.154  68.017  1.00  0.00    -0.625 OA 
BRANCH  28  30
HETATM   30  C   UNL     1     -11.252  10.535  70.203  1.00  0.00    -0.389 C  
BRANCH  30  31
HETATM   31  C   UNL     1     -10.154   9.631  70.756  1.00  0.00    -0.223 C  
BRANCH  31  32
HETATM   32  N   UNL     1     -10.694   8.484  71.460  1.00  0.00    -0.241 N  
HETATM   33  H   UNL     1     -10.924   8.578  72.450  1.00  0.00     0.000 HD 
HETATM   34  C   UNL     1     -10.907   7.274  70.843  1.00  0.00    -0.243 C  
HETATM   35  O   UNL     1     -10.577   7.037  69.684  1.00  0.00    -0.219 OA 
BRANCH  34  36
HETATM   36  C   UNL     1     -11.535   6.203  71.762  1.00  0.00    -0.285 C  
HETATM   37  O   UNL     1     -12.712   6.729  72.395  1.00  0.00    -0.520 OA 
HETATM   38  H   UNL     1     -13.099   6.071  72.961  1.00  0.00     0.000 HD 
BRANCH  36  39
HETATM   39  C   UNL     1     -10.552   5.653  72.833  1.00  0.00    -0.268 C  
HETATM   40  C   UNL     1     -10.941   4.228  73.277  1.00  0.00    -0.334 C  
HETATM   41  C   UNL     1      -9.137   5.574  72.214  1.00  0.00    -0.149 C  
BRANCH  39  42
HETATM   42  C   UNL     1     -10.520   6.601  74.057  1.00  0.00    -0.284 C  
HETATM   43  O   UNL     1      -9.429   7.513  73.991  1.00  0.00    -0.344 OA 
HETATM   44  H   UNL     1      -9.409   8.094  74.742  1.00  0.00     0.000 HD 
ENDBRANCH  39  42
ENDBRANCH  36  39
ENDBRANCH  34  36
ENDBRANCH  31  32
ENDBRANCH  30  31
ENDBRANCH  28  30
ENDBRANCH  25  26
ENDBRANCH  24  25
ENDBRANCH  23  24
ENDBRANCH  22  23
ENDBRANCH  21  22
ENDBRANCH  20  21
ENDBRANCH  18  20
ENDBRANCH  15  16
ENDBRANCH  14  15
ENDBRANCH  12  14
ENDBRANCH   7  10
ENDBRANCH   2   7
TORSDOF 19
ENDMDL
MODEL       72
REMARK 921   NORMALIZED FREE ENERGY PREDICTED BY IDOCK:   -5.04 KCAL/MOL
REMARK 922        TOTAL FREE ENERGY PREDICTED BY IDOCK:  -12.82 KCAL/MOL
REMARK 923 INTER-LIGAND FREE ENERGY PREDICTED BY IDOCK:  -10.64 KCAL/MOL
REMARK 924 INTRA-LIGAND FREE ENERGY PREDICTED BY IDOCK:   -2.18 KCAL/MOL
REMARK 927      BINDING AFFINITY PREDICTED BY RF-SCORE:    0.00 PKD
ROOT
HETATM    1  C   UNL     1     -11.270   7.160  72.890  1.00  0.00    -0.302 C  
HETATM    2  C   UNL     1     -11.515   8.124  71.715  1.00  0.00    -0.337 C  
HETATM    3  C   UNL     1     -10.399   9.198  71.683  1.00  0.00    -0.388 C  
ENDROOT
BRANCH   2   4
HETATM    4  C   UNL     1     -11.409   7.339  70.390  1.00  0.00    -0.271 C  
HETATM    5  O   UNL     1     -11.140   8.207  69.292  1.00  0.00    -0.438 OA 
HETATM    6  H   UNL     1     -11.075   7.724  68.477  1.00  0.00     0.000 HD 
ENDBRANCH   2   4
BRANCH   2   7
HETATM    7  C   UNL     1     -12.918   8.799  71.816  1.00  0.00    -0.361 C  
HETATM    8  O   UNL     1     -13.430   8.825  73.159  1.00  0.00    -0.953 OA 
HETATM    9  H   UNL     1     -14.283   9.236  73.220  1.00  0.00     0.000 HD 
BRANCH   7  10
HETATM   10  C   UNL     1     -12.990  10.241  71.265  1.00  0.00    -0.420 C  
HETATM   11  O   UNL     1     -12.793  10.552  70.094  1.00  0.00    -0.264 OA 
HETATM   12  N   UNL     1     -13.376  11.162  72.213  1.00  0.00    -0.552 N  
HETATM   13  H   UNL     1     -13.465  10.875  73.188  1.00  0.00     0.000 HD 
BRANCH  12  14
HETATM   14  C   UNL     1     -13.657  12.532  71.844  1.00  0.00    -0.180 C  
BRANCH  14  15
HETATM   15  C   UNL     1     -12.505  13.485  72.144  1.00  0.00     0.014 C  
BRANCH  15  16
HETATM   16  C   UNL     1     -12.021  14.083  70.842  1.00  0.00    -0.267 C  
HETATM   17  O   UNL     1     -12.585  13.856  69.776  1.00  0.00    -0.262 OA 
HETATM   18  N   UNL     1     -10.929  14.910  70.971  1.00  0.00    -0.549 N  
HETATM   19  H   UNL     1     -10.569  15.068  71.911  1.00  0.00     0.000 HD 
BRANCH  18  20
HETATM   20  C   UNL     1     -10.242  15.582  69.865  1.00  0.00    -0.295 C  
BRANCH  20  21
HETATM   21  C   UNL     1     -10.971  16.752  69.197  1.00  0.00    -0.223 C  
BRANCH  21  22
HETATM   22  S   UNL     1      -9.885  18.082  68.554  1.00  0.00    -0.392 SA 
BRANCH  22  23
HETATM   23  S   UNL     1      -9.481  17.507  66.617  1.00  0.00    -0.284 SA 
BRANCH  23  24
HETATM   24  C   UNL     1      -7.696  17.855  66.498  1.00  0.00    -0.257 C  
BRANCH  24  25
HETATM   25  C   UNL     1      -6.874  16.568  66.598  1.00  0.00    -0.126 C  
BRANCH  25  26
HETATM   26  N   UNL     1      -7.255  15.680  67.694  1.00  0.00    -0.155 N  
HETATM   27  H   UNL     1      -7.921  16.027  68.386  1.00  0.00     0.000 HD 
HETATM   28  C   UNL     1      -6.765  14.400  67.845  1.00  0.00    -0.166 C  
HETATM   29  O   UNL     1      -5.922  13.902  67.107  1.00  0.00    -0.216 OA 
BRANCH  28  30
HETATM   30  C   UNL     1      -7.384  13.623  68.985  1.00  0.00    -0.014 C  
BRANCH  30  31
HETATM   31  C   UNL     1      -7.609  12.175  68.562  1.00  0.00    -0.124 C  
BRANCH  31  32
HETATM   32  N   UNL     1      -8.899  11.985  67.926  1.00  0.00    -0.167 N  
HETATM   33  H   UNL     1      -9.743  12.081  68.489  1.00  0.00     0.000 HD 
HETATM   34  C   UNL     1      -9.024  11.679  66.591  1.00  0.00    -0.189 C  
HETATM   35  O   UNL     1      -8.068  11.454  65.855  1.00  0.00    -0.031 OA 
BRANCH  34  36
HETATM   36  C   UNL     1     -10.487  11.571  66.107  1.00  0.00    -0.251 C  
HETATM   37  O   UNL     1     -10.588  10.588  65.065  1.00  0.00    -0.234 OA 
HETATM   38  H   UNL     1     -11.488  10.522  64.768  1.00  0.00     0.000 HD 
BRANCH  36  39
HETATM   39  C   UNL     1     -11.080  12.924  65.624  1.00  0.00    -0.307 C  
HETATM   40  C   UNL     1     -12.373  13.278  66.388  1.00  0.00    -0.347 C  
HETATM   41  C   UNL     1     -10.055  14.047  65.910  1.00  0.00    -0.336 C  
BRANCH  39  42
HETATM   42  C   UNL     1     -11.360  12.866  64.103  1.00  0.00    -0.393 C  
HETATM   43  O   UNL     1     -10.158  12.910  63.342  1.00  0.00    -0.601 OA 
HETATM   44  H   UNL     1     -10.330  12.875  62.408  1.00  0.00     0.000 HD 
ENDBRANCH  39  42
ENDBRANCH  36  39
ENDBRANCH  34  36
ENDBRANCH  31  32
ENDBRANCH  30  31
ENDBRANCH  28  30
ENDBRANCH  25  26
ENDBRANCH  24  25
ENDBRANCH  23  24
ENDBRANCH  22  23
ENDBRANCH  21  22
ENDBRANCH  20  21
ENDBRANCH  18  20
ENDBRANCH  15  16
ENDBRANCH  14  15
ENDBRANCH  12  14
ENDBRANCH   7  10
ENDBRANCH   2   7
TORSDOF 19
ENDMDL
MODEL       73
REMARK 921   NORMALIZED FREE ENERGY PREDICTED BY IDOCK:   -5.03 KCAL/MOL
REMARK 922        TOTAL FREE ENERGY PREDICTED BY IDOCK:  -12.80 KCAL/MOL
REMARK 923 INTER-LIGAND FREE ENERGY PREDICTED BY IDOCK:  -10.21 KCAL/MOL
REMARK 924 INTRA-LIGAND FREE ENERGY PREDICTED BY IDOCK:   -2.60 KCAL/MOL
REMARK 927      BINDING AFFINITY PREDICTED BY RF-SCORE:    0.00 PKD
ROOT
HETATM    1  C   UNL     1     -10.677  14.196  64.503  1.00  0.00    -0.323 C  
HETATM    2  C   UNL     1     -11.576  13.035  64.967  1.00  0.00    -0.359 C  
HETATM    3  C   UNL     1     -12.797  13.600  65.735  1.00  0.00    -0.390 C  
ENDROOT
BRANCH   2   4
HETATM    4  C   UNL     1     -12.134  12.305  63.727  1.00  0.00    -0.532 C  
HETATM    5  O   UNL     1     -11.233  11.299  63.268  1.00  0.00    -0.795 OA 
HETATM    6  H   UNL     1     -11.577  10.850  62.505  1.00  0.00     0.000 HD 
ENDBRANCH   2   4
BRANCH   2   7
HETATM    7  C   UNL     1     -10.788  12.028  65.861  1.00  0.00    -0.288 C  
HETATM    8  O   UNL     1      -9.417  11.877  65.456  1.00  0.00    -0.325 OA 
HETATM    9  H   UNL     1      -8.937  11.264  66.000  1.00  0.00     0.000 HD 
BRANCH   7  10
HETATM   10  C   UNL     1     -10.791  12.355  67.371  1.00  0.00    -0.238 C  
HETATM   11  O   UNL     1     -10.289  13.357  67.870  1.00  0.00    -0.228 OA 
HETATM   12  N   UNL     1     -11.489  11.434  68.121  1.00  0.00    -0.292 N  
HETATM   13  H   UNL     1     -11.833  10.581  67.679  1.00  0.00     0.000 HD 
BRANCH  12  14
HETATM   14  C   UNL     1     -11.739  11.660  69.527  1.00  0.00    -0.344 C  
BRANCH  14  15
HETATM   15  C   UNL     1     -12.424  10.483  70.213  1.00  0.00    -0.345 C  
BRANCH  15  16
HETATM   16  C   UNL     1     -11.426   9.355  70.348  1.00  0.00    -0.223 C  
HETATM   17  O   UNL     1     -11.077   8.680  69.384  1.00  0.00    -0.086 OA 
HETATM   18  N   UNL     1     -10.937   9.181  71.622  1.00  0.00    -0.358 N  
HETATM   19  H   UNL     1     -11.258   9.830  72.340  1.00  0.00     0.000 HD 
BRANCH  18  20
HETATM   20  C   UNL     1      -9.991   8.139  72.031  1.00  0.00    -0.233 C  
BRANCH  20  21
HETATM   21  C   UNL     1      -8.552   8.576  72.321  1.00  0.00    -0.165 C  
BRANCH  21  22
HETATM   22  S   UNL     1      -7.285   7.884  71.190  1.00  0.00    -0.061 SA 
BRANCH  22  23
HETATM   23  S   UNL     1      -7.809   8.624  69.339  1.00  0.00    -0.098 SA 
BRANCH  23  24
HETATM   24  C   UNL     1      -7.939  10.409  69.684  1.00  0.00    -0.118 C  
BRANCH  24  25
HETATM   25  C   UNL     1      -6.586  11.104  69.515  1.00  0.00    -0.126 C  
BRANCH  25  26
HETATM   26  N   UNL     1      -6.661  12.536  69.234  1.00  0.00    -0.213 N  
HETATM   27  H   UNL     1      -6.524  13.186  70.008  1.00  0.00     0.000 HD 
HETATM   28  C   UNL     1      -6.909  13.055  67.981  1.00  0.00    -0.113 C  
HETATM   29  O   UNL     1      -7.144  12.369  66.992  1.00  0.00    -0.116 OA 
BRANCH  28  30
HETATM   30  C   UNL     1      -6.830  14.563  67.902  1.00  0.00    -0.177 C  
BRANCH  30  31
HETATM   31  C   UNL     1      -7.529  15.182  69.108  1.00  0.00    -0.176 C  
BRANCH  31  32
HETATM   32  N   UNL     1      -7.844  16.583  68.898  1.00  0.00    -0.232 N  
HETATM   33  H   UNL     1      -7.081  17.235  68.715  1.00  0.00     0.000 HD 
HETATM   34  C   UNL     1      -9.132  17.063  68.938  1.00  0.00    -0.208 C  
HETATM   35  O   UNL     1     -10.102  16.374  69.240  1.00  0.00    -0.255 OA 
BRANCH  34  36
HETATM   36  C   UNL     1      -9.247  18.574  68.637  1.00  0.00    -0.310 C  
HETATM   37  O   UNL     1     -10.402  19.118  69.295  1.00  0.00    -0.527 OA 
HETATM   38  H   UNL     1     -10.473  20.047  69.110  1.00  0.00     0.000 HD 
BRANCH  36  39
HETATM   39  C   UNL     1      -9.293  18.900  67.118  1.00  0.00    -0.328 C  
HETATM   40  C   UNL     1      -9.985  17.776  66.320  1.00  0.00    -0.322 C  
HETATM   41  C   UNL     1     -10.123  20.189  66.912  1.00  0.00    -0.592 C  
BRANCH  39  42
HETATM   42  C   UNL     1      -7.859  19.127  66.583  1.00  0.00    -0.267 C  
HETATM   43  O   UNL     1      -7.637  18.439  65.356  1.00  0.00    -0.442 OA 
HETATM   44  H   UNL     1      -6.756  18.578  65.028  1.00  0.00     0.000 HD 
ENDBRANCH  39  42
ENDBRANCH  36  39
ENDBRANCH  34  36
ENDBRANCH  31  32
ENDBRANCH  30  31
ENDBRANCH  28  30
ENDBRANCH  25  26
ENDBRANCH  24  25
ENDBRANCH  23  24
ENDBRANCH  22  23
ENDBRANCH  21  22
ENDBRANCH  20  21
ENDBRANCH  18  20
ENDBRANCH  15  16
ENDBRANCH  14  15
ENDBRANCH  12  14
ENDBRANCH   7  10
ENDBRANCH   2   7
TORSDOF 19
ENDMDL
MODEL       74
REMARK 921   NORMALIZED FREE ENERGY PREDICTED BY IDOCK:   -5.03 KCAL/MOL
REMARK 922        TOTAL FREE ENERGY PREDICTED BY IDOCK:  -12.80 KCAL/MOL
REMARK 923 INTER-LIGAND FREE ENERGY PREDICTED BY IDOCK:  -11.00 KCAL/MOL
REMARK 924 INTRA-LIGAND FREE ENERGY PREDICTED BY IDOCK:   -1.80 KCAL/MOL
REMARK 927      BINDING AFFINITY PREDICTED BY RF-SCORE:    0.00 PKD
ROOT
HETATM    1  C   UNL     1      -7.776   9.266  68.037  1.00  0.00    -0.088 C  
HETATM    2  C   UNL     1      -8.309   9.934  66.756  1.00  0.00    -0.125 C  
HETATM    3  C   UNL     1      -8.586  11.433  67.029  1.00  0.00    -0.157 C  
ENDROOT
BRANCH   2   4
HETATM    4  C   UNL     1      -7.215   9.879  65.668  1.00  0.00    -0.113 C  
HETATM    5  O   UNL     1      -7.244  11.041  64.843  1.00  0.00    -0.293 OA 
HETATM    6  H   UNL     1      -6.571  11.006  64.174  1.00  0.00     0.000 HD 
ENDBRANCH   2   4
BRANCH   2   7
HETATM    7  C   UNL     1      -9.601   9.226  66.240  1.00  0.00    -0.248 C  
HETATM    8  O   UNL     1      -9.986   9.657  64.924  1.00  0.00    -0.418 OA 
HETATM    9  H   UNL     1     -10.771   9.226  64.610  1.00  0.00     0.000 HD 
BRANCH   7  10
HETATM   10  C   UNL     1      -9.536   7.682  66.222  1.00  0.00    -0.085 C  
HETATM   11  O   UNL     1      -8.631   7.027  65.714  1.00  0.00    -0.145 OA 
HETATM   12  N   UNL     1     -10.574   7.091  66.907  1.00  0.00    -0.431 N  
HETATM   13  H   UNL     1     -11.341   7.667  67.256  1.00  0.00     0.000 HD 
BRANCH  12  14
HETATM   14  C   UNL     1     -10.592   5.663  67.137  1.00  0.00    -0.270 C  
BRANCH  14  15
HETATM   15  C   UNL     1      -9.897   5.254  68.432  1.00  0.00    -0.208 C  
BRANCH  15  16
HETATM   16  C   UNL     1     -10.618   5.900  69.593  1.00  0.00    -0.313 C  
HETATM   17  O   UNL     1     -11.771   6.309  69.492  1.00  0.00    -0.360 OA 
HETATM   18  N   UNL     1      -9.883   5.956  70.755  1.00  0.00    -0.179 N  
HETATM   19  H   UNL     1      -8.952   5.542  70.741  1.00  0.00     0.000 HD 
BRANCH  18  20
HETATM   20  C   UNL     1     -10.331   6.564  72.011  1.00  0.00    -0.199 C  
BRANCH  20  21
HETATM   21  C   UNL     1      -9.827   7.977  72.322  1.00  0.00    -0.236 C  
BRANCH  21  22
HETATM   22  S   UNL     1     -10.298   9.259  71.099  1.00  0.00    -0.314 SA 
BRANCH  22  23
HETATM   23  S   UNL     1     -12.283   9.634  71.506  1.00  0.00    -0.420 SA 
BRANCH  23  24
HETATM   24  C   UNL     1     -12.484  11.312  70.821  1.00  0.00    -0.376 C  
BRANCH  24  25
HETATM   25  C   UNL     1     -11.848  11.422  69.434  1.00  0.00    -0.351 C  
BRANCH  25  26
HETATM   26  N   UNL     1     -11.720  12.785  68.924  1.00  0.00    -0.310 N  
HETATM   27  H   UNL     1     -11.549  13.536  69.593  1.00  0.00     0.000 HD 
HETATM   28  C   UNL     1     -11.817  13.112  67.587  1.00  0.00    -0.359 C  
HETATM   29  O   UNL     1     -12.075  12.301  66.704  1.00  0.00    -0.612 OA 
BRANCH  28  30
HETATM   30  C   UNL     1     -11.538  14.565  67.277  1.00  0.00    -0.405 C  
BRANCH  30  31
HETATM   31  C   UNL     1     -11.542  15.380  68.566  1.00  0.00    -0.359 C  
BRANCH  31  32
HETATM   32  N   UNL     1     -10.982  16.705  68.377  1.00  0.00    -0.357 N  
HETATM   33  H   UNL     1     -11.573  17.435  67.979  1.00  0.00     0.000 HD 
HETATM   34  C   UNL     1      -9.686  17.012  68.716  1.00  0.00    -0.273 C  
HETATM   35  O   UNL     1      -8.875  16.181  69.115  1.00  0.00    -0.246 OA 
BRANCH  34  36
HETATM   36  C   UNL     1      -9.310  18.492  68.481  1.00  0.00    -0.338 C  
HETATM   37  O   UNL     1     -10.410  19.341  68.842  1.00  0.00    -0.524 OA 
HETATM   38  H   UNL     1     -10.179  20.251  68.697  1.00  0.00     0.000 HD 
BRANCH  36  39
HETATM   39  C   UNL     1      -8.860  18.791  67.023  1.00  0.00    -0.302 C  
HETATM   40  C   UNL     1      -8.278  17.534  66.344  1.00  0.00    -0.305 C  
HETATM   41  C   UNL     1     -10.095  19.229  66.202  1.00  0.00    -0.517 C  
BRANCH  39  42
HETATM   42  C   UNL     1      -7.814  19.932  67.017  1.00  0.00    -0.290 C  
HETATM   43  O   UNL     1      -7.453  20.311  65.693  1.00  0.00    -0.475 OA 
HETATM   44  H   UNL     1      -6.810  21.011  65.689  1.00  0.00     0.000 HD 
ENDBRANCH  39  42
ENDBRANCH  36  39
ENDBRANCH  34  36
ENDBRANCH  31  32
ENDBRANCH  30  31
ENDBRANCH  28  30
ENDBRANCH  25  26
ENDBRANCH  24  25
ENDBRANCH  23  24
ENDBRANCH  22  23
ENDBRANCH  21  22
ENDBRANCH  20  21
ENDBRANCH  18  20
ENDBRANCH  15  16
ENDBRANCH  14  15
ENDBRANCH  12  14
ENDBRANCH   7  10
ENDBRANCH   2   7
TORSDOF 19
ENDMDL
MODEL       75
REMARK 921   NORMALIZED FREE ENERGY PREDICTED BY IDOCK:   -5.03 KCAL/MOL
REMARK 922        TOTAL FREE ENERGY PREDICTED BY IDOCK:  -12.80 KCAL/MOL
REMARK 923 INTER-LIGAND FREE ENERGY PREDICTED BY IDOCK:  -10.61 KCAL/MOL
REMARK 924 INTRA-LIGAND FREE ENERGY PREDICTED BY IDOCK:   -2.19 KCAL/MOL
REMARK 927      BINDING AFFINITY PREDICTED BY RF-SCORE:    0.00 PKD
ROOT
HETATM    1  C   UNL     1     -12.911   9.669  72.017  1.00  0.00    -0.518 C  
HETATM    2  C   UNL     1     -11.929   8.546  71.635  1.00  0.00    -0.372 C  
HETATM    3  C   UNL     1     -11.200   8.040  72.905  1.00  0.00    -0.389 C  
ENDROOT
BRANCH   2   4
HETATM    4  C   UNL     1     -12.726   7.348  71.077  1.00  0.00    -0.205 C  
HETATM    5  O   UNL     1     -12.150   6.858  69.869  1.00  0.00    -0.635 OA 
HETATM    6  H   UNL     1     -12.641   6.121  69.526  1.00  0.00     0.000 HD 
ENDBRANCH   2   4
BRANCH   2   7
HETATM    7  C   UNL     1     -10.896   9.032  70.571  1.00  0.00    -0.251 C  
HETATM    8  O   UNL     1     -10.910  10.458  70.389  1.00  0.00    -0.376 OA 
HETATM    9  H   UNL     1     -10.282  10.754  69.742  1.00  0.00     0.000 HD 
BRANCH   7  10
HETATM   10  C   UNL     1      -9.433   8.614  70.843  1.00  0.00    -0.194 C  
HETATM   11  O   UNL     1      -8.625   9.278  71.486  1.00  0.00    -0.320 OA 
HETATM   12  N   UNL     1      -9.128   7.366  70.348  1.00  0.00    -0.157 N  
HETATM   13  H   UNL     1      -9.804   6.877  69.762  1.00  0.00     0.000 HD 
BRANCH  12  14
HETATM   14  C   UNL     1      -7.859   6.740  70.648  1.00  0.00    -0.105 C  
BRANCH  14  15
HETATM   15  C   UNL     1      -7.881   5.224  70.483  1.00  0.00    -0.084 C  
BRANCH  15  16
HETATM   16  C   UNL     1      -8.848   4.873  69.375  1.00  0.00    -0.091 C  
HETATM   17  O   UNL     1     -10.052   4.755  69.580  1.00  0.00    -0.226 OA 
HETATM   18  N   UNL     1      -8.263   4.730  68.137  1.00  0.00    -0.088 N  
HETATM   19  H   UNL     1      -7.260   4.899  68.071  1.00  0.00     0.000 HD 
BRANCH  18  20
HETATM   20  C   UNL     1      -8.966   4.356  66.907  1.00  0.00    -0.118 C  
BRANCH  20  21
HETATM   21  C   UNL     1      -9.287   5.479  65.917  1.00  0.00    -0.125 C  
BRANCH  21  22
HETATM   22  S   UNL     1      -8.362   7.040  66.183  1.00  0.00    -0.136 SA 
BRANCH  22  23
HETATM   23  S   UNL     1      -9.798   8.368  66.832  1.00  0.00    -0.271 SA 
BRANCH  23  24
HETATM   24  C   UNL     1      -9.198   9.933  66.114  1.00  0.00    -0.168 C  
BRANCH  24  25
HETATM   25  C   UNL     1     -10.352  10.748  65.525  1.00  0.00    -0.241 C  
BRANCH  25  26
HETATM   26  N   UNL     1     -10.607  12.022  66.193  1.00  0.00    -0.254 N  
HETATM   27  H   UNL     1     -10.107  12.847  65.864  1.00  0.00     0.000 HD 
HETATM   28  C   UNL     1     -11.488  12.168  67.245  1.00  0.00    -0.345 C  
HETATM   29  O   UNL     1     -12.099  11.237  67.757  1.00  0.00    -0.631 OA 
BRANCH  28  30
HETATM   30  C   UNL     1     -11.679  13.595  67.706  1.00  0.00    -0.397 C  
BRANCH  30  31
HETATM   31  C   UNL     1     -11.419  14.553  66.548  1.00  0.00    -0.362 C  
BRANCH  31  32
HETATM   32  N   UNL     1     -10.314  15.452  66.820  1.00  0.00    -0.272 N  
HETATM   33  H   UNL     1      -9.717  15.268  67.627  1.00  0.00     0.000 HD 
HETATM   34  C   UNL     1     -10.041  16.544  66.030  1.00  0.00    -0.348 C  
HETATM   35  O   UNL     1     -10.753  16.899  65.095  1.00  0.00    -0.663 OA 
BRANCH  34  36
HETATM   36  C   UNL     1      -8.790  17.338  66.468  1.00  0.00    -0.261 C  
HETATM   37  O   UNL     1      -7.815  16.446  67.032  1.00  0.00    -0.169 OA 
HETATM   38  H   UNL     1      -7.046  16.934  67.301  1.00  0.00     0.000 HD 
BRANCH  36  39
HETATM   39  C   UNL     1      -9.104  18.486  67.467  1.00  0.00    -0.289 C  
HETATM   40  C   UNL     1     -10.346  18.164  68.325  1.00  0.00    -0.377 C  
HETATM   41  C   UNL     1      -7.907  18.647  68.433  1.00  0.00    -0.344 C  
BRANCH  39  42
HETATM   42  C   UNL     1      -9.319  19.812  66.698  1.00  0.00    -0.387 C  
HETATM   43  O   UNL     1      -8.422  19.938  65.599  1.00  0.00    -0.439 OA 
HETATM   44  H   UNL     1      -8.553  20.751  65.127  1.00  0.00     0.000 HD 
ENDBRANCH  39  42
ENDBRANCH  36  39
ENDBRANCH  34  36
ENDBRANCH  31  32
ENDBRANCH  30  31
ENDBRANCH  28  30
ENDBRANCH  25  26
ENDBRANCH  24  25
ENDBRANCH  23  24
ENDBRANCH  22  23
ENDBRANCH  21  22
ENDBRANCH  20  21
ENDBRANCH  18  20
ENDBRANCH  15  16
ENDBRANCH  14  15
ENDBRANCH  12  14
ENDBRANCH   7  10
ENDBRANCH   2   7
TORSDOF 19
ENDMDL
MODEL       76
REMARK 921   NORMALIZED FREE ENERGY PREDICTED BY IDOCK:   -5.02 KCAL/MOL
REMARK 922        TOTAL FREE ENERGY PREDICTED BY IDOCK:  -12.78 KCAL/MOL
REMARK 923 INTER-LIGAND FREE ENERGY PREDICTED BY IDOCK:  -10.60 KCAL/MOL
REMARK 924 INTRA-LIGAND FREE ENERGY PREDICTED BY IDOCK:   -2.18 KCAL/MOL
REMARK 927      BINDING AFFINITY PREDICTED BY RF-SCORE:    0.00 PKD
ROOT
HETATM    1  C   UNL     1     -12.202  12.571  65.802  1.00  0.00    -0.361 C  
HETATM    2  C   UNL     1     -11.627  12.513  64.375  1.00  0.00    -0.419 C  
HETATM    3  C   UNL     1     -12.683  11.913  63.414  1.00  0.00    -0.496 C  
ENDROOT
BRANCH   2   4
HETATM    4  C   UNL     1     -11.351  13.951  63.885  1.00  0.00     0.061 C  
HETATM    5  O   UNL     1     -12.488  14.501  63.225  1.00  0.00    -1.010 OA 
HETATM    6  H   UNL     1     -12.318  15.386  62.923  1.00  0.00     0.000 HD 
ENDBRANCH   2   4
BRANCH   2   7
HETATM    7  C   UNL     1     -10.309  11.678  64.326  1.00  0.00    -0.322 C  
HETATM    8  O   UNL     1      -9.342  12.216  63.408  1.00  0.00    -0.651 OA 
HETATM    9  H   UNL     1      -8.540  11.708  63.379  1.00  0.00     0.000 HD 
BRANCH   7  10
HETATM   10  C   UNL     1      -9.603  11.493  65.688  1.00  0.00    -0.231 C  
HETATM   11  O   UNL     1      -9.505  10.425  66.285  1.00  0.00    -0.161 OA 
HETATM   12  N   UNL     1      -9.014  12.649  66.152  1.00  0.00    -0.431 N  
HETATM   13  H   UNL     1      -9.175  13.529  65.661  1.00  0.00     0.000 HD 
BRANCH  12  14
HETATM   14  C   UNL     1      -8.170  12.630  67.326  1.00  0.00    -0.184 C  
BRANCH  14  15
HETATM   15  C   UNL     1      -8.377  13.837  68.235  1.00  0.00    -0.161 C  
BRANCH  15  16
HETATM   16  C   UNL     1      -9.794  13.807  68.762  1.00  0.00    -0.088 C  
HETATM   17  O   UNL     1     -10.457  12.775  68.778  1.00  0.00    -0.228 OA 
HETATM   18  N   UNL     1     -10.246  15.017  69.238  1.00  0.00    -0.241 N  
HETATM   19  H   UNL     1      -9.594  15.800  69.221  1.00  0.00     0.000 HD 
BRANCH  18  20
HETATM   20  C   UNL     1     -11.590  15.270  69.765  1.00  0.00    -0.314 C  
BRANCH  20  21
HETATM   21  C   UNL     1     -11.686  15.979  71.119  1.00  0.00    -0.439 C  
BRANCH  21  22
HETATM   22  S   UNL     1     -11.798  14.869  72.575  1.00  0.00    -0.162 SA 
BRANCH  22  23
HETATM   23  S   UNL     1     -13.455  13.706  72.190  1.00  0.00    -0.551 SA 
BRANCH  23  24
HETATM   24  C   UNL     1     -12.702  12.257  71.379  1.00  0.00    -0.248 C  
BRANCH  24  25
HETATM   25  C   UNL     1     -13.231  10.952  71.977  1.00  0.00    -0.351 C  
BRANCH  25  26
HETATM   26  N   UNL     1     -12.499   9.752  71.578  1.00  0.00    -0.374 N  
HETATM   27  H   UNL     1     -11.573   9.868  71.166  1.00  0.00     0.000 HD 
HETATM   28  C   UNL     1     -12.991   8.473  71.728  1.00  0.00    -0.352 C  
HETATM   29  O   UNL     1     -14.111   8.219  72.158  1.00  0.00    -0.372 OA 
BRANCH  28  30
HETATM   30  C   UNL     1     -12.016   7.380  71.353  1.00  0.00    -0.340 C  
BRANCH  30  31
HETATM   31  C   UNL     1     -10.587   7.907  71.442  1.00  0.00    -0.211 C  
BRANCH  31  32
HETATM   32  N   UNL     1      -9.898   7.838  70.167  1.00  0.00    -0.184 N  
HETATM   33  H   UNL     1      -9.834   8.681  69.597  1.00  0.00     0.000 HD 
HETATM   34  C   UNL     1      -9.329   6.677  69.700  1.00  0.00    -0.143 C  
HETATM   35  O   UNL     1      -9.433   5.594  70.269  1.00  0.00    -0.154 OA 
BRANCH  34  36
HETATM   36  C   UNL     1      -8.601   6.836  68.346  1.00  0.00    -0.125 C  
HETATM   37  O   UNL     1      -8.182   8.199  68.172  1.00  0.00    -0.126 OA 
HETATM   38  H   UNL     1      -7.735   8.297  67.340  1.00  0.00     0.000 HD 
BRANCH  36  39
HETATM   39  C   UNL     1      -9.453   6.379  67.129  1.00  0.00    -0.145 C  
HETATM   40  C   UNL     1      -9.761   4.869  67.191  1.00  0.00    -0.194 C  
HETATM   41  C   UNL     1     -10.807   7.127  67.160  1.00  0.00    -0.403 C  
BRANCH  39  42
HETATM   42  C   UNL     1      -8.715   6.718  65.811  1.00  0.00    -0.110 C  
HETATM   43  O   UNL     1      -9.174   7.942  65.247  1.00  0.00    -0.379 OA 
HETATM   44  H   UNL     1      -8.721   8.150  64.438  1.00  0.00     0.000 HD 
ENDBRANCH  39  42
ENDBRANCH  36  39
ENDBRANCH  34  36
ENDBRANCH  31  32
ENDBRANCH  30  31
ENDBRANCH  28  30
ENDBRANCH  25  26
ENDBRANCH  24  25
ENDBRANCH  23  24
ENDBRANCH  22  23
ENDBRANCH  21  22
ENDBRANCH  20  21
ENDBRANCH  18  20
ENDBRANCH  15  16
ENDBRANCH  14  15
ENDBRANCH  12  14
ENDBRANCH   7  10
ENDBRANCH   2   7
TORSDOF 19
ENDMDL
MODEL       77
REMARK 921   NORMALIZED FREE ENERGY PREDICTED BY IDOCK:   -5.01 KCAL/MOL
REMARK 922        TOTAL FREE ENERGY PREDICTED BY IDOCK:  -12.76 KCAL/MOL
REMARK 923 INTER-LIGAND FREE ENERGY PREDICTED BY IDOCK:   -9.40 KCAL/MOL
REMARK 924 INTRA-LIGAND FREE ENERGY PREDICTED BY IDOCK:   -3.37 KCAL/MOL
REMARK 927      BINDING AFFINITY PREDICTED BY RF-SCORE:    0.00 PKD
ROOT
HETATM    1  C   UNL     1     -10.187   5.356  71.024  1.00  0.00    -0.296 C  
HETATM    2  C   UNL     1     -10.229   5.416  72.562  1.00  0.00    -0.238 C  
HETATM    3  C   UNL     1     -11.275   4.404  73.091  1.00  0.00    -0.309 C  
ENDROOT
BRANCH   2   4
HETATM    4  C   UNL     1      -8.861   4.970  73.120  1.00  0.00    -0.111 C  
HETATM    5  O   UNL     1      -7.791   5.419  72.292  1.00  0.00    -0.100 OA 
HETATM    6  H   UNL     1      -6.949   5.144  72.636  1.00  0.00     0.000 HD 
ENDBRANCH   2   4
BRANCH   2   7
HETATM    7  C   UNL     1     -10.559   6.855  73.066  1.00  0.00    -0.278 C  
HETATM    8  O   UNL     1      -9.415   7.726  73.057  1.00  0.00    -0.199 OA 
HETATM    9  H   UNL     1      -9.617   8.602  73.364  1.00  0.00     0.000 HD 
BRANCH   7  10
HETATM   10  C   UNL     1     -11.693   7.572  72.300  1.00  0.00    -0.304 C  
HETATM   11  O   UNL     1     -12.727   7.032  71.917  1.00  0.00    -0.329 OA 
HETATM   12  N   UNL     1     -11.469   8.921  72.142  1.00  0.00    -0.356 N  
HETATM   13  H   UNL     1     -10.569   9.318  72.413  1.00  0.00     0.000 HD 
BRANCH  12  14
HETATM   14  C   UNL     1     -12.493   9.783  71.595  1.00  0.00    -0.410 C  
BRANCH  14  15
HETATM   15  C   UNL     1     -12.117  10.385  70.245  1.00  0.00    -0.370 C  
BRANCH  15  16
HETATM   16  C   UNL     1     -12.250  11.889  70.333  1.00  0.00    -0.314 C  
HETATM   17  O   UNL     1     -12.706  12.441  71.329  1.00  0.00    -0.360 OA 
HETATM   18  N   UNL     1     -11.793  12.563  69.223  1.00  0.00    -0.313 N  
HETATM   19  H   UNL     1     -11.388  12.007  68.471  1.00  0.00     0.000 HD 
BRANCH  18  20
HETATM   20  C   UNL     1     -11.842  14.015  69.036  1.00  0.00    -0.354 C  
BRANCH  20  21
HETATM   21  C   UNL     1     -12.011  14.529  67.603  1.00  0.00    -0.320 C  
BRANCH  21  22
HETATM   22  S   UNL     1     -10.609  15.523  66.961  1.00  0.00    -0.312 SA 
BRANCH  22  23
HETATM   23  S   UNL     1     -10.935  15.593  64.928  1.00  0.00    -0.362 SA 
BRANCH  23  24
HETATM   24  C   UNL     1     -11.612  13.930  64.611  1.00  0.00    -0.385 C  
BRANCH  24  25
HETATM   25  C   UNL     1     -10.500  12.935  64.275  1.00  0.00    -0.407 C  
BRANCH  25  26
HETATM   26  N   UNL     1      -9.481  12.780  65.311  1.00  0.00    -0.448 N  
HETATM   27  H   UNL     1      -8.617  13.315  65.221  1.00  0.00     0.000 HD 
HETATM   28  C   UNL     1      -9.624  11.951  66.404  1.00  0.00    -0.225 C  
HETATM   29  O   UNL     1     -10.594  11.222  66.584  1.00  0.00    -0.241 OA 
BRANCH  28  30
HETATM   30  C   UNL     1      -8.495  12.035  67.405  1.00  0.00    -0.170 C  
BRANCH  30  31
HETATM   31  C   UNL     1      -8.742  11.055  68.547  1.00  0.00    -0.159 C  
BRANCH  31  32
HETATM   32  N   UNL     1      -8.454   9.685  68.165  1.00  0.00    -0.118 N  
HETATM   33  H   UNL     1      -8.127   9.499  67.217  1.00  0.00     0.000 HD 
HETATM   34  C   UNL     1      -8.606   8.630  69.033  1.00  0.00    -0.129 C  
HETATM   35  O   UNL     1      -9.080   8.743  70.160  1.00  0.00    -0.153 OA 
BRANCH  34  36
HETATM   36  C   UNL     1      -8.195   7.265  68.439  1.00  0.00    -0.125 C  
HETATM   37  O   UNL     1      -6.860   7.340  67.915  1.00  0.00    -0.065 OA 
HETATM   38  H   UNL     1      -6.608   6.500  67.549  1.00  0.00     0.000 HD 
BRANCH  36  39
HETATM   39  C   UNL     1      -9.171   6.748  67.344  1.00  0.00    -0.130 C  
HETATM   40  C   UNL     1      -9.217   5.206  67.313  1.00  0.00    -0.119 C  
HETATM   41  C   UNL     1     -10.598   7.245  67.676  1.00  0.00    -0.316 C  
BRANCH  39  42
HETATM   42  C   UNL     1      -8.750   7.296  65.960  1.00  0.00    -0.151 C  
HETATM   43  O   UNL     1      -9.479   8.468  65.610  1.00  0.00    -0.421 OA 
HETATM   44  H   UNL     1      -9.221   8.804  64.760  1.00  0.00     0.000 HD 
ENDBRANCH  39  42
ENDBRANCH  36  39
ENDBRANCH  34  36
ENDBRANCH  31  32
ENDBRANCH  30  31
ENDBRANCH  28  30
ENDBRANCH  25  26
ENDBRANCH  24  25
ENDBRANCH  23  24
ENDBRANCH  22  23
ENDBRANCH  21  22
ENDBRANCH  20  21
ENDBRANCH  18  20
ENDBRANCH  15  16
ENDBRANCH  14  15
ENDBRANCH  12  14
ENDBRANCH   7  10
ENDBRANCH   2   7
TORSDOF 19
ENDMDL
MODEL       78
REMARK 921   NORMALIZED FREE ENERGY PREDICTED BY IDOCK:   -5.01 KCAL/MOL
REMARK 922        TOTAL FREE ENERGY PREDICTED BY IDOCK:  -12.75 KCAL/MOL
REMARK 923 INTER-LIGAND FREE ENERGY PREDICTED BY IDOCK:  -10.85 KCAL/MOL
REMARK 924 INTRA-LIGAND FREE ENERGY PREDICTED BY IDOCK:   -1.91 KCAL/MOL
REMARK 927      BINDING AFFINITY PREDICTED BY RF-SCORE:    0.00 PKD
ROOT
HETATM    1  C   UNL     1     -11.493  15.104  71.960  1.00  0.00    -0.450 C  
HETATM    2  C   UNL     1     -12.655  14.285  71.369  1.00  0.00    -0.434 C  
HETATM    3  C   UNL     1     -13.899  15.193  71.204  1.00  0.00    -0.495 C  
ENDROOT
BRANCH   2   4
HETATM    4  C   UNL     1     -12.265  13.809  69.953  1.00  0.00    -0.321 C  
HETATM    5  O   UNL     1     -10.892  14.072  69.677  1.00  0.00    -0.439 OA 
HETATM    6  H   UNL     1     -10.652  13.780  68.805  1.00  0.00     0.000 HD 
ENDBRANCH   2   4
BRANCH   2   7
HETATM    7  C   UNL     1     -12.995  13.052  72.264  1.00  0.00    -0.224 C  
HETATM    8  O   UNL     1     -14.335  13.092  72.783  1.00  0.00    -0.655 OA 
HETATM    9  H   UNL     1     -14.541  12.342  73.328  1.00  0.00     0.000 HD 
BRANCH   7  10
HETATM   10  C   UNL     1     -12.803  11.679  71.583  1.00  0.00    -0.349 C  
HETATM   11  O   UNL     1     -11.970  11.440  70.714  1.00  0.00    -0.345 OA 
HETATM   12  N   UNL     1     -13.621  10.700  72.102  1.00  0.00    -0.453 N  
HETATM   13  H   UNL     1     -14.345  10.953  72.775  1.00  0.00     0.000 HD 
BRANCH  12  14
HETATM   14  C   UNL     1     -13.467   9.318  71.705  1.00  0.00    -0.398 C  
BRANCH  14  15
HETATM   15  C   UNL     1     -12.256   8.641  72.337  1.00  0.00    -0.419 C  
BRANCH  15  16
HETATM   16  C   UNL     1     -11.538   7.843  71.272  1.00  0.00    -0.276 C  
HETATM   17  O   UNL     1     -11.666   6.626  71.179  1.00  0.00    -0.314 OA 
HETATM   18  N   UNL     1     -10.769   8.601  70.419  1.00  0.00    -0.220 N  
HETATM   19  H   UNL     1     -10.773   9.611  70.557  1.00  0.00     0.000 HD 
BRANCH  18  20
HETATM   20  C   UNL     1      -9.944   8.073  69.329  1.00  0.00    -0.191 C  
BRANCH  20  21
HETATM   21  C   UNL     1      -8.433   7.997  69.570  1.00  0.00    -0.131 C  
BRANCH  21  22
HETATM   22  S   UNL     1      -7.838   8.872  71.067  1.00  0.00    -0.131 SA 
BRANCH  22  23
HETATM   23  S   UNL     1      -6.507  10.266  70.337  1.00  0.00    -0.109 SA 
BRANCH  23  24
HETATM   24  C   UNL     1      -6.544   9.902  68.551  1.00  0.00    -0.054 C  
BRANCH  24  25
HETATM   25  C   UNL     1      -7.264  11.009  67.777  1.00  0.00    -0.091 C  
BRANCH  25  26
HETATM   26  N   UNL     1      -7.239  10.858  66.324  1.00  0.00    -0.184 N  
HETATM   27  H   UNL     1      -6.637  11.480  65.785  1.00  0.00     0.000 HD 
HETATM   28  C   UNL     1      -7.986   9.920  65.642  1.00  0.00    -0.130 C  
HETATM   29  O   UNL     1      -8.783   9.160  66.181  1.00  0.00    -0.135 OA 
BRANCH  28  30
HETATM   30  C   UNL     1      -7.717   9.867  64.155  1.00  0.00    -0.138 C  
BRANCH  30  31
HETATM   31  C   UNL     1      -9.011   9.560  63.406  1.00  0.00    -0.176 C  
BRANCH  31  32
HETATM   32  N   UNL     1     -10.142  10.291  63.945  1.00  0.00    -0.473 N  
HETATM   33  H   UNL     1     -10.745   9.831  64.627  1.00  0.00     0.000 HD 
HETATM   34  C   UNL     1     -10.430  11.582  63.570  1.00  0.00    -0.428 C  
HETATM   35  O   UNL     1      -9.820  12.185  62.692  1.00  0.00     0.072 OA 
BRANCH  34  36
HETATM   36  C   UNL     1     -11.647  12.191  64.303  1.00  0.00    -0.370 C  
HETATM   37  O   UNL     1     -12.549  12.778  63.352  1.00  0.00    -0.701 OA 
HETATM   38  H   UNL     1     -13.297  13.152  63.803  1.00  0.00     0.000 HD 
BRANCH  36  39
HETATM   39  C   UNL     1     -11.257  13.235  65.386  1.00  0.00    -0.306 C  
HETATM   40  C   UNL     1     -10.418  14.383  64.787  1.00  0.00    -0.394 C  
HETATM   41  C   UNL     1     -12.550  13.860  65.961  1.00  0.00    -0.467 C  
BRANCH  39  42
HETATM   42  C   UNL     1     -10.475  12.544  66.529  1.00  0.00    -0.238 C  
HETATM   43  O   UNL     1     -11.020  11.267  66.847  1.00  0.00    -0.277 OA 
HETATM   44  H   UNL     1     -10.539  10.843  67.548  1.00  0.00     0.000 HD 
ENDBRANCH  39  42
ENDBRANCH  36  39
ENDBRANCH  34  36
ENDBRANCH  31  32
ENDBRANCH  30  31
ENDBRANCH  28  30
ENDBRANCH  25  26
ENDBRANCH  24  25
ENDBRANCH  23  24
ENDBRANCH  22  23
ENDBRANCH  21  22
ENDBRANCH  20  21
ENDBRANCH  18  20
ENDBRANCH  15  16
ENDBRANCH  14  15
ENDBRANCH  12  14
ENDBRANCH   7  10
ENDBRANCH   2   7
TORSDOF 19
ENDMDL
MODEL       79
REMARK 921   NORMALIZED FREE ENERGY PREDICTED BY IDOCK:   -5.00 KCAL/MOL
REMARK 922        TOTAL FREE ENERGY PREDICTED BY IDOCK:  -12.73 KCAL/MOL
REMARK 923 INTER-LIGAND FREE ENERGY PREDICTED BY IDOCK:  -10.69 KCAL/MOL
REMARK 924 INTRA-LIGAND FREE ENERGY PREDICTED BY IDOCK:   -2.05 KCAL/MOL
REMARK 927      BINDING AFFINITY PREDICTED BY RF-SCORE:    0.00 PKD
ROOT
HETATM    1  C   UNL     1     -11.375   9.119  70.604  1.00  0.00    -0.323 C  
HETATM    2  C   UNL     1     -11.961   7.978  71.457  1.00  0.00    -0.331 C  
HETATM    3  C   UNL     1     -11.238   7.932  72.827  1.00  0.00    -0.466 C  
ENDROOT
BRANCH   2   4
HETATM    4  C   UNL     1     -13.445   8.282  71.752  1.00  0.00    -0.352 C  
HETATM    5  O   UNL     1     -13.624   8.753  73.085  1.00  0.00    -0.970 OA 
HETATM    6  H   UNL     1     -14.538   8.939  73.266  1.00  0.00     0.000 HD 
ENDBRANCH   2   4
BRANCH   2   7
HETATM    7  C   UNL     1     -11.839   6.603  70.730  1.00  0.00    -0.383 C  
HETATM    8  O   UNL     1     -11.864   6.725  69.297  1.00  0.00    -0.606 OA 
HETATM    9  H   UNL     1     -11.790   5.889  68.855  1.00  0.00     0.000 HD 
BRANCH   7  10
HETATM   10  C   UNL     1     -10.588   5.776  71.102  1.00  0.00    -0.251 C  
HETATM   11  O   UNL     1     -10.567   4.879  71.939  1.00  0.00    -0.191 OA 
HETATM   12  N   UNL     1      -9.485   6.094  70.340  1.00  0.00    -0.160 N  
HETATM   13  H   UNL     1      -9.524   6.890  69.704  1.00  0.00     0.000 HD 
BRANCH  12  14
HETATM   14  C   UNL     1      -8.271   5.314  70.433  1.00  0.00    -0.103 C  
BRANCH  14  15
HETATM   15  C   UNL     1      -7.639   5.022  69.076  1.00  0.00    -0.072 C  
BRANCH  15  16
HETATM   16  C   UNL     1      -8.709   4.492  68.148  1.00  0.00    -0.103 C  
HETATM   17  O   UNL     1      -9.472   3.593  68.487  1.00  0.00    -0.168 OA 
HETATM   18  N   UNL     1      -8.760   5.122  66.925  1.00  0.00    -0.108 N  
HETATM   19  H   UNL     1      -8.109   5.890  66.767  1.00  0.00     0.000 HD 
BRANCH  18  20
HETATM   20  C   UNL     1      -9.674   4.777  65.833  1.00  0.00    -0.193 C  
BRANCH  20  21
HETATM   21  C   UNL     1      -9.152   3.813  64.763  1.00  0.00    -0.139 C  
BRANCH  21  22
HETATM   22  S   UNL     1      -8.903   4.553  63.104  1.00  0.00    -0.121 SA 
BRANCH  22  23
HETATM   23  S   UNL     1      -7.372   5.905  63.383  1.00  0.00    -0.069 SA 
BRANCH  23  24
HETATM   24  C   UNL     1      -8.009   7.363  62.493  1.00  0.00    -0.130 C  
BRANCH  24  25
HETATM   25  C   UNL     1      -8.062   8.589  63.408  1.00  0.00    -0.160 C  
BRANCH  25  26
HETATM   26  N   UNL     1      -8.758   8.379  64.676  1.00  0.00    -0.406 N  
HETATM   27  H   UNL     1      -9.492   7.672  64.710  1.00  0.00     0.000 HD 
HETATM   28  C   UNL     1      -8.476   9.084  65.827  1.00  0.00    -0.141 C  
HETATM   29  O   UNL     1      -7.654   9.992  65.886  1.00  0.00    -0.104 OA 
BRANCH  28  30
HETATM   30  C   UNL     1      -9.240   8.622  67.047  1.00  0.00    -0.186 C  
BRANCH  30  31
HETATM   31  C   UNL     1     -10.541   9.409  67.170  1.00  0.00    -0.224 C  
BRANCH  31  32
HETATM   32  N   UNL     1     -10.388  10.790  66.754  1.00  0.00    -0.234 N  
HETATM   33  H   UNL     1      -9.594  11.040  66.165  1.00  0.00     0.000 HD 
HETATM   34  C   UNL     1     -11.273  11.774  67.126  1.00  0.00    -0.316 C  
HETATM   35  O   UNL     1     -12.203  11.589  67.906  1.00  0.00    -0.586 OA 
BRANCH  34  36
HETATM   36  C   UNL     1     -10.952  13.163  66.532  1.00  0.00    -0.286 C  
HETATM   37  O   UNL     1     -11.567  14.191  67.325  1.00  0.00    -0.333 OA 
HETATM   38  H   UNL     1     -11.370  15.045  66.959  1.00  0.00     0.000 HD 
BRANCH  36  39
HETATM   39  C   UNL     1     -11.374  13.312  65.044  1.00  0.00    -0.326 C  
HETATM   40  C   UNL     1     -10.443  12.509  64.111  1.00  0.00    -0.429 C  
HETATM   41  C   UNL     1     -12.801  12.741  64.872  1.00  0.00    -0.357 C  
BRANCH  39  42
HETATM   42  C   UNL     1     -11.372  14.806  64.640  1.00  0.00    -0.366 C  
HETATM   43  O   UNL     1     -12.526  15.151  63.882  1.00  0.00    -0.991 OA 
HETATM   44  H   UNL     1     -12.525  16.068  63.634  1.00  0.00     0.000 HD 
ENDBRANCH  39  42
ENDBRANCH  36  39
ENDBRANCH  34  36
ENDBRANCH  31  32
ENDBRANCH  30  31
ENDBRANCH  28  30
ENDBRANCH  25  26
ENDBRANCH  24  25
ENDBRANCH  23  24
ENDBRANCH  22  23
ENDBRANCH  21  22
ENDBRANCH  20  21
ENDBRANCH  18  20
ENDBRANCH  15  16
ENDBRANCH  14  15
ENDBRANCH  12  14
ENDBRANCH   7  10
ENDBRANCH   2   7
TORSDOF 19
ENDMDL
MODEL       80
REMARK 921   NORMALIZED FREE ENERGY PREDICTED BY IDOCK:   -4.99 KCAL/MOL
REMARK 922        TOTAL FREE ENERGY PREDICTED BY IDOCK:  -12.71 KCAL/MOL
REMARK 923 INTER-LIGAND FREE ENERGY PREDICTED BY IDOCK:  -10.71 KCAL/MOL
REMARK 924 INTRA-LIGAND FREE ENERGY PREDICTED BY IDOCK:   -1.99 KCAL/MOL
REMARK 927      BINDING AFFINITY PREDICTED BY RF-SCORE:    0.00 PKD
ROOT
HETATM    1  C   UNL     1      -9.779   4.191  71.432  1.00  0.00    -0.251 C  
HETATM    2  C   UNL     1     -10.113   5.399  72.327  1.00  0.00    -0.231 C  
HETATM    3  C   UNL     1     -11.502   5.191  72.981  1.00  0.00    -0.349 C  
ENDROOT
BRANCH   2   4
HETATM    4  C   UNL     1      -9.089   5.469  73.480  1.00  0.00    -0.128 C  
HETATM    5  O   UNL     1      -9.508   6.381  74.492  1.00  0.00    -0.202 OA 
HETATM    6  H   UNL     1      -8.877   6.425  75.201  1.00  0.00     0.000 HD 
ENDBRANCH   2   4
BRANCH   2   7
HETATM    7  C   UNL     1     -10.086   6.732  71.517  1.00  0.00    -0.181 C  
HETATM    8  O   UNL     1      -9.566   6.567  70.187  1.00  0.00    -0.160 OA 
HETATM    9  H   UNL     1      -9.550   7.378  69.694  1.00  0.00     0.000 HD 
BRANCH   7  10
HETATM   10  C   UNL     1     -11.449   7.450  71.395  1.00  0.00    -0.263 C  
HETATM   11  O   UNL     1     -12.407   7.025  70.756  1.00  0.00    -0.352 OA 
HETATM   12  N   UNL     1     -11.521   8.602  72.145  1.00  0.00    -0.367 N  
HETATM   13  H   UNL     1     -10.683   8.956  72.607  1.00  0.00     0.000 HD 
BRANCH  12  14
HETATM   14  C   UNL     1     -12.770   9.318  72.286  1.00  0.00    -0.363 C  
BRANCH  14  15
HETATM   15  C   UNL     1     -13.116  10.169  71.069  1.00  0.00    -0.458 C  
BRANCH  15  16
HETATM   16  C   UNL     1     -12.860  11.621  71.406  1.00  0.00    -0.356 C  
HETATM   17  O   UNL     1     -13.301  12.136  72.428  1.00  0.00    -0.427 OA 
HETATM   18  N   UNL     1     -12.078  12.285  70.489  1.00  0.00    -0.474 N  
HETATM   19  H   UNL     1     -11.724  11.748  69.698  1.00  0.00     0.000 HD 
BRANCH  18  20
HETATM   20  C   UNL     1     -11.713  13.703  70.556  1.00  0.00    -0.099 C  
BRANCH  20  21
HETATM   21  C   UNL     1     -11.658  14.474  69.234  1.00  0.00    -0.302 C  
BRANCH  21  22
HETATM   22  S   UNL     1     -10.005  14.545  68.443  1.00  0.00    -0.246 SA 
BRANCH  22  23
HETATM   23  S   UNL     1     -10.420  14.708  66.431  1.00  0.00    -0.304 SA 
BRANCH  23  24
HETATM   24  C   UNL     1     -12.168  14.192  66.377  1.00  0.00    -0.446 C  
BRANCH  24  25
HETATM   25  C   UNL     1     -12.331  12.872  65.621  1.00  0.00    -0.423 C  
BRANCH  25  26
HETATM   26  N   UNL     1     -11.253  11.908  65.830  1.00  0.00    -0.325 N  
HETATM   27  H   UNL     1     -10.537  11.823  65.108  1.00  0.00     0.000 HD 
HETATM   28  C   UNL     1     -11.150  11.108  66.948  1.00  0.00    -0.247 C  
HETATM   29  O   UNL     1     -11.982  11.086  67.850  1.00  0.00    -0.620 OA 
BRANCH  28  30
HETATM   30  C   UNL     1      -9.894  10.269  67.005  1.00  0.00    -0.238 C  
BRANCH  30  31
HETATM   31  C   UNL     1     -10.205   8.913  67.631  1.00  0.00    -0.237 C  
BRANCH  31  32
HETATM   32  N   UNL     1     -10.087   7.829  66.673  1.00  0.00    -0.402 N  
HETATM   33  H   UNL     1      -9.613   8.006  65.787  1.00  0.00     0.000 HD 
HETATM   34  C   UNL     1     -10.590   6.573  66.917  1.00  0.00    -0.305 C  
HETATM   35  O   UNL     1     -11.253   6.290  67.911  1.00  0.00    -0.323 OA 
BRANCH  34  36
HETATM   36  C   UNL     1     -10.310   5.556  65.788  1.00  0.00     0.217 C  
HETATM   37  O   UNL     1     -11.520   4.863  65.441  1.00  0.00    -0.908 OA 
HETATM   38  H   UNL     1     -11.348   4.238  64.747  1.00  0.00     0.000 HD 
BRANCH  36  39
HETATM   39  C   UNL     1      -9.192   4.535  66.139  1.00  0.00    -0.139 C  
HETATM   40  C   UNL     1      -7.845   5.242  66.400  1.00  0.00    -0.103 C  
HETATM   41  C   UNL     1      -9.583   3.796  67.440  1.00  0.00    -0.208 C  
BRANCH  39  42
HETATM   42  C   UNL     1      -9.039   3.505  64.995  1.00  0.00    -0.140 C  
HETATM   43  O   UNL     1      -9.784   2.318  65.248  1.00  0.00    -0.354 OA 
HETATM   44  H   UNL     1      -9.690   1.685  64.546  1.00  0.00     0.000 HD 
ENDBRANCH  39  42
ENDBRANCH  36  39
ENDBRANCH  34  36
ENDBRANCH  31  32
ENDBRANCH  30  31
ENDBRANCH  28  30
ENDBRANCH  25  26
ENDBRANCH  24  25
ENDBRANCH  23  24
ENDBRANCH  22  23
ENDBRANCH  21  22
ENDBRANCH  20  21
ENDBRANCH  18  20
ENDBRANCH  15  16
ENDBRANCH  14  15
ENDBRANCH  12  14
ENDBRANCH   7  10
ENDBRANCH   2   7
TORSDOF 19
ENDMDL
MODEL       81
REMARK 921   NORMALIZED FREE ENERGY PREDICTED BY IDOCK:   -4.98 KCAL/MOL
REMARK 922        TOTAL FREE ENERGY PREDICTED BY IDOCK:  -12.69 KCAL/MOL
REMARK 923 INTER-LIGAND FREE ENERGY PREDICTED BY IDOCK:   -9.40 KCAL/MOL
REMARK 924 INTRA-LIGAND FREE ENERGY PREDICTED BY IDOCK:   -3.29 KCAL/MOL
REMARK 927      BINDING AFFINITY PREDICTED BY RF-SCORE:    0.00 PKD
ROOT
HETATM    1  C   UNL     1      -8.924   6.061  71.289  1.00  0.00    -0.139 C  
HETATM    2  C   UNL     1     -10.406   6.349  71.594  1.00  0.00    -0.235 C  
HETATM    3  C   UNL     1     -10.955   5.270  72.560  1.00  0.00    -0.298 C  
ENDROOT
BRANCH   2   4
HETATM    4  C   UNL     1     -10.515   7.700  72.332  1.00  0.00    -0.248 C  
HETATM    5  O   UNL     1     -11.733   7.792  73.067  1.00  0.00    -0.613 OA 
HETATM    6  H   UNL     1     -11.800   8.624  73.521  1.00  0.00     0.000 HD 
ENDBRANCH   2   4
BRANCH   2   7
HETATM    7  C   UNL     1     -11.257   6.393  70.286  1.00  0.00    -0.382 C  
HETATM    8  O   UNL     1     -12.562   6.962  70.489  1.00  0.00    -0.591 OA 
HETATM    9  H   UNL     1     -13.079   6.989  69.693  1.00  0.00     0.000 HD 
BRANCH   7  10
HETATM   10  C   UNL     1     -10.602   7.145  69.106  1.00  0.00    -0.214 C  
HETATM   11  O   UNL     1      -9.754   6.668  68.358  1.00  0.00    -0.126 OA 
HETATM   12  N   UNL     1     -11.118   8.408  68.918  1.00  0.00    -0.405 N  
HETATM   13  H   UNL     1     -11.771   8.793  69.601  1.00  0.00     0.000 HD 
BRANCH  12  14
HETATM   14  C   UNL     1     -10.746   9.197  67.765  1.00  0.00    -0.179 C  
BRANCH  14  15
HETATM   15  C   UNL     1     -10.184  10.567  68.128  1.00  0.00    -0.187 C  
BRANCH  15  16
HETATM   16  C   UNL     1      -8.740  10.402  68.547  1.00  0.00    -0.135 C  
HETATM   17  O   UNL     1      -8.433   9.943  69.642  1.00  0.00    -0.157 OA 
HETATM   18  N   UNL     1      -7.827  10.782  67.590  1.00  0.00    -0.108 N  
HETATM   19  H   UNL     1      -8.192  11.105  66.695  1.00  0.00     0.000 HD 
BRANCH  18  20
HETATM   20  C   UNL     1      -6.371  10.760  67.755  1.00  0.00    -0.058 C  
BRANCH  20  21
HETATM   21  C   UNL     1      -5.564   9.962  66.727  1.00  0.00    -0.046 C  
BRANCH  21  22
HETATM   22  S   UNL     1      -5.953  10.333  64.974  1.00  0.00    -0.131 SA 
BRANCH  22  23
HETATM   23  S   UNL     1      -6.130   8.476  64.097  1.00  0.00    -0.067 SA 
BRANCH  23  24
HETATM   24  C   UNL     1      -7.811   8.562  63.398  1.00  0.00    -0.150 C  
BRANCH  24  25
HETATM   25  C   UNL     1      -8.827   9.002  64.455  1.00  0.00    -0.066 C  
BRANCH  25  26
HETATM   26  N   UNL     1      -9.895   9.866  63.957  1.00  0.00    -0.467 N  
HETATM   27  H   UNL     1     -10.516   9.498  63.237  1.00  0.00     0.000 HD 
HETATM   28  C   UNL     1     -10.109  11.152  64.409  1.00  0.00    -0.320 C  
HETATM   29  O   UNL     1      -9.392  11.714  65.229  1.00  0.00    -0.196 OA 
BRANCH  28  30
HETATM   30  C   UNL     1     -11.339  11.819  63.837  1.00  0.00    -0.494 C  
BRANCH  30  31
HETATM   31  C   UNL     1     -12.112  12.520  64.950  1.00  0.00    -0.440 C  
BRANCH  31  32
HETATM   32  N   UNL     1     -11.437  13.716  65.416  1.00  0.00    -0.307 N  
HETATM   33  H   UNL     1     -10.807  14.204  64.779  1.00  0.00     0.000 HD 
HETATM   34  C   UNL     1     -11.616  14.217  66.684  1.00  0.00    -0.384 C  
HETATM   35  O   UNL     1     -12.280  13.652  67.548  1.00  0.00    -0.342 OA 
BRANCH  34  36
HETATM   36  C   UNL     1     -10.844  15.527  66.956  1.00  0.00    -0.314 C  
HETATM   37  O   UNL     1     -10.176  15.960  65.760  1.00  0.00    -0.318 OA 
HETATM   38  H   UNL     1      -9.701  16.765  65.927  1.00  0.00     0.000 HD 
BRANCH  36  39
HETATM   39  C   UNL     1      -9.826  15.413  68.125  1.00  0.00    -0.213 C  
HETATM   40  C   UNL     1      -8.824  16.586  68.117  1.00  0.00    -0.203 C  
HETATM   41  C   UNL     1     -10.598  15.476  69.464  1.00  0.00    -0.258 C  
BRANCH  39  42
HETATM   42  C   UNL     1      -9.069  14.066  68.037  1.00  0.00    -0.190 C  
HETATM   43  O   UNL     1      -8.511  13.856  66.744  1.00  0.00    -0.417 OA 
HETATM   44  H   UNL     1      -8.047  13.029  66.690  1.00  0.00     0.000 HD 
ENDBRANCH  39  42
ENDBRANCH  36  39
ENDBRANCH  34  36
ENDBRANCH  31  32
ENDBRANCH  30  31
ENDBRANCH  28  30
ENDBRANCH  25  26
ENDBRANCH  24  25
ENDBRANCH  23  24
ENDBRANCH  22  23
ENDBRANCH  21  22
ENDBRANCH  20  21
ENDBRANCH  18  20
ENDBRANCH  15  16
ENDBRANCH  14  15
ENDBRANCH  12  14
ENDBRANCH   7  10
ENDBRANCH   2   7
TORSDOF 19
ENDMDL
MODEL       82
REMARK 921   NORMALIZED FREE ENERGY PREDICTED BY IDOCK:   -4.96 KCAL/MOL
REMARK 922        TOTAL FREE ENERGY PREDICTED BY IDOCK:  -12.65 KCAL/MOL
REMARK 923 INTER-LIGAND FREE ENERGY PREDICTED BY IDOCK:   -9.83 KCAL/MOL
REMARK 924 INTRA-LIGAND FREE ENERGY PREDICTED BY IDOCK:   -2.83 KCAL/MOL
REMARK 927      BINDING AFFINITY PREDICTED BY RF-SCORE:    0.00 PKD
ROOT
HETATM    1  C   UNL     1     -12.063  14.033  66.741  1.00  0.00    -0.480 C  
HETATM    2  C   UNL     1     -11.743  13.559  65.311  1.00  0.00    -0.341 C  
HETATM    3  C   UNL     1     -12.654  12.360  64.946  1.00  0.00    -0.372 C  
ENDROOT
BRANCH   2   4
HETATM    4  C   UNL     1     -12.082  14.690  64.318  1.00  0.00    -0.415 C  
HETATM    5  O   UNL     1     -12.389  14.172  63.026  1.00  0.00    -1.070 OA 
HETATM    6  H   UNL     1     -12.598  14.869  62.415  1.00  0.00     0.000 HD 
ENDBRANCH   2   4
BRANCH   2   7
HETATM    7  C   UNL     1     -10.239  13.165  65.166  1.00  0.00    -0.284 C  
HETATM    8  O   UNL     1      -9.572  13.036  66.433  1.00  0.00    -0.262 OA 
HETATM    9  H   UNL     1      -8.657  12.796  66.345  1.00  0.00     0.000 HD 
BRANCH   7  10
HETATM   10  C   UNL     1      -9.979  11.866  64.371  1.00  0.00    -0.234 C  
HETATM   11  O   UNL     1     -10.092  11.758  63.154  1.00  0.00    -0.418 OA 
HETATM   12  N   UNL     1      -9.526  10.832  65.160  1.00  0.00    -0.211 N  
HETATM   13  H   UNL     1      -9.510  10.941  66.174  1.00  0.00     0.000 HD 
BRANCH  12  14
HETATM   14  C   UNL     1      -9.073   9.592  64.568  1.00  0.00    -0.236 C  
BRANCH  14  15
HETATM   15  C   UNL     1      -8.628   8.561  65.599  1.00  0.00    -0.200 C  
BRANCH  15  16
HETATM   16  C   UNL     1      -9.507   8.689  66.823  1.00  0.00    -0.191 C  
HETATM   17  O   UNL     1     -10.709   8.448  66.784  1.00  0.00    -0.249 OA 
HETATM   18  N   UNL     1      -8.837   9.067  67.964  1.00  0.00    -0.129 N  
HETATM   19  H   UNL     1      -7.828   9.195  67.894  1.00  0.00     0.000 HD 
BRANCH  18  20
HETATM   20  C   UNL     1      -9.456   9.301  69.271  1.00  0.00    -0.160 C  
BRANCH  20  21
HETATM   21  C   UNL     1     -10.093  10.673  69.507  1.00  0.00    -0.132 C  
BRANCH  21  22
HETATM   22  S   UNL     1     -11.902  10.753  69.220  1.00  0.00    -0.252 SA 
BRANCH  22  23
HETATM   23  S   UNL     1     -12.715  10.639  71.110  1.00  0.00    -0.451 SA 
BRANCH  23  24
HETATM   24  C   UNL     1     -12.882   8.836  71.326  1.00  0.00    -0.215 C  
BRANCH  24  25
HETATM   25  C   UNL     1     -11.863   8.304  72.337  1.00  0.00    -0.396 C  
BRANCH  25  26
HETATM   26  N   UNL     1     -11.925   6.864  72.571  1.00  0.00    -0.499 N  
HETATM   27  H   UNL     1     -12.794   6.377  72.349  1.00  0.00     0.000 HD 
HETATM   28  C   UNL     1     -10.874   6.127  73.075  1.00  0.00    -0.257 C  
HETATM   29  O   UNL     1      -9.806   6.615  73.428  1.00  0.00    -0.168 OA 
BRANCH  28  30
HETATM   30  C   UNL     1     -11.123   4.636  73.127  1.00  0.00    -0.371 C  
BRANCH  30  31
HETATM   31  C   UNL     1     -10.258   3.931  72.088  1.00  0.00    -0.126 C  
BRANCH  31  32
HETATM   32  N   UNL     1     -10.383   4.531  70.773  1.00  0.00    -0.084 N  
HETATM   33  H   UNL     1     -11.308   4.594  70.348  1.00  0.00     0.000 HD 
HETATM   34  C   UNL     1      -9.300   5.019  70.079  1.00  0.00    -0.150 C  
HETATM   35  O   UNL     1      -8.141   4.906  70.467  1.00  0.00    -0.081 OA 
BRANCH  34  36
HETATM   36  C   UNL     1      -9.663   5.662  68.723  1.00  0.00    -0.137 C  
HETATM   37  O   UNL     1     -11.051   6.031  68.710  1.00  0.00    -0.336 OA 
HETATM   38  H   UNL     1     -11.274   6.426  67.875  1.00  0.00     0.000 HD 
BRANCH  36  39
HETATM   39  C   UNL     1      -9.339   4.756  67.502  1.00  0.00    -0.156 C  
HETATM   40  C   UNL     1      -9.400   3.261  67.878  1.00  0.00    -0.246 C  
HETATM   41  C   UNL     1     -10.403   4.998  66.406  1.00  0.00    -0.335 C  
BRANCH  39  42
HETATM   42  C   UNL     1      -7.940   5.106  66.940  1.00  0.00    -0.104 C  
HETATM   43  O   UNL     1      -7.306   6.129  67.700  1.00  0.00    -0.077 OA 
HETATM   44  H   UNL     1      -6.447   6.345  67.356  1.00  0.00     0.000 HD 
ENDBRANCH  39  42
ENDBRANCH  36  39
ENDBRANCH  34  36
ENDBRANCH  31  32
ENDBRANCH  30  31
ENDBRANCH  28  30
ENDBRANCH  25  26
ENDBRANCH  24  25
ENDBRANCH  23  24
ENDBRANCH  22  23
ENDBRANCH  21  22
ENDBRANCH  20  21
ENDBRANCH  18  20
ENDBRANCH  15  16
ENDBRANCH  14  15
ENDBRANCH  12  14
ENDBRANCH   7  10
ENDBRANCH   2   7
TORSDOF 19
ENDMDL
MODEL       83
REMARK 921   NORMALIZED FREE ENERGY PREDICTED BY IDOCK:   -4.95 KCAL/MOL
REMARK 922        TOTAL FREE ENERGY PREDICTED BY IDOCK:  -12.62 KCAL/MOL
REMARK 923 INTER-LIGAND FREE ENERGY PREDICTED BY IDOCK:  -11.32 KCAL/MOL
REMARK 924 INTRA-LIGAND FREE ENERGY PREDICTED BY IDOCK:   -1.31 KCAL/MOL
REMARK 927      BINDING AFFINITY PREDICTED BY RF-SCORE:    0.00 PKD
ROOT
HETATM    1  C   UNL     1      -9.249   2.104  65.210  1.00  0.00    -0.073 C  
HETATM    2  C   UNL     1      -9.512   3.248  64.214  1.00  0.00    -0.142 C  
HETATM    3  C   UNL     1      -8.192   3.627  63.498  1.00  0.00    -0.089 C  
ENDROOT
BRANCH   2   4
HETATM    4  C   UNL     1     -10.481   2.750  63.120  1.00  0.00    -0.184 C  
HETATM    5  O   UNL     1     -11.514   1.938  63.672  1.00  0.00    -0.597 OA 
HETATM    6  H   UNL     1     -12.110   1.631  62.999  1.00  0.00     0.000 HD 
ENDBRANCH   2   4
BRANCH   2   7
HETATM    7  C   UNL     1     -10.122   4.495  64.928  1.00  0.00    -0.041 C  
HETATM    8  O   UNL     1     -11.452   4.261  65.422  1.00  0.00    -0.739 OA 
HETATM    9  H   UNL     1     -11.822   5.019  65.857  1.00  0.00     0.000 HD 
BRANCH   7  10
HETATM   10  C   UNL     1      -9.283   5.050  66.101  1.00  0.00    -0.149 C  
HETATM   11  O   UNL     1      -8.310   5.788  65.977  1.00  0.00    -0.116 OA 
HETATM   12  N   UNL     1      -9.779   4.693  67.335  1.00  0.00    -0.174 N  
HETATM   13  H   UNL     1     -10.547   4.024  67.396  1.00  0.00     0.000 HD 
BRANCH  12  14
HETATM   14  C   UNL     1      -9.224   5.253  68.547  1.00  0.00    -0.113 C  
BRANCH  14  15
HETATM   15  C   UNL     1     -10.070   4.971  69.784  1.00  0.00    -0.337 C  
BRANCH  15  16
HETATM   16  C   UNL     1     -11.073   6.091  69.949  1.00  0.00    -0.399 C  
HETATM   17  O   UNL     1     -11.456   6.762  68.996  1.00  0.00    -0.138 OA 
HETATM   18  N   UNL     1     -11.524   6.261  71.238  1.00  0.00    -0.303 N  
HETATM   19  H   UNL     1     -11.176   5.615  71.945  1.00  0.00     0.000 HD 
BRANCH  18  20
HETATM   20  C   UNL     1     -12.465   7.295  71.675  1.00  0.00    -0.359 C  
BRANCH  20  21
HETATM   21  C   UNL     1     -11.878   8.658  72.056  1.00  0.00    -0.372 C  
BRANCH  21  22
HETATM   22  S   UNL     1     -12.531  10.081  71.100  1.00  0.00    -0.411 SA 
BRANCH  22  23
HETATM   23  S   UNL     1     -11.174  10.319  69.567  1.00  0.00    -0.256 SA 
BRANCH  23  24
HETATM   24  C   UNL     1     -11.762  11.862  68.796  1.00  0.00    -0.321 C  
BRANCH  24  25
HETATM   25  C   UNL     1     -11.813  11.733  67.272  1.00  0.00    -0.108 C  
BRANCH  25  26
HETATM   26  N   UNL     1     -11.747  13.000  66.547  1.00  0.00    -0.363 N  
HETATM   27  H   UNL     1     -11.230  13.771  66.970  1.00  0.00     0.000 HD 
HETATM   28  C   UNL     1     -12.344  13.210  65.321  1.00  0.00    -0.481 C  
HETATM   29  O   UNL     1     -13.035  12.374  64.748  1.00  0.00    -0.786 OA 
BRANCH  28  30
HETATM   30  C   UNL     1     -12.050  14.558  64.704  1.00  0.00    -0.486 C  
BRANCH  30  31
HETATM   31  C   UNL     1     -10.665  15.033  65.134  1.00  0.00    -0.415 C  
BRANCH  31  32
HETATM   32  N   UNL     1     -10.701  16.357  65.726  1.00  0.00    -0.282 N  
HETATM   33  H   UNL     1     -11.604  16.759  65.978  1.00  0.00     0.000 HD 
HETATM   34  C   UNL     1      -9.561  17.090  65.959  1.00  0.00    -0.187 C  
HETATM   35  O   UNL     1      -8.441  16.731  65.607  1.00  0.00    -0.387 OA 
BRANCH  34  36
HETATM   36  C   UNL     1      -9.820  18.451  66.642  1.00  0.00    -0.353 C  
HETATM   37  O   UNL     1      -9.219  19.507  65.877  1.00  0.00    -0.409 OA 
HETATM   38  H   UNL     1      -9.378  20.344  66.297  1.00  0.00     0.000 HD 
BRANCH  36  39
HETATM   39  C   UNL     1      -9.325  18.509  68.114  1.00  0.00    -0.336 C  
HETATM   40  C   UNL     1      -7.811  18.794  68.189  1.00  0.00    -0.314 C  
HETATM   41  C   UNL     1     -10.049  19.669  68.837  1.00  0.00    -0.491 C  
BRANCH  39  42
HETATM   42  C   UNL     1      -9.652  17.178  68.834  1.00  0.00    -0.237 C  
HETATM   43  O   UNL     1     -10.907  17.233  69.504  1.00  0.00    -0.368 OA 
HETATM   44  H   UNL     1     -11.108  16.416  69.946  1.00  0.00     0.000 HD 
ENDBRANCH  39  42
ENDBRANCH  36  39
ENDBRANCH  34  36
ENDBRANCH  31  32
ENDBRANCH  30  31
ENDBRANCH  28  30
ENDBRANCH  25  26
ENDBRANCH  24  25
ENDBRANCH  23  24
ENDBRANCH  22  23
ENDBRANCH  21  22
ENDBRANCH  20  21
ENDBRANCH  18  20
ENDBRANCH  15  16
ENDBRANCH  14  15
ENDBRANCH  12  14
ENDBRANCH   7  10
ENDBRANCH   2   7
TORSDOF 19
ENDMDL
MODEL       84
REMARK 921   NORMALIZED FREE ENERGY PREDICTED BY IDOCK:   -4.94 KCAL/MOL
REMARK 922        TOTAL FREE ENERGY PREDICTED BY IDOCK:  -12.61 KCAL/MOL
REMARK 923 INTER-LIGAND FREE ENERGY PREDICTED BY IDOCK:   -9.42 KCAL/MOL
REMARK 924 INTRA-LIGAND FREE ENERGY PREDICTED BY IDOCK:   -3.19 KCAL/MOL
REMARK 927      BINDING AFFINITY PREDICTED BY RF-SCORE:    0.00 PKD
ROOT
HETATM    1  C   UNL     1     -11.633  15.202  68.356  1.00  0.00    -0.356 C  
HETATM    2  C   UNL     1     -11.177  14.262  67.225  1.00  0.00    -0.330 C  
HETATM    3  C   UNL     1     -12.403  13.833  66.381  1.00  0.00    -0.460 C  
ENDROOT
BRANCH   2   4
HETATM    4  C   UNL     1     -10.237  15.035  66.276  1.00  0.00    -0.294 C  
HETATM    5  O   UNL     1      -9.710  14.184  65.261  1.00  0.00    -0.560 OA 
HETATM    6  H   UNL     1      -9.131  14.660  64.677  1.00  0.00     0.000 HD 
ENDBRANCH   2   4
BRANCH   2   7
HETATM    7  C   UNL     1     -10.439  13.008  67.791  1.00  0.00    -0.228 C  
HETATM    8  O   UNL     1      -9.802  13.258  69.055  1.00  0.00    -0.418 OA 
HETATM    9  H   UNL     1      -9.354  12.495  69.399  1.00  0.00     0.000 HD 
BRANCH   7  10
HETATM   10  C   UNL     1     -11.322  11.751  67.958  1.00  0.00    -0.288 C  
HETATM   11  O   UNL     1     -11.522  10.916  67.081  1.00  0.00    -0.428 OA 
HETATM   12  N   UNL     1     -11.821  11.608  69.233  1.00  0.00    -0.318 N  
HETATM   13  H   UNL     1     -11.689  12.357  69.913  1.00  0.00     0.000 HD 
BRANCH  12  14
HETATM   14  C   UNL     1     -12.531  10.409  69.621  1.00  0.00     0.090 C  
BRANCH  14  15
HETATM   15  C   UNL     1     -12.564  10.190  71.130  1.00  0.00    -0.486 C  
BRANCH  15  16
HETATM   16  C   UNL     1     -11.466   9.218  71.501  1.00  0.00    -0.384 C  
HETATM   17  O   UNL     1     -10.394   9.195  70.904  1.00  0.00    -0.233 OA 
HETATM   18  N   UNL     1     -11.769   8.401  72.566  1.00  0.00    -0.385 N  
HETATM   19  H   UNL     1     -12.672   8.539  73.019  1.00  0.00     0.000 HD 
BRANCH  18  20
HETATM   20  C   UNL     1     -10.900   7.350  73.100  1.00  0.00    -0.386 C  
BRANCH  20  21
HETATM   21  C   UNL     1     -11.370   5.902  72.933  1.00  0.00    -0.226 C  
BRANCH  21  22
HETATM   22  S   UNL     1     -10.460   4.666  73.936  1.00  0.00    -0.279 SA 
BRANCH  22  23
HETATM   23  S   UNL     1      -9.019   3.942  72.653  1.00  0.00    -0.105 SA 
BRANCH  23  24
HETATM   24  C   UNL     1      -8.010   5.432  72.361  1.00  0.00    -0.103 C  
BRANCH  24  25
HETATM   25  C   UNL     1      -7.927   5.760  70.869  1.00  0.00    -0.111 C  
BRANCH  25  26
HETATM   26  N   UNL     1      -9.152   6.309  70.292  1.00  0.00    -0.153 N  
HETATM   27  H   UNL     1      -9.389   7.279  70.498  1.00  0.00     0.000 HD 
HETATM   28  C   UNL     1     -10.006   5.586  69.485  1.00  0.00    -0.210 C  
HETATM   29  O   UNL     1      -9.850   4.399  69.218  1.00  0.00    -0.194 OA 
BRANCH  28  30
HETATM   30  C   UNL     1     -11.151   6.387  68.908  1.00  0.00    -0.420 C  
BRANCH  30  31
HETATM   31  C   UNL     1     -11.165   6.250  67.389  1.00  0.00    -0.141 C  
BRANCH  31  32
HETATM   32  N   UNL     1     -10.646   7.433  66.728  1.00  0.00    -0.503 N  
HETATM   33  H   UNL     1     -11.257   8.242  66.619  1.00  0.00     0.000 HD 
HETATM   34  C   UNL     1      -9.362   7.501  66.242  1.00  0.00    -0.120 C  
HETATM   35  O   UNL     1      -8.585   6.551  66.244  1.00  0.00    -0.129 OA 
BRANCH  34  36
HETATM   36  C   UNL     1      -8.999   8.869  65.622  1.00  0.00    -0.201 C  
HETATM   37  O   UNL     1      -8.598   8.695  64.253  1.00  0.00    -0.340 OA 
HETATM   38  H   UNL     1      -8.375   9.536  63.872  1.00  0.00     0.000 HD 
BRANCH  36  39
HETATM   39  C   UNL     1      -7.897   9.632  66.409  1.00  0.00    -0.101 C  
HETATM   40  C   UNL     1      -8.035   9.411  67.929  1.00  0.00    -0.092 C  
HETATM   41  C   UNL     1      -6.514   9.082  65.987  1.00  0.00    -0.064 C  
BRANCH  39  42
HETATM   42  C   UNL     1      -7.965  11.143  66.082  1.00  0.00    -0.090 C  
HETATM   43  O   UNL     1      -8.968  11.430  65.113  1.00  0.00    -0.373 OA 
HETATM   44  H   UNL     1      -9.010  12.358  64.912  1.00  0.00     0.000 HD 
ENDBRANCH  39  42
ENDBRANCH  36  39
ENDBRANCH  34  36
ENDBRANCH  31  32
ENDBRANCH  30  31
ENDBRANCH  28  30
ENDBRANCH  25  26
ENDBRANCH  24  25
ENDBRANCH  23  24
ENDBRANCH  22  23
ENDBRANCH  21  22
ENDBRANCH  20  21
ENDBRANCH  18  20
ENDBRANCH  15  16
ENDBRANCH  14  15
ENDBRANCH  12  14
ENDBRANCH   7  10
ENDBRANCH   2   7
TORSDOF 19
ENDMDL
MODEL       85
REMARK 921   NORMALIZED FREE ENERGY PREDICTED BY IDOCK:   -4.94 KCAL/MOL
REMARK 922        TOTAL FREE ENERGY PREDICTED BY IDOCK:  -12.60 KCAL/MOL
REMARK 923 INTER-LIGAND FREE ENERGY PREDICTED BY IDOCK:   -9.98 KCAL/MOL
REMARK 924 INTRA-LIGAND FREE ENERGY PREDICTED BY IDOCK:   -2.62 KCAL/MOL
REMARK 927      BINDING AFFINITY PREDICTED BY RF-SCORE:    0.00 PKD
ROOT
HETATM    1  C   UNL     1     -13.485  13.648  72.418  1.00  0.00    -0.685 C  
HETATM    2  C   UNL     1     -12.655  14.269  71.280  1.00  0.00    -0.436 C  
HETATM    3  C   UNL     1     -13.580  15.106  70.361  1.00  0.00     0.129 C  
ENDROOT
BRANCH   2   4
HETATM    4  C   UNL     1     -11.628  15.250  71.884  1.00  0.00    -0.437 C  
HETATM    5  O   UNL     1     -11.605  16.483  71.169  1.00  0.00    -0.612 OA 
HETATM    6  H   UNL     1     -10.972  17.087  71.541  1.00  0.00     0.000 HD 
ENDBRANCH   2   4
BRANCH   2   7
HETATM    7  C   UNL     1     -11.913  13.173  70.454  1.00  0.00    -0.266 C  
HETATM    8  O   UNL     1     -12.634  11.930  70.400  1.00  0.00    -0.185 OA 
HETATM    9  H   UNL     1     -12.182  11.264  69.897  1.00  0.00     0.000 HD 
BRANCH   7  10
HETATM   10  C   UNL     1     -11.569  13.572  69.001  1.00  0.00    -0.311 C  
HETATM   11  O   UNL     1     -10.956  14.586  68.682  1.00  0.00    -0.234 OA 
HETATM   12  N   UNL     1     -11.956  12.628  68.076  1.00  0.00    -0.317 N  
HETATM   13  H   UNL     1     -12.522  11.833  68.374  1.00  0.00     0.000 HD 
BRANCH  12  14
HETATM   14  C   UNL     1     -11.573  12.751  66.687  1.00  0.00    -0.370 C  
BRANCH  14  15
HETATM   15  C   UNL     1     -12.658  13.374  65.816  1.00  0.00    -0.455 C  
BRANCH  15  16
HETATM   16  C   UNL     1     -12.088  14.600  65.137  1.00  0.00    -0.308 C  
HETATM   17  O   UNL     1     -12.579  15.058  64.110  1.00  0.00    -0.770 OA 
HETATM   18  N   UNL     1     -11.007  15.154  65.785  1.00  0.00    -0.344 N  
HETATM   19  H   UNL     1     -10.711  14.719  66.658  1.00  0.00     0.000 HD 
BRANCH  18  20
HETATM   20  C   UNL     1     -10.248  16.317  65.320  1.00  0.00    -0.123 C  
BRANCH  20  21
HETATM   21  C   UNL     1      -9.792  17.323  66.381  1.00  0.00    -0.299 C  
BRANCH  21  22
HETATM   22  S   UNL     1     -10.460  19.019  66.184  1.00  0.00    -0.431 SA 
BRANCH  22  23
HETATM   23  S   UNL     1      -8.912  20.240  66.782  1.00  0.00    -0.244 SA 
BRANCH  23  24
HETATM   24  C   UNL     1      -8.680  19.713  68.512  1.00  0.00    -0.299 C  
BRANCH  24  25
HETATM   25  C   UNL     1      -7.258  19.199  68.748  1.00  0.00    -0.333 C  
BRANCH  25  26
HETATM   26  N   UNL     1      -7.137  17.746  68.840  1.00  0.00    -0.265 N  
HETATM   27  H   UNL     1      -7.707  17.175  68.216  1.00  0.00     0.000 HD 
HETATM   28  C   UNL     1      -6.295  17.105  69.724  1.00  0.00    -0.152 C  
HETATM   29  O   UNL     1      -5.608  17.688  70.556  1.00  0.00    -0.251 OA 
BRANCH  28  30
HETATM   30  C   UNL     1      -6.249  15.602  69.567  1.00  0.00    -0.152 C  
BRANCH  30  31
HETATM   31  C   UNL     1      -6.874  15.202  68.234  1.00  0.00    -0.117 C  
BRANCH  31  32
HETATM   32  N   UNL     1      -6.531  13.844  67.856  1.00  0.00    -0.148 N  
HETATM   33  H   UNL     1      -5.591  13.501  68.052  1.00  0.00     0.000 HD 
HETATM   34  C   UNL     1      -7.428  13.002  67.241  1.00  0.00    -0.074 C  
HETATM   35  O   UNL     1      -8.549  13.352  66.883  1.00  0.00    -0.189 OA 
BRANCH  34  36
HETATM   36  C   UNL     1      -6.875  11.585  66.972  1.00  0.00    -0.147 C  
HETATM   37  O   UNL     1      -7.274  11.143  65.665  1.00  0.00    -0.367 OA 
HETATM   38  H   UNL     1      -6.934  10.271  65.500  1.00  0.00     0.000 HD 
BRANCH  36  39
HETATM   39  C   UNL     1      -7.299  10.542  68.043  1.00  0.00    -0.089 C  
HETATM   40  C   UNL     1      -6.691   9.154  67.750  1.00  0.00    -0.065 C  
HETATM   41  C   UNL     1      -6.764  10.998  69.421  1.00  0.00    -0.112 C  
BRANCH  39  42
HETATM   42  C   UNL     1      -8.842  10.444  68.103  1.00  0.00    -0.132 C  
HETATM   43  O   UNL     1      -9.361  10.990  69.311  1.00  0.00    -0.393 OA 
HETATM   44  H   UNL     1     -10.308  10.929  69.349  1.00  0.00     0.000 HD 
ENDBRANCH  39  42
ENDBRANCH  36  39
ENDBRANCH  34  36
ENDBRANCH  31  32
ENDBRANCH  30  31
ENDBRANCH  28  30
ENDBRANCH  25  26
ENDBRANCH  24  25
ENDBRANCH  23  24
ENDBRANCH  22  23
ENDBRANCH  21  22
ENDBRANCH  20  21
ENDBRANCH  18  20
ENDBRANCH  15  16
ENDBRANCH  14  15
ENDBRANCH  12  14
ENDBRANCH   7  10
ENDBRANCH   2   7
TORSDOF 19
ENDMDL
MODEL       86
REMARK 921   NORMALIZED FREE ENERGY PREDICTED BY IDOCK:   -4.93 KCAL/MOL
REMARK 922        TOTAL FREE ENERGY PREDICTED BY IDOCK:  -12.59 KCAL/MOL
REMARK 923 INTER-LIGAND FREE ENERGY PREDICTED BY IDOCK:  -10.08 KCAL/MOL
REMARK 924 INTRA-LIGAND FREE ENERGY PREDICTED BY IDOCK:   -2.51 KCAL/MOL
REMARK 927      BINDING AFFINITY PREDICTED BY RF-SCORE:    0.00 PKD
ROOT
HETATM    1  C   UNL     1     -11.639  15.418  68.286  1.00  0.00    -0.361 C  
HETATM    2  C   UNL     1     -11.163  14.632  67.051  1.00  0.00    -0.348 C  
HETATM    3  C   UNL     1     -10.727  15.621  65.942  1.00  0.00    -0.336 C  
ENDROOT
BRANCH   2   4
HETATM    4  C   UNL     1      -9.912  13.811  67.428  1.00  0.00    -0.237 C  
HETATM    5  O   UNL     1      -9.849  13.576  68.832  1.00  0.00    -0.413 OA 
HETATM    6  H   UNL     1      -9.079  13.071  69.064  1.00  0.00     0.000 HD 
ENDBRANCH   2   4
BRANCH   2   7
HETATM    7  C   UNL     1     -12.279  13.677  66.521  1.00  0.00    -0.404 C  
HETATM    8  O   UNL     1     -13.218  14.341  65.659  1.00  0.00    -0.630 OA 
HETATM    9  H   UNL     1     -13.897  13.760  65.336  1.00  0.00     0.000 HD 
BRANCH   7  10
HETATM   10  C   UNL     1     -11.766  12.426  65.772  1.00  0.00    -0.414 C  
HETATM   11  O   UNL     1     -11.601  11.324  66.286  1.00  0.00    -0.259 OA 
HETATM   12  N   UNL     1     -11.575  12.644  64.426  1.00  0.00    -0.336 N  
HETATM   13  H   UNL     1     -11.658  13.589  64.052  1.00  0.00     0.000 HD 
BRANCH  12  14
HETATM   14  C   UNL     1     -11.256  11.549  63.537  1.00  0.00    -0.322 C  
BRANCH  14  15
HETATM   15  C   UNL     1      -9.766  11.433  63.234  1.00  0.00    -0.413 C  
BRANCH  15  16
HETATM   16  C   UNL     1      -9.300  10.049  63.627  1.00  0.00    -0.253 C  
HETATM   17  O   UNL     1      -8.937   9.227  62.792  1.00  0.00    -0.227 OA 
HETATM   18  N   UNL     1      -9.295   9.818  64.984  1.00  0.00    -0.249 N  
HETATM   19  H   UNL     1      -9.571  10.588  65.591  1.00  0.00     0.000 HD 
BRANCH  18  20
HETATM   20  C   UNL     1      -8.927   8.553  65.625  1.00  0.00    -0.160 C  
BRANCH  20  21
HETATM   21  C   UNL     1      -7.443   8.173  65.620  1.00  0.00    -0.081 C  
BRANCH  21  22
HETATM   22  S   UNL     1      -6.801   7.520  67.209  1.00  0.00    -0.073 SA 
BRANCH  22  23
HETATM   23  S   UNL     1      -5.685   9.075  67.974  1.00  0.00    -0.038 SA 
BRANCH  23  24
HETATM   24  C   UNL     1      -6.914  10.421  68.012  1.00  0.00    -0.078 C  
BRANCH  24  25
HETATM   25  C   UNL     1      -7.429  10.659  69.433  1.00  0.00    -0.135 C  
BRANCH  25  26
HETATM   26  N   UNL     1      -8.869  10.885  69.534  1.00  0.00    -0.374 N  
HETATM   27  H   UNL     1      -9.200  11.845  69.635  1.00  0.00     0.000 HD 
HETATM   28  C   UNL     1      -9.804   9.872  69.499  1.00  0.00    -0.223 C  
HETATM   29  O   UNL     1      -9.518   8.682  69.437  1.00  0.00    -0.159 OA 
BRANCH  28  30
HETATM   30  C   UNL     1     -11.240  10.346  69.505  1.00  0.00    -0.325 C  
BRANCH  30  31
HETATM   31  C   UNL     1     -11.787  10.320  70.929  1.00  0.00    -0.377 C  
BRANCH  31  32
HETATM   32  N   UNL     1     -11.132   9.318  71.749  1.00  0.00    -0.369 N  
HETATM   33  H   UNL     1     -10.134   9.410  71.933  1.00  0.00     0.000 HD 
HETATM   34  C   UNL     1     -11.810   8.248  72.286  1.00  0.00    -0.388 C  
HETATM   35  O   UNL     1     -12.988   8.003  72.046  1.00  0.00    -0.317 OA 
BRANCH  34  36
HETATM   36  C   UNL     1     -10.934   7.331  73.168  1.00  0.00    -0.340 C  
HETATM   37  O   UNL     1      -9.755   8.036  73.590  1.00  0.00    -0.253 OA 
HETATM   38  H   UNL     1      -9.217   7.471  74.132  1.00  0.00     0.000 HD 
BRANCH  36  39
HETATM   39  C   UNL     1     -10.540   5.998  72.473  1.00  0.00    -0.249 C  
HETATM   40  C   UNL     1     -11.037   4.776  73.274  1.00  0.00    -0.411 C  
HETATM   41  C   UNL     1     -11.215   5.943  71.083  1.00  0.00    -0.281 C  
BRANCH  39  42
HETATM   42  C   UNL     1      -9.004   5.928  72.296  1.00  0.00    -0.142 C  
HETATM   43  O   UNL     1      -8.352   5.503  73.489  1.00  0.00    -0.113 OA 
HETATM   44  H   UNL     1      -7.409   5.460  73.380  1.00  0.00     0.000 HD 
ENDBRANCH  39  42
ENDBRANCH  36  39
ENDBRANCH  34  36
ENDBRANCH  31  32
ENDBRANCH  30  31
ENDBRANCH  28  30
ENDBRANCH  25  26
ENDBRANCH  24  25
ENDBRANCH  23  24
ENDBRANCH  22  23
ENDBRANCH  21  22
ENDBRANCH  20  21
ENDBRANCH  18  20
ENDBRANCH  15  16
ENDBRANCH  14  15
ENDBRANCH  12  14
ENDBRANCH   7  10
ENDBRANCH   2   7
TORSDOF 19
ENDMDL
MODEL       87
REMARK 921   NORMALIZED FREE ENERGY PREDICTED BY IDOCK:   -4.93 KCAL/MOL
REMARK 922        TOTAL FREE ENERGY PREDICTED BY IDOCK:  -12.59 KCAL/MOL
REMARK 923 INTER-LIGAND FREE ENERGY PREDICTED BY IDOCK:  -10.52 KCAL/MOL
REMARK 924 INTRA-LIGAND FREE ENERGY PREDICTED BY IDOCK:   -2.07 KCAL/MOL
REMARK 927      BINDING AFFINITY PREDICTED BY RF-SCORE:    0.00 PKD
ROOT
HETATM    1  C   UNL     1     -10.712  17.065  67.929  1.00  0.00    -0.348 C  
HETATM    2  C   UNL     1      -9.794  17.567  66.800  1.00  0.00    -0.306 C  
HETATM    3  C   UNL     1     -10.388  18.859  66.184  1.00  0.00    -0.517 C  
ENDROOT
BRANCH   2   4
HETATM    4  C   UNL     1      -8.425  17.954  67.399  1.00  0.00    -0.235 C  
HETATM    5  O   UNL     1      -7.948  16.950  68.292  1.00  0.00    -0.194 OA 
HETATM    6  H   UNL     1      -7.106  17.188  68.661  1.00  0.00     0.000 HD 
ENDBRANCH   2   4
BRANCH   2   7
HETATM    7  C   UNL     1      -9.599  16.478  65.699  1.00  0.00    -0.028 C  
HETATM    8  O   UNL     1      -8.951  15.294  66.194  1.00  0.00    -0.385 OA 
HETATM    9  H   UNL     1      -8.833  14.632  65.525  1.00  0.00     0.000 HD 
BRANCH   7  10
HETATM   10  C   UNL     1     -10.893  16.034  64.983  1.00  0.00    -0.404 C  
HETATM   11  O   UNL     1     -11.414  16.632  64.046  1.00  0.00    -1.192 OA 
HETATM   12  N   UNL     1     -11.387  14.837  65.454  1.00  0.00    -0.348 N  
HETATM   13  H   UNL     1     -10.965  14.407  66.277  1.00  0.00     0.000 HD 
BRANCH  12  14
HETATM   14  C   UNL     1     -12.496  14.183  64.796  1.00  0.00    -0.373 C  
BRANCH  14  15
HETATM   15  C   UNL     1     -12.499  12.670  64.982  1.00  0.00    -0.556 C  
BRANCH  15  16
HETATM   16  C   UNL     1     -11.088  12.217  65.285  1.00  0.00    -0.316 C  
HETATM   17  O   UNL     1     -10.151  12.474  64.535  1.00  0.00    -0.296 OA 
HETATM   18  N   UNL     1     -10.956  11.530  66.469  1.00  0.00    -0.293 N  
HETATM   19  H   UNL     1     -11.793  11.414  67.039  1.00  0.00     0.000 HD 
BRANCH  18  20
HETATM   20  C   UNL     1      -9.710  10.950  66.977  1.00  0.00    -0.176 C  
BRANCH  20  21
HETATM   21  C   UNL     1      -9.503  10.959  68.495  1.00  0.00    -0.185 C  
BRANCH  21  22
HETATM   22  S   UNL     1     -11.042  10.993  69.491  1.00  0.00    -0.257 SA 
BRANCH  22  23
HETATM   23  S   UNL     1     -10.738   9.551  70.931  1.00  0.00    -0.342 SA 
BRANCH  23  24
HETATM   24  C   UNL     1     -12.446   9.013  71.273  1.00  0.00    -0.289 C  
BRANCH  24  25
HETATM   25  C   UNL     1     -12.520   8.199  72.567  1.00  0.00    -0.199 C  
BRANCH  25  26
HETATM   26  N   UNL     1     -11.905   6.876  72.496  1.00  0.00    -0.482 N  
HETATM   27  H   UNL     1     -12.360   6.164  71.924  1.00  0.00     0.000 HD 
HETATM   28  C   UNL     1     -10.745   6.537  73.159  1.00  0.00    -0.269 C  
HETATM   29  O   UNL     1     -10.146   7.294  73.916  1.00  0.00    -0.324 OA 
BRANCH  28  30
HETATM   30  C   UNL     1     -10.229   5.150  72.851  1.00  0.00    -0.220 C  
BRANCH  30  31
HETATM   31  C   UNL     1     -10.767   4.687  71.500  1.00  0.00     0.161 C  
BRANCH  31  32
HETATM   32  N   UNL     1      -9.931   5.126  70.399  1.00  0.00    -0.226 N  
HETATM   33  H   UNL     1      -8.947   4.858  70.391  1.00  0.00     0.000 HD 
HETATM   34  C   UNL     1     -10.417   5.892  69.365  1.00  0.00    -0.275 C  
HETATM   35  O   UNL     1     -11.560   6.339  69.332  1.00  0.00    -0.403 OA 
BRANCH  34  36
HETATM   36  C   UNL     1      -9.372   6.205  68.272  1.00  0.00    -0.116 C  
HETATM   37  O   UNL     1      -9.618   7.507  67.716  1.00  0.00    -0.139 OA 
HETATM   38  H   UNL     1      -8.975   7.699  67.043  1.00  0.00     0.000 HD 
BRANCH  36  39
HETATM   39  C   UNL     1      -9.322   5.141  67.140  1.00  0.00    -0.129 C  
HETATM   40  C   UNL     1      -9.181   3.715  67.712  1.00  0.00    -0.228 C  
HETATM   41  C   UNL     1     -10.652   5.191  66.352  1.00  0.00    -0.336 C  
BRANCH  39  42
HETATM   42  C   UNL     1      -8.149   5.447  66.178  1.00  0.00    -0.106 C  
HETATM   43  O   UNL     1      -8.484   6.467  65.243  1.00  0.00    -0.188 OA 
HETATM   44  H   UNL     1      -7.764   6.655  64.652  1.00  0.00     0.000 HD 
ENDBRANCH  39  42
ENDBRANCH  36  39
ENDBRANCH  34  36
ENDBRANCH  31  32
ENDBRANCH  30  31
ENDBRANCH  28  30
ENDBRANCH  25  26
ENDBRANCH  24  25
ENDBRANCH  23  24
ENDBRANCH  22  23
ENDBRANCH  21  22
ENDBRANCH  20  21
ENDBRANCH  18  20
ENDBRANCH  15  16
ENDBRANCH  14  15
ENDBRANCH  12  14
ENDBRANCH   7  10
ENDBRANCH   2   7
TORSDOF 19
ENDMDL
MODEL       88
REMARK 921   NORMALIZED FREE ENERGY PREDICTED BY IDOCK:   -4.93 KCAL/MOL
REMARK 922        TOTAL FREE ENERGY PREDICTED BY IDOCK:  -12.58 KCAL/MOL
REMARK 923 INTER-LIGAND FREE ENERGY PREDICTED BY IDOCK:  -10.93 KCAL/MOL
REMARK 924 INTRA-LIGAND FREE ENERGY PREDICTED BY IDOCK:   -1.65 KCAL/MOL
REMARK 927      BINDING AFFINITY PREDICTED BY RF-SCORE:    0.00 PKD
ROOT
HETATM    1  C   UNL     1      -8.791   4.527  63.718  1.00  0.00    -0.140 C  
HETATM    2  C   UNL     1      -9.046   4.797  65.212  1.00  0.00    -0.155 C  
HETATM    3  C   UNL     1     -10.545   4.577  65.531  1.00  0.00    -0.218 C  
ENDROOT
BRANCH   2   4
HETATM    4  C   UNL     1      -8.260   3.766  66.051  1.00  0.00    -0.101 C  
HETATM    5  O   UNL     1      -9.042   3.276  67.137  1.00  0.00    -0.149 OA 
HETATM    6  H   UNL     1      -8.559   2.642  67.653  1.00  0.00     0.000 HD 
ENDBRANCH   2   4
BRANCH   2   7
HETATM    7  C   UNL     1      -8.610   6.242  65.611  1.00  0.00    -0.139 C  
HETATM    8  O   UNL     1      -8.716   7.177  64.524  1.00  0.00    -0.331 OA 
HETATM    9  H   UNL     1      -8.452   8.056  64.766  1.00  0.00     0.000 HD 
BRANCH   7  10
HETATM   10  C   UNL     1      -9.369   6.843  66.815  1.00  0.00    -0.158 C  
HETATM   11  O   UNL     1     -10.313   7.622  66.727  1.00  0.00    -0.297 OA 
HETATM   12  N   UNL     1      -8.927   6.360  68.027  1.00  0.00    -0.116 N  
HETATM   13  H   UNL     1      -8.097   5.768  68.061  1.00  0.00     0.000 HD 
BRANCH  12  14
HETATM   14  C   UNL     1      -9.625   6.683  69.251  1.00  0.00    -0.143 C  
BRANCH  14  15
HETATM   15  C   UNL     1     -10.666   5.640  69.645  1.00  0.00    -0.398 C  
BRANCH  15  16
HETATM   16  C   UNL     1     -11.454   6.164  70.824  1.00  0.00    -0.251 C  
HETATM   17  O   UNL     1     -11.147   5.891  71.980  1.00  0.00    -0.254 OA 
HETATM   18  N   UNL     1     -12.507   6.982  70.482  1.00  0.00    -0.615 N  
HETATM   19  H   UNL     1     -12.643   7.181  69.492  1.00  0.00     0.000 HD 
BRANCH  18  20
HETATM   20  C   UNL     1     -13.449   7.587  71.427  1.00  0.00    -0.317 C  
BRANCH  20  21
HETATM   21  C   UNL     1     -13.699   9.093  71.296  1.00  0.00    -0.190 C  
BRANCH  21  22
HETATM   22  S   UNL     1     -12.220  10.151  71.532  1.00  0.00    -0.341 SA 
BRANCH  22  23
HETATM   23  S   UNL     1     -12.076  11.210  69.770  1.00  0.00    -0.335 SA 
BRANCH  23  24
HETATM   24  C   UNL     1     -10.542  10.528  69.059  1.00  0.00    -0.222 C  
BRANCH  24  25
HETATM   25  C   UNL     1     -10.213  11.189  67.719  1.00  0.00    -0.180 C  
BRANCH  25  26
HETATM   26  N   UNL     1     -11.369  11.700  66.986  1.00  0.00    -0.317 N  
HETATM   27  H   UNL     1     -12.251  11.801  67.488  1.00  0.00     0.000 HD 
HETATM   28  C   UNL     1     -11.332  12.054  65.654  1.00  0.00    -0.329 C  
HETATM   29  O   UNL     1     -10.343  11.922  64.940  1.00  0.00    -0.265 OA 
BRANCH  28  30
HETATM   30  C   UNL     1     -12.613  12.665  65.132  1.00  0.00    -0.459 C  
BRANCH  30  31
HETATM   31  C   UNL     1     -12.353  14.095  64.669  1.00  0.00    -0.410 C  
BRANCH  31  32
HETATM   32  N   UNL     1     -11.229  14.698  65.361  1.00  0.00    -0.334 N  
HETATM   33  H   UNL     1     -10.751  14.161  66.084  1.00  0.00     0.000 HD 
HETATM   34  C   UNL     1     -10.785  15.969  65.076  1.00  0.00    -0.378 C  
HETATM   35  O   UNL     1     -11.351  16.724  64.291  1.00  0.00    -1.170 OA 
BRANCH  34  36
HETATM   36  C   UNL     1      -9.545  16.396  65.892  1.00  0.00    -0.274 C  
HETATM   37  O   UNL     1      -8.781  15.239  66.266  1.00  0.00    -0.415 OA 
HETATM   38  H   UNL     1      -8.018  15.502  66.768  1.00  0.00     0.000 HD 
BRANCH  36  39
HETATM   39  C   UNL     1      -9.894  17.237  67.152  1.00  0.00    -0.269 C  
HETATM   40  C   UNL     1     -10.470  18.615  66.769  1.00  0.00    -0.454 C  
HETATM   41  C   UNL     1     -10.982  16.492  67.961  1.00  0.00    -0.320 C  
BRANCH  39  42
HETATM   42  C   UNL     1      -8.635  17.413  68.035  1.00  0.00    -0.240 C  
HETATM   43  O   UNL     1      -8.544  16.404  69.035  1.00  0.00    -0.245 OA 
HETATM   44  H   UNL     1      -7.771  16.512  69.577  1.00  0.00     0.000 HD 
ENDBRANCH  39  42
ENDBRANCH  36  39
ENDBRANCH  34  36
ENDBRANCH  31  32
ENDBRANCH  30  31
ENDBRANCH  28  30
ENDBRANCH  25  26
ENDBRANCH  24  25
ENDBRANCH  23  24
ENDBRANCH  22  23
ENDBRANCH  21  22
ENDBRANCH  20  21
ENDBRANCH  18  20
ENDBRANCH  15  16
ENDBRANCH  14  15
ENDBRANCH  12  14
ENDBRANCH   7  10
ENDBRANCH   2   7
TORSDOF 19
ENDMDL
MODEL       89
REMARK 921   NORMALIZED FREE ENERGY PREDICTED BY IDOCK:   -4.93 KCAL/MOL
REMARK 922        TOTAL FREE ENERGY PREDICTED BY IDOCK:  -12.58 KCAL/MOL
REMARK 923 INTER-LIGAND FREE ENERGY PREDICTED BY IDOCK:  -10.11 KCAL/MOL
REMARK 924 INTRA-LIGAND FREE ENERGY PREDICTED BY IDOCK:   -2.48 KCAL/MOL
REMARK 927      BINDING AFFINITY PREDICTED BY RF-SCORE:    0.00 PKD
ROOT
HETATM    1  C   UNL     1     -11.643  11.604  67.698  1.00  0.00    -0.349 C  
HETATM    2  C   UNL     1     -11.463  12.953  68.420  1.00  0.00    -0.347 C  
HETATM    3  C   UNL     1     -11.905  12.813  69.898  1.00  0.00    -0.371 C  
ENDROOT
BRANCH   2   4
HETATM    4  C   UNL     1      -9.963  13.316  68.440  1.00  0.00    -0.226 C  
HETATM    5  O   UNL     1      -9.678  14.289  69.443  1.00  0.00    -0.412 OA 
HETATM    6  H   UNL     1      -8.755  14.512  69.455  1.00  0.00     0.000 HD 
ENDBRANCH   2   4
BRANCH   2   7
HETATM    7  C   UNL     1     -12.270  14.087  67.714  1.00  0.00    -0.174 C  
HETATM    8  O   UNL     1     -12.153  15.354  68.384  1.00  0.00    -0.539 OA 
HETATM    9  H   UNL     1     -12.644  16.044  67.954  1.00  0.00     0.000 HD 
BRANCH   7  10
HETATM   10  C   UNL     1     -11.914  14.314  66.228  1.00  0.00    -0.412 C  
HETATM   11  O   UNL     1     -10.995  15.024  65.830  1.00  0.00    -0.331 OA 
HETATM   12  N   UNL     1     -12.693  13.573  65.367  1.00  0.00    -0.615 N  
HETATM   13  H   UNL     1     -13.488  13.049  65.732  1.00  0.00     0.000 HD 
BRANCH  12  14
HETATM   14  C   UNL     1     -12.398  13.530  63.952  1.00  0.00    -0.334 C  
BRANCH  14  15
HETATM   15  C   UNL     1     -12.182  12.115  63.425  1.00  0.00    -0.635 C  
BRANCH  15  16
HETATM   16  C   UNL     1     -10.709  11.784  63.520  1.00  0.00    -0.436 C  
HETATM   17  O   UNL     1      -9.951  12.412  64.252  1.00  0.00    -0.280 OA 
HETATM   18  N   UNL     1     -10.318  10.717  62.745  1.00  0.00    -0.764 N  
HETATM   19  H   UNL     1     -11.041  10.236  62.211  1.00  0.00     0.000 HD 
BRANCH  18  20
HETATM   20  C   UNL     1      -8.946  10.217  62.624  1.00  0.00    -0.266 C  
BRANCH  20  21
HETATM   21  C   UNL     1      -8.465   9.232  63.693  1.00  0.00    -0.195 C  
BRANCH  21  22
HETATM   22  S   UNL     1      -7.225   9.901  64.867  1.00  0.00    -0.140 SA 
BRANCH  22  23
HETATM   23  S   UNL     1      -8.334  10.420  66.525  1.00  0.00    -0.133 SA 
BRANCH  23  24
HETATM   24  C   UNL     1      -7.298   9.764  67.875  1.00  0.00    -0.085 C  
BRANCH  24  25
HETATM   25  C   UNL     1      -7.999   9.908  69.228  1.00  0.00    -0.121 C  
BRANCH  25  26
HETATM   26  N   UNL     1      -9.280   9.213  69.333  1.00  0.00    -0.152 N  
HETATM   27  H   UNL     1      -9.755   8.946  68.471  1.00  0.00     0.000 HD 
HETATM   28  C   UNL     1      -9.881   8.899  70.534  1.00  0.00    -0.200 C  
HETATM   29  O   UNL     1      -9.429   9.221  71.627  1.00  0.00    -0.294 OA 
BRANCH  28  30
HETATM   30  C   UNL     1     -11.145   8.080  70.405  1.00  0.00    -0.238 C  
BRANCH  30  31
HETATM   31  C   UNL     1     -10.856   6.624  70.760  1.00  0.00    -0.252 C  
BRANCH  31  32
HETATM   32  N   UNL     1     -10.875   5.763  69.592  1.00  0.00    -0.353 N  
HETATM   33  H   UNL     1     -11.775   5.444  69.232  1.00  0.00     0.000 HD 
HETATM   34  C   UNL     1      -9.725   5.360  68.955  1.00  0.00    -0.151 C  
HETATM   35  O   UNL     1      -8.597   5.616  69.366  1.00  0.00    -0.105 OA 
BRANCH  34  36
HETATM   36  C   UNL     1      -9.975   4.489  67.704  1.00  0.00    -0.081 C  
HETATM   37  O   UNL     1      -9.422   3.178  67.901  1.00  0.00    -0.203 OA 
HETATM   38  H   UNL     1      -9.575   2.642  67.131  1.00  0.00     0.000 HD 
BRANCH  36  39
HETATM   39  C   UNL     1      -9.418   5.113  66.394  1.00  0.00    -0.158 C  
HETATM   40  C   UNL     1      -9.550   6.650  66.401  1.00  0.00    -0.147 C  
HETATM   41  C   UNL     1      -7.911   4.781  66.287  1.00  0.00    -0.099 C  
BRANCH  39  42
HETATM   42  C   UNL     1     -10.158   4.521  65.170  1.00  0.00    -0.127 C  
HETATM   43  O   UNL     1     -10.150   3.097  65.185  1.00  0.00    -0.381 OA 
HETATM   44  H   UNL     1     -10.604   2.733  64.434  1.00  0.00     0.000 HD 
ENDBRANCH  39  42
ENDBRANCH  36  39
ENDBRANCH  34  36
ENDBRANCH  31  32
ENDBRANCH  30  31
ENDBRANCH  28  30
ENDBRANCH  25  26
ENDBRANCH  24  25
ENDBRANCH  23  24
ENDBRANCH  22  23
ENDBRANCH  21  22
ENDBRANCH  20  21
ENDBRANCH  18  20
ENDBRANCH  15  16
ENDBRANCH  14  15
ENDBRANCH  12  14
ENDBRANCH   7  10
ENDBRANCH   2   7
TORSDOF 19
ENDMDL
MODEL       90
REMARK 921   NORMALIZED FREE ENERGY PREDICTED BY IDOCK:   -4.92 KCAL/MOL
REMARK 922        TOTAL FREE ENERGY PREDICTED BY IDOCK:  -12.57 KCAL/MOL
REMARK 923 INTER-LIGAND FREE ENERGY PREDICTED BY IDOCK:  -10.95 KCAL/MOL
REMARK 924 INTRA-LIGAND FREE ENERGY PREDICTED BY IDOCK:   -1.62 KCAL/MOL
REMARK 927      BINDING AFFINITY PREDICTED BY RF-SCORE:    0.00 PKD
ROOT
HETATM    1  C   UNL     1     -11.009   7.557  72.976  1.00  0.00    -0.443 C  
HETATM    2  C   UNL     1     -11.462   8.327  71.722  1.00  0.00    -0.353 C  
HETATM    3  C   UNL     1     -10.432   9.435  71.392  1.00  0.00    -0.358 C  
ENDROOT
BRANCH   2   4
HETATM    4  C   UNL     1     -11.474   7.363  70.516  1.00  0.00    -0.255 C  
HETATM    5  O   UNL     1     -11.340   8.069  69.285  1.00  0.00    -0.413 OA 
HETATM    6  H   UNL     1     -11.347   7.475  68.544  1.00  0.00     0.000 HD 
ENDBRANCH   2   4
BRANCH   2   7
HETATM    7  C   UNL     1     -12.883   8.944  71.916  1.00  0.00    -0.380 C  
HETATM    8  O   UNL     1     -13.320   8.919  73.286  1.00  0.00    -0.912 OA 
HETATM    9  H   UNL     1     -14.183   9.294  73.404  1.00  0.00     0.000 HD 
BRANCH   7  10
HETATM   10  C   UNL     1     -13.040  10.394  71.406  1.00  0.00    -0.413 C  
HETATM   11  O   UNL     1     -12.961  10.733  70.229  1.00  0.00    -0.257 OA 
HETATM   12  N   UNL     1     -13.358  11.286  72.406  1.00  0.00    -0.437 N  
HETATM   13  H   UNL     1     -13.348  10.978  73.378  1.00  0.00     0.000 HD 
BRANCH  12  14
HETATM   14  C   UNL     1     -13.704  12.655  72.095  1.00  0.00    -0.312 C  
BRANCH  14  15
HETATM   15  C   UNL     1     -12.543  13.627  72.276  1.00  0.00    -0.121 C  
BRANCH  15  16
HETATM   16  C   UNL     1     -12.059  14.062  70.911  1.00  0.00    -0.329 C  
HETATM   17  O   UNL     1     -12.677  13.786  69.887  1.00  0.00    -0.177 OA 
HETATM   18  N   UNL     1     -10.901  14.805  70.931  1.00  0.00    -0.510 N  
HETATM   19  H   UNL     1     -10.497  15.017  71.843  1.00  0.00     0.000 HD 
BRANCH  18  20
HETATM   20  C   UNL     1     -10.202  15.316  69.749  1.00  0.00    -0.229 C  
BRANCH  20  21
HETATM   21  C   UNL     1     -11.021  16.148  68.759  1.00  0.00    -0.330 C  
BRANCH  21  22
HETATM   22  S   UNL     1     -10.668  15.823  66.989  1.00  0.00    -0.275 SA 
BRANCH  22  23
HETATM   23  S   UNL     1     -11.971  14.307  66.488  1.00  0.00    -0.408 SA 
BRANCH  23  24
HETATM   24  C   UNL     1     -11.919  14.369  64.667  1.00  0.00    -0.464 C  
BRANCH  24  25
HETATM   25  C   UNL     1     -11.169  13.164  64.095  1.00  0.00    -0.397 C  
BRANCH  25  26
HETATM   26  N   UNL     1     -10.470  12.349  65.085  1.00  0.00    -0.284 N  
HETATM   27  H   UNL     1     -10.240  12.775  65.983  1.00  0.00     0.000 HD 
HETATM   28  C   UNL     1     -10.105  11.036  64.873  1.00  0.00    -0.300 C  
HETATM   29  O   UNL     1     -10.280  10.442  63.815  1.00  0.00    -0.212 OA 
BRANCH  28  30
HETATM   30  C   UNL     1      -9.494  10.354  66.076  1.00  0.00    -0.232 C  
BRANCH  30  31
HETATM   31  C   UNL     1      -8.308   9.500  65.639  1.00  0.00    -0.126 C  
BRANCH  31  32
HETATM   32  N   UNL     1      -8.663   8.100  65.500  1.00  0.00    -0.273 N  
HETATM   33  H   UNL     1      -9.504   7.857  64.977  1.00  0.00     0.000 HD 
HETATM   34  C   UNL     1      -7.908   7.090  66.048  1.00  0.00    -0.104 C  
HETATM   35  O   UNL     1      -6.934   7.287  66.769  1.00  0.00    -0.069 OA 
BRANCH  34  36
HETATM   36  C   UNL     1      -8.437   5.672  65.736  1.00  0.00    -0.140 C  
HETATM   37  O   UNL     1      -8.952   5.624  64.397  1.00  0.00    -0.360 OA 
HETATM   38  H   UNL     1      -9.278   4.752  64.206  1.00  0.00     0.000 HD 
BRANCH  36  39
HETATM   39  C   UNL     1      -9.514   5.180  66.742  1.00  0.00    -0.143 C  
HETATM   40  C   UNL     1      -9.535   3.640  66.838  1.00  0.00    -0.213 C  
HETATM   41  C   UNL     1      -9.167   5.724  68.148  1.00  0.00    -0.110 C  
BRANCH  39  42
HETATM   42  C   UNL     1     -10.908   5.706  66.323  1.00  0.00    -0.011 C  
HETATM   43  O   UNL     1     -11.204   6.961  66.927  1.00  0.00    -0.597 OA 
HETATM   44  H   UNL     1     -12.060   7.284  66.670  1.00  0.00     0.000 HD 
ENDBRANCH  39  42
ENDBRANCH  36  39
ENDBRANCH  34  36
ENDBRANCH  31  32
ENDBRANCH  30  31
ENDBRANCH  28  30
ENDBRANCH  25  26
ENDBRANCH  24  25
ENDBRANCH  23  24
ENDBRANCH  22  23
ENDBRANCH  21  22
ENDBRANCH  20  21
ENDBRANCH  18  20
ENDBRANCH  15  16
ENDBRANCH  14  15
ENDBRANCH  12  14
ENDBRANCH   7  10
ENDBRANCH   2   7
TORSDOF 19
ENDMDL
MODEL       91
REMARK 921   NORMALIZED FREE ENERGY PREDICTED BY IDOCK:   -4.91 KCAL/MOL
REMARK 922        TOTAL FREE ENERGY PREDICTED BY IDOCK:  -12.54 KCAL/MOL
REMARK 923 INTER-LIGAND FREE ENERGY PREDICTED BY IDOCK:  -10.30 KCAL/MOL
REMARK 924 INTRA-LIGAND FREE ENERGY PREDICTED BY IDOCK:   -2.24 KCAL/MOL
REMARK 927      BINDING AFFINITY PREDICTED BY RF-SCORE:    0.00 PKD
ROOT
HETATM    1  C   UNL     1      -9.825   4.120  70.069  1.00  0.00    -0.245 C  
HETATM    2  C   UNL     1      -9.215   4.390  71.457  1.00  0.00    -0.190 C  
HETATM    3  C   UNL     1      -9.572   3.227  72.416  1.00  0.00    -0.197 C  
ENDROOT
BRANCH   2   4
HETATM    4  C   UNL     1      -7.677   4.406  71.336  1.00  0.00    -0.080 C  
HETATM    5  O   UNL     1      -7.078   5.117  72.417  1.00  0.00    -0.082 OA 
HETATM    6  H   UNL     1      -6.131   5.127  72.342  1.00  0.00     0.000 HD 
ENDBRANCH   2   4
BRANCH   2   7
HETATM    7  C   UNL     1      -9.711   5.750  72.042  1.00  0.00    -0.154 C  
HETATM    8  O   UNL     1      -9.173   6.886  71.345  1.00  0.00    -0.155 OA 
HETATM    9  H   UNL     1      -9.475   7.713  71.700  1.00  0.00     0.000 HD 
BRANCH   7  10
HETATM   10  C   UNL     1     -11.246   5.919  72.089  1.00  0.00    -0.287 C  
HETATM   11  O   UNL     1     -12.000   5.265  72.804  1.00  0.00    -0.211 OA 
HETATM   12  N   UNL     1     -11.701   6.944  71.289  1.00  0.00    -0.308 N  
HETATM   13  H   UNL     1     -11.052   7.418  70.660  1.00  0.00     0.000 HD 
BRANCH  12  14
HETATM   14  C   UNL     1     -13.086   7.357  71.330  1.00  0.00    -0.350 C  
BRANCH  14  15
HETATM   15  C   UNL     1     -13.352   8.477  72.331  1.00  0.00    -0.321 C  
BRANCH  15  16
HETATM   16  C   UNL     1     -12.603   9.712  71.884  1.00  0.00    -0.396 C  
HETATM   17  O   UNL     1     -11.432   9.663  71.521  1.00  0.00    -0.377 OA 
HETATM   18  N   UNL     1     -13.354  10.865  71.898  1.00  0.00    -0.420 N  
HETATM   19  H   UNL     1     -14.333  10.783  72.172  1.00  0.00     0.000 HD 
BRANCH  18  20
HETATM   20  C   UNL     1     -12.861  12.200  71.550  1.00  0.00    -0.289 C  
BRANCH  20  21
HETATM   21  C   UNL     1     -13.640  13.398  72.102  1.00  0.00    -0.567 C  
BRANCH  21  22
HETATM   22  S   UNL     1     -12.666  14.542  73.153  1.00  0.00    -0.313 SA 
BRANCH  22  23
HETATM   23  S   UNL     1     -12.075  16.032  71.857  1.00  0.00    -0.500 SA 
BRANCH  23  24
HETATM   24  C   UNL     1     -11.434  15.060  70.454  1.00  0.00    -0.280 C  
BRANCH  24  25
HETATM   25  C   UNL     1     -11.907  15.639  69.119  1.00  0.00    -0.362 C  
BRANCH  25  26
HETATM   26  N   UNL     1     -12.358  14.647  68.146  1.00  0.00    -0.592 N  
HETATM   27  H   UNL     1     -13.221  14.139  68.340  1.00  0.00     0.000 HD 
HETATM   28  C   UNL     1     -11.681  14.360  66.979  1.00  0.00    -0.399 C  
HETATM   29  O   UNL     1     -10.608  14.868  66.671  1.00  0.00    -0.293 OA 
BRANCH  28  30
HETATM   30  C   UNL     1     -12.389  13.384  66.068  1.00  0.00    -0.471 C  
BRANCH  30  31
HETATM   31  C   UNL     1     -11.374  12.440  65.431  1.00  0.00    -0.337 C  
BRANCH  31  32
HETATM   32  N   UNL     1     -10.514  11.815  66.419  1.00  0.00    -0.228 N  
HETATM   33  H   UNL     1     -10.762  11.892  67.405  1.00  0.00     0.000 HD 
HETATM   34  C   UNL     1      -9.378  11.122  66.073  1.00  0.00    -0.206 C  
HETATM   35  O   UNL     1      -8.950  11.053  64.924  1.00  0.00    -0.179 OA 
BRANCH  34  36
HETATM   36  C   UNL     1      -8.637  10.494  67.274  1.00  0.00    -0.122 C  
HETATM   37  O   UNL     1      -7.225  10.449  67.011  1.00  0.00    -0.088 OA 
HETATM   38  H   UNL     1      -6.770  10.062  67.750  1.00  0.00     0.000 HD 
BRANCH  36  39
HETATM   39  C   UNL     1      -9.157   9.078  67.649  1.00  0.00    -0.144 C  
HETATM   40  C   UNL     1      -9.865   8.403  66.456  1.00  0.00    -0.338 C  
HETATM   41  C   UNL     1      -7.949   8.190  68.030  1.00  0.00    -0.127 C  
BRANCH  39  42
HETATM   42  C   UNL     1     -10.121   9.172  68.856  1.00  0.00    -0.197 C  
HETATM   43  O   UNL     1     -11.372   9.745  68.490  1.00  0.00    -0.498 OA 
HETATM   44  H   UNL     1     -11.964   9.802  69.231  1.00  0.00     0.000 HD 
ENDBRANCH  39  42
ENDBRANCH  36  39
ENDBRANCH  34  36
ENDBRANCH  31  32
ENDBRANCH  30  31
ENDBRANCH  28  30
ENDBRANCH  25  26
ENDBRANCH  24  25
ENDBRANCH  23  24
ENDBRANCH  22  23
ENDBRANCH  21  22
ENDBRANCH  20  21
ENDBRANCH  18  20
ENDBRANCH  15  16
ENDBRANCH  14  15
ENDBRANCH  12  14
ENDBRANCH   7  10
ENDBRANCH   2   7
TORSDOF 19
ENDMDL
MODEL       92
REMARK 921   NORMALIZED FREE ENERGY PREDICTED BY IDOCK:   -4.90 KCAL/MOL
REMARK 922        TOTAL FREE ENERGY PREDICTED BY IDOCK:  -12.51 KCAL/MOL
REMARK 923 INTER-LIGAND FREE ENERGY PREDICTED BY IDOCK:  -11.53 KCAL/MOL
REMARK 924 INTRA-LIGAND FREE ENERGY PREDICTED BY IDOCK:   -0.99 KCAL/MOL
REMARK 927      BINDING AFFINITY PREDICTED BY RF-SCORE:    0.00 PKD
ROOT
HETATM    1  C   UNL     1     -11.818  13.063  64.161  1.00  0.00    -0.478 C  
HETATM    2  C   UNL     1     -11.266  14.031  65.225  1.00  0.00    -0.319 C  
HETATM    3  C   UNL     1     -12.330  14.251  66.328  1.00  0.00    -0.399 C  
ENDROOT
BRANCH   2   4
HETATM    4  C   UNL     1     -10.046  13.380  65.911  1.00  0.00    -0.293 C  
HETATM    5  O   UNL     1      -9.575  12.254  65.174  1.00  0.00    -0.437 OA 
HETATM    6  H   UNL     1      -8.824  11.854  65.597  1.00  0.00     0.000 HD 
ENDBRANCH   2   4
BRANCH   2   7
HETATM    7  C   UNL     1     -10.848  15.394  64.591  1.00  0.00    -0.258 C  
HETATM    8  O   UNL     1     -11.891  15.983  63.795  1.00  0.00    -1.334 OA 
HETATM    9  H   UNL     1     -11.637  16.812  63.410  1.00  0.00     0.000 HD 
BRANCH   7  10
HETATM   10  C   UNL     1     -10.374  16.465  65.599  1.00  0.00    -0.350 C  
HETATM   11  O   UNL     1     -11.033  17.440  65.944  1.00  0.00    -0.077 OA 
HETATM   12  N   UNL     1      -9.142  16.182  66.146  1.00  0.00    -0.332 N  
HETATM   13  H   UNL     1      -8.597  15.400  65.784  1.00  0.00     0.000 HD 
BRANCH  12  14
HETATM   14  C   UNL     1      -8.610  16.982  67.227  1.00  0.00    -0.195 C  
BRANCH  14  15
HETATM   15  C   UNL     1      -8.342  16.179  68.495  1.00  0.00    -0.195 C  
BRANCH  15  16
HETATM   16  C   UNL     1      -7.496  14.978  68.137  1.00  0.00    -0.112 C  
HETATM   17  O   UNL     1      -6.601  15.044  67.300  1.00  0.00    -0.292 OA 
HETATM   18  N   UNL     1      -7.802  13.838  68.845  1.00  0.00    -0.311 N  
HETATM   19  H   UNL     1      -8.533  13.908  69.552  1.00  0.00     0.000 HD 
BRANCH  18  20
HETATM   20  C   UNL     1      -7.162  12.533  68.664  1.00  0.00    -0.103 C  
BRANCH  20  21
HETATM   21  C   UNL     1      -6.230  12.051  69.779  1.00  0.00    -0.136 C  
BRANCH  21  22
HETATM   22  S   UNL     1      -5.304  10.512  69.410  1.00  0.00    -0.037 SA 
BRANCH  22  23
HETATM   23  S   UNL     1      -6.726   9.027  69.547  1.00  0.00    -0.048 SA 
BRANCH  23  24
HETATM   24  C   UNL     1      -7.307   8.920  67.823  1.00  0.00    -0.085 C  
BRANCH  24  25
HETATM   25  C   UNL     1      -8.690   8.269  67.745  1.00  0.00    -0.134 C  
BRANCH  25  26
HETATM   26  N   UNL     1      -9.567   8.554  68.879  1.00  0.00    -0.158 N  
HETATM   27  H   UNL     1      -9.498   7.956  69.702  1.00  0.00     0.000 HD 
HETATM   28  C   UNL     1     -10.481   9.586  68.896  1.00  0.00    -0.216 C  
HETATM   29  O   UNL     1     -10.687  10.330  67.943  1.00  0.00    -0.224 OA 
BRANCH  28  30
HETATM   30  C   UNL     1     -11.200   9.764  70.214  1.00  0.00    -0.347 C  
BRANCH  30  31
HETATM   31  C   UNL     1     -12.530  10.475  69.986  1.00  0.00    -0.175 C  
BRANCH  31  32
HETATM   32  N   UNL     1     -12.888  11.335  71.098  1.00  0.00    -0.374 N  
HETATM   33  H   UNL     1     -13.443  10.947  71.861  1.00  0.00     0.000 HD 
HETATM   34  C   UNL     1     -12.506  12.655  71.161  1.00  0.00    -0.228 C  
HETATM   35  O   UNL     1     -11.918  13.234  70.253  1.00  0.00    -0.333 OA 
BRANCH  34  36
HETATM   36  C   UNL     1     -12.949  13.374  72.454  1.00  0.00    -0.266 C  
HETATM   37  O   UNL     1     -14.356  13.178  72.668  1.00  0.00    -0.660 OA 
HETATM   38  H   UNL     1     -14.628  13.621  73.463  1.00  0.00     0.000 HD 
BRANCH  36  39
HETATM   39  C   UNL     1     -12.613  14.892  72.464  1.00  0.00    -0.443 C  
HETATM   40  C   UNL     1     -12.567  15.450  73.901  1.00  0.00    -0.750 C  
HETATM   41  C   UNL     1     -11.210  15.094  71.845  1.00  0.00    -0.275 C  
BRANCH  39  42
HETATM   42  C   UNL     1     -13.656  15.669  71.625  1.00  0.00    -0.400 C  
HETATM   43  O   UNL     1     -13.461  15.476  70.227  1.00  0.00    -0.752 OA 
HETATM   44  H   UNL     1     -14.101  15.953  69.712  1.00  0.00     0.000 HD 
ENDBRANCH  39  42
ENDBRANCH  36  39
ENDBRANCH  34  36
ENDBRANCH  31  32
ENDBRANCH  30  31
ENDBRANCH  28  30
ENDBRANCH  25  26
ENDBRANCH  24  25
ENDBRANCH  23  24
ENDBRANCH  22  23
ENDBRANCH  21  22
ENDBRANCH  20  21
ENDBRANCH  18  20
ENDBRANCH  15  16
ENDBRANCH  14  15
ENDBRANCH  12  14
ENDBRANCH   7  10
ENDBRANCH   2   7
TORSDOF 19
ENDMDL
MODEL       93
REMARK 921   NORMALIZED FREE ENERGY PREDICTED BY IDOCK:   -4.89 KCAL/MOL
REMARK 922        TOTAL FREE ENERGY PREDICTED BY IDOCK:  -12.50 KCAL/MOL
REMARK 923 INTER-LIGAND FREE ENERGY PREDICTED BY IDOCK:  -10.96 KCAL/MOL
REMARK 924 INTRA-LIGAND FREE ENERGY PREDICTED BY IDOCK:   -1.54 KCAL/MOL
REMARK 927      BINDING AFFINITY PREDICTED BY RF-SCORE:    0.00 PKD
ROOT
HETATM    1  C   UNL     1     -11.783   9.613  71.613  1.00  0.00    -0.439 C  
HETATM    2  C   UNL     1     -11.375   8.129  71.666  1.00  0.00    -0.315 C  
HETATM    3  C   UNL     1     -10.947   7.760  73.108  1.00  0.00    -0.372 C  
ENDROOT
BRANCH   2   4
HETATM    4  C   UNL     1     -12.605   7.257  71.333  1.00  0.00    -0.388 C  
HETATM    5  O   UNL     1     -12.821   6.262  72.331  1.00  0.00    -0.546 OA 
HETATM    6  H   UNL     1     -13.578   5.726  72.126  1.00  0.00     0.000 HD 
ENDBRANCH   2   4
BRANCH   2   7
HETATM    7  C   UNL     1     -10.223   7.819  70.659  1.00  0.00    -0.199 C  
HETATM    8  O   UNL     1      -9.634   6.524  70.866  1.00  0.00    -0.174 OA 
HETATM    9  H   UNL     1      -8.934   6.336  70.253  1.00  0.00     0.000 HD 
BRANCH   7  10
HETATM   10  C   UNL     1     -10.615   7.918  69.168  1.00  0.00    -0.173 C  
HETATM   11  O   UNL     1     -10.601   8.953  68.508  1.00  0.00    -0.204 OA 
HETATM   12  N   UNL     1     -10.921   6.697  68.609  1.00  0.00    -0.425 N  
HETATM   13  H   UNL     1     -10.987   5.872  69.205  1.00  0.00     0.000 HD 
BRANCH  12  14
HETATM   14  C   UNL     1     -11.151   6.570  67.187  1.00  0.00    -0.360 C  
BRANCH  14  15
HETATM   15  C   UNL     1     -10.184   5.608  66.504  1.00  0.00    -0.259 C  
BRANCH  15  16
HETATM   16  C   UNL     1      -8.854   6.306  66.326  1.00  0.00    -0.147 C  
HETATM   17  O   UNL     1      -8.044   6.398  67.243  1.00  0.00    -0.111 OA 
HETATM   18  N   UNL     1      -8.635   6.791  65.057  1.00  0.00    -0.349 N  
HETATM   19  H   UNL     1      -9.355   6.616  64.358  1.00  0.00     0.000 HD 
BRANCH  18  20
HETATM   20  C   UNL     1      -7.449   7.538  64.630  1.00  0.00    -0.089 C  
BRANCH  20  21
HETATM   21  C   UNL     1      -7.585   8.407  63.377  1.00  0.00    -0.129 C  
BRANCH  21  22
HETATM   22  S   UNL     1      -7.827  10.198  63.692  1.00  0.00    -0.133 SA 
BRANCH  22  23
HETATM   23  S   UNL     1      -9.584  10.645  62.712  1.00  0.00    -0.252 SA 
BRANCH  23  24
HETATM   24  C   UNL     1     -10.180  12.077  63.670  1.00  0.00    -0.444 C  
BRANCH  24  25
HETATM   25  C   UNL     1     -10.230  11.759  65.166  1.00  0.00    -0.268 C  
BRANCH  25  26
HETATM   26  N   UNL     1      -9.374  12.599  66.001  1.00  0.00    -0.434 N  
HETATM   27  H   UNL     1      -8.373  12.401  66.016  1.00  0.00     0.000 HD 
HETATM   28  C   UNL     1      -9.844  13.644  66.768  1.00  0.00    -0.271 C  
HETATM   29  O   UNL     1     -11.031  13.935  66.869  1.00  0.00    -0.290 OA 
BRANCH  28  30
HETATM   30  C   UNL     1      -8.766  14.446  67.461  1.00  0.00    -0.203 C  
BRANCH  30  31
HETATM   31  C   UNL     1      -9.314  15.037  68.756  1.00  0.00    -0.200 C  
BRANCH  31  32
HETATM   32  N   UNL     1      -9.048  16.460  68.864  1.00  0.00    -0.249 N  
HETATM   33  H   UNL     1      -8.227  16.768  69.385  1.00  0.00     0.000 HD 
HETATM   34  C   UNL     1      -9.862  17.407  68.289  1.00  0.00    -0.310 C  
HETATM   35  O   UNL     1     -10.918  17.139  67.722  1.00  0.00    -0.315 OA 
BRANCH  34  36
HETATM   36  C   UNL     1      -9.369  18.858  68.481  1.00  0.00    -0.366 C  
HETATM   37  O   UNL     1     -10.393  19.645  69.109  1.00  0.00    -0.617 OA 
HETATM   38  H   UNL     1     -10.089  20.538  69.227  1.00  0.00     0.000 HD 
BRANCH  36  39
HETATM   39  C   UNL     1      -8.908  19.535  67.160  1.00  0.00    -0.357 C  
HETATM   40  C   UNL     1      -7.908  20.678  67.430  1.00  0.00    -0.329 C  
HETATM   41  C   UNL     1      -8.181  18.482  66.290  1.00  0.00    -0.248 C  
BRANCH  39  42
HETATM   42  C   UNL     1     -10.136  20.074  66.386  1.00  0.00    -0.487 C  
HETATM   43  O   UNL     1     -10.676  19.096  65.503  1.00  0.00    -0.507 OA 
HETATM   44  H   UNL     1     -11.429  19.427  65.028  1.00  0.00     0.000 HD 
ENDBRANCH  39  42
ENDBRANCH  36  39
ENDBRANCH  34  36
ENDBRANCH  31  32
ENDBRANCH  30  31
ENDBRANCH  28  30
ENDBRANCH  25  26
ENDBRANCH  24  25
ENDBRANCH  23  24
ENDBRANCH  22  23
ENDBRANCH  21  22
ENDBRANCH  20  21
ENDBRANCH  18  20
ENDBRANCH  15  16
ENDBRANCH  14  15
ENDBRANCH  12  14
ENDBRANCH   7  10
ENDBRANCH   2   7
TORSDOF 19
ENDMDL
MODEL       94
REMARK 921   NORMALIZED FREE ENERGY PREDICTED BY IDOCK:   -4.87 KCAL/MOL
REMARK 922        TOTAL FREE ENERGY PREDICTED BY IDOCK:  -12.46 KCAL/MOL
REMARK 923 INTER-LIGAND FREE ENERGY PREDICTED BY IDOCK:  -10.50 KCAL/MOL
REMARK 924 INTRA-LIGAND FREE ENERGY PREDICTED BY IDOCK:   -1.97 KCAL/MOL
REMARK 927      BINDING AFFINITY PREDICTED BY RF-SCORE:    0.00 PKD
ROOT
HETATM    1  C   UNL     1     -10.599   7.034  72.018  1.00  0.00    -0.237 C  
HETATM    2  C   UNL     1     -11.433   7.564  70.837  1.00  0.00    -0.303 C  
HETATM    3  C   UNL     1     -11.055   6.794  69.548  1.00  0.00    -0.324 C  
ENDROOT
BRANCH   2   4
HETATM    4  C   UNL     1     -12.925   7.273  71.104  1.00  0.00    -0.259 C  
HETATM    5  O   UNL     1     -13.106   6.585  72.339  1.00  0.00    -0.527 OA 
HETATM    6  H   UNL     1     -14.025   6.405  72.503  1.00  0.00     0.000 HD 
ENDBRANCH   2   4
BRANCH   2   7
HETATM    7  C   UNL     1     -11.223   9.098  70.637  1.00  0.00    -0.270 C  
HETATM    8  O   UNL     1     -11.961   9.890  71.583  1.00  0.00    -0.393 OA 
HETATM    9  H   UNL     1     -11.833  10.823  71.462  1.00  0.00     0.000 HD 
BRANCH   7  10
HETATM   10  C   UNL     1      -9.753   9.568  70.685  1.00  0.00    -0.245 C  
HETATM   11  O   UNL     1      -8.955   9.276  71.571  1.00  0.00    -0.316 OA 
HETATM   12  N   UNL     1      -9.384  10.303  69.580  1.00  0.00    -0.368 N  
HETATM   13  H   UNL     1     -10.093  10.580  68.901  1.00  0.00     0.000 HD 
BRANCH  12  14
HETATM   14  C   UNL     1      -8.006  10.687  69.372  1.00  0.00    -0.111 C  
BRANCH  14  15
HETATM   15  C   UNL     1      -7.744  11.262  67.984  1.00  0.00    -0.108 C  
BRANCH  15  16
HETATM   16  C   UNL     1      -8.215  10.263  66.951  1.00  0.00    -0.123 C  
HETATM   17  O   UNL     1      -8.167   9.053  67.151  1.00  0.00    -0.109 OA 
HETATM   18  N   UNL     1      -8.716  10.831  65.802  1.00  0.00    -0.182 N  
HETATM   19  H   UNL     1      -8.754  11.849  65.760  1.00  0.00     0.000 HD 
BRANCH  18  20
HETATM   20  C   UNL     1      -9.200  10.091  64.634  1.00  0.00    -0.258 C  
BRANCH  20  21
HETATM   21  C   UNL     1     -10.261  10.773  63.764  1.00  0.00    -0.288 C  
BRANCH  21  22
HETATM   22  S   UNL     1     -10.459  12.574  64.048  1.00  0.00    -0.416 SA 
BRANCH  22  23
HETATM   23  S   UNL     1     -12.292  12.735  64.976  1.00  0.00    -0.492 SA 
BRANCH  23  24
HETATM   24  C   UNL     1     -11.910  12.115  66.647  1.00  0.00    -0.237 C  
BRANCH  24  25
HETATM   25  C   UNL     1     -10.841  12.976  67.325  1.00  0.00    -0.252 C  
BRANCH  25  26
HETATM   26  N   UNL     1     -11.361  14.059  68.155  1.00  0.00    -0.276 N  
HETATM   27  H   UNL     1     -11.330  15.009  67.783  1.00  0.00     0.000 HD 
HETATM   28  C   UNL     1     -11.893  13.869  69.413  1.00  0.00    -0.334 C  
HETATM   29  O   UNL     1     -11.931  12.782  69.980  1.00  0.00    -0.332 OA 
BRANCH  28  30
HETATM   30  C   UNL     1     -12.475  15.115  70.042  1.00  0.00    -0.316 C  
BRANCH  30  31
HETATM   31  C   UNL     1     -11.374  15.899  70.749  1.00  0.00    -0.395 C  
BRANCH  31  32
HETATM   32  N   UNL     1     -10.959  17.065  69.991  1.00  0.00    -0.280 N  
HETATM   33  H   UNL     1     -11.526  17.911  70.042  1.00  0.00     0.000 HD 
HETATM   34  C   UNL     1      -9.830  17.069  69.206  1.00  0.00    -0.126 C  
HETATM   35  O   UNL     1      -9.138  16.074  69.009  1.00  0.00    -0.217 OA 
BRANCH  34  36
HETATM   36  C   UNL     1      -9.544  18.427  68.526  1.00  0.00    -0.345 C  
HETATM   37  O   UNL     1     -10.394  19.442  69.083  1.00  0.00    -0.573 OA 
HETATM   38  H   UNL     1     -10.218  20.277  68.665  1.00  0.00     0.000 HD 
BRANCH  36  39
HETATM   39  C   UNL     1      -9.698  18.389  66.980  1.00  0.00    -0.316 C  
HETATM   40  C   UNL     1     -10.621  17.235  66.533  1.00  0.00    -0.178 C  
HETATM   41  C   UNL     1     -10.354  19.710  66.513  1.00  0.00    -0.601 C  
BRANCH  39  42
HETATM   42  C   UNL     1      -8.308  18.247  66.314  1.00  0.00    -0.203 C  
HETATM   43  O   UNL     1      -7.293  17.949  67.267  1.00  0.00    -0.188 OA 
HETATM   44  H   UNL     1      -6.440  17.862  66.858  1.00  0.00     0.000 HD 
ENDBRANCH  39  42
ENDBRANCH  36  39
ENDBRANCH  34  36
ENDBRANCH  31  32
ENDBRANCH  30  31
ENDBRANCH  28  30
ENDBRANCH  25  26
ENDBRANCH  24  25
ENDBRANCH  23  24
ENDBRANCH  22  23
ENDBRANCH  21  22
ENDBRANCH  20  21
ENDBRANCH  18  20
ENDBRANCH  15  16
ENDBRANCH  14  15
ENDBRANCH  12  14
ENDBRANCH   7  10
ENDBRANCH   2   7
TORSDOF 19
ENDMDL
MODEL       95
REMARK 921   NORMALIZED FREE ENERGY PREDICTED BY IDOCK:   -4.86 KCAL/MOL
REMARK 922        TOTAL FREE ENERGY PREDICTED BY IDOCK:  -12.44 KCAL/MOL
REMARK 923 INTER-LIGAND FREE ENERGY PREDICTED BY IDOCK:  -10.87 KCAL/MOL
REMARK 924 INTRA-LIGAND FREE ENERGY PREDICTED BY IDOCK:   -1.57 KCAL/MOL
REMARK 927      BINDING AFFINITY PREDICTED BY RF-SCORE:    0.00 PKD
ROOT
HETATM    1  C   UNL     1      -9.154   1.935  64.408  1.00  0.00    -0.117 C  
HETATM    2  C   UNL     1      -9.703   3.105  63.570  1.00  0.00    -0.120 C  
HETATM    3  C   UNL     1      -8.635   3.549  62.539  1.00  0.00    -0.081 C  
ENDROOT
BRANCH   2   4
HETATM    4  C   UNL     1     -10.922   2.615  62.760  1.00  0.00    -0.181 C  
HETATM    5  O   UNL     1     -11.693   1.673  63.502  1.00  0.00    -0.545 OA 
HETATM    6  H   UNL     1     -12.443   1.371  63.003  1.00  0.00     0.000 HD 
ENDBRANCH   2   4
BRANCH   2   7
HETATM    7  C   UNL     1     -10.120   4.306  64.475  1.00  0.00    -0.096 C  
HETATM    8  O   UNL     1     -11.511   4.275  64.836  1.00  0.00    -1.029 OA 
HETATM    9  H   UNL     1     -11.765   5.006  65.386  1.00  0.00     0.000 HD 
BRANCH   7  10
HETATM   10  C   UNL     1      -9.306   4.454  65.779  1.00  0.00    -0.162 C  
HETATM   11  O   UNL     1      -8.145   4.848  65.837  1.00  0.00    -0.106 OA 
HETATM   12  N   UNL     1     -10.040   4.168  66.909  1.00  0.00    -0.280 N  
HETATM   13  H   UNL     1     -10.979   3.780  66.815  1.00  0.00     0.000 HD 
BRANCH  12  14
HETATM   14  C   UNL     1      -9.496   4.410  68.227  1.00  0.00    -0.153 C  
BRANCH  14  15
HETATM   15  C   UNL     1     -10.353   5.348  69.069  1.00  0.00    -0.282 C  
BRANCH  15  16
HETATM   16  C   UNL     1     -10.338   6.719  68.433  1.00  0.00    -0.191 C  
HETATM   17  O   UNL     1     -11.005   6.978  67.436  1.00  0.00    -0.292 OA 
HETATM   18  N   UNL     1      -9.543   7.636  69.082  1.00  0.00    -0.154 N  
HETATM   19  H   UNL     1      -9.069   7.327  69.931  1.00  0.00     0.000 HD 
BRANCH  18  20
HETATM   20  C   UNL     1      -9.321   9.019  68.653  1.00  0.00    -0.136 C  
BRANCH  20  21
HETATM   21  C   UNL     1      -8.099   9.289  67.770  1.00  0.00    -0.104 C  
BRANCH  21  22
HETATM   22  S   UNL     1      -8.316  10.619  66.526  1.00  0.00    -0.149 SA 
BRANCH  22  23
HETATM   23  S   UNL     1      -9.747   9.875  65.242  1.00  0.00    -0.291 SA 
BRANCH  23  24
HETATM   24  C   UNL     1      -9.057  10.340  63.620  1.00  0.00    -0.258 C  
BRANCH  24  25
HETATM   25  C   UNL     1      -9.870  11.464  62.976  1.00  0.00    -0.347 C  
BRANCH  25  26
HETATM   26  N   UNL     1     -10.290  12.521  63.893  1.00  0.00    -0.449 N  
HETATM   27  H   UNL     1      -9.571  13.006  64.431  1.00  0.00     0.000 HD 
HETATM   28  C   UNL     1     -11.604  12.899  64.071  1.00  0.00    -0.426 C  
HETATM   29  O   UNL     1     -12.552  12.350  63.520  1.00  0.00    -0.681 OA 
BRANCH  28  30
HETATM   30  C   UNL     1     -11.795  14.090  64.983  1.00  0.00    -0.383 C  
BRANCH  30  31
HETATM   31  C   UNL     1     -10.442  14.709  65.315  1.00  0.00    -0.398 C  
BRANCH  31  32
HETATM   32  N   UNL     1     -10.528  16.146  65.498  1.00  0.00    -0.388 N  
HETATM   33  H   UNL     1     -10.663  16.738  64.678  1.00  0.00     0.000 HD 
HETATM   34  C   UNL     1     -10.433  16.738  66.735  1.00  0.00    -0.258 C  
HETATM   35  O   UNL     1     -10.179  16.120  67.765  1.00  0.00    -0.255 OA 
BRANCH  34  36
HETATM   36  C   UNL     1     -10.602  18.274  66.710  1.00  0.00    -0.312 C  
HETATM   37  O   UNL     1     -10.785  18.725  65.359  1.00  0.00    -0.556 OA 
HETATM   38  H   UNL     1     -10.889  19.669  65.343  1.00  0.00     0.000 HD 
BRANCH  36  39
HETATM   39  C   UNL     1      -9.422  19.037  67.374  1.00  0.00    -0.347 C  
HETATM   40  C   UNL     1      -9.273  20.459  66.794  1.00  0.00    -0.404 C  
HETATM   41  C   UNL     1      -9.713  19.184  68.886  1.00  0.00    -0.474 C  
BRANCH  39  42
HETATM   42  C   UNL     1      -8.107  18.244  67.183  1.00  0.00    -0.225 C  
HETATM   43  O   UNL     1      -7.633  17.702  68.411  1.00  0.00    -0.239 OA 
HETATM   44  H   UNL     1      -6.825  17.216  68.294  1.00  0.00     0.000 HD 
ENDBRANCH  39  42
ENDBRANCH  36  39
ENDBRANCH  34  36
ENDBRANCH  31  32
ENDBRANCH  30  31
ENDBRANCH  28  30
ENDBRANCH  25  26
ENDBRANCH  24  25
ENDBRANCH  23  24
ENDBRANCH  22  23
ENDBRANCH  21  22
ENDBRANCH  20  21
ENDBRANCH  18  20
ENDBRANCH  15  16
ENDBRANCH  14  15
ENDBRANCH  12  14
ENDBRANCH   7  10
ENDBRANCH   2   7
TORSDOF 19
ENDMDL
MODEL       96
REMARK 921   NORMALIZED FREE ENERGY PREDICTED BY IDOCK:   -4.86 KCAL/MOL
REMARK 922        TOTAL FREE ENERGY PREDICTED BY IDOCK:  -12.43 KCAL/MOL
REMARK 923 INTER-LIGAND FREE ENERGY PREDICTED BY IDOCK:  -10.08 KCAL/MOL
REMARK 924 INTRA-LIGAND FREE ENERGY PREDICTED BY IDOCK:   -2.36 KCAL/MOL
REMARK 927      BINDING AFFINITY PREDICTED BY RF-SCORE:    0.00 PKD
ROOT
HETATM    1  C   UNL     1     -12.446   8.616  72.128  1.00  0.00    -0.453 C  
HETATM    2  C   UNL     1     -11.081   7.907  72.058  1.00  0.00    -0.332 C  
HETATM    3  C   UNL     1     -10.878   7.044  73.328  1.00  0.00    -0.345 C  
ENDROOT
BRANCH   2   4
HETATM    4  C   UNL     1     -11.081   6.934  70.859  1.00  0.00    -0.272 C  
HETATM    5  O   UNL     1     -12.321   6.975  70.158  1.00  0.00    -0.618 OA 
HETATM    6  H   UNL     1     -12.321   6.376  69.420  1.00  0.00     0.000 HD 
ENDBRANCH   2   4
BRANCH   2   7
HETATM    7  C   UNL     1      -9.915   8.932  71.903  1.00  0.00    -0.314 C  
HETATM    8  O   UNL     1      -8.764   8.592  72.695  1.00  0.00    -0.380 OA 
HETATM    9  H   UNL     1      -8.054   9.216  72.601  1.00  0.00     0.000 HD 
BRANCH   7  10
HETATM   10  C   UNL     1      -9.430   9.156  70.454  1.00  0.00    -0.227 C  
HETATM   11  O   UNL     1      -8.654   8.417  69.854  1.00  0.00    -0.127 OA 
HETATM   12  N   UNL     1     -10.015  10.247  69.851  1.00  0.00    -0.399 N  
HETATM   13  H   UNL     1     -10.601  10.874  70.403  1.00  0.00     0.000 HD 
BRANCH  12  14
HETATM   14  C   UNL     1      -9.809  10.517  68.445  1.00  0.00    -0.161 C  
BRANCH  14  15
HETATM   15  C   UNL     1      -9.791  12.005  68.114  1.00  0.00    -0.201 C  
BRANCH  15  16
HETATM   16  C   UNL     1     -11.116  12.377  67.488  1.00  0.00    -0.266 C  
HETATM   17  O   UNL     1     -12.120  11.688  67.640  1.00  0.00    -0.615 OA 
HETATM   18  N   UNL     1     -11.094  13.552  66.772  1.00  0.00    -0.295 N  
HETATM   19  H   UNL     1     -10.217  14.071  66.751  1.00  0.00     0.000 HD 
BRANCH  18  20
HETATM   20  C   UNL     1     -12.229  14.117  66.037  1.00  0.00    -0.443 C  
BRANCH  20  21
HETATM   21  C   UNL     1     -12.166  14.066  64.507  1.00  0.00    -0.434 C  
BRANCH  21  22
HETATM   22  S   UNL     1     -12.356  12.396  63.775  1.00  0.00    -0.525 SA 
BRANCH  22  23
HETATM   23  S   UNL     1     -10.434  11.843  63.282  1.00  0.00    -0.302 SA 
BRANCH  23  24
HETATM   24  C   UNL     1     -10.056  10.632  64.592  1.00  0.00    -0.349 C  
BRANCH  24  25
HETATM   25  C   UNL     1      -8.550  10.375  64.690  1.00  0.00    -0.185 C  
BRANCH  25  26
HETATM   26  N   UNL     1      -8.074   9.223  63.928  1.00  0.00    -0.141 N  
HETATM   27  H   UNL     1      -8.170   9.244  62.913  1.00  0.00     0.000 HD 
HETATM   28  C   UNL     1      -7.502   8.110  64.507  1.00  0.00    -0.102 C  
HETATM   29  O   UNL     1      -7.388   7.953  65.718  1.00  0.00    -0.073 OA 
BRANCH  28  30
HETATM   30  C   UNL     1      -6.979   7.090  63.521  1.00  0.00    -0.061 C  
BRANCH  30  31
HETATM   31  C   UNL     1      -8.131   6.240  62.995  1.00  0.00    -0.065 C  
BRANCH  31  32
HETATM   32  N   UNL     1      -8.954   5.711  64.067  1.00  0.00    -0.308 N  
HETATM   33  H   UNL     1      -9.534   6.356  64.605  1.00  0.00     0.000 HD 
HETATM   34  C   UNL     1      -8.981   4.374  64.385  1.00  0.00    -0.151 C  
HETATM   35  O   UNL     1      -8.252   3.538  63.858  1.00  0.00    -0.088 OA 
BRANCH  34  36
HETATM   36  C   UNL     1      -9.963   4.019  65.524  1.00  0.00    -0.168 C  
HETATM   37  O   UNL     1     -11.240   4.627  65.277  1.00  0.00    -0.916 OA 
HETATM   38  H   UNL     1     -11.844   4.408  65.977  1.00  0.00     0.000 HD 
BRANCH  36  39
HETATM   39  C   UNL     1      -9.444   4.418  66.933  1.00  0.00    -0.194 C  
HETATM   40  C   UNL     1      -9.591   3.257  67.938  1.00  0.00    -0.142 C  
HETATM   41  C   UNL     1      -7.937   4.752  66.833  1.00  0.00    -0.103 C  
BRANCH  39  42
HETATM   42  C   UNL     1     -10.208   5.663  67.444  1.00  0.00    -0.205 C  
HETATM   43  O   UNL     1      -9.329   6.750  67.714  1.00  0.00    -0.119 OA 
HETATM   44  H   UNL     1      -9.797   7.515  68.028  1.00  0.00     0.000 HD 
ENDBRANCH  39  42
ENDBRANCH  36  39
ENDBRANCH  34  36
ENDBRANCH  31  32
ENDBRANCH  30  31
ENDBRANCH  28  30
ENDBRANCH  25  26
ENDBRANCH  24  25
ENDBRANCH  23  24
ENDBRANCH  22  23
ENDBRANCH  21  22
ENDBRANCH  20  21
ENDBRANCH  18  20
ENDBRANCH  15  16
ENDBRANCH  14  15
ENDBRANCH  12  14
ENDBRANCH   7  10
ENDBRANCH   2   7
TORSDOF 19
ENDMDL
MODEL       97
REMARK 921   NORMALIZED FREE ENERGY PREDICTED BY IDOCK:   -4.85 KCAL/MOL
REMARK 922        TOTAL FREE ENERGY PREDICTED BY IDOCK:  -12.41 KCAL/MOL
REMARK 923 INTER-LIGAND FREE ENERGY PREDICTED BY IDOCK:  -10.78 KCAL/MOL
REMARK 924 INTRA-LIGAND FREE ENERGY PREDICTED BY IDOCK:   -1.63 KCAL/MOL
REMARK 927      BINDING AFFINITY PREDICTED BY RF-SCORE:    0.00 PKD
ROOT
HETATM    1  C   UNL     1     -12.984  11.839  71.663  1.00  0.00    -0.467 C  
HETATM    2  C   UNL     1     -12.574  10.597  70.851  1.00  0.00    -0.503 C  
HETATM    3  C   UNL     1     -11.772   9.628  71.754  1.00  0.00    -0.356 C  
ENDROOT
BRANCH   2   4
HETATM    4  C   UNL     1     -13.846   9.841  70.412  1.00  0.00     0.784 C  
HETATM    5  O   UNL     1     -13.844   8.499  70.892  1.00  0.00    -0.546 OA 
HETATM    6  H   UNL     1     -14.627   8.034  70.622  1.00  0.00     0.000 HD 
ENDBRANCH   2   4
BRANCH   2   7
HETATM    7  C   UNL     1     -11.736  10.991  69.594  1.00  0.00    -0.329 C  
HETATM    8  O   UNL     1     -12.101  10.241  68.422  1.00  0.00    -0.655 OA 
HETATM    9  H   UNL     1     -11.592  10.481  67.658  1.00  0.00     0.000 HD 
BRANCH   7  10
HETATM   10  C   UNL     1     -11.785  12.489  69.220  1.00  0.00    -0.321 C  
HETATM   11  O   UNL     1     -11.571  13.411  70.000  1.00  0.00    -0.241 OA 
HETATM   12  N   UNL     1     -12.026  12.703  67.881  1.00  0.00    -0.324 N  
HETATM   13  H   UNL     1     -12.265  11.914  67.279  1.00  0.00     0.000 HD 
BRANCH  12  14
HETATM   14  C   UNL     1     -11.944  14.032  67.316  1.00  0.00    -0.413 C  
BRANCH  14  15
HETATM   15  C   UNL     1     -12.425  14.103  65.871  1.00  0.00    -0.479 C  
BRANCH  15  16
HETATM   16  C   UNL     1     -11.283  13.710  64.961  1.00  0.00    -0.321 C  
HETATM   17  O   UNL     1     -10.293  14.421  64.821  1.00  0.00    -0.431 OA 
HETATM   18  N   UNL     1     -11.446  12.492  64.342  1.00  0.00    -0.329 N  
HETATM   19  H   UNL     1     -12.287  11.961  64.567  1.00  0.00     0.000 HD 
BRANCH  18  20
HETATM   20  C   UNL     1     -10.510  11.898  63.384  1.00  0.00    -0.441 C  
BRANCH  20  21
HETATM   21  C   UNL     1      -9.689  10.697  63.864  1.00  0.00    -0.321 C  
BRANCH  21  22
HETATM   22  S   UNL     1     -10.128  10.068  65.530  1.00  0.00    -0.180 SA 
BRANCH  22  23
HETATM   23  S   UNL     1      -8.337   9.406  66.303  1.00  0.00    -0.116 SA 
BRANCH  23  24
HETATM   24  C   UNL     1      -7.939  10.734  67.487  1.00  0.00    -0.110 C  
BRANCH  24  25
HETATM   25  C   UNL     1      -8.308  12.107  66.922  1.00  0.00    -0.151 C  
BRANCH  25  26
HETATM   26  N   UNL     1      -8.359  13.183  67.909  1.00  0.00    -0.157 N  
HETATM   27  H   UNL     1      -9.212  13.295  68.457  1.00  0.00     0.000 HD 
HETATM   28  C   UNL     1      -7.316  14.056  68.140  1.00  0.00    -0.128 C  
HETATM   29  O   UNL     1      -6.268  14.050  67.504  1.00  0.00    -0.307 OA 
BRANCH  28  30
HETATM   30  C   UNL     1      -7.546  15.017  69.285  1.00  0.00    -0.187 C  
BRANCH  30  31
HETATM   31  C   UNL     1      -6.651  16.241  69.121  1.00  0.00    -0.185 C  
BRANCH  31  32
HETATM   32  N   UNL     1      -7.382  17.390  68.620  1.00  0.00    -0.234 N  
HETATM   33  H   UNL     1      -7.918  17.956  69.277  1.00  0.00     0.000 HD 
HETATM   34  C   UNL     1      -7.378  17.743  67.290  1.00  0.00    -0.187 C  
HETATM   35  O   UNL     1      -6.840  17.073  66.413  1.00  0.00    -0.237 OA 
BRANCH  34  36
HETATM   36  C   UNL     1      -8.179  19.027  66.981  1.00  0.00    -0.270 C  
HETATM   37  O   UNL     1      -7.640  20.132  67.724  1.00  0.00    -0.288 OA 
HETATM   38  H   UNL     1      -8.133  20.922  67.534  1.00  0.00     0.000 HD 
BRANCH  36  39
HETATM   39  C   UNL     1      -9.702  18.888  67.257  1.00  0.00    -0.355 C  
HETATM   40  C   UNL     1     -10.063  19.368  68.678  1.00  0.00    -0.515 C  
HETATM   41  C   UNL     1     -10.472  19.784  66.259  1.00  0.00    -0.614 C  
BRANCH  39  42
HETATM   42  C   UNL     1     -10.142  17.417  67.065  1.00  0.00    -0.313 C  
HETATM   43  O   UNL     1     -10.082  17.021  65.698  1.00  0.00    -0.554 OA 
HETATM   44  H   UNL     1     -10.352  16.118  65.580  1.00  0.00     0.000 HD 
ENDBRANCH  39  42
ENDBRANCH  36  39
ENDBRANCH  34  36
ENDBRANCH  31  32
ENDBRANCH  30  31
ENDBRANCH  28  30
ENDBRANCH  25  26
ENDBRANCH  24  25
ENDBRANCH  23  24
ENDBRANCH  22  23
ENDBRANCH  21  22
ENDBRANCH  20  21
ENDBRANCH  18  20
ENDBRANCH  15  16
ENDBRANCH  14  15
ENDBRANCH  12  14
ENDBRANCH   7  10
ENDBRANCH   2   7
TORSDOF 19
ENDMDL
MODEL       98
REMARK 921   NORMALIZED FREE ENERGY PREDICTED BY IDOCK:   -4.85 KCAL/MOL
REMARK 922        TOTAL FREE ENERGY PREDICTED BY IDOCK:  -12.41 KCAL/MOL
REMARK 923 INTER-LIGAND FREE ENERGY PREDICTED BY IDOCK:  -10.89 KCAL/MOL
REMARK 924 INTRA-LIGAND FREE ENERGY PREDICTED BY IDOCK:   -1.52 KCAL/MOL
REMARK 927      BINDING AFFINITY PREDICTED BY RF-SCORE:    0.00 PKD
ROOT
HETATM    1  C   UNL     1     -10.380  13.018  63.967  1.00  0.00    -0.272 C  
HETATM    2  C   UNL     1     -11.644  13.342  64.783  1.00  0.00    -0.367 C  
HETATM    3  C   UNL     1     -12.127  14.774  64.445  1.00  0.00    -0.457 C  
ENDROOT
BRANCH   2   4
HETATM    4  C   UNL     1     -12.777  12.383  64.360  1.00  0.00    -0.342 C  
HETATM    5  O   UNL     1     -12.446  11.688  63.160  1.00  0.00    -0.937 OA 
HETATM    6  H   UNL     1     -13.143  11.098  62.899  1.00  0.00     0.000 HD 
ENDBRANCH   2   4
BRANCH   2   7
HETATM    7  C   UNL     1     -11.383  13.203  66.316  1.00  0.00    -0.315 C  
HETATM    8  O   UNL     1     -12.368  13.881  67.114  1.00  0.00    -0.478 OA 
HETATM    9  H   UNL     1     -12.209  13.796  68.046  1.00  0.00     0.000 HD 
BRANCH   7  10
HETATM   10  C   UNL     1     -11.287  11.750  66.833  1.00  0.00    -0.320 C  
HETATM   11  O   UNL     1     -12.048  11.250  67.656  1.00  0.00    -0.600 OA 
HETATM   12  N   UNL     1     -10.292  11.023  66.219  1.00  0.00    -0.245 N  
HETATM   13  H   UNL     1      -9.639  11.493  65.590  1.00  0.00     0.000 HD 
BRANCH  12  14
HETATM   14  C   UNL     1     -10.159   9.603  66.453  1.00  0.00    -0.247 C  
BRANCH  14  15
HETATM   15  C   UNL     1      -9.102   8.943  65.574  1.00  0.00    -0.248 C  
BRANCH  15  16
HETATM   16  C   UNL     1      -8.163   8.152  66.457  1.00  0.00    -0.107 C  
HETATM   17  O   UNL     1      -6.947   8.182  66.299  1.00  0.00    -0.061 OA 
HETATM   18  N   UNL     1      -8.790   7.435  67.451  1.00  0.00    -0.123 N  
HETATM   19  H   UNL     1      -9.804   7.521  67.522  1.00  0.00     0.000 HD 
BRANCH  18  20
HETATM   20  C   UNL     1      -8.119   6.559  68.414  1.00  0.00    -0.111 C  
BRANCH  20  21
HETATM   21  C   UNL     1      -8.261   6.914  69.897  1.00  0.00    -0.127 C  
BRANCH  21  22
HETATM   22  S   UNL     1      -9.938   7.448  70.414  1.00  0.00    -0.188 SA 
BRANCH  22  23
HETATM   23  S   UNL     1      -9.887   9.500  70.233  1.00  0.00    -0.272 SA 
BRANCH  23  24
HETATM   24  C   UNL     1      -8.100   9.803  70.033  1.00  0.00    -0.189 C  
BRANCH  24  25
HETATM   25  C   UNL     1      -7.827  10.738  68.852  1.00  0.00    -0.136 C  
BRANCH  25  26
HETATM   26  N   UNL     1      -8.188  12.135  69.079  1.00  0.00    -0.344 N  
HETATM   27  H   UNL     1      -8.799  12.353  69.866  1.00  0.00     0.000 HD 
HETATM   28  C   UNL     1      -7.747  13.175  68.287  1.00  0.00    -0.141 C  
HETATM   29  O   UNL     1      -7.056  13.024  67.285  1.00  0.00    -0.141 OA 
BRANCH  28  30
HETATM   30  C   UNL     1      -8.152  14.548  68.775  1.00  0.00    -0.146 C  
BRANCH  30  31
HETATM   31  C   UNL     1      -9.673  14.669  68.777  1.00  0.00    -0.217 C  
BRANCH  31  32
HETATM   32  N   UNL     1     -10.118  15.981  68.347  1.00  0.00    -0.225 N  
HETATM   33  H   UNL     1     -10.655  16.554  68.997  1.00  0.00     0.000 HD 
HETATM   34  C   UNL     1      -9.841  16.479  67.095  1.00  0.00    -0.255 C  
HETATM   35  O   UNL     1      -9.283  15.829  66.216  1.00  0.00    -0.275 OA 
BRANCH  34  36
HETATM   36  C   UNL     1     -10.364  17.914  66.862  1.00  0.00    -0.355 C  
HETATM   37  O   UNL     1     -10.608  18.126  65.463  1.00  0.00    -0.638 OA 
HETATM   38  H   UNL     1     -10.929  19.008  65.320  1.00  0.00     0.000 HD 
BRANCH  36  39
HETATM   39  C   UNL     1      -9.414  19.014  67.412  1.00  0.00    -0.347 C  
HETATM   40  C   UNL     1      -8.231  18.401  68.190  1.00  0.00    -0.303 C  
HETATM   41  C   UNL     1      -8.823  19.802  66.220  1.00  0.00    -0.417 C  
BRANCH  39  42
HETATM   42  C   UNL     1     -10.203  19.986  68.323  1.00  0.00    -0.392 C  
HETATM   43  O   UNL     1     -10.261  19.521  69.668  1.00  0.00    -0.550 OA 
HETATM   44  H   UNL     1     -10.745  20.117  70.227  1.00  0.00     0.000 HD 
ENDBRANCH  39  42
ENDBRANCH  36  39
ENDBRANCH  34  36
ENDBRANCH  31  32
ENDBRANCH  30  31
ENDBRANCH  28  30
ENDBRANCH  25  26
ENDBRANCH  24  25
ENDBRANCH  23  24
ENDBRANCH  22  23
ENDBRANCH  21  22
ENDBRANCH  20  21
ENDBRANCH  18  20
ENDBRANCH  15  16
ENDBRANCH  14  15
ENDBRANCH  12  14
ENDBRANCH   7  10
ENDBRANCH   2   7
TORSDOF 19
ENDMDL
MODEL       99
REMARK 921   NORMALIZED FREE ENERGY PREDICTED BY IDOCK:   -4.84 KCAL/MOL
REMARK 922        TOTAL FREE ENERGY PREDICTED BY IDOCK:  -12.40 KCAL/MOL
REMARK 923 INTER-LIGAND FREE ENERGY PREDICTED BY IDOCK:  -10.36 KCAL/MOL
REMARK 924 INTRA-LIGAND FREE ENERGY PREDICTED BY IDOCK:   -2.04 KCAL/MOL
REMARK 927      BINDING AFFINITY PREDICTED BY RF-SCORE:    0.00 PKD
ROOT
HETATM    1  C   UNL     1     -10.381   6.102  71.889  1.00  0.00    -0.244 C  
HETATM    2  C   UNL     1     -11.337   6.912  70.994  1.00  0.00    -0.342 C  
HETATM    3  C   UNL     1     -11.372   6.291  69.576  1.00  0.00    -0.475 C  
ENDROOT
BRANCH   2   4
HETATM    4  C   UNL     1     -12.769   6.803  71.559  1.00  0.00    -0.290 C  
HETATM    5  O   UNL     1     -13.696   7.547  70.773  1.00  0.00    -0.573 OA 
HETATM    6  H   UNL     1     -14.578   7.480  71.121  1.00  0.00     0.000 HD 
ENDBRANCH   2   4
BRANCH   2   7
HETATM    7  C   UNL     1     -10.914   8.413  70.922  1.00  0.00    -0.243 C  
HETATM    8  O   UNL     1     -11.613   9.237  71.870  1.00  0.00    -0.372 OA 
HETATM    9  H   UNL     1     -11.355  10.149  71.827  1.00  0.00     0.000 HD 
BRANCH   7  10
HETATM   10  C   UNL     1      -9.402   8.674  71.107  1.00  0.00    -0.216 C  
HETATM   11  O   UNL     1      -8.862   8.919  72.182  1.00  0.00    -0.381 OA 
HETATM   12  N   UNL     1      -8.683   8.534  69.941  1.00  0.00    -0.130 N  
HETATM   13  H   UNL     1      -9.177   8.397  69.058  1.00  0.00     0.000 HD 
BRANCH  12  14
HETATM   14  C   UNL     1      -7.238   8.578  69.951  1.00  0.00    -0.051 C  
BRANCH  14  15
HETATM   15  C   UNL     1      -6.676   9.966  69.662  1.00  0.00    -0.061 C  
BRANCH  15  16
HETATM   16  C   UNL     1      -7.496  10.599  68.560  1.00  0.00    -0.093 C  
HETATM   17  O   UNL     1      -8.475  11.298  68.802  1.00  0.00    -0.155 OA 
HETATM   18  N   UNL     1      -7.030  10.344  67.290  1.00  0.00    -0.085 N  
HETATM   19  H   UNL     1      -6.179   9.790  67.206  1.00  0.00     0.000 HD 
BRANCH  18  20
HETATM   20  C   UNL     1      -7.660  10.804  66.050  1.00  0.00    -0.130 C  
BRANCH  20  21
HETATM   21  C   UNL     1      -8.673   9.864  65.391  1.00  0.00    -0.155 C  
BRANCH  21  22
HETATM   22  S   UNL     1     -10.344  10.576  65.134  1.00  0.00    -0.160 SA 
BRANCH  22  23
HETATM   23  S   UNL     1     -10.078  11.944  63.617  1.00  0.00    -0.424 SA 
BRANCH  23  24
HETATM   24  C   UNL     1     -11.732  12.704  63.517  1.00  0.00    -0.531 C  
BRANCH  24  25
HETATM   25  C   UNL     1     -11.821  13.953  64.397  1.00  0.00    -0.429 C  
BRANCH  25  26
HETATM   26  N   UNL     1     -10.879  13.985  65.513  1.00  0.00    -0.299 N  
HETATM   27  H   UNL     1      -9.885  13.884  65.307  1.00  0.00     0.000 HD 
HETATM   28  C   UNL     1     -11.259  14.146  66.829  1.00  0.00    -0.323 C  
HETATM   29  O   UNL     1     -12.427  14.220  67.196  1.00  0.00    -0.266 OA 
BRANCH  28  30
HETATM   30  C   UNL     1     -10.110  14.264  67.803  1.00  0.00    -0.231 C  
BRANCH  30  31
HETATM   31  C   UNL     1     -10.478  15.233  68.922  1.00  0.00    -0.241 C  
BRANCH  31  32
HETATM   32  N   UNL     1     -10.321  16.619  68.520  1.00  0.00    -0.283 N  
HETATM   33  H   UNL     1     -11.094  17.082  68.042  1.00  0.00     0.000 HD 
HETATM   34  C   UNL     1      -9.168  17.329  68.759  1.00  0.00    -0.238 C  
HETATM   35  O   UNL     1      -8.155  16.833  69.244  1.00  0.00    -0.167 OA 
BRANCH  34  36
HETATM   36  C   UNL     1      -9.232  18.801  68.295  1.00  0.00    -0.331 C  
HETATM   37  O   UNL     1     -10.465  19.398  68.725  1.00  0.00    -0.506 OA 
HETATM   38  H   UNL     1     -10.504  20.304  68.439  1.00  0.00     0.000 HD 
BRANCH  36  39
HETATM   39  C   UNL     1      -9.060  18.973  66.760  1.00  0.00    -0.340 C  
HETATM   40  C   UNL     1     -10.325  19.576  66.115  1.00  0.00    -0.614 C  
HETATM   41  C   UNL     1      -7.896  19.958  66.497  1.00  0.00    -0.330 C  
BRANCH  39  42
HETATM   42  C   UNL     1      -8.729  17.609  66.109  1.00  0.00    -0.106 C  
HETATM   43  O   UNL     1      -9.862  17.045  65.458  1.00  0.00    -0.551 OA 
HETATM   44  H   UNL     1      -9.659  16.207  65.058  1.00  0.00     0.000 HD 
ENDBRANCH  39  42
ENDBRANCH  36  39
ENDBRANCH  34  36
ENDBRANCH  31  32
ENDBRANCH  30  31
ENDBRANCH  28  30
ENDBRANCH  25  26
ENDBRANCH  24  25
ENDBRANCH  23  24
ENDBRANCH  22  23
ENDBRANCH  21  22
ENDBRANCH  20  21
ENDBRANCH  18  20
ENDBRANCH  15  16
ENDBRANCH  14  15
ENDBRANCH  12  14
ENDBRANCH   7  10
ENDBRANCH   2   7
TORSDOF 19
ENDMDL
MODEL      100
REMARK 921   NORMALIZED FREE ENERGY PREDICTED BY IDOCK:   -4.84 KCAL/MOL
REMARK 922        TOTAL FREE ENERGY PREDICTED BY IDOCK:  -12.40 KCAL/MOL
REMARK 923 INTER-LIGAND FREE ENERGY PREDICTED BY IDOCK:  -10.58 KCAL/MOL
REMARK 924 INTRA-LIGAND FREE ENERGY PREDICTED BY IDOCK:   -1.82 KCAL/MOL
REMARK 927      BINDING AFFINITY PREDICTED BY RF-SCORE:    0.00 PKD
ROOT
HETATM    1  C   UNL     1     -13.072   8.852  72.222  1.00  0.00    -0.491 C  
HETATM    2  C   UNL     1     -11.831   8.362  71.453  1.00  0.00    -0.339 C  
HETATM    3  C   UNL     1     -10.567   8.568  72.324  1.00  0.00    -0.408 C  
ENDROOT
BRANCH   2   4
HETATM    4  C   UNL     1     -11.957   6.843  71.210  1.00  0.00    -0.356 C  
HETATM    5  O   UNL     1     -11.978   6.540  69.817  1.00  0.00    -0.625 OA 
HETATM    6  H   UNL     1     -12.056   5.605  69.668  1.00  0.00     0.000 HD 
ENDBRANCH   2   4
BRANCH   2   7
HETATM    7  C   UNL     1     -11.679   9.103  70.088  1.00  0.00     0.065 C  
HETATM    8  O   UNL     1     -12.358  10.369  70.061  1.00  0.00    -0.457 OA 
HETATM    9  H   UNL     1     -12.265  10.820  69.231  1.00  0.00     0.000 HD 
BRANCH   7  10
HETATM   10  C   UNL     1     -10.221   9.349  69.637  1.00  0.00    -0.212 C  
HETATM   11  O   UNL     1      -9.570  10.355  69.900  1.00  0.00    -0.128 OA 
HETATM   12  N   UNL     1      -9.679   8.280  68.959  1.00  0.00    -0.164 N  
HETATM   13  H   UNL     1     -10.273   7.492  68.703  1.00  0.00     0.000 HD 
BRANCH  12  14
HETATM   14  C   UNL     1      -8.277   8.263  68.605  1.00  0.00    -0.120 C  
BRANCH  14  15
HETATM   15  C   UNL     1      -7.810   6.916  68.061  1.00  0.00    -0.114 C  
BRANCH  15  16
HETATM   16  C   UNL     1      -8.330   6.758  66.650  1.00  0.00    -0.118 C  
HETATM   17  O   UNL     1      -9.511   6.941  66.372  1.00  0.00    -0.171 OA 
HETATM   18  N   UNL     1      -7.367   6.423  65.727  1.00  0.00    -0.078 N  
HETATM   19  H   UNL     1      -6.407   6.342  66.059  1.00  0.00     0.000 HD 
BRANCH  18  20
HETATM   20  C   UNL     1      -7.610   6.172  64.303  1.00  0.00    -0.096 C  
BRANCH  20  21
HETATM   21  C   UNL     1      -7.695   7.394  63.384  1.00  0.00    -0.125 C  
BRANCH  21  22
HETATM   22  S   UNL     1      -6.452   8.702  63.710  1.00  0.00    -0.080 SA 
BRANCH  22  23
HETATM   23  S   UNL     1      -7.425  10.015  64.965  1.00  0.00    -0.141 SA 
BRANCH  23  24
HETATM   24  C   UNL     1      -9.012  10.240  64.096  1.00  0.00    -0.237 C  
BRANCH  24  25
HETATM   25  C   UNL     1     -10.142  10.548  65.081  1.00  0.00    -0.314 C  
BRANCH  25  26
HETATM   26  N   UNL     1     -11.083  11.573  64.635  1.00  0.00    -0.285 N  
HETATM   27  H   UNL     1     -11.101  11.812  63.643  1.00  0.00     0.000 HD 
HETATM   28  C   UNL     1     -11.949  12.234  65.481  1.00  0.00    -0.321 C  
HETATM   29  O   UNL     1     -11.975  12.067  66.695  1.00  0.00    -0.614 OA 
BRANCH  28  30
HETATM   30  C   UNL     1     -12.910  13.171  64.785  1.00  0.00    -0.298 C  
BRANCH  30  31
HETATM   31  C   UNL     1     -12.161  14.399  64.278  1.00  0.00    -0.436 C  
BRANCH  31  32
HETATM   32  N   UNL     1     -11.028  14.735  65.120  1.00  0.00    -0.367 N  
HETATM   33  H   UNL     1     -10.631  14.013  65.721  1.00  0.00     0.000 HD 
HETATM   34  C   UNL     1     -10.471  15.992  65.138  1.00  0.00    -0.303 C  
HETATM   35  O   UNL     1     -10.935  16.947  64.522  1.00  0.00    -0.989 OA 
BRANCH  34  36
HETATM   36  C   UNL     1      -9.243  16.121  66.067  1.00  0.00    -0.328 C  
HETATM   37  O   UNL     1      -8.762  14.816  66.426  1.00  0.00    -0.448 OA 
HETATM   38  H   UNL     1      -8.006  14.895  66.997  1.00  0.00     0.000 HD 
BRANCH  36  39
HETATM   39  C   UNL     1      -9.520  16.960  67.345  1.00  0.00    -0.238 C  
HETATM   40  C   UNL     1     -10.971  16.776  67.838  1.00  0.00    -0.260 C  
HETATM   41  C   UNL     1      -8.585  16.468  68.475  1.00  0.00    -0.223 C  
BRANCH  39  42
HETATM   42  C   UNL     1      -9.238  18.456  67.067  1.00  0.00    -0.274 C  
HETATM   43  O   UNL     1      -8.414  18.635  65.920  1.00  0.00    -0.491 OA 
HETATM   44  H   UNL     1      -8.241  19.553  65.749  1.00  0.00     0.000 HD 
ENDBRANCH  39  42
ENDBRANCH  36  39
ENDBRANCH  34  36
ENDBRANCH  31  32
ENDBRANCH  30  31
ENDBRANCH  28  30
ENDBRANCH  25  26
ENDBRANCH  24  25
ENDBRANCH  23  24
ENDBRANCH  22  23
ENDBRANCH  21  22
ENDBRANCH  20  21
ENDBRANCH  18  20
ENDBRANCH  15  16
ENDBRANCH  14  15
ENDBRANCH  12  14
ENDBRANCH   7  10
ENDBRANCH   2   7
TORSDOF 19
ENDMDL
MODEL      101
REMARK 921   NORMALIZED FREE ENERGY PREDICTED BY IDOCK:   -4.84 KCAL/MOL
REMARK 922        TOTAL FREE ENERGY PREDICTED BY IDOCK:  -12.40 KCAL/MOL
REMARK 923 INTER-LIGAND FREE ENERGY PREDICTED BY IDOCK:  -10.09 KCAL/MOL
REMARK 924 INTRA-LIGAND FREE ENERGY PREDICTED BY IDOCK:   -2.30 KCAL/MOL
REMARK 927      BINDING AFFINITY PREDICTED BY RF-SCORE:    0.00 PKD
ROOT
HETATM    1  C   UNL     1     -10.903   6.247  66.860  1.00  0.00    -0.428 C  
HETATM    2  C   UNL     1      -9.620   5.396  66.889  1.00  0.00    -0.150 C  
HETATM    3  C   UNL     1      -9.673   4.417  68.088  1.00  0.00    -0.181 C  
ENDROOT
BRANCH   2   4
HETATM    4  C   UNL     1      -9.562   4.529  65.613  1.00  0.00    -0.187 C  
HETATM    5  O   UNL     1      -9.785   3.153  65.911  1.00  0.00    -0.385 OA 
HETATM    6  H   UNL     1      -9.749   2.619  65.125  1.00  0.00     0.000 HD 
ENDBRANCH   2   4
BRANCH   2   7
HETATM    7  C   UNL     1      -8.345   6.293  66.973  1.00  0.00    -0.109 C  
HETATM    8  O   UNL     1      -7.162   5.628  66.501  1.00  0.00    -0.074 OA 
HETATM    9  H   UNL     1      -6.387   6.174  66.552  1.00  0.00     0.000 HD 
BRANCH   7  10
HETATM   10  C   UNL     1      -8.447   7.643  66.229  1.00  0.00    -0.139 C  
HETATM   11  O   UNL     1      -8.508   7.765  65.009  1.00  0.00    -0.128 OA 
HETATM   12  N   UNL     1      -8.537   8.723  67.079  1.00  0.00    -0.115 N  
HETATM   13  H   UNL     1      -8.414   8.586  68.082  1.00  0.00     0.000 HD 
BRANCH  12  14
HETATM   14  C   UNL     1      -8.803  10.049  66.567  1.00  0.00    -0.139 C  
BRANCH  14  15
HETATM   15  C   UNL     1     -10.289  10.386  66.512  1.00  0.00    -0.287 C  
BRANCH  15  16
HETATM   16  C   UNL     1     -10.549  11.224  65.280  1.00  0.00    -0.261 C  
HETATM   17  O   UNL     1     -10.450  10.759  64.149  1.00  0.00    -0.364 OA 
HETATM   18  N   UNL     1     -10.927  12.520  65.547  1.00  0.00    -0.279 N  
HETATM   19  H   UNL     1     -11.025  12.787  66.525  1.00  0.00     0.000 HD 
BRANCH  18  20
HETATM   20  C   UNL     1     -11.199  13.547  64.537  1.00  0.00    -0.375 C  
BRANCH  20  21
HETATM   21  C   UNL     1     -10.825  14.989  64.890  1.00  0.00    -0.411 C  
BRANCH  21  22
HETATM   22  S   UNL     1      -9.589  15.167  66.233  1.00  0.00    -0.316 SA 
BRANCH  22  23
HETATM   23  S   UNL     1      -9.911  17.068  66.962  1.00  0.00    -0.297 SA 
BRANCH  23  24
HETATM   24  C   UNL     1     -10.654  16.713  68.588  1.00  0.00    -0.337 C  
BRANCH  24  25
HETATM   25  C   UNL     1     -11.846  15.761  68.455  1.00  0.00    -0.221 C  
BRANCH  25  26
HETATM   26  N   UNL     1     -11.965  14.773  69.525  1.00  0.00    -0.334 N  
HETATM   27  H   UNL     1     -11.985  15.107  70.489  1.00  0.00     0.000 HD 
HETATM   28  C   UNL     1     -12.050  13.415  69.303  1.00  0.00    -0.264 C  
HETATM   29  O   UNL     1     -11.980  12.900  68.193  1.00  0.00    -0.336 OA 
BRANCH  28  30
HETATM   30  C   UNL     1     -12.282  12.591  70.549  1.00  0.00    -0.382 C  
BRANCH  30  31
HETATM   31  C   UNL     1     -12.391  11.114  70.180  1.00  0.00    -0.295 C  
BRANCH  31  32
HETATM   32  N   UNL     1     -11.849  10.251  71.212  1.00  0.00    -0.360 N  
HETATM   33  H   UNL     1     -12.261  10.281  72.145  1.00  0.00     0.000 HD 
HETATM   34  C   UNL     1     -10.799   9.394  70.979  1.00  0.00    -0.336 C  
HETATM   35  O   UNL     1     -10.180   9.353  69.920  1.00  0.00    -0.195 OA 
BRANCH  34  36
HETATM   36  C   UNL     1     -10.413   8.529  72.200  1.00  0.00    -0.342 C  
HETATM   37  O   UNL     1      -9.034   8.747  72.539  1.00  0.00    -0.386 OA 
HETATM   38  H   UNL     1      -8.797   8.214  73.289  1.00  0.00     0.000 HD 
BRANCH  36  39
HETATM   39  C   UNL     1     -10.680   7.012  71.992  1.00  0.00    -0.243 C  
HETATM   40  C   UNL     1      -9.599   6.366  71.101  1.00  0.00    -0.187 C  
HETATM   41  C   UNL     1     -10.626   6.305  73.367  1.00  0.00    -0.293 C  
BRANCH  39  42
HETATM   42  C   UNL     1     -12.080   6.803  71.367  1.00  0.00    -0.366 C  
HETATM   43  O   UNL     1     -12.004   6.570  69.964  1.00  0.00    -0.591 OA 
HETATM   44  H   UNL     1     -12.863   6.442  69.580  1.00  0.00     0.000 HD 
ENDBRANCH  39  42
ENDBRANCH  36  39
ENDBRANCH  34  36
ENDBRANCH  31  32
ENDBRANCH  30  31
ENDBRANCH  28  30
ENDBRANCH  25  26
ENDBRANCH  24  25
ENDBRANCH  23  24
ENDBRANCH  22  23
ENDBRANCH  21  22
ENDBRANCH  20  21
ENDBRANCH  18  20
ENDBRANCH  15  16
ENDBRANCH  14  15
ENDBRANCH  12  14
ENDBRANCH   7  10
ENDBRANCH   2   7
TORSDOF 19
ENDMDL
MODEL      102
REMARK 921   NORMALIZED FREE ENERGY PREDICTED BY IDOCK:   -4.83 KCAL/MOL
REMARK 922        TOTAL FREE ENERGY PREDICTED BY IDOCK:  -12.36 KCAL/MOL
REMARK 923 INTER-LIGAND FREE ENERGY PREDICTED BY IDOCK:   -8.94 KCAL/MOL
REMARK 924 INTRA-LIGAND FREE ENERGY PREDICTED BY IDOCK:   -3.42 KCAL/MOL
REMARK 927      BINDING AFFINITY PREDICTED BY RF-SCORE:    0.00 PKD
ROOT
HETATM    1  C   UNL     1     -11.979   9.778  71.528  1.00  0.00    -0.488 C  
HETATM    2  C   UNL     1     -11.015   9.137  70.513  1.00  0.00    -0.307 C  
HETATM    3  C   UNL     1      -9.554   9.337  70.988  1.00  0.00    -0.329 C  
ENDROOT
BRANCH   2   4
HETATM    4  C   UNL     1     -11.262   7.614  70.476  1.00  0.00    -0.261 C  
HETATM    5  O   UNL     1     -12.653   7.313  70.549  1.00  0.00    -0.591 OA 
HETATM    6  H   UNL     1     -12.805   6.375  70.527  1.00  0.00     0.000 HD 
ENDBRANCH   2   4
BRANCH   2   7
HETATM    7  C   UNL     1     -11.211   9.737  69.085  1.00  0.00    -0.061 C  
HETATM    8  O   UNL     1     -12.413  10.517  68.968  1.00  0.00    -0.770 OA 
HETATM    9  H   UNL     1     -12.532  10.882  68.100  1.00  0.00     0.000 HD 
BRANCH   7  10
HETATM   10  C   UNL     1     -10.041  10.609  68.577  1.00  0.00    -0.172 C  
HETATM   11  O   UNL     1      -9.109  10.197  67.893  1.00  0.00    -0.130 OA 
HETATM   12  N   UNL     1     -10.176  11.939  68.907  1.00  0.00    -0.391 N  
HETATM   13  H   UNL     1     -10.928  12.229  69.533  1.00  0.00     0.000 HD 
BRANCH  12  14
HETATM   14  C   UNL     1      -9.265  12.930  68.378  1.00  0.00    -0.137 C  
BRANCH  14  15
HETATM   15  C   UNL     1      -9.902  14.306  68.213  1.00  0.00    -0.235 C  
BRANCH  15  16
HETATM   16  C   UNL     1     -11.253  14.137  67.554  1.00  0.00    -0.306 C  
HETATM   17  O   UNL     1     -12.265  13.895  68.205  1.00  0.00    -0.329 OA 
HETATM   18  N   UNL     1     -11.242  14.306  66.188  1.00  0.00    -0.325 N  
HETATM   19  H   UNL     1     -10.353  14.553  65.754  1.00  0.00     0.000 HD 
BRANCH  18  20
HETATM   20  C   UNL     1     -12.404  14.159  65.308  1.00  0.00    -0.460 C  
BRANCH  20  21
HETATM   21  C   UNL     1     -12.711  12.752  64.785  1.00  0.00    -0.393 C  
BRANCH  21  22
HETATM   22  S   UNL     1     -11.598  12.155  63.455  1.00  0.00    -0.466 SA 
BRANCH  22  23
HETATM   23  S   UNL     1     -10.027  11.289  64.469  1.00  0.00    -0.306 SA 
BRANCH  23  24
HETATM   24  C   UNL     1      -8.890  10.885  63.102  1.00  0.00    -0.186 C  
BRANCH  24  25
HETATM   25  C   UNL     1      -7.758   9.970  63.577  1.00  0.00    -0.146 C  
BRANCH  25  26
HETATM   26  N   UNL     1      -7.119  10.382  64.824  1.00  0.00    -0.307 N  
HETATM   27  H   UNL     1      -7.351  11.299  65.205  1.00  0.00     0.000 HD 
HETATM   28  C   UNL     1      -6.218   9.598  65.514  1.00  0.00    -0.069 C  
HETATM   29  O   UNL     1      -5.825   8.504  65.122  1.00  0.00    -0.047 OA 
BRANCH  28  30
HETATM   30  C   UNL     1      -5.771  10.176  66.837  1.00  0.00    -0.050 C  
BRANCH  30  31
HETATM   31  C   UNL     1      -5.644   9.062  67.873  1.00  0.00    -0.035 C  
BRANCH  31  32
HETATM   32  N   UNL     1      -6.916   8.420  68.144  1.00  0.00    -0.079 N  
HETATM   33  H   UNL     1      -7.728   9.005  68.346  1.00  0.00     0.000 HD 
HETATM   34  C   UNL     1      -7.068   7.054  68.140  1.00  0.00    -0.085 C  
HETATM   35  O   UNL     1      -6.134   6.269  67.999  1.00  0.00    -0.021 OA 
BRANCH  34  36
HETATM   36  C   UNL     1      -8.516   6.583  68.403  1.00  0.00    -0.120 C  
HETATM   37  O   UNL     1      -8.516   5.505  69.353  1.00  0.00    -0.103 OA 
HETATM   38  H   UNL     1      -9.407   5.216  69.514  1.00  0.00     0.000 HD 
BRANCH  36  39
HETATM   39  C   UNL     1      -9.272   6.159  67.113  1.00  0.00    -0.120 C  
HETATM   40  C   UNL     1      -8.887   4.730  66.677  1.00  0.00    -0.110 C  
HETATM   41  C   UNL     1     -10.791   6.159  67.404  1.00  0.00    -0.431 C  
BRANCH  39  42
HETATM   42  C   UNL     1      -8.973   7.162  65.972  1.00  0.00    -0.111 C  
HETATM   43  O   UNL     1      -9.911   8.233  65.950  1.00  0.00    -0.466 OA 
HETATM   44  H   UNL     1      -9.727   8.848  65.249  1.00  0.00     0.000 HD 
ENDBRANCH  39  42
ENDBRANCH  36  39
ENDBRANCH  34  36
ENDBRANCH  31  32
ENDBRANCH  30  31
ENDBRANCH  28  30
ENDBRANCH  25  26
ENDBRANCH  24  25
ENDBRANCH  23  24
ENDBRANCH  22  23
ENDBRANCH  21  22
ENDBRANCH  20  21
ENDBRANCH  18  20
ENDBRANCH  15  16
ENDBRANCH  14  15
ENDBRANCH  12  14
ENDBRANCH   7  10
ENDBRANCH   2   7
TORSDOF 19
ENDMDL
MODEL      103
REMARK 921   NORMALIZED FREE ENERGY PREDICTED BY IDOCK:   -4.82 KCAL/MOL
REMARK 922        TOTAL FREE ENERGY PREDICTED BY IDOCK:  -12.34 KCAL/MOL
REMARK 923 INTER-LIGAND FREE ENERGY PREDICTED BY IDOCK:  -10.37 KCAL/MOL
REMARK 924 INTRA-LIGAND FREE ENERGY PREDICTED BY IDOCK:   -1.98 KCAL/MOL
REMARK 927      BINDING AFFINITY PREDICTED BY RF-SCORE:    0.00 PKD
ROOT
HETATM    1  C   UNL     1     -13.473   7.093  71.462  1.00  0.00    -0.411 C  
HETATM    2  C   UNL     1     -11.983   7.280  71.123  1.00  0.00    -0.363 C  
HETATM    3  C   UNL     1     -11.621   6.424  69.884  1.00  0.00    -0.422 C  
ENDROOT
BRANCH   2   4
HETATM    4  C   UNL     1     -11.738   8.752  70.729  1.00  0.00    -0.219 C  
HETATM    5  O   UNL     1     -12.966   9.451  70.545  1.00  0.00    -0.504 OA 
HETATM    6  H   UNL     1     -12.815  10.357  70.302  1.00  0.00     0.000 HD 
ENDBRANCH   2   4
BRANCH   2   7
HETATM    7  C   UNL     1     -11.072   6.901  72.333  1.00  0.00    -0.260 C  
HETATM    8  O   UNL     1     -11.492   7.518  73.562  1.00  0.00    -0.608 OA 
HETATM    9  H   UNL     1     -10.938   7.287  74.298  1.00  0.00     0.000 HD 
BRANCH   7  10
HETATM   10  C   UNL     1     -10.938   5.385  72.598  1.00  0.00    -0.268 C  
HETATM   11  O   UNL     1     -11.761   4.706  73.205  1.00  0.00    -0.290 OA 
HETATM   12  N   UNL     1      -9.818   4.832  72.017  1.00  0.00    -0.169 N  
HETATM   13  H   UNL     1      -9.125   5.440  71.580  1.00  0.00     0.000 HD 
BRANCH  12  14
HETATM   14  C   UNL     1      -9.612   3.401  72.018  1.00  0.00    -0.144 C  
BRANCH  14  15
HETATM   15  C   UNL     1      -9.327   2.832  70.632  1.00  0.00    -0.218 C  
BRANCH  15  16
HETATM   16  C   UNL     1      -8.403   3.780  69.901  1.00  0.00    -0.055 C  
HETATM   17  O   UNL     1      -7.301   4.082  70.348  1.00  0.00    -0.041 OA 
HETATM   18  N   UNL     1      -8.897   4.237  68.701  1.00  0.00    -0.097 N  
HETATM   19  H   UNL     1      -9.805   3.883  68.402  1.00  0.00     0.000 HD 
BRANCH  18  20
HETATM   20  C   UNL     1      -8.222   5.192  67.817  1.00  0.00    -0.098 C  
BRANCH  20  21
HETATM   21  C   UNL     1      -8.431   6.681  68.108  1.00  0.00    -0.116 C  
BRANCH  21  22
HETATM   22  S   UNL     1      -7.405   7.822  67.104  1.00  0.00    -0.093 SA 
BRANCH  22  23
HETATM   23  S   UNL     1      -8.340   7.853  65.268  1.00  0.00    -0.103 SA 
BRANCH  23  24
HETATM   24  C   UNL     1      -8.561   9.643  65.002  1.00  0.00    -0.162 C  
BRANCH  24  25
HETATM   25  C   UNL     1      -8.914   9.946  63.544  1.00  0.00    -0.252 C  
BRANCH  25  26
HETATM   26  N   UNL     1     -10.292  10.378  63.323  1.00  0.00    -0.415 N  
HETATM   27  H   UNL     1     -10.991   9.666  63.111  1.00  0.00     0.000 HD 
HETATM   28  C   UNL     1     -10.698  11.694  63.386  1.00  0.00    -0.391 C  
HETATM   29  O   UNL     1      -9.935  12.635  63.578  1.00  0.00    -0.359 OA 
BRANCH  28  30
HETATM   30  C   UNL     1     -12.189  11.897  63.237  1.00  0.00    -0.487 C  
BRANCH  30  31
HETATM   31  C   UNL     1     -12.585  13.259  63.798  1.00  0.00    -0.135 C  
BRANCH  31  32
HETATM   32  N   UNL     1     -12.673  13.249  65.246  1.00  0.00    -0.629 N  
HETATM   33  H   UNL     1     -13.324  12.604  65.694  1.00  0.00     0.000 HD 
HETATM   34  C   UNL     1     -11.911  14.077  66.036  1.00  0.00    -0.388 C  
HETATM   35  O   UNL     1     -11.169  14.947  65.589  1.00  0.00    -0.341 OA 
BRANCH  34  36
HETATM   36  C   UNL     1     -12.124  13.868  67.552  1.00  0.00    -0.331 C  
HETATM   37  O   UNL     1     -12.288  15.137  68.205  1.00  0.00    -0.499 OA 
HETATM   38  H   UNL     1     -12.419  15.007  69.137  1.00  0.00     0.000 HD 
BRANCH  36  39
HETATM   39  C   UNL     1     -10.982  13.061  68.231  1.00  0.00    -0.285 C  
HETATM   40  C   UNL     1     -11.460  12.397  69.539  1.00  0.00    -0.309 C  
HETATM   41  C   UNL     1     -10.537  11.929  67.276  1.00  0.00    -0.261 C  
BRANCH  39  42
HETATM   42  C   UNL     1      -9.776  13.989  68.516  1.00  0.00    -0.215 C  
HETATM   43  O   UNL     1      -9.950  14.728  69.721  1.00  0.00    -0.430 OA 
HETATM   44  H   UNL     1      -9.211  15.298  69.895  1.00  0.00     0.000 HD 
ENDBRANCH  39  42
ENDBRANCH  36  39
ENDBRANCH  34  36
ENDBRANCH  31  32
ENDBRANCH  30  31
ENDBRANCH  28  30
ENDBRANCH  25  26
ENDBRANCH  24  25
ENDBRANCH  23  24
ENDBRANCH  22  23
ENDBRANCH  21  22
ENDBRANCH  20  21
ENDBRANCH  18  20
ENDBRANCH  15  16
ENDBRANCH  14  15
ENDBRANCH  12  14
ENDBRANCH   7  10
ENDBRANCH   2   7
TORSDOF 19
ENDMDL
MODEL      104
REMARK 921   NORMALIZED FREE ENERGY PREDICTED BY IDOCK:   -4.81 KCAL/MOL
REMARK 922        TOTAL FREE ENERGY PREDICTED BY IDOCK:  -12.34 KCAL/MOL
REMARK 923 INTER-LIGAND FREE ENERGY PREDICTED BY IDOCK:  -10.95 KCAL/MOL
REMARK 924 INTRA-LIGAND FREE ENERGY PREDICTED BY IDOCK:   -1.39 KCAL/MOL
REMARK 927      BINDING AFFINITY PREDICTED BY RF-SCORE:    0.00 PKD
ROOT
HETATM    1  C   UNL     1     -11.202   9.037  70.582  1.00  0.00    -0.318 C  
HETATM    2  C   UNL     1     -11.764   7.932  71.496  1.00  0.00    -0.317 C  
HETATM    3  C   UNL     1     -10.950   7.884  72.813  1.00  0.00    -0.456 C  
ENDROOT
BRANCH   2   4
HETATM    4  C   UNL     1     -13.214   8.292  71.886  1.00  0.00    -0.344 C  
HETATM    5  O   UNL     1     -14.141   7.853  70.896  1.00  0.00    -0.627 OA 
HETATM    6  H   UNL     1     -15.033   8.075  71.136  1.00  0.00     0.000 HD 
ENDBRANCH   2   4
BRANCH   2   7
HETATM    7  C   UNL     1     -11.739   6.541  70.789  1.00  0.00    -0.366 C  
HETATM    8  O   UNL     1     -12.029   6.625  69.383  1.00  0.00    -0.611 OA 
HETATM    9  H   UNL     1     -12.013   5.778  68.953  1.00  0.00     0.000 HD 
BRANCH   7  10
HETATM   10  C   UNL     1     -10.419   5.754  70.944  1.00  0.00    -0.252 C  
HETATM   11  O   UNL     1     -10.227   4.870  71.773  1.00  0.00    -0.195 OA 
HETATM   12  N   UNL     1      -9.476   6.089  69.998  1.00  0.00    -0.155 N  
HETATM   13  H   UNL     1      -9.649   6.874  69.370  1.00  0.00     0.000 HD 
BRANCH  12  14
HETATM   14  C   UNL     1      -8.243   5.342  69.884  1.00  0.00    -0.096 C  
BRANCH  14  15
HETATM   15  C   UNL     1      -7.589   5.466  68.512  1.00  0.00    -0.083 C  
BRANCH  15  16
HETATM   16  C   UNL     1      -7.578   6.924  68.111  1.00  0.00    -0.108 C  
HETATM   17  O   UNL     1      -7.288   7.811  68.907  1.00  0.00    -0.082 OA 
HETATM   18  N   UNL     1      -7.889   7.150  66.790  1.00  0.00    -0.101 N  
HETATM   19  H   UNL     1      -8.066   6.335  66.204  1.00  0.00     0.000 HD 
BRANCH  18  20
HETATM   20  C   UNL     1      -7.986   8.468  66.157  1.00  0.00    -0.102 C  
BRANCH  20  21
HETATM   21  C   UNL     1      -9.387   9.069  66.006  1.00  0.00    -0.242 C  
BRANCH  21  22
HETATM   22  S   UNL     1      -9.443  10.899  65.902  1.00  0.00    -0.218 SA 
BRANCH  22  23
HETATM   23  S   UNL     1     -10.438  11.270  64.137  1.00  0.00    -0.392 SA 
BRANCH  23  24
HETATM   24  C   UNL     1     -11.828  12.300  64.712  1.00  0.00    -0.364 C  
BRANCH  24  25
HETATM   25  C   UNL     1     -11.882  12.351  66.241  1.00  0.00    -0.364 C  
BRANCH  25  26
HETATM   26  N   UNL     1     -11.415  13.603  66.830  1.00  0.00    -0.330 N  
HETATM   27  H   UNL     1     -11.380  14.432  66.236  1.00  0.00     0.000 HD 
HETATM   28  C   UNL     1     -11.020  13.727  68.146  1.00  0.00    -0.246 C  
HETATM   29  O   UNL     1     -10.970  12.788  68.934  1.00  0.00    -0.245 OA 
BRANCH  28  30
HETATM   30  C   UNL     1     -10.684  15.139  68.569  1.00  0.00    -0.240 C  
BRANCH  30  31
HETATM   31  C   UNL     1     -11.020  16.110  67.442  1.00  0.00    -0.210 C  
BRANCH  31  32
HETATM   32  N   UNL     1     -10.408  17.411  67.640  1.00  0.00    -0.342 N  
HETATM   33  H   UNL     1     -10.188  17.710  68.590  1.00  0.00     0.000 HD 
HETATM   34  C   UNL     1     -10.115  18.254  66.595  1.00  0.00    -0.375 C  
HETATM   35  O   UNL     1     -10.426  18.022  65.430  1.00  0.00    -0.621 OA 
BRANCH  34  36
HETATM   36  C   UNL     1      -9.421  19.566  67.023  1.00  0.00    -0.337 C  
HETATM   37  O   UNL     1      -9.625  20.578  66.025  1.00  0.00    -0.654 OA 
HETATM   38  H   UNL     1      -9.197  21.385  66.289  1.00  0.00     0.000 HD 
BRANCH  36  39
HETATM   39  C   UNL     1      -7.902  19.396  67.310  1.00  0.00    -0.285 C  
HETATM   40  C   UNL     1      -7.314  18.195  66.541  1.00  0.00    -0.267 C  
HETATM   41  C   UNL     1      -7.160  20.663  66.823  1.00  0.00    -0.328 C  
BRANCH  39  42
HETATM   42  C   UNL     1      -7.668  19.221  68.830  1.00  0.00    -0.362 C  
HETATM   43  O   UNL     1      -6.459  19.843  69.254  1.00  0.00    -0.313 OA 
HETATM   44  H   UNL     1      -6.315  19.736  70.187  1.00  0.00     0.000 HD 
ENDBRANCH  39  42
ENDBRANCH  36  39
ENDBRANCH  34  36
ENDBRANCH  31  32
ENDBRANCH  30  31
ENDBRANCH  28  30
ENDBRANCH  25  26
ENDBRANCH  24  25
ENDBRANCH  23  24
ENDBRANCH  22  23
ENDBRANCH  21  22
ENDBRANCH  20  21
ENDBRANCH  18  20
ENDBRANCH  15  16
ENDBRANCH  14  15
ENDBRANCH  12  14
ENDBRANCH   7  10
ENDBRANCH   2   7
TORSDOF 19
ENDMDL
MODEL      105
REMARK 921   NORMALIZED FREE ENERGY PREDICTED BY IDOCK:   -4.81 KCAL/MOL
REMARK 922        TOTAL FREE ENERGY PREDICTED BY IDOCK:  -12.33 KCAL/MOL
REMARK 923 INTER-LIGAND FREE ENERGY PREDICTED BY IDOCK:  -10.73 KCAL/MOL
REMARK 924 INTRA-LIGAND FREE ENERGY PREDICTED BY IDOCK:   -1.60 KCAL/MOL
REMARK 927      BINDING AFFINITY PREDICTED BY RF-SCORE:    0.00 PKD
ROOT
HETATM    1  C   UNL     1     -11.815   6.902  70.355  1.00  0.00    -0.351 C  
HETATM    2  C   UNL     1     -11.788   8.240  71.117  1.00  0.00    -0.302 C  
HETATM    3  C   UNL     1     -10.995   9.288  70.297  1.00  0.00    -0.286 C  
ENDROOT
BRANCH   2   4
HETATM    4  C   UNL     1     -13.230   8.777  71.242  1.00  0.00    -0.164 C  
HETATM    5  O   UNL     1     -14.183   7.718  71.199  1.00  0.00    -0.639 OA 
HETATM    6  H   UNL     1     -15.071   8.048  71.276  1.00  0.00     0.000 HD 
ENDBRANCH   2   4
BRANCH   2   7
HETATM    7  C   UNL     1     -11.163   8.073  72.537  1.00  0.00    -0.388 C  
HETATM    8  O   UNL     1     -11.764   7.004  73.289  1.00  0.00    -0.417 OA 
HETATM    9  H   UNL     1     -11.384   6.903  74.153  1.00  0.00     0.000 HD 
BRANCH   7  10
HETATM   10  C   UNL     1      -9.635   7.849  72.556  1.00  0.00    -0.216 C  
HETATM   11  O   UNL     1      -8.816   8.655  72.988  1.00  0.00    -0.355 OA 
HETATM   12  N   UNL     1      -9.265   6.604  72.098  1.00  0.00    -0.139 N  
HETATM   13  H   UNL     1      -9.968   5.990  71.685  1.00  0.00     0.000 HD 
BRANCH  12  14
HETATM   14  C   UNL     1      -7.894   6.155  72.196  1.00  0.00    -0.101 C  
BRANCH  14  15
HETATM   15  C   UNL     1      -7.106   6.341  70.903  1.00  0.00    -0.070 C  
BRANCH  15  16
HETATM   16  C   UNL     1      -8.063   6.240  69.736  1.00  0.00    -0.120 C  
HETATM   17  O   UNL     1      -8.732   5.232  69.533  1.00  0.00    -0.102 OA 
HETATM   18  N   UNL     1      -8.127   7.373  68.958  1.00  0.00    -0.125 N  
HETATM   19  H   UNL     1      -7.562   8.172  69.245  1.00  0.00     0.000 HD 
BRANCH  18  20
HETATM   20  C   UNL     1      -8.942   7.525  67.749  1.00  0.00    -0.131 C  
BRANCH  20  21
HETATM   21  C   UNL     1      -8.446   8.516  66.692  1.00  0.00    -0.113 C  
BRANCH  21  22
HETATM   22  S   UNL     1      -8.272  10.248  67.269  1.00  0.00    -0.121 SA 
BRANCH  22  23
HETATM   23  S   UNL     1      -9.759  11.261  66.265  1.00  0.00    -0.225 SA 
BRANCH  23  24
HETATM   24  C   UNL     1      -9.651  10.515  64.605  1.00  0.00    -0.292 C  
BRANCH  24  25
HETATM   25  C   UNL     1     -10.169  11.476  63.532  1.00  0.00    -0.420 C  
BRANCH  25  26
HETATM   26  N   UNL     1     -10.599  12.779  64.032  1.00  0.00    -0.414 N  
HETATM   27  H   UNL     1      -9.921  13.350  64.537  1.00  0.00     0.000 HD 
HETATM   28  C   UNL     1     -11.873  13.280  63.859  1.00  0.00    -0.465 C  
HETATM   29  O   UNL     1     -12.782  12.660  63.318  1.00  0.00    -0.669 OA 
BRANCH  28  30
HETATM   30  C   UNL     1     -12.062  14.694  64.358  1.00  0.00    -0.481 C  
BRANCH  30  31
HETATM   31  C   UNL     1     -11.656  14.784  65.826  1.00  0.00    -0.290 C  
BRANCH  31  32
HETATM   32  N   UNL     1     -10.488  15.622  66.020  1.00  0.00    -0.315 N  
HETATM   33  H   UNL     1      -9.763  15.629  65.302  1.00  0.00     0.000 HD 
HETATM   34  C   UNL     1     -10.322  16.407  67.137  1.00  0.00    -0.290 C  
HETATM   35  O   UNL     1     -11.091  16.396  68.093  1.00  0.00    -0.352 OA 
BRANCH  34  36
HETATM   36  C   UNL     1      -9.033  17.259  67.118  1.00  0.00    -0.226 C  
HETATM   37  O   UNL     1      -8.195  16.905  68.229  1.00  0.00    -0.205 OA 
HETATM   38  H   UNL     1      -7.402  17.429  68.217  1.00  0.00     0.000 HD 
BRANCH  36  39
HETATM   39  C   UNL     1      -9.303  18.789  67.118  1.00  0.00    -0.315 C  
HETATM   40  C   UNL     1      -8.263  19.546  66.267  1.00  0.00    -0.354 C  
HETATM   41  C   UNL     1     -10.692  19.049  66.487  1.00  0.00    -0.412 C  
BRANCH  39  42
HETATM   42  C   UNL     1      -9.296  19.327  68.570  1.00  0.00    -0.388 C  
HETATM   43  O   UNL     1     -10.386  18.815  69.330  1.00  0.00    -0.476 OA 
HETATM   44  H   UNL     1     -10.381  19.145  70.220  1.00  0.00     0.000 HD 
ENDBRANCH  39  42
ENDBRANCH  36  39
ENDBRANCH  34  36
ENDBRANCH  31  32
ENDBRANCH  30  31
ENDBRANCH  28  30
ENDBRANCH  25  26
ENDBRANCH  24  25
ENDBRANCH  23  24
ENDBRANCH  22  23
ENDBRANCH  21  22
ENDBRANCH  20  21
ENDBRANCH  18  20
ENDBRANCH  15  16
ENDBRANCH  14  15
ENDBRANCH  12  14
ENDBRANCH   7  10
ENDBRANCH   2   7
TORSDOF 19
ENDMDL
MODEL      106
REMARK 921   NORMALIZED FREE ENERGY PREDICTED BY IDOCK:   -4.81 KCAL/MOL
REMARK 922        TOTAL FREE ENERGY PREDICTED BY IDOCK:  -12.32 KCAL/MOL
REMARK 923 INTER-LIGAND FREE ENERGY PREDICTED BY IDOCK:  -10.52 KCAL/MOL
REMARK 924 INTRA-LIGAND FREE ENERGY PREDICTED BY IDOCK:   -1.80 KCAL/MOL
REMARK 927      BINDING AFFINITY PREDICTED BY RF-SCORE:    0.00 PKD
ROOT
HETATM    1  C   UNL     1      -9.945   7.091  71.859  1.00  0.00    -0.179 C  
HETATM    2  C   UNL     1     -11.415   6.769  71.532  1.00  0.00    -0.329 C  
HETATM    3  C   UNL     1     -11.516   6.210  70.091  1.00  0.00    -0.365 C  
ENDROOT
BRANCH   2   4
HETATM    4  C   UNL     1     -11.906   5.650  72.475  1.00  0.00    -0.134 C  
HETATM    5  O   UNL     1     -11.041   5.500  73.598  1.00  0.00    -0.421 OA 
HETATM    6  H   UNL     1     -11.343   4.811  74.178  1.00  0.00     0.000 HD 
ENDBRANCH   2   4
BRANCH   2   7
HETATM    7  C   UNL     1     -12.322   8.029  71.693  1.00  0.00    -0.314 C  
HETATM    8  O   UNL     1     -12.675   8.291  73.062  1.00  0.00    -0.694 OA 
HETATM    9  H   UNL     1     -13.227   9.057  73.160  1.00  0.00     0.000 HD 
BRANCH   7  10
HETATM   10  C   UNL     1     -11.738   9.333  71.107  1.00  0.00    -0.325 C  
HETATM   11  O   UNL     1     -10.912  10.044  71.672  1.00  0.00     0.005 OA 
HETATM   12  N   UNL     1     -12.182   9.598  69.831  1.00  0.00    -0.329 N  
HETATM   13  H   UNL     1     -12.918   9.020  69.423  1.00  0.00     0.000 HD 
BRANCH  12  14
HETATM   14  C   UNL     1     -11.619  10.684  69.061  1.00  0.00    -0.261 C  
BRANCH  14  15
HETATM   15  C   UNL     1     -11.228  10.279  67.643  1.00  0.00    -0.232 C  
BRANCH  15  16
HETATM   16  C   UNL     1     -10.077   9.301  67.720  1.00  0.00    -0.204 C  
HETATM   17  O   UNL     1      -9.386   9.194  68.728  1.00  0.00    -0.139 OA 
HETATM   18  N   UNL     1      -9.902   8.543  66.585  1.00  0.00    -0.249 N  
HETATM   19  H   UNL     1     -10.565   8.680  65.823  1.00  0.00     0.000 HD 
BRANCH  18  20
HETATM   20  C   UNL     1      -8.841   7.553  66.385  1.00  0.00    -0.156 C  
BRANCH  20  21
HETATM   21  C   UNL     1      -7.697   7.937  65.441  1.00  0.00    -0.097 C  
BRANCH  21  22
HETATM   22  S   UNL     1      -7.600   9.719  65.020  1.00  0.00    -0.132 SA 
BRANCH  22  23
HETATM   23  S   UNL     1      -7.923   9.772  62.986  1.00  0.00    -0.148 SA 
BRANCH  23  24
HETATM   24  C   UNL     1      -9.676  10.264  62.908  1.00  0.00    -0.152 C  
BRANCH  24  25
HETATM   25  C   UNL     1      -9.839  11.767  63.151  1.00  0.00    -0.336 C  
BRANCH  25  26
HETATM   26  N   UNL     1     -10.574  12.116  64.364  1.00  0.00    -0.301 N  
HETATM   27  H   UNL     1     -10.294  11.677  65.241  1.00  0.00     0.000 HD 
HETATM   28  C   UNL     1     -11.626  13.008  64.388  1.00  0.00    -0.369 C  
HETATM   29  O   UNL     1     -12.082  13.552  63.388  1.00  0.00    -0.521 OA 
BRANCH  28  30
HETATM   30  C   UNL     1     -12.163  13.305  65.770  1.00  0.00    -0.510 C  
BRANCH  30  31
HETATM   31  C   UNL     1     -11.060  13.904  66.636  1.00  0.00    -0.306 C  
BRANCH  31  32
HETATM   32  N   UNL     1     -11.183  15.345  66.758  1.00  0.00    -0.256 N  
HETATM   33  H   UNL     1     -11.932  15.728  67.334  1.00  0.00     0.000 HD 
HETATM   34  C   UNL     1     -10.324  16.213  66.124  1.00  0.00    -0.339 C  
HETATM   35  O   UNL     1      -9.452  15.851  65.340  1.00  0.00    -0.355 OA 
BRANCH  34  36
HETATM   36  C   UNL     1     -10.601  17.702  66.430  1.00  0.00    -0.208 C  
HETATM   37  O   UNL     1     -10.555  18.468  65.216  1.00  0.00    -0.509 OA 
HETATM   38  H   UNL     1     -10.725  19.384  65.404  1.00  0.00     0.000 HD 
BRANCH  36  39
HETATM   39  C   UNL     1      -9.631  18.308  67.482  1.00  0.00    -0.282 C  
HETATM   40  C   UNL     1     -10.085  19.714  67.925  1.00  0.00    -0.543 C  
HETATM   41  C   UNL     1      -9.634  17.406  68.739  1.00  0.00    -0.267 C  
BRANCH  39  42
HETATM   42  C   UNL     1      -8.196  18.370  66.904  1.00  0.00    -0.247 C  
HETATM   43  O   UNL     1      -8.034  19.465  66.007  1.00  0.00    -0.314 OA 
HETATM   44  H   UNL     1      -7.154  19.503  65.652  1.00  0.00     0.000 HD 
ENDBRANCH  39  42
ENDBRANCH  36  39
ENDBRANCH  34  36
ENDBRANCH  31  32
ENDBRANCH  30  31
ENDBRANCH  28  30
ENDBRANCH  25  26
ENDBRANCH  24  25
ENDBRANCH  23  24
ENDBRANCH  22  23
ENDBRANCH  21  22
ENDBRANCH  20  21
ENDBRANCH  18  20
ENDBRANCH  15  16
ENDBRANCH  14  15
ENDBRANCH  12  14
ENDBRANCH   7  10
ENDBRANCH   2   7
TORSDOF 19
ENDMDL
MODEL      107
REMARK 921   NORMALIZED FREE ENERGY PREDICTED BY IDOCK:   -4.80 KCAL/MOL
REMARK 922        TOTAL FREE ENERGY PREDICTED BY IDOCK:  -12.30 KCAL/MOL
REMARK 923 INTER-LIGAND FREE ENERGY PREDICTED BY IDOCK:  -10.74 KCAL/MOL
REMARK 924 INTRA-LIGAND FREE ENERGY PREDICTED BY IDOCK:   -1.57 KCAL/MOL
REMARK 927      BINDING AFFINITY PREDICTED BY RF-SCORE:    0.00 PKD
ROOT
HETATM    1  C   UNL     1     -13.371   7.297  71.458  1.00  0.00    -0.435 C  
HETATM    2  C   UNL     1     -11.874   7.456  71.130  1.00  0.00    -0.330 C  
HETATM    3  C   UNL     1     -11.498   6.519  69.956  1.00  0.00    -0.476 C  
ENDROOT
BRANCH   2   4
HETATM    4  C   UNL     1     -11.616   8.898  70.645  1.00  0.00    -0.215 C  
HETATM    5  O   UNL     1     -12.837   9.607  70.452  1.00  0.00    -0.510 OA 
HETATM    6  H   UNL     1     -12.678  10.495  70.153  1.00  0.00     0.000 HD 
ENDBRANCH   2   4
BRANCH   2   7
HETATM    7  C   UNL     1     -10.984   7.152  72.376  1.00  0.00    -0.251 C  
HETATM    8  O   UNL     1     -11.442   7.819  73.565  1.00  0.00    -0.548 OA 
HETATM    9  H   UNL     1     -10.901   7.634  74.323  1.00  0.00     0.000 HD 
BRANCH   7  10
HETATM   10  C   UNL     1     -10.828   5.653  72.717  1.00  0.00    -0.261 C  
HETATM   11  O   UNL     1     -11.712   4.951  73.199  1.00  0.00    -0.315 OA 
HETATM   12  N   UNL     1      -9.601   5.143  72.357  1.00  0.00    -0.147 N  
HETATM   13  H   UNL     1      -8.871   5.773  72.023  1.00  0.00     0.000 HD 
BRANCH  12  14
HETATM   14  C   UNL     1      -9.332   3.725  72.448  1.00  0.00    -0.119 C  
BRANCH  14  15
HETATM   15  C   UNL     1      -8.970   3.094  71.107  1.00  0.00    -0.164 C  
BRANCH  15  16
HETATM   16  C   UNL     1      -7.982   3.994  70.401  1.00  0.00    -0.051 C  
HETATM   17  O   UNL     1      -6.887   4.260  70.886  1.00  0.00    -0.034 OA 
HETATM   18  N   UNL     1      -8.410   4.453  69.176  1.00  0.00    -0.078 N  
HETATM   19  H   UNL     1      -9.319   4.131  68.847  1.00  0.00     0.000 HD 
BRANCH  18  20
HETATM   20  C   UNL     1      -7.664   5.368  68.307  1.00  0.00    -0.081 C  
BRANCH  20  21
HETATM   21  C   UNL     1      -7.623   6.843  68.717  1.00  0.00    -0.105 C  
BRANCH  21  22
HETATM   22  S   UNL     1      -7.070   8.000  67.406  1.00  0.00    -0.084 SA 
BRANCH  22  23
HETATM   23  S   UNL     1      -8.685   8.119  66.131  1.00  0.00    -0.163 SA 
BRANCH  23  24
HETATM   24  C   UNL     1      -8.572   9.848  65.561  1.00  0.00    -0.145 C  
BRANCH  24  25
HETATM   25  C   UNL     1      -9.193  10.013  64.173  1.00  0.00    -0.271 C  
BRANCH  25  26
HETATM   26  N   UNL     1     -10.515  10.635  64.162  1.00  0.00    -0.429 N  
HETATM   27  H   UNL     1     -11.291  10.125  64.584  1.00  0.00     0.000 HD 
HETATM   28  C   UNL     1     -10.771  11.874  63.612  1.00  0.00    -0.442 C  
HETATM   29  O   UNL     1      -9.928  12.549  63.031  1.00  0.00    -0.121 OA 
BRANCH  28  30
HETATM   30  C   UNL     1     -12.184  12.369  63.815  1.00  0.00    -0.626 C  
BRANCH  30  31
HETATM   31  C   UNL     1     -12.171  13.865  64.112  1.00  0.00    -0.393 C  
BRANCH  31  32
HETATM   32  N   UNL     1     -11.044  14.249  64.941  1.00  0.00    -0.370 N  
HETATM   33  H   UNL     1     -10.575  13.532  65.495  1.00  0.00     0.000 HD 
HETATM   34  C   UNL     1     -10.586  15.543  65.008  1.00  0.00    -0.409 C  
HETATM   35  O   UNL     1     -11.140  16.488  64.452  1.00  0.00    -0.894 OA 
BRANCH  34  36
HETATM   36  C   UNL     1      -9.345  15.723  65.910  1.00  0.00    -0.321 C  
HETATM   37  O   UNL     1      -8.791  14.440  66.244  1.00  0.00    -0.475 OA 
HETATM   38  H   UNL     1      -8.028  14.551  66.799  1.00  0.00     0.000 HD 
BRANCH  36  39
HETATM   39  C   UNL     1      -9.634  16.534  67.204  1.00  0.00    -0.243 C  
HETATM   40  C   UNL     1     -10.980  16.126  67.837  1.00  0.00    -0.318 C  
HETATM   41  C   UNL     1      -8.526  16.228  68.240  1.00  0.00    -0.187 C  
BRANCH  39  42
HETATM   42  C   UNL     1      -9.632  18.050  66.889  1.00  0.00    -0.295 C  
HETATM   43  O   UNL     1      -8.793  18.359  65.781  1.00  0.00    -0.433 OA 
HETATM   44  H   UNL     1      -8.791  19.289  65.588  1.00  0.00     0.000 HD 
ENDBRANCH  39  42
ENDBRANCH  36  39
ENDBRANCH  34  36
ENDBRANCH  31  32
ENDBRANCH  30  31
ENDBRANCH  28  30
ENDBRANCH  25  26
ENDBRANCH  24  25
ENDBRANCH  23  24
ENDBRANCH  22  23
ENDBRANCH  21  22
ENDBRANCH  20  21
ENDBRANCH  18  20
ENDBRANCH  15  16
ENDBRANCH  14  15
ENDBRANCH  12  14
ENDBRANCH   7  10
ENDBRANCH   2   7
TORSDOF 19
ENDMDL
MODEL      108
REMARK 921   NORMALIZED FREE ENERGY PREDICTED BY IDOCK:   -4.79 KCAL/MOL
REMARK 922        TOTAL FREE ENERGY PREDICTED BY IDOCK:  -12.30 KCAL/MOL
REMARK 923 INTER-LIGAND FREE ENERGY PREDICTED BY IDOCK:  -10.63 KCAL/MOL
REMARK 924 INTRA-LIGAND FREE ENERGY PREDICTED BY IDOCK:   -1.67 KCAL/MOL
REMARK 927      BINDING AFFINITY PREDICTED BY RF-SCORE:    0.00 PKD
ROOT
HETATM    1  C   UNL     1     -11.005   9.339  71.415  1.00  0.00    -0.429 C  
HETATM    2  C   UNL     1     -11.738   8.048  71.824  1.00  0.00    -0.335 C  
HETATM    3  C   UNL     1     -11.274   7.613  73.236  1.00  0.00    -0.167 C  
ENDROOT
BRANCH   2   4
HETATM    4  C   UNL     1     -13.250   8.338  71.926  1.00  0.00    -0.344 C  
HETATM    5  O   UNL     1     -13.594   8.852  73.210  1.00  0.00    -1.012 OA 
HETATM    6  H   UNL     1     -14.525   9.031  73.273  1.00  0.00     0.000 HD 
ENDBRANCH   2   4
BRANCH   2   7
HETATM    7  C   UNL     1     -11.490   6.903  70.792  1.00  0.00    -0.335 C  
HETATM    8  O   UNL     1     -11.632   7.339  69.430  1.00  0.00    -0.473 OA 
HETATM    9  H   UNL     1     -11.481   6.643  68.802  1.00  0.00     0.000 HD 
BRANCH   7  10
HETATM   10  C   UNL     1     -10.120   6.200  70.914  1.00  0.00    -0.192 C  
HETATM   11  O   UNL     1      -9.037   6.738  70.697  1.00  0.00    -0.154 OA 
HETATM   12  N   UNL     1     -10.216   4.904  71.368  1.00  0.00    -0.202 N  
HETATM   13  H   UNL     1     -11.135   4.473  71.471  1.00  0.00     0.000 HD 
BRANCH  12  14
HETATM   14  C   UNL     1      -9.031   4.145  71.700  1.00  0.00    -0.119 C  
BRANCH  14  15
HETATM   15  C   UNL     1      -8.692   3.075  70.667  1.00  0.00    -0.131 C  
BRANCH  15  16
HETATM   16  C   UNL     1      -7.368   3.425  70.025  1.00  0.00    -0.041 C  
HETATM   17  O   UNL     1      -6.355   2.765  70.232  1.00  0.00    -0.026 OA 
HETATM   18  N   UNL     1      -7.418   4.512  69.184  1.00  0.00    -0.056 N  
HETATM   19  H   UNL     1      -8.324   4.958  69.046  1.00  0.00     0.000 HD 
BRANCH  18  20
HETATM   20  C   UNL     1      -6.272   5.082  68.469  1.00  0.00    -0.031 C  
BRANCH  20  21
HETATM   21  C   UNL     1      -6.376   5.176  66.944  1.00  0.00    -0.040 C  
BRANCH  21  22
HETATM   22  S   UNL     1      -7.965   4.597  66.235  1.00  0.00    -0.103 SA 
BRANCH  22  23
HETATM   23  S   UNL     1      -9.238   6.199  66.486  1.00  0.00    -0.150 SA 
BRANCH  23  24
HETATM   24  C   UNL     1      -8.417   7.477  65.479  1.00  0.00    -0.119 C  
BRANCH  24  25
HETATM   25  C   UNL     1      -8.959   8.871  65.806  1.00  0.00    -0.203 C  
BRANCH  25  26
HETATM   26  N   UNL     1      -9.352   9.665  64.645  1.00  0.00    -0.389 N  
HETATM   27  H   UNL     1      -8.884   9.483  63.756  1.00  0.00     0.000 HD 
HETATM   28  C   UNL     1     -10.320  10.646  64.683  1.00  0.00    -0.283 C  
HETATM   29  O   UNL     1     -10.906  10.986  65.706  1.00  0.00    -0.201 OA 
BRANCH  28  30
HETATM   30  C   UNL     1     -10.644  11.260  63.340  1.00  0.00    -0.393 C  
BRANCH  30  31
HETATM   31  C   UNL     1     -11.826  12.214  63.478  1.00  0.00    -0.505 C  
BRANCH  31  32
HETATM   32  N   UNL     1     -11.425  13.511  63.991  1.00  0.00    -0.568 N  
HETATM   33  H   UNL     1     -10.605  13.965  63.591  1.00  0.00     0.000 HD 
HETATM   34  C   UNL     1     -12.111  14.148  64.998  1.00  0.00    -0.421 C  
HETATM   35  O   UNL     1     -13.052  13.642  65.603  1.00  0.00    -0.549 OA 
BRANCH  34  36
HETATM   36  C   UNL     1     -11.546  15.540  65.358  1.00  0.00     0.061 C  
HETATM   37  O   UNL     1     -10.974  16.154  64.191  1.00  0.00    -1.061 OA 
HETATM   38  H   UNL     1     -10.626  17.010  64.413  1.00  0.00     0.000 HD 
BRANCH  36  39
HETATM   39  C   UNL     1     -10.503  15.506  66.509  1.00  0.00    -0.301 C  
HETATM   40  C   UNL     1      -9.080  15.242  65.975  1.00  0.00    -0.244 C  
HETATM   41  C   UNL     1     -10.484  16.888  67.205  1.00  0.00    -0.296 C  
BRANCH  39  42
HETATM   42  C   UNL     1     -10.893  14.422  67.543  1.00  0.00    -0.282 C  
HETATM   43  O   UNL     1     -12.085  14.762  68.243  1.00  0.00    -0.537 OA 
HETATM   44  H   UNL     1     -12.324  14.097  68.878  1.00  0.00     0.000 HD 
ENDBRANCH  39  42
ENDBRANCH  36  39
ENDBRANCH  34  36
ENDBRANCH  31  32
ENDBRANCH  30  31
ENDBRANCH  28  30
ENDBRANCH  25  26
ENDBRANCH  24  25
ENDBRANCH  23  24
ENDBRANCH  22  23
ENDBRANCH  21  22
ENDBRANCH  20  21
ENDBRANCH  18  20
ENDBRANCH  15  16
ENDBRANCH  14  15
ENDBRANCH  12  14
ENDBRANCH   7  10
ENDBRANCH   2   7
TORSDOF 19
ENDMDL
MODEL      109
REMARK 921   NORMALIZED FREE ENERGY PREDICTED BY IDOCK:   -4.79 KCAL/MOL
REMARK 922        TOTAL FREE ENERGY PREDICTED BY IDOCK:  -12.29 KCAL/MOL
REMARK 923 INTER-LIGAND FREE ENERGY PREDICTED BY IDOCK:  -10.66 KCAL/MOL
REMARK 924 INTRA-LIGAND FREE ENERGY PREDICTED BY IDOCK:   -1.64 KCAL/MOL
REMARK 927      BINDING AFFINITY PREDICTED BY RF-SCORE:    0.00 PKD
ROOT
HETATM    1  C   UNL     1      -9.427  18.918  68.176  1.00  0.00    -0.377 C  
HETATM    2  C   UNL     1      -9.555  17.726  67.209  1.00  0.00    -0.272 C  
HETATM    3  C   UNL     1     -10.571  18.071  66.092  1.00  0.00    -0.269 C  
ENDROOT
BRANCH   2   4
HETATM    4  C   UNL     1      -8.197  17.493  66.514  1.00  0.00    -0.276 C  
HETATM    5  O   UNL     1      -7.137  18.136  67.218  1.00  0.00    -0.191 OA 
HETATM    6  H   UNL     1      -6.301  17.993  66.790  1.00  0.00     0.000 HD 
ENDBRANCH   2   4
BRANCH   2   7
HETATM    7  C   UNL     1      -9.991  16.429  67.961  1.00  0.00    -0.242 C  
HETATM    8  O   UNL     1     -11.082  16.652  68.871  1.00  0.00    -0.308 OA 
HETATM    9  H   UNL     1     -11.347  15.863  69.328  1.00  0.00     0.000 HD 
BRANCH   7  10
HETATM   10  C   UNL     1     -10.382  15.246  67.048  1.00  0.00    -0.277 C  
HETATM   11  O   UNL     1      -9.606  14.646  66.311  1.00  0.00    -0.282 OA 
HETATM   12  N   UNL     1     -11.698  14.866  67.192  1.00  0.00    -0.327 N  
HETATM   13  H   UNL     1     -12.327  15.431  67.763  1.00  0.00     0.000 HD 
BRANCH  12  14
HETATM   14  C   UNL     1     -12.201  13.676  66.543  1.00  0.00    -0.404 C  
BRANCH  14  15
HETATM   15  C   UNL     1     -12.782  13.944  65.159  1.00  0.00    -0.434 C  
BRANCH  15  16
HETATM   16  C   UNL     1     -12.287  12.875  64.211  1.00  0.00    -0.385 C  
HETATM   17  O   UNL     1     -13.060  12.158  63.583  1.00  0.00    -0.787 OA 
HETATM   18  N   UNL     1     -10.917  12.806  64.102  1.00  0.00    -0.372 N  
HETATM   19  H   UNL     1     -10.370  13.483  64.633  1.00  0.00     0.000 HD 
BRANCH  18  20
HETATM   20  C   UNL     1     -10.181  11.837  63.285  1.00  0.00    -0.416 C  
BRANCH  20  21
HETATM   21  C   UNL     1      -9.313  10.816  64.025  1.00  0.00    -0.252 C  
BRANCH  21  22
HETATM   22  S   UNL     1      -9.376  10.920  65.855  1.00  0.00    -0.209 SA 
BRANCH  22  23
HETATM   23  S   UNL     1      -7.407  10.745  66.435  1.00  0.00    -0.141 SA 
BRANCH  23  24
HETATM   24  C   UNL     1      -7.086   8.981  66.108  1.00  0.00    -0.086 C  
BRANCH  24  25
HETATM   25  C   UNL     1      -8.283   8.117  66.514  1.00  0.00    -0.107 C  
BRANCH  25  26
HETATM   26  N   UNL     1      -8.097   7.350  67.743  1.00  0.00    -0.118 N  
HETATM   27  H   UNL     1      -7.708   7.828  68.556  1.00  0.00     0.000 HD 
HETATM   28  C   UNL     1      -8.420   6.014  67.865  1.00  0.00    -0.115 C  
HETATM   29  O   UNL     1      -8.841   5.328  66.940  1.00  0.00    -0.112 OA 
BRANCH  28  30
HETATM   30  C   UNL     1      -8.251   5.454  69.259  1.00  0.00    -0.093 C  
BRANCH  30  31
HETATM   31  C   UNL     1      -9.471   4.617  69.632  1.00  0.00    -0.162 C  
BRANCH  31  32
HETATM   32  N   UNL     1     -10.382   5.336  70.502  1.00  0.00    -0.268 N  
HETATM   33  H   UNL     1     -10.328   5.178  71.508  1.00  0.00     0.000 HD 
HETATM   34  C   UNL     1     -11.316   6.223  70.019  1.00  0.00    -0.416 C  
HETATM   35  O   UNL     1     -11.517   6.410  68.823  1.00  0.00    -0.283 OA 
BRANCH  34  36
HETATM   36  C   UNL     1     -12.148   6.917  71.120  1.00  0.00    -0.381 C  
HETATM   37  O   UNL     1     -13.495   7.117  70.664  1.00  0.00    -0.497 OA 
HETATM   38  H   UNL     1     -14.007   7.544  71.341  1.00  0.00     0.000 HD 
BRANCH  36  39
HETATM   39  C   UNL     1     -11.540   8.266  71.597  1.00  0.00    -0.337 C  
HETATM   40  C   UNL     1     -12.637   9.319  71.856  1.00  0.00    -0.468 C  
HETATM   41  C   UNL     1     -10.801   8.032  72.936  1.00  0.00    -0.399 C  
BRANCH  39  42
HETATM   42  C   UNL     1     -10.534   8.793  70.546  1.00  0.00    -0.209 C  
HETATM   43  O   UNL     1     -11.186   9.510  69.503  1.00  0.00    -0.388 OA 
HETATM   44  H   UNL     1     -10.568   9.833  68.857  1.00  0.00     0.000 HD 
ENDBRANCH  39  42
ENDBRANCH  36  39
ENDBRANCH  34  36
ENDBRANCH  31  32
ENDBRANCH  30  31
ENDBRANCH  28  30
ENDBRANCH  25  26
ENDBRANCH  24  25
ENDBRANCH  23  24
ENDBRANCH  22  23
ENDBRANCH  21  22
ENDBRANCH  20  21
ENDBRANCH  18  20
ENDBRANCH  15  16
ENDBRANCH  14  15
ENDBRANCH  12  14
ENDBRANCH   7  10
ENDBRANCH   2   7
TORSDOF 19
ENDMDL
MODEL      110
REMARK 921   NORMALIZED FREE ENERGY PREDICTED BY IDOCK:   -4.79 KCAL/MOL
REMARK 922        TOTAL FREE ENERGY PREDICTED BY IDOCK:  -12.29 KCAL/MOL
REMARK 923 INTER-LIGAND FREE ENERGY PREDICTED BY IDOCK:  -10.11 KCAL/MOL
REMARK 924 INTRA-LIGAND FREE ENERGY PREDICTED BY IDOCK:   -2.18 KCAL/MOL
REMARK 927      BINDING AFFINITY PREDICTED BY RF-SCORE:    0.00 PKD
ROOT
HETATM    1  C   UNL     1     -11.226   8.584  72.175  1.00  0.00    -0.432 C  
HETATM    2  C   UNL     1     -10.800   7.131  72.454  1.00  0.00    -0.280 C  
HETATM    3  C   UNL     1     -10.379   6.990  73.938  1.00  0.00    -0.386 C  
ENDROOT
BRANCH   2   4
HETATM    4  C   UNL     1     -12.015   6.203  72.250  1.00  0.00    -0.232 C  
HETATM    5  O   UNL     1     -13.229   6.946  72.173  1.00  0.00    -0.544 OA 
HETATM    6  H   UNL     1     -13.977   6.374  72.048  1.00  0.00     0.000 HD 
ENDBRANCH   2   4
BRANCH   2   7
HETATM    7  C   UNL     1      -9.635   6.689  71.513  1.00  0.00    -0.164 C  
HETATM    8  O   UNL     1      -8.643   5.898  72.188  1.00  0.00    -0.128 OA 
HETATM    9  H   UNL     1      -7.935   5.628  71.615  1.00  0.00     0.000 HD 
BRANCH   7  10
HETATM   10  C   UNL     1     -10.074   5.908  70.255  1.00  0.00    -0.202 C  
HETATM   11  O   UNL     1     -10.162   4.685  70.187  1.00  0.00    -0.240 OA 
HETATM   12  N   UNL     1     -10.438   6.728  69.210  1.00  0.00    -0.203 N  
HETATM   13  H   UNL     1     -10.287   7.734  69.283  1.00  0.00     0.000 HD 
BRANCH  12  14
HETATM   14  C   UNL     1     -11.031   6.180  68.010  1.00  0.00    -0.305 C  
BRANCH  14  15
HETATM   15  C   UNL     1     -10.221   6.472  66.751  1.00  0.00    -0.257 C  
BRANCH  15  16
HETATM   16  C   UNL     1     -10.192   7.968  66.531  1.00  0.00    -0.158 C  
HETATM   17  O   UNL     1     -10.821   8.740  67.248  1.00  0.00    -0.214 OA 
HETATM   18  N   UNL     1      -9.388   8.371  65.490  1.00  0.00    -0.427 N  
HETATM   19  H   UNL     1      -8.871   7.648  64.990  1.00  0.00     0.000 HD 
BRANCH  18  20
HETATM   20  C   UNL     1      -9.213   9.755  65.042  1.00  0.00    -0.249 C  
BRANCH  20  21
HETATM   21  C   UNL     1      -7.974  10.501  65.545  1.00  0.00    -0.145 C  
BRANCH  21  22
HETATM   22  S   UNL     1      -6.837   9.509  66.587  1.00  0.00    -0.084 SA 
BRANCH  22  23
HETATM   23  S   UNL     1      -7.496   9.846  68.509  1.00  0.00    -0.083 SA 
BRANCH  23  24
HETATM   24  C   UNL     1      -8.182  11.530  68.369  1.00  0.00    -0.152 C  
BRANCH  24  25
HETATM   25  C   UNL     1      -9.688  11.537  68.645  1.00  0.00    -0.165 C  
BRANCH  25  26
HETATM   26  N   UNL     1     -10.372  12.777  68.284  1.00  0.00    -0.238 N  
HETATM   27  H   UNL     1     -10.037  13.649  68.694  1.00  0.00     0.000 HD 
HETATM   28  C   UNL     1     -11.445  12.832  67.419  1.00  0.00    -0.340 C  
HETATM   29  O   UNL     1     -11.964  11.843  66.913  1.00  0.00    -0.614 OA 
BRANCH  28  30
HETATM   30  C   UNL     1     -11.921  14.231  67.102  1.00  0.00    -0.449 C  
BRANCH  30  31
HETATM   31  C   UNL     1     -11.906  15.083  68.368  1.00  0.00    -0.270 C  
BRANCH  31  32
HETATM   32  N   UNL     1     -11.066  16.257  68.227  1.00  0.00    -0.352 N  
HETATM   33  H   UNL     1     -11.442  17.075  67.747  1.00  0.00     0.000 HD 
HETATM   34  C   UNL     1      -9.782  16.307  68.717  1.00  0.00    -0.240 C  
HETATM   35  O   UNL     1      -9.213  15.346  69.226  1.00  0.00    -0.230 OA 
BRANCH  34  36
HETATM   36  C   UNL     1      -9.083  17.669  68.505  1.00  0.00    -0.279 C  
HETATM   37  O   UNL     1      -9.996  18.739  68.794  1.00  0.00    -0.380 OA 
HETATM   38  H   UNL     1      -9.566  19.576  68.663  1.00  0.00     0.000 HD 
BRANCH  36  39
HETATM   39  C   UNL     1      -8.489  17.843  67.080  1.00  0.00    -0.248 C  
HETATM   40  C   UNL     1      -7.043  18.378  67.134  1.00  0.00    -0.212 C  
HETATM   41  C   UNL     1      -8.442  16.460  66.388  1.00  0.00    -0.364 C  
BRANCH  39  42
HETATM   42  C   UNL     1      -9.379  18.798  66.249  1.00  0.00    -0.262 C  
HETATM   43  O   UNL     1     -10.526  18.134  65.730  1.00  0.00    -0.584 OA 
HETATM   44  H   UNL     1     -11.073  18.720  65.219  1.00  0.00     0.000 HD 
ENDBRANCH  39  42
ENDBRANCH  36  39
ENDBRANCH  34  36
ENDBRANCH  31  32
ENDBRANCH  30  31
ENDBRANCH  28  30
ENDBRANCH  25  26
ENDBRANCH  24  25
ENDBRANCH  23  24
ENDBRANCH  22  23
ENDBRANCH  21  22
ENDBRANCH  20  21
ENDBRANCH  18  20
ENDBRANCH  15  16
ENDBRANCH  14  15
ENDBRANCH  12  14
ENDBRANCH   7  10
ENDBRANCH   2   7
TORSDOF 19
ENDMDL
MODEL      111
REMARK 921   NORMALIZED FREE ENERGY PREDICTED BY IDOCK:   -4.79 KCAL/MOL
REMARK 922        TOTAL FREE ENERGY PREDICTED BY IDOCK:  -12.28 KCAL/MOL
REMARK 923 INTER-LIGAND FREE ENERGY PREDICTED BY IDOCK:   -9.80 KCAL/MOL
REMARK 924 INTRA-LIGAND FREE ENERGY PREDICTED BY IDOCK:   -2.48 KCAL/MOL
REMARK 927      BINDING AFFINITY PREDICTED BY RF-SCORE:    0.00 PKD
ROOT
HETATM    1  C   UNL     1     -12.415   6.852  71.197  1.00  0.00    -0.398 C  
HETATM    2  C   UNL     1     -11.173   6.605  72.073  1.00  0.00    -0.301 C  
HETATM    3  C   UNL     1     -10.943   7.823  73.002  1.00  0.00    -0.442 C  
ENDROOT
BRANCH   2   4
HETATM    4  C   UNL     1     -11.438   5.393  72.991  1.00  0.00    -0.259 C  
HETATM    5  O   UNL     1     -10.940   5.621  74.307  1.00  0.00    -0.391 OA 
HETATM    6  H   UNL     1     -11.103   4.875  74.872  1.00  0.00     0.000 HD 
ENDBRANCH   2   4
BRANCH   2   7
HETATM    7  C   UNL     1      -9.906   6.338  71.201  1.00  0.00    -0.180 C  
HETATM    8  O   UNL     1      -8.830   5.744  71.947  1.00  0.00    -0.138 OA 
HETATM    9  H   UNL     1      -8.060   5.581  71.416  1.00  0.00     0.000 HD 
BRANCH   7  10
HETATM   10  C   UNL     1     -10.146   5.459  69.953  1.00  0.00    -0.252 C  
HETATM   11  O   UNL     1     -10.285   4.239  69.975  1.00  0.00    -0.113 OA 
HETATM   12  N   UNL     1     -10.264   6.190  68.792  1.00  0.00    -0.168 N  
HETATM   13  H   UNL     1     -10.075   7.192  68.806  1.00  0.00     0.000 HD 
BRANCH  12  14
HETATM   14  C   UNL     1     -10.654   5.554  67.553  1.00  0.00    -0.177 C  
BRANCH  14  15
HETATM   15  C   UNL     1      -9.466   5.124  66.698  1.00  0.00    -0.147 C  
BRANCH  15  16
HETATM   16  C   UNL     1      -8.662   6.352  66.334  1.00  0.00    -0.138 C  
HETATM   17  O   UNL     1      -8.017   6.974  67.172  1.00  0.00    -0.110 OA 
HETATM   18  N   UNL     1      -8.701   6.678  64.998  1.00  0.00    -0.355 N  
HETATM   19  H   UNL     1      -9.230   6.063  64.381  1.00  0.00     0.000 HD 
BRANCH  18  20
HETATM   20  C   UNL     1      -8.044   7.839  64.391  1.00  0.00    -0.091 C  
BRANCH  20  21
HETATM   21  C   UNL     1      -8.591   9.222  64.757  1.00  0.00    -0.184 C  
BRANCH  21  22
HETATM   22  S   UNL     1      -9.371  10.141  63.375  1.00  0.00    -0.257 SA 
BRANCH  22  23
HETATM   23  S   UNL     1      -9.973  11.916  64.233  1.00  0.00    -0.218 SA 
BRANCH  23  24
HETATM   24  C   UNL     1     -11.478  12.291  63.275  1.00  0.00    -0.340 C  
BRANCH  24  25
HETATM   25  C   UNL     1     -12.059  13.651  63.668  1.00  0.00    -0.342 C  
BRANCH  25  26
HETATM   26  N   UNL     1     -11.854  14.025  65.065  1.00  0.00    -0.359 N  
HETATM   27  H   UNL     1     -12.280  13.443  65.787  1.00  0.00     0.000 HD 
HETATM   28  C   UNL     1     -11.116  15.121  65.462  1.00  0.00    -0.345 C  
HETATM   29  O   UNL     1     -10.608  15.919  64.681  1.00  0.00    -0.525 OA 
BRANCH  28  30
HETATM   30  C   UNL     1     -10.942  15.251  66.958  1.00  0.00    -0.324 C  
BRANCH  30  31
HETATM   31  C   UNL     1     -12.138  14.631  67.674  1.00  0.00    -0.181 C  
BRANCH  31  32
HETATM   32  N   UNL     1     -11.751  13.521  68.524  1.00  0.00    -0.336 N  
HETATM   33  H   UNL     1     -11.396  13.719  69.460  1.00  0.00     0.000 HD 
HETATM   34  C   UNL     1     -11.846  12.211  68.115  1.00  0.00    -0.299 C  
HETATM   35  O   UNL     1     -12.174  11.878  66.980  1.00  0.00    -0.492 OA 
BRANCH  34  36
HETATM   36  C   UNL     1     -11.431  11.186  69.194  1.00  0.00    -0.298 C  
HETATM   37  O   UNL     1     -11.188  11.857  70.441  1.00  0.00    -0.369 OA 
HETATM   38  H   UNL     1     -10.932  11.227  71.104  1.00  0.00     0.000 HD 
BRANCH  36  39
HETATM   39  C   UNL     1     -10.193  10.336  68.794  1.00  0.00    -0.205 C  
HETATM   40  C   UNL     1      -9.514   9.711  70.031  1.00  0.00    -0.277 C  
HETATM   41  C   UNL     1     -10.660   9.172  67.889  1.00  0.00    -0.272 C  
BRANCH  39  42
HETATM   42  C   UNL     1      -9.179  11.210  68.017  1.00  0.00    -0.159 C  
HETATM   43  O   UNL     1      -8.422  12.044  68.888  1.00  0.00    -0.360 OA 
HETATM   44  H   UNL     1      -7.800  12.581  68.411  1.00  0.00     0.000 HD 
ENDBRANCH  39  42
ENDBRANCH  36  39
ENDBRANCH  34  36
ENDBRANCH  31  32
ENDBRANCH  30  31
ENDBRANCH  28  30
ENDBRANCH  25  26
ENDBRANCH  24  25
ENDBRANCH  23  24
ENDBRANCH  22  23
ENDBRANCH  21  22
ENDBRANCH  20  21
ENDBRANCH  18  20
ENDBRANCH  15  16
ENDBRANCH  14  15
ENDBRANCH  12  14
ENDBRANCH   7  10
ENDBRANCH   2   7
TORSDOF 19
ENDMDL
MODEL      112
REMARK 921   NORMALIZED FREE ENERGY PREDICTED BY IDOCK:   -4.77 KCAL/MOL
REMARK 922        TOTAL FREE ENERGY PREDICTED BY IDOCK:  -12.26 KCAL/MOL
REMARK 923 INTER-LIGAND FREE ENERGY PREDICTED BY IDOCK:   -9.96 KCAL/MOL
REMARK 924 INTRA-LIGAND FREE ENERGY PREDICTED BY IDOCK:   -2.30 KCAL/MOL
REMARK 927      BINDING AFFINITY PREDICTED BY RF-SCORE:    0.00 PKD
ROOT
HETATM    1  C   UNL     1      -9.535   5.591  71.779  1.00  0.00    -0.175 C  
HETATM    2  C   UNL     1     -10.824   5.900  72.563  1.00  0.00    -0.289 C  
HETATM    3  C   UNL     1     -11.300   4.624  73.301  1.00  0.00    -0.393 C  
ENDROOT
BRANCH   2   4
HETATM    4  C   UNL     1     -10.512   6.948  73.652  1.00  0.00    -0.369 C  
HETATM    5  O   UNL     1      -9.934   8.124  73.090  1.00  0.00    -0.282 OA 
HETATM    6  H   UNL     1      -9.741   8.769  73.760  1.00  0.00     0.000 HD 
ENDBRANCH   2   4
BRANCH   2   7
HETATM    7  C   UNL     1     -11.947   6.437  71.622  1.00  0.00    -0.291 C  
HETATM    8  O   UNL     1     -12.782   7.422  72.255  1.00  0.00    -0.496 OA 
HETATM    9  H   UNL     1     -13.465   7.749  71.682  1.00  0.00     0.000 HD 
BRANCH   7  10
HETATM   10  C   UNL     1     -11.450   7.037  70.289  1.00  0.00    -0.287 C  
HETATM   11  O   UNL     1     -11.412   6.433  69.221  1.00  0.00    -0.381 OA 
HETATM   12  N   UNL     1     -11.111   8.368  70.389  1.00  0.00    -0.253 N  
HETATM   13  H   UNL     1     -11.092   8.816  71.306  1.00  0.00     0.000 HD 
BRANCH  12  14
HETATM   14  C   UNL     1     -10.782   9.140  69.212  1.00  0.00    -0.183 C  
BRANCH  14  15
HETATM   15  C   UNL     1      -9.675  10.162  69.451  1.00  0.00    -0.247 C  
BRANCH  15  16
HETATM   16  C   UNL     1      -8.489   9.453  70.068  1.00  0.00    -0.190 C  
HETATM   17  O   UNL     1      -8.325   9.406  71.283  1.00  0.00    -0.308 OA 
HETATM   18  N   UNL     1      -7.649   8.858  69.156  1.00  0.00    -0.079 N  
HETATM   19  H   UNL     1      -7.907   8.919  68.172  1.00  0.00     0.000 HD 
BRANCH  18  20
HETATM   20  C   UNL     1      -6.412   8.144  69.485  1.00  0.00    -0.034 C  
BRANCH  20  21
HETATM   21  C   UNL     1      -6.189   6.787  68.812  1.00  0.00    -0.027 C  
BRANCH  21  22
HETATM   22  S   UNL     1      -6.053   6.836  66.984  1.00  0.00    -0.033 SA 
BRANCH  22  23
HETATM   23  S   UNL     1      -7.795   5.951  66.329  1.00  0.00    -0.102 SA 
BRANCH  23  24
HETATM   24  C   UNL     1      -8.060   6.802  64.739  1.00  0.00    -0.098 C  
BRANCH  24  25
HETATM   25  C   UNL     1      -7.669   8.279  64.831  1.00  0.00    -0.115 C  
BRANCH  25  26
HETATM   26  N   UNL     1      -8.311   9.146  63.846  1.00  0.00    -0.174 N  
HETATM   27  H   UNL     1      -8.342   8.833  62.876  1.00  0.00     0.000 HD 
HETATM   28  C   UNL     1      -8.877  10.365  64.157  1.00  0.00    -0.214 C  
HETATM   29  O   UNL     1      -8.849  10.864  65.276  1.00  0.00    -0.194 OA 
BRANCH  28  30
HETATM   30  C   UNL     1      -9.585  11.038  63.003  1.00  0.00    -0.386 C  
BRANCH  30  31
HETATM   31  C   UNL     1     -11.021  11.369  63.398  1.00  0.00    -0.258 C  
BRANCH  31  32
HETATM   32  N   UNL     1     -11.163  12.741  63.847  1.00  0.00    -0.412 N  
HETATM   33  H   UNL     1     -10.647  13.473  63.359  1.00  0.00     0.000 HD 
HETATM   34  C   UNL     1     -11.968  13.090  64.906  1.00  0.00    -0.396 C  
HETATM   35  O   UNL     1     -12.554  12.273  65.610  1.00  0.00    -0.504 OA 
BRANCH  34  36
HETATM   36  C   UNL     1     -12.015  14.610  65.183  1.00  0.00    -0.334 C  
HETATM   37  O   UNL     1     -11.922  15.337  63.948  1.00  0.00    -0.920 OA 
HETATM   38  H   UNL     1     -11.950  16.271  64.119  1.00  0.00     0.000 HD 
BRANCH  36  39
HETATM   39  C   UNL     1     -10.916  15.092  66.171  1.00  0.00    -0.334 C  
HETATM   40  C   UNL     1      -9.754  14.081  66.259  1.00  0.00    -0.311 C  
HETATM   41  C   UNL     1     -10.329  16.425  65.651  1.00  0.00    -0.371 C  
BRANCH  39  42
HETATM   42  C   UNL     1     -11.531  15.320  67.574  1.00  0.00    -0.265 C  
HETATM   43  O   UNL     1     -11.296  14.214  68.440  1.00  0.00    -0.258 OA 
HETATM   44  H   UNL     1     -11.673  14.354  69.301  1.00  0.00     0.000 HD 
ENDBRANCH  39  42
ENDBRANCH  36  39
ENDBRANCH  34  36
ENDBRANCH  31  32
ENDBRANCH  30  31
ENDBRANCH  28  30
ENDBRANCH  25  26
ENDBRANCH  24  25
ENDBRANCH  23  24
ENDBRANCH  22  23
ENDBRANCH  21  22
ENDBRANCH  20  21
ENDBRANCH  18  20
ENDBRANCH  15  16
ENDBRANCH  14  15
ENDBRANCH  12  14
ENDBRANCH   7  10
ENDBRANCH   2   7
TORSDOF 19
ENDMDL
MODEL      113
REMARK 921   NORMALIZED FREE ENERGY PREDICTED BY IDOCK:   -4.77 KCAL/MOL
REMARK 922        TOTAL FREE ENERGY PREDICTED BY IDOCK:  -12.25 KCAL/MOL
REMARK 923 INTER-LIGAND FREE ENERGY PREDICTED BY IDOCK:   -9.95 KCAL/MOL
REMARK 924 INTRA-LIGAND FREE ENERGY PREDICTED BY IDOCK:   -2.31 KCAL/MOL
REMARK 927      BINDING AFFINITY PREDICTED BY RF-SCORE:    0.00 PKD
ROOT
HETATM    1  C   UNL     1      -9.314   5.443  72.045  1.00  0.00    -0.163 C  
HETATM    2  C   UNL     1     -10.598   5.758  72.835  1.00  0.00    -0.264 C  
HETATM    3  C   UNL     1     -11.138   4.461  73.486  1.00  0.00    -0.388 C  
ENDROOT
BRANCH   2   4
HETATM    4  C   UNL     1     -10.253   6.722  73.990  1.00  0.00    -0.369 C  
HETATM    5  O   UNL     1      -9.564   7.876  73.515  1.00  0.00    -0.284 OA 
HETATM    6  H   UNL     1      -9.351   8.469  74.227  1.00  0.00     0.000 HD 
ENDBRANCH   2   4
BRANCH   2   7
HETATM    7  C   UNL     1     -11.685   6.403  71.919  1.00  0.00    -0.328 C  
HETATM    8  O   UNL     1     -12.369   7.498  72.551  1.00  0.00    -0.521 OA 
HETATM    9  H   UNL     1     -13.031   7.890  71.994  1.00  0.00     0.000 HD 
BRANCH   7  10
HETATM   10  C   UNL     1     -11.173   6.904  70.551  1.00  0.00    -0.307 C  
HETATM   11  O   UNL     1     -11.361   6.331  69.481  1.00  0.00    -0.409 OA 
HETATM   12  N   UNL     1     -10.530   8.120  70.627  1.00  0.00    -0.207 N  
HETATM   13  H   UNL     1     -10.334   8.529  71.541  1.00  0.00     0.000 HD 
BRANCH  12  14
HETATM   14  C   UNL     1     -10.128   8.822  69.429  1.00  0.00    -0.203 C  
BRANCH  14  15
HETATM   15  C   UNL     1      -8.693   9.337  69.485  1.00  0.00    -0.146 C  
BRANCH  15  16
HETATM   16  C   UNL     1      -7.769   8.246  68.992  1.00  0.00    -0.098 C  
HETATM   17  O   UNL     1      -7.674   7.168  69.571  1.00  0.00    -0.108 OA 
HETATM   18  N   UNL     1      -7.084   8.562  67.842  1.00  0.00    -0.085 N  
HETATM   19  H   UNL     1      -7.276   9.468  67.416  1.00  0.00     0.000 HD 
BRANCH  18  20
HETATM   20  C   UNL     1      -6.101   7.701  67.179  1.00  0.00    -0.052 C  
BRANCH  20  21
HETATM   21  C   UNL     1      -5.853   7.943  65.687  1.00  0.00    -0.038 C  
BRANCH  21  22
HETATM   22  S   UNL     1      -6.849   9.291  64.941  1.00  0.00    -0.089 SA 
BRANCH  22  23
HETATM   23  S   UNL     1      -5.778   9.837  63.268  1.00  0.00    -0.102 SA 
BRANCH  23  24
HETATM   24  C   UNL     1      -7.017  10.802  62.341  1.00  0.00    -0.062 C  
BRANCH  24  25
HETATM   25  C   UNL     1      -8.398  10.147  62.419  1.00  0.00    -0.160 C  
BRANCH  25  26
HETATM   26  N   UNL     1      -9.521  11.081  62.427  1.00  0.00    -0.560 N  
HETATM   27  H   UNL     1      -9.679  11.652  61.597  1.00  0.00     0.000 HD 
HETATM   28  C   UNL     1     -10.378  11.234  63.497  1.00  0.00    -0.408 C  
HETATM   29  O   UNL     1     -10.250  10.642  64.563  1.00  0.00    -0.336 OA 
BRANCH  28  30
HETATM   30  C   UNL     1     -11.535  12.173  63.242  1.00  0.00    -0.410 C  
BRANCH  30  31
HETATM   31  C   UNL     1     -12.609  11.973  64.307  1.00  0.00    -0.255 C  
BRANCH  31  32
HETATM   32  N   UNL     1     -12.162  12.398  65.621  1.00  0.00    -0.361 N  
HETATM   33  H   UNL     1     -11.620  11.747  66.190  1.00  0.00     0.000 HD 
HETATM   34  C   UNL     1     -12.442  13.646  66.126  1.00  0.00    -0.395 C  
HETATM   35  O   UNL     1     -13.162  14.461  65.556  1.00  0.00    -0.557 OA 
BRANCH  34  36
HETATM   36  C   UNL     1     -11.829  13.911  67.519  1.00  0.00    -0.396 C  
HETATM   37  O   UNL     1     -12.521  14.992  68.162  1.00  0.00    -0.464 OA 
HETATM   38  H   UNL     1     -12.143  15.155  69.019  1.00  0.00     0.000 HD 
BRANCH  36  39
HETATM   39  C   UNL     1     -10.303  14.202  67.477  1.00  0.00    -0.248 C  
HETATM   40  C   UNL     1      -9.800  14.373  66.028  1.00  0.00    -0.342 C  
HETATM   41  C   UNL     1     -10.030  15.531  68.219  1.00  0.00    -0.213 C  
BRANCH  39  42
HETATM   42  C   UNL     1      -9.527  13.060  68.177  1.00  0.00    -0.218 C  
HETATM   43  O   UNL     1     -10.272  12.497  69.253  1.00  0.00    -0.400 OA 
HETATM   44  H   UNL     1      -9.796  11.796  69.683  1.00  0.00     0.000 HD 
ENDBRANCH  39  42
ENDBRANCH  36  39
ENDBRANCH  34  36
ENDBRANCH  31  32
ENDBRANCH  30  31
ENDBRANCH  28  30
ENDBRANCH  25  26
ENDBRANCH  24  25
ENDBRANCH  23  24
ENDBRANCH  22  23
ENDBRANCH  21  22
ENDBRANCH  20  21
ENDBRANCH  18  20
ENDBRANCH  15  16
ENDBRANCH  14  15
ENDBRANCH  12  14
ENDBRANCH   7  10
ENDBRANCH   2   7
TORSDOF 19
ENDMDL
MODEL      114
REMARK 921   NORMALIZED FREE ENERGY PREDICTED BY IDOCK:   -4.77 KCAL/MOL
REMARK 922        TOTAL FREE ENERGY PREDICTED BY IDOCK:  -12.24 KCAL/MOL
REMARK 923 INTER-LIGAND FREE ENERGY PREDICTED BY IDOCK:  -10.90 KCAL/MOL
REMARK 924 INTRA-LIGAND FREE ENERGY PREDICTED BY IDOCK:   -1.34 KCAL/MOL
REMARK 927      BINDING AFFINITY PREDICTED BY RF-SCORE:    0.00 PKD
ROOT
HETATM    1  C   UNL     1      -7.943   5.373  67.654  1.00  0.00    -0.100 C  
HETATM    2  C   UNL     1      -9.358   4.834  67.376  1.00  0.00    -0.153 C  
HETATM    3  C   UNL     1     -10.407   5.769  68.029  1.00  0.00    -0.258 C  
ENDROOT
BRANCH   2   4
HETATM    4  C   UNL     1      -9.621   4.869  65.856  1.00  0.00    -0.175 C  
HETATM    5  O   UNL     1     -10.995   4.630  65.561  1.00  0.00    -0.756 OA 
HETATM    6  H   UNL     1     -11.156   4.652  64.625  1.00  0.00     0.000 HD 
ENDBRANCH   2   4
BRANCH   2   7
HETATM    7  C   UNL     1      -9.525   3.375  67.905  1.00  0.00    -0.165 C  
HETATM    8  O   UNL     1      -9.287   2.383  66.892  1.00  0.00    -0.337 OA 
HETATM    9  H   UNL     1      -9.388   1.496  67.213  1.00  0.00     0.000 HD 
BRANCH   7  10
HETATM   10  C   UNL     1      -8.641   3.016  69.121  1.00  0.00    -0.073 C  
HETATM   11  O   UNL     1      -7.489   2.600  69.048  1.00  0.00    -0.044 OA 
HETATM   12  N   UNL     1      -9.250   3.279  70.327  1.00  0.00    -0.141 N  
HETATM   13  H   UNL     1     -10.231   3.560  70.346  1.00  0.00     0.000 HD 
BRANCH  12  14
HETATM   14  C   UNL     1      -8.518   3.162  71.568  1.00  0.00    -0.065 C  
BRANCH  14  15
HETATM   15  C   UNL     1      -7.854   4.465  72.001  1.00  0.00    -0.090 C  
BRANCH  15  16
HETATM   16  C   UNL     1      -8.916   5.536  72.110  1.00  0.00    -0.137 C  
HETATM   17  O   UNL     1     -10.098   5.259  72.289  1.00  0.00    -0.178 OA 
HETATM   18  N   UNL     1      -8.435   6.822  72.019  1.00  0.00    -0.112 N  
HETATM   19  H   UNL     1      -7.427   6.939  71.920  1.00  0.00     0.000 HD 
BRANCH  18  20
HETATM   20  C   UNL     1      -9.253   8.037  72.055  1.00  0.00    -0.171 C  
BRANCH  20  21
HETATM   21  C   UNL     1      -9.153   8.982  70.854  1.00  0.00    -0.250 C  
BRANCH  21  22
HETATM   22  S   UNL     1     -10.759   9.514  70.145  1.00  0.00    -0.277 SA 
BRANCH  22  23
HETATM   23  S   UNL     1     -12.127   9.080  71.624  1.00  0.00    -0.377 SA 
BRANCH  23  24
HETATM   24  C   UNL     1     -12.880  10.715  71.914  1.00  0.00    -0.382 C  
BRANCH  24  25
HETATM   25  C   UNL     1     -12.778  11.599  70.668  1.00  0.00    -0.138 C  
BRANCH  25  26
HETATM   26  N   UNL     1     -11.978  12.810  70.839  1.00  0.00    -0.402 N  
HETATM   27  H   UNL     1     -10.963  12.727  70.790  1.00  0.00     0.000 HD 
HETATM   28  C   UNL     1     -12.522  14.058  71.061  1.00  0.00    -0.371 C  
HETATM   29  O   UNL     1     -13.723  14.265  71.193  1.00  0.00    -0.315 OA 
BRANCH  28  30
HETATM   30  C   UNL     1     -11.513  15.183  71.093  1.00  0.00    -0.387 C  
BRANCH  30  31
HETATM   31  C   UNL     1     -11.661  16.047  69.844  1.00  0.00    -0.299 C  
BRANCH  31  32
HETATM   32  N   UNL     1     -12.129  15.283  68.703  1.00  0.00    -0.585 N  
HETATM   33  H   UNL     1     -13.133  15.183  68.557  1.00  0.00     0.000 HD 
HETATM   34  C   UNL     1     -11.267  14.688  67.811  1.00  0.00    -0.308 C  
HETATM   35  O   UNL     1     -10.048  14.675  67.954  1.00  0.00    -0.222 OA 
BRANCH  34  36
HETATM   36  C   UNL     1     -11.975  13.967  66.642  1.00  0.00    -0.445 C  
HETATM   37  O   UNL     1     -12.154  12.578  66.958  1.00  0.00    -0.521 OA 
HETATM   38  H   UNL     1     -12.589  12.135  66.239  1.00  0.00     0.000 HD 
BRANCH  36  39
HETATM   39  C   UNL     1     -11.232  14.115  65.285  1.00  0.00    -0.326 C  
HETATM   40  C   UNL     1     -10.112  13.064  65.137  1.00  0.00    -0.238 C  
HETATM   41  C   UNL     1     -12.241  13.877  64.137  1.00  0.00    -0.436 C  
BRANCH  39  42
HETATM   42  C   UNL     1     -10.643  15.541  65.157  1.00  0.00    -0.431 C  
HETATM   43  O   UNL     1     -11.171  16.233  64.031  1.00  0.00    -1.241 OA 
HETATM   44  H   UNL     1     -10.810  17.108  63.952  1.00  0.00     0.000 HD 
ENDBRANCH  39  42
ENDBRANCH  36  39
ENDBRANCH  34  36
ENDBRANCH  31  32
ENDBRANCH  30  31
ENDBRANCH  28  30
ENDBRANCH  25  26
ENDBRANCH  24  25
ENDBRANCH  23  24
ENDBRANCH  22  23
ENDBRANCH  21  22
ENDBRANCH  20  21
ENDBRANCH  18  20
ENDBRANCH  15  16
ENDBRANCH  14  15
ENDBRANCH  12  14
ENDBRANCH   7  10
ENDBRANCH   2   7
TORSDOF 19
ENDMDL
MODEL      115
REMARK 921   NORMALIZED FREE ENERGY PREDICTED BY IDOCK:   -4.76 KCAL/MOL
REMARK 922        TOTAL FREE ENERGY PREDICTED BY IDOCK:  -12.24 KCAL/MOL
REMARK 923 INTER-LIGAND FREE ENERGY PREDICTED BY IDOCK:  -10.73 KCAL/MOL
REMARK 924 INTRA-LIGAND FREE ENERGY PREDICTED BY IDOCK:   -1.51 KCAL/MOL
REMARK 927      BINDING AFFINITY PREDICTED BY RF-SCORE:    0.00 PKD
ROOT
HETATM    1  C   UNL     1      -9.056   8.031  71.215  1.00  0.00    -0.168 C  
HETATM    2  C   UNL     1     -10.512   8.219  70.750  1.00  0.00    -0.223 C  
HETATM    3  C   UNL     1     -11.133   9.443  71.467  1.00  0.00    -0.446 C  
ENDROOT
BRANCH   2   4
HETATM    4  C   UNL     1     -10.520   8.541  69.240  1.00  0.00    -0.215 C  
HETATM    5  O   UNL     1     -11.481   9.547  68.929  1.00  0.00    -0.452 OA 
HETATM    6  H   UNL     1     -11.486   9.745  68.000  1.00  0.00     0.000 HD 
ENDBRANCH   2   4
BRANCH   2   7
HETATM    7  C   UNL     1     -11.365   6.939  71.019  1.00  0.00    -0.299 C  
HETATM    8  O   UNL     1     -12.509   6.839  70.155  1.00  0.00    -0.572 OA 
HETATM    9  H   UNL     1     -13.028   6.061  70.319  1.00  0.00     0.000 HD 
BRANCH   7  10
HETATM   10  C   UNL     1     -10.591   5.606  70.921  1.00  0.00    -0.258 C  
HETATM   11  O   UNL     1     -10.283   4.904  71.879  1.00  0.00    -0.192 OA 
HETATM   12  N   UNL     1     -10.332   5.227  69.622  1.00  0.00    -0.278 N  
HETATM   13  H   UNL     1     -10.543   5.870  68.858  1.00  0.00     0.000 HD 
BRANCH  12  14
HETATM   14  C   UNL     1      -9.763   3.931  69.328  1.00  0.00    -0.087 C  
BRANCH  14  15
HETATM   15  C   UNL     1      -9.180   3.834  67.922  1.00  0.00    -0.218 C  
BRANCH  15  16
HETATM   16  C   UNL     1      -9.600   5.058  67.139  1.00  0.00    -0.152 C  
HETATM   17  O   UNL     1     -10.776   5.281  66.870  1.00  0.00    -0.253 OA 
HETATM   18  N   UNL     1      -8.562   5.891  66.791  1.00  0.00    -0.112 N  
HETATM   19  H   UNL     1      -7.628   5.633  67.108  1.00  0.00     0.000 HD 
BRANCH  18  20
HETATM   20  C   UNL     1      -8.690   7.118  66.000  1.00  0.00    -0.147 C  
BRANCH  20  21
HETATM   21  C   UNL     1      -7.831   7.229  64.738  1.00  0.00    -0.126 C  
BRANCH  21  22
HETATM   22  S   UNL     1      -6.579   8.568  64.763  1.00  0.00    -0.065 SA 
BRANCH  22  23
HETATM   23  S   UNL     1      -7.685  10.291  64.528  1.00  0.00    -0.060 SA 
BRANCH  23  24
HETATM   24  C   UNL     1      -8.969   9.743  63.357  1.00  0.00    -0.246 C  
BRANCH  24  25
HETATM   25  C   UNL     1      -9.942  10.879  63.032  1.00  0.00    -0.274 C  
BRANCH  25  26
HETATM   26  N   UNL     1     -10.760  11.327  64.156  1.00  0.00    -0.366 N  
HETATM   27  H   UNL     1     -10.608  10.891  65.066  1.00  0.00     0.000 HD 
HETATM   28  C   UNL     1     -11.725  12.307  64.054  1.00  0.00    -0.425 C  
HETATM   29  O   UNL     1     -12.030  12.857  63.002  1.00  0.00    -0.428 OA 
BRANCH  28  30
HETATM   30  C   UNL     1     -12.368  12.690  65.368  1.00  0.00    -0.499 C  
BRANCH  30  31
HETATM   31  C   UNL     1     -12.514  14.207  65.449  1.00  0.00    -0.472 C  
BRANCH  31  32
HETATM   32  N   UNL     1     -11.290  14.852  65.883  1.00  0.00    -0.332 N  
HETATM   33  H   UNL     1     -10.793  14.472  66.689  1.00  0.00     0.000 HD 
HETATM   34  C   UNL     1     -10.774  15.957  65.247  1.00  0.00    -0.424 C  
HETATM   35  O   UNL     1     -11.345  16.539  64.330  1.00  0.00    -1.020 OA 
BRANCH  34  36
HETATM   36  C   UNL     1      -9.436  16.453  65.840  1.00  0.00    -0.254 C  
HETATM   37  O   UNL     1      -8.757  15.370  66.494  1.00  0.00    -0.279 OA 
HETATM   38  H   UNL     1      -7.935  15.675  66.859  1.00  0.00     0.000 HD 
BRANCH  36  39
HETATM   39  C   UNL     1      -9.600  17.650  66.818  1.00  0.00    -0.297 C  
HETATM   40  C   UNL     1     -10.903  17.537  67.635  1.00  0.00    -0.229 C  
HETATM   41  C   UNL     1      -8.423  17.636  67.822  1.00  0.00    -0.227 C  
BRANCH  39  42
HETATM   42  C   UNL     1      -9.580  18.983  66.030  1.00  0.00    -0.142 C  
HETATM   43  O   UNL     1     -10.818  19.225  65.370  1.00  0.00    -0.491 OA 
HETATM   44  H   UNL     1     -10.806  20.043  64.886  1.00  0.00     0.000 HD 
ENDBRANCH  39  42
ENDBRANCH  36  39
ENDBRANCH  34  36
ENDBRANCH  31  32
ENDBRANCH  30  31
ENDBRANCH  28  30
ENDBRANCH  25  26
ENDBRANCH  24  25
ENDBRANCH  23  24
ENDBRANCH  22  23
ENDBRANCH  21  22
ENDBRANCH  20  21
ENDBRANCH  18  20
ENDBRANCH  15  16
ENDBRANCH  14  15
ENDBRANCH  12  14
ENDBRANCH   7  10
ENDBRANCH   2   7
TORSDOF 19
ENDMDL
MODEL      116
REMARK 921   NORMALIZED FREE ENERGY PREDICTED BY IDOCK:   -4.76 KCAL/MOL
REMARK 922        TOTAL FREE ENERGY PREDICTED BY IDOCK:  -12.23 KCAL/MOL
REMARK 923 INTER-LIGAND FREE ENERGY PREDICTED BY IDOCK:  -11.19 KCAL/MOL
REMARK 924 INTRA-LIGAND FREE ENERGY PREDICTED BY IDOCK:   -1.05 KCAL/MOL
REMARK 927      BINDING AFFINITY PREDICTED BY RF-SCORE:    0.00 PKD
ROOT
HETATM    1  C   UNL     1     -10.361   7.936  72.558  1.00  0.00    -0.349 C  
HETATM    2  C   UNL     1     -10.561   6.609  71.802  1.00  0.00    -0.242 C  
HETATM    3  C   UNL     1      -9.198   6.107  71.266  1.00  0.00    -0.157 C  
ENDROOT
BRANCH   2   4
HETATM    4  C   UNL     1     -11.069   5.538  72.791  1.00  0.00    -0.291 C  
HETATM    5  O   UNL     1     -12.489   5.579  72.916  1.00  0.00    -0.500 OA 
HETATM    6  H   UNL     1     -12.801   4.920  73.525  1.00  0.00     0.000 HD 
ENDBRANCH   2   4
BRANCH   2   7
HETATM    7  C   UNL     1     -11.581   6.771  70.631  1.00  0.00    -0.370 C  
HETATM    8  O   UNL     1     -12.679   7.637  70.963  1.00  0.00    -0.508 OA 
HETATM    9  H   UNL     1     -13.299   7.736  70.251  1.00  0.00     0.000 HD 
BRANCH   7  10
HETATM   10  C   UNL     1     -10.976   7.278  69.304  1.00  0.00    -0.098 C  
HETATM   11  O   UNL     1     -10.295   8.293  69.189  1.00  0.00    -0.212 OA 
HETATM   12  N   UNL     1     -11.212   6.430  68.244  1.00  0.00    -0.518 N  
HETATM   13  H   UNL     1     -11.837   5.634  68.366  1.00  0.00     0.000 HD 
BRANCH  12  14
HETATM   14  C   UNL     1     -10.585   6.656  66.961  1.00  0.00    -0.333 C  
BRANCH  14  15
HETATM   15  C   UNL     1     -10.382   5.376  66.157  1.00  0.00    -0.191 C  
BRANCH  15  16
HETATM   16  C   UNL     1      -8.974   5.370  65.605  1.00  0.00    -0.156 C  
HETATM   17  O   UNL     1      -8.002   5.124  66.313  1.00  0.00    -0.102 OA 
HETATM   18  N   UNL     1      -8.893   5.634  64.257  1.00  0.00    -0.345 N  
HETATM   19  H   UNL     1      -9.769   5.777  63.754  1.00  0.00     0.000 HD 
BRANCH  18  20
HETATM   20  C   UNL     1      -7.651   5.726  63.485  1.00  0.00    -0.079 C  
BRANCH  20  21
HETATM   21  C   UNL     1      -6.975   7.098  63.411  1.00  0.00    -0.062 C  
BRANCH  21  22
HETATM   22  S   UNL     1      -8.061   8.473  62.867  1.00  0.00    -0.166 SA 
BRANCH  22  23
HETATM   23  S   UNL     1      -8.597   9.411  64.622  1.00  0.00    -0.196 SA 
BRANCH  23  24
HETATM   24  C   UNL     1      -9.483  10.876  63.996  1.00  0.00    -0.262 C  
BRANCH  24  25
HETATM   25  C   UNL     1     -10.755  11.140  64.805  1.00  0.00    -0.264 C  
BRANCH  25  26
HETATM   26  N   UNL     1     -11.090  12.551  64.979  1.00  0.00    -0.290 N  
HETATM   27  H   UNL     1     -10.520  13.106  65.618  1.00  0.00     0.000 HD 
HETATM   28  C   UNL     1     -12.135  13.173  64.329  1.00  0.00    -0.414 C  
HETATM   29  O   UNL     1     -12.918  12.592  63.585  1.00  0.00    -0.704 OA 
BRANCH  28  30
HETATM   30  C   UNL     1     -12.226  14.662  64.572  1.00  0.00    -0.473 C  
BRANCH  30  31
HETATM   31  C   UNL     1     -10.828  15.240  64.773  1.00  0.00    -0.358 C  
BRANCH  31  32
HETATM   32  N   UNL     1     -10.774  16.165  65.890  1.00  0.00    -0.292 N  
HETATM   33  H   UNL     1     -11.640  16.404  66.372  1.00  0.00     0.000 HD 
HETATM   34  C   UNL     1      -9.597  16.732  66.321  1.00  0.00    -0.289 C  
HETATM   35  O   UNL     1      -8.522  16.578  65.749  1.00  0.00    -0.394 OA 
BRANCH  34  36
HETATM   36  C   UNL     1      -9.757  17.647  67.555  1.00  0.00    -0.280 C  
HETATM   37  O   UNL     1     -11.021  17.398  68.190  1.00  0.00    -0.334 OA 
HETATM   38  H   UNL     1     -11.120  17.961  68.949  1.00  0.00     0.000 HD 
BRANCH  36  39
HETATM   39  C   UNL     1      -9.612  19.159  67.227  1.00  0.00    -0.375 C  
HETATM   40  C   UNL     1     -10.231  19.500  65.855  1.00  0.00    -0.508 C  
HETATM   41  C   UNL     1     -10.380  19.975  68.293  1.00  0.00    -0.494 C  
BRANCH  39  42
HETATM   42  C   UNL     1      -8.119  19.564  67.252  1.00  0.00    -0.274 C  
HETATM   43  O   UNL     1      -7.537  19.360  68.536  1.00  0.00    -0.308 OA 
HETATM   44  H   UNL     1      -6.621  19.610  68.552  1.00  0.00     0.000 HD 
ENDBRANCH  39  42
ENDBRANCH  36  39
ENDBRANCH  34  36
ENDBRANCH  31  32
ENDBRANCH  30  31
ENDBRANCH  28  30
ENDBRANCH  25  26
ENDBRANCH  24  25
ENDBRANCH  23  24
ENDBRANCH  22  23
ENDBRANCH  21  22
ENDBRANCH  20  21
ENDBRANCH  18  20
ENDBRANCH  15  16
ENDBRANCH  14  15
ENDBRANCH  12  14
ENDBRANCH   7  10
ENDBRANCH   2   7
TORSDOF 19
ENDMDL
MODEL      117
REMARK 921   NORMALIZED FREE ENERGY PREDICTED BY IDOCK:   -4.75 KCAL/MOL
REMARK 922        TOTAL FREE ENERGY PREDICTED BY IDOCK:  -12.21 KCAL/MOL
REMARK 923 INTER-LIGAND FREE ENERGY PREDICTED BY IDOCK:  -10.52 KCAL/MOL
REMARK 924 INTRA-LIGAND FREE ENERGY PREDICTED BY IDOCK:   -1.69 KCAL/MOL
REMARK 927      BINDING AFFINITY PREDICTED BY RF-SCORE:    0.00 PKD
ROOT
HETATM    1  C   UNL     1      -9.368  14.837  66.372  1.00  0.00    -0.320 C  
HETATM    2  C   UNL     1     -10.380  15.997  66.327  1.00  0.00    -0.330 C  
HETATM    3  C   UNL     1     -11.026  16.176  67.724  1.00  0.00    -0.293 C  
ENDROOT
BRANCH   2   4
HETATM    4  C   UNL     1      -9.628  17.309  66.018  1.00  0.00    -0.140 C  
HETATM    5  O   UNL     1     -10.525  18.333  65.594  1.00  0.00    -0.627 OA 
HETATM    6  H   UNL     1     -10.062  19.141  65.403  1.00  0.00     0.000 HD 
ENDBRANCH   2   4
BRANCH   2   7
HETATM    7  C   UNL     1     -11.478  15.752  65.246  1.00  0.00     0.024 C  
HETATM    8  O   UNL     1     -11.102  16.242  63.947  1.00  0.00    -1.111 OA 
HETATM    9  H   UNL     1     -11.770  16.092  63.290  1.00  0.00     0.000 HD 
BRANCH   7  10
HETATM   10  C   UNL     1     -11.911  14.278  65.078  1.00  0.00    -0.410 C  
HETATM   11  O   UNL     1     -12.689  13.690  65.822  1.00  0.00    -0.471 OA 
HETATM   12  N   UNL     1     -11.390  13.688  63.947  1.00  0.00    -0.591 N  
HETATM   13  H   UNL     1     -10.696  14.189  63.392  1.00  0.00     0.000 HD 
BRANCH  12  14
HETATM   14  C   UNL     1     -11.815  12.368  63.538  1.00  0.00    -0.521 C  
BRANCH  14  15
HETATM   15  C   UNL     1     -11.116  11.247  64.299  1.00  0.00    -0.293 C  
BRANCH  15  16
HETATM   16  C   UNL     1      -9.936  10.770  63.482  1.00  0.00    -0.344 C  
HETATM   17  O   UNL     1      -9.394  11.489  62.648  1.00  0.00    -0.341 OA 
HETATM   18  N   UNL     1      -9.523   9.491  63.777  1.00  0.00    -0.431 N  
HETATM   19  H   UNL     1     -10.016   9.000  64.523  1.00  0.00     0.000 HD 
BRANCH  18  20
HETATM   20  C   UNL     1      -8.433   8.778  63.107  1.00  0.00    -0.129 C  
BRANCH  20  21
HETATM   21  C   UNL     1      -7.740   7.662  63.894  1.00  0.00    -0.126 C  
BRANCH  21  22
HETATM   22  S   UNL     1      -7.887   7.788  65.718  1.00  0.00    -0.111 SA 
BRANCH  22  23
HETATM   23  S   UNL     1      -8.996   6.134  66.247  1.00  0.00    -0.153 SA 
BRANCH  23  24
HETATM   24  C   UNL     1      -8.351   5.781  67.915  1.00  0.00    -0.104 C  
BRANCH  24  25
HETATM   25  C   UNL     1      -8.705   4.359  68.355  1.00  0.00    -0.100 C  
BRANCH  25  26
HETATM   26  N   UNL     1      -9.213   4.248  69.720  1.00  0.00    -0.121 N  
HETATM   27  H   UNL     1      -9.864   4.960  70.051  1.00  0.00     0.000 HD 
HETATM   28  C   UNL     1      -8.862   3.233  70.585  1.00  0.00    -0.083 C  
HETATM   29  O   UNL     1      -8.047   2.357  70.313  1.00  0.00    -0.042 OA 
BRANCH  28  30
HETATM   30  C   UNL     1      -9.596   3.254  71.906  1.00  0.00    -0.221 C  
BRANCH  30  31
HETATM   31  C   UNL     1      -8.987   4.313  72.820  1.00  0.00    -0.106 C  
BRANCH  31  32
HETATM   32  N   UNL     1      -9.843   5.476  72.955  1.00  0.00    -0.162 N  
HETATM   33  H   UNL     1     -10.659   5.418  73.564  1.00  0.00     0.000 HD 
HETATM   34  C   UNL     1      -9.593   6.655  72.291  1.00  0.00    -0.145 C  
HETATM   35  O   UNL     1      -8.692   6.792  71.470  1.00  0.00    -0.127 OA 
BRANCH  34  36
HETATM   36  C   UNL     1     -10.599   7.782  72.616  1.00  0.00    -0.317 C  
HETATM   37  O   UNL     1     -11.451   7.382  73.701  1.00  0.00    -0.514 OA 
HETATM   38  H   UNL     1     -12.069   8.075  73.901  1.00  0.00     0.000 HD 
BRANCH  36  39
HETATM   39  C   UNL     1     -11.456   8.216  71.395  1.00  0.00    -0.301 C  
HETATM   40  C   UNL     1     -10.629   9.047  70.392  1.00  0.00    -0.258 C  
HETATM   41  C   UNL     1     -11.942   6.949  70.653  1.00  0.00    -0.400 C  
BRANCH  39  42
HETATM   42  C   UNL     1     -12.684   9.028  71.874  1.00  0.00    -0.382 C  
HETATM   43  O   UNL     1     -13.827   8.200  72.059  1.00  0.00    -0.414 OA 
HETATM   44  H   UNL     1     -14.581   8.698  72.353  1.00  0.00     0.000 HD 
ENDBRANCH  39  42
ENDBRANCH  36  39
ENDBRANCH  34  36
ENDBRANCH  31  32
ENDBRANCH  30  31
ENDBRANCH  28  30
ENDBRANCH  25  26
ENDBRANCH  24  25
ENDBRANCH  23  24
ENDBRANCH  22  23
ENDBRANCH  21  22
ENDBRANCH  20  21
ENDBRANCH  18  20
ENDBRANCH  15  16
ENDBRANCH  14  15
ENDBRANCH  12  14
ENDBRANCH   7  10
ENDBRANCH   2   7
TORSDOF 19
ENDMDL
MODEL      118
REMARK 921   NORMALIZED FREE ENERGY PREDICTED BY IDOCK:   -4.74 KCAL/MOL
REMARK 922        TOTAL FREE ENERGY PREDICTED BY IDOCK:  -12.18 KCAL/MOL
REMARK 923 INTER-LIGAND FREE ENERGY PREDICTED BY IDOCK:   -9.67 KCAL/MOL
REMARK 924 INTRA-LIGAND FREE ENERGY PREDICTED BY IDOCK:   -2.51 KCAL/MOL
REMARK 927      BINDING AFFINITY PREDICTED BY RF-SCORE:    0.00 PKD
ROOT
HETATM    1  C   UNL     1     -12.234  13.375  63.210  1.00  0.00    -0.314 C  
HETATM    2  C   UNL     1     -11.755  13.254  64.668  1.00  0.00    -0.403 C  
HETATM    3  C   UNL     1     -12.970  13.351  65.624  1.00  0.00    -0.145 C  
ENDROOT
BRANCH   2   4
HETATM    4  C   UNL     1     -11.137  11.855  64.880  1.00  0.00    -0.307 C  
HETATM    5  O   UNL     1      -9.746  11.849  64.567  1.00  0.00    -0.387 OA 
HETATM    6  H   UNL     1      -9.366  10.988  64.697  1.00  0.00     0.000 HD 
ENDBRANCH   2   4
BRANCH   2   7
HETATM    7  C   UNL     1     -10.701  14.352  65.014  1.00  0.00    -0.423 C  
HETATM    8  O   UNL     1     -10.866  15.549  64.233  1.00  0.00    -0.676 OA 
HETATM    9  H   UNL     1     -10.225  16.217  64.444  1.00  0.00     0.000 HD 
BRANCH   7  10
HETATM   10  C   UNL     1     -10.657  14.771  66.500  1.00  0.00    -0.299 C  
HETATM   11  O   UNL     1     -10.981  15.876  66.925  1.00  0.00    -0.283 OA 
HETATM   12  N   UNL     1     -10.281  13.745  67.339  1.00  0.00    -0.250 N  
HETATM   13  H   UNL     1      -9.955  12.863  66.942  1.00  0.00     0.000 HD 
BRANCH  12  14
HETATM   14  C   UNL     1     -10.342  13.902  68.775  1.00  0.00    -0.206 C  
BRANCH  14  15
HETATM   15  C   UNL     1     -11.693  13.514  69.366  1.00  0.00    -0.381 C  
BRANCH  15  16
HETATM   16  C   UNL     1     -11.838  12.010  69.294  1.00  0.00    -0.318 C  
HETATM   17  O   UNL     1     -11.938  11.421  68.222  1.00  0.00    -0.566 OA 
HETATM   18  N   UNL     1     -11.819  11.380  70.517  1.00  0.00    -0.439 N  
HETATM   19  H   UNL     1     -11.682  11.963  71.342  1.00  0.00     0.000 HD 
BRANCH  18  20
HETATM   20  C   UNL     1     -11.980   9.939  70.729  1.00  0.00    -0.323 C  
BRANCH  20  21
HETATM   21  C   UNL     1     -12.879   9.500  71.888  1.00  0.00    -0.420 C  
BRANCH  21  22
HETATM   22  S   UNL     1     -13.191   7.695  71.991  1.00  0.00    -0.102 SA 
BRANCH  22  23
HETATM   23  S   UNL     1     -11.921   6.887  70.583  1.00  0.00    -0.291 SA 
BRANCH  23  24
HETATM   24  C   UNL     1     -10.512   6.369  71.619  1.00  0.00    -0.217 C  
BRANCH  24  25
HETATM   25  C   UNL     1      -9.216   7.046  71.166  1.00  0.00    -0.157 C  
BRANCH  25  26
HETATM   26  N   UNL     1      -9.392   8.113  70.184  1.00  0.00    -0.158 N  
HETATM   27  H   UNL     1     -10.337   8.322  69.863  1.00  0.00     0.000 HD 
HETATM   28  C   UNL     1      -8.349   8.853  69.668  1.00  0.00    -0.123 C  
HETATM   29  O   UNL     1      -7.170   8.653  69.939  1.00  0.00    -0.049 OA 
BRANCH  28  30
HETATM   30  C   UNL     1      -8.774   9.980  68.753  1.00  0.00    -0.136 C  
BRANCH  30  31
HETATM   31  C   UNL     1      -7.904   9.985  67.500  1.00  0.00    -0.095 C  
BRANCH  31  32
HETATM   32  N   UNL     1      -7.718   8.652  66.957  1.00  0.00    -0.095 N  
HETATM   33  H   UNL     1      -6.818   8.191  67.084  1.00  0.00     0.000 HD 
HETATM   34  C   UNL     1      -8.713   7.989  66.277  1.00  0.00    -0.153 C  
HETATM   35  O   UNL     1      -9.795   8.496  65.995  1.00  0.00    -0.212 OA 
BRANCH  34  36
HETATM   36  C   UNL     1      -8.322   6.563  65.829  1.00  0.00    -0.143 C  
HETATM   37  O   UNL     1      -8.865   6.292  64.527  1.00  0.00    -0.338 OA 
HETATM   38  H   UNL     1      -8.625   5.415  64.252  1.00  0.00     0.000 HD 
BRANCH  36  39
HETATM   39  C   UNL     1      -8.760   5.459  66.832  1.00  0.00    -0.112 C  
HETATM   40  C   UNL     1      -8.665   4.054  66.201  1.00  0.00    -0.116 C  
HETATM   41  C   UNL     1      -7.803   5.483  68.047  1.00  0.00    -0.096 C  
BRANCH  39  42
HETATM   42  C   UNL     1     -10.205   5.728  67.317  1.00  0.00    -0.205 C  
HETATM   43  O   UNL     1     -11.145   5.645  66.250  1.00  0.00    -0.734 OA 
HETATM   44  H   UNL     1     -12.032   5.810  66.547  1.00  0.00     0.000 HD 
ENDBRANCH  39  42
ENDBRANCH  36  39
ENDBRANCH  34  36
ENDBRANCH  31  32
ENDBRANCH  30  31
ENDBRANCH  28  30
ENDBRANCH  25  26
ENDBRANCH  24  25
ENDBRANCH  23  24
ENDBRANCH  22  23
ENDBRANCH  21  22
ENDBRANCH  20  21
ENDBRANCH  18  20
ENDBRANCH  15  16
ENDBRANCH  14  15
ENDBRANCH  12  14
ENDBRANCH   7  10
ENDBRANCH   2   7
TORSDOF 19
ENDMDL
MODEL      119
REMARK 921   NORMALIZED FREE ENERGY PREDICTED BY IDOCK:   -4.74 KCAL/MOL
REMARK 922        TOTAL FREE ENERGY PREDICTED BY IDOCK:  -12.18 KCAL/MOL
REMARK 923 INTER-LIGAND FREE ENERGY PREDICTED BY IDOCK:  -10.41 KCAL/MOL
REMARK 924 INTRA-LIGAND FREE ENERGY PREDICTED BY IDOCK:   -1.77 KCAL/MOL
REMARK 927      BINDING AFFINITY PREDICTED BY RF-SCORE:    0.00 PKD
ROOT
HETATM    1  C   UNL     1      -9.124   4.676  71.206  1.00  0.00    -0.179 C  
HETATM    2  C   UNL     1      -9.466   3.495  72.132  1.00  0.00    -0.191 C  
HETATM    3  C   UNL     1      -9.724   2.226  71.281  1.00  0.00    -0.201 C  
ENDROOT
BRANCH   2   4
HETATM    4  C   UNL     1      -8.247   3.186  73.026  1.00  0.00    -0.079 C  
HETATM    5  O   UNL     1      -8.152   4.106  74.110  1.00  0.00    -0.090 OA 
HETATM    6  H   UNL     1      -7.401   3.916  74.660  1.00  0.00     0.000 HD 
ENDBRANCH   2   4
BRANCH   2   7
HETATM    7  C   UNL     1     -10.706   3.813  73.025  1.00  0.00    -0.145 C  
HETATM    8  O   UNL     1     -10.706   3.081  74.262  1.00  0.00    -0.178 OA 
HETATM    9  H   UNL     1     -11.460   3.275  74.805  1.00  0.00     0.000 HD 
BRANCH   7  10
HETATM   10  C   UNL     1     -10.895   5.307  73.371  1.00  0.00    -0.302 C  
HETATM   11  O   UNL     1     -10.216   5.927  74.184  1.00  0.00    -0.235 OA 
HETATM   12  N   UNL     1     -11.871   5.917  72.614  1.00  0.00    -0.520 N  
HETATM   13  H   UNL     1     -12.458   5.353  71.999  1.00  0.00     0.000 HD 
BRANCH  12  14
HETATM   14  C   UNL     1     -12.075   7.347  72.682  1.00  0.00     0.009 C  
BRANCH  14  15
HETATM   15  C   UNL     1     -12.441   7.967  71.337  1.00  0.00    -0.330 C  
BRANCH  15  16
HETATM   16  C   UNL     1     -11.517   7.407  70.279  1.00  0.00    -0.181 C  
HETATM   17  O   UNL     1     -11.738   6.333  69.730  1.00  0.00    -0.403 OA 
HETATM   18  N   UNL     1     -10.444   8.215  69.981  1.00  0.00    -0.226 N  
HETATM   19  H   UNL     1     -10.383   9.111  70.464  1.00  0.00     0.000 HD 
BRANCH  18  20
HETATM   20  C   UNL     1      -9.382   7.892  69.024  1.00  0.00    -0.151 C  
BRANCH  20  21
HETATM   21  C   UNL     1      -9.067   8.938  67.951  1.00  0.00    -0.139 C  
BRANCH  21  22
HETATM   22  S   UNL     1      -9.122  10.680  68.520  1.00  0.00    -0.166 SA 
BRANCH  22  23
HETATM   23  S   UNL     1     -10.856  11.423  67.691  1.00  0.00    -0.255 SA 
BRANCH  23  24
HETATM   24  C   UNL     1     -12.080  11.013  68.978  1.00  0.00    -0.215 C  
BRANCH  24  25
HETATM   25  C   UNL     1     -11.710  11.654  70.317  1.00  0.00    -0.266 C  
BRANCH  25  26
HETATM   26  N   UNL     1     -11.932  13.096  70.389  1.00  0.00    -0.511 N  
HETATM   27  H   UNL     1     -11.455  13.692  69.712  1.00  0.00     0.000 HD 
HETATM   28  C   UNL     1     -12.752  13.696  71.322  1.00  0.00    -0.361 C  
HETATM   29  O   UNL     1     -13.329  13.086  72.215  1.00  0.00    -0.517 OA 
BRANCH  28  30
HETATM   30  C   UNL     1     -12.923  15.187  71.139  1.00  0.00    -0.488 C  
BRANCH  30  31
HETATM   31  C   UNL     1     -11.571  15.832  70.850  1.00  0.00    -0.405 C  
BRANCH  31  32
HETATM   32  N   UNL     1     -11.531  16.456  69.541  1.00  0.00    -0.297 N  
HETATM   33  H   UNL     1     -12.404  16.771  69.120  1.00  0.00     0.000 HD 
HETATM   34  C   UNL     1     -10.357  16.636  68.847  1.00  0.00    -0.300 C  
HETATM   35  O   UNL     1      -9.272  16.209  69.228  1.00  0.00    -0.255 OA 
BRANCH  34  36
HETATM   36  C   UNL     1     -10.534  17.366  67.497  1.00  0.00    -0.354 C  
HETATM   37  O   UNL     1     -10.080  16.528  66.422  1.00  0.00    -0.283 OA 
HETATM   38  H   UNL     1     -10.188  16.978  65.592  1.00  0.00     0.000 HD 
BRANCH  36  39
HETATM   39  C   UNL     1      -9.816  18.744  67.440  1.00  0.00    -0.357 C  
HETATM   40  C   UNL     1     -10.490  19.690  66.425  1.00  0.00    -0.618 C  
HETATM   41  C   UNL     1      -9.916  19.414  68.831  1.00  0.00    -0.519 C  
BRANCH  39  42
HETATM   42  C   UNL     1      -8.325  18.548  67.076  1.00  0.00    -0.255 C  
HETATM   43  O   UNL     1      -8.126  18.498  65.667  1.00  0.00    -0.445 OA 
HETATM   44  H   UNL     1      -7.211  18.377  65.443  1.00  0.00     0.000 HD 
ENDBRANCH  39  42
ENDBRANCH  36  39
ENDBRANCH  34  36
ENDBRANCH  31  32
ENDBRANCH  30  31
ENDBRANCH  28  30
ENDBRANCH  25  26
ENDBRANCH  24  25
ENDBRANCH  23  24
ENDBRANCH  22  23
ENDBRANCH  21  22
ENDBRANCH  20  21
ENDBRANCH  18  20
ENDBRANCH  15  16
ENDBRANCH  14  15
ENDBRANCH  12  14
ENDBRANCH   7  10
ENDBRANCH   2   7
TORSDOF 19
ENDMDL
MODEL      120
REMARK 921   NORMALIZED FREE ENERGY PREDICTED BY IDOCK:   -4.74 KCAL/MOL
REMARK 922        TOTAL FREE ENERGY PREDICTED BY IDOCK:  -12.18 KCAL/MOL
REMARK 923 INTER-LIGAND FREE ENERGY PREDICTED BY IDOCK:  -10.68 KCAL/MOL
REMARK 924 INTRA-LIGAND FREE ENERGY PREDICTED BY IDOCK:   -1.50 KCAL/MOL
REMARK 927      BINDING AFFINITY PREDICTED BY RF-SCORE:    0.00 PKD
ROOT
HETATM    1  C   UNL     1      -9.958  20.319  68.146  1.00  0.00    -0.421 C  
HETATM    2  C   UNL     1      -9.553  19.341  67.028  1.00  0.00    -0.394 C  
HETATM    3  C   UNL     1     -10.604  19.389  65.891  1.00  0.00    -0.551 C  
ENDROOT
BRANCH   2   4
HETATM    4  C   UNL     1      -8.216  19.806  66.413  1.00  0.00    -0.347 C  
HETATM    5  O   UNL     1      -7.881  21.126  66.836  1.00  0.00    -0.613 OA 
HETATM    6  H   UNL     1      -7.058  21.412  66.458  1.00  0.00     0.000 HD 
ENDBRANCH   2   4
BRANCH   2   7
HETATM    7  C   UNL     1      -9.404  17.885  67.571  1.00  0.00    -0.253 C  
HETATM    8  O   UNL     1     -10.242  17.626  68.710  1.00  0.00    -0.354 OA 
HETATM    9  H   UNL     1     -10.152  16.741  69.040  1.00  0.00     0.000 HD 
BRANCH   7  10
HETATM   10  C   UNL     1      -9.672  16.771  66.535  1.00  0.00    -0.283 C  
HETATM   11  O   UNL     1      -8.888  16.435  65.652  1.00  0.00    -0.406 OA 
HETATM   12  N   UNL     1     -10.869  16.122  66.738  1.00  0.00    -0.228 N  
HETATM   13  H   UNL     1     -11.521  16.475  67.439  1.00  0.00     0.000 HD 
BRANCH  12  14
HETATM   14  C   UNL     1     -11.213  14.946  65.971  1.00  0.00    -0.327 C  
BRANCH  14  15
HETATM   15  C   UNL     1     -11.962  13.894  66.783  1.00  0.00    -0.472 C  
BRANCH  15  16
HETATM   16  C   UNL     1     -11.482  13.958  68.216  1.00  0.00    -0.311 C  
HETATM   17  O   UNL     1     -10.301  13.803  68.510  1.00  0.00    -0.238 OA 
HETATM   18  N   UNL     1     -12.471  14.229  69.133  1.00  0.00    -0.528 N  
HETATM   19  H   UNL     1     -13.412  14.389  68.774  1.00  0.00     0.000 HD 
BRANCH  18  20
HETATM   20  C   UNL     1     -12.282  14.307  70.584  1.00  0.00    -0.357 C  
BRANCH  20  21
HETATM   21  C   UNL     1     -12.706  13.088  71.410  1.00  0.00    -0.281 C  
BRANCH  21  22
HETATM   22  S   UNL     1     -12.476  11.468  70.582  1.00  0.00    -0.275 SA 
BRANCH  22  23
HETATM   23  S   UNL     1     -13.340  10.118  71.877  1.00  0.00    -0.343 SA 
BRANCH  23  24
HETATM   24  C   UNL     1     -12.445   8.586  71.456  1.00  0.00    -0.317 C  
BRANCH  24  25
HETATM   25  C   UNL     1     -12.279   7.689  72.684  1.00  0.00    -0.014 C  
BRANCH  25  26
HETATM   26  N   UNL     1     -11.665   6.390  72.417  1.00  0.00    -0.431 N  
HETATM   27  H   UNL     1     -12.267   5.626  72.112  1.00  0.00     0.000 HD 
HETATM   28  C   UNL     1     -10.315   6.142  72.555  1.00  0.00    -0.193 C  
HETATM   29  O   UNL     1      -9.508   6.968  72.967  1.00  0.00    -0.141 OA 
BRANCH  28  30
HETATM   30  C   UNL     1      -9.885   4.761  72.115  1.00  0.00    -0.228 C  
BRANCH  30  31
HETATM   31  C   UNL     1      -9.689   4.737  70.602  1.00  0.00    -0.200 C  
BRANCH  31  32
HETATM   32  N   UNL     1      -9.461   6.063  70.059  1.00  0.00    -0.155 N  
HETATM   33  H   UNL     1      -8.630   6.578  70.352  1.00  0.00     0.000 HD 
HETATM   34  C   UNL     1     -10.324   6.651  69.165  1.00  0.00    -0.194 C  
HETATM   35  O   UNL     1     -11.392   6.151  68.825  1.00  0.00    -0.344 OA 
BRANCH  34  36
HETATM   36  C   UNL     1      -9.866   8.043  68.674  1.00  0.00    -0.174 C  
HETATM   37  O   UNL     1     -11.001   8.807  68.237  1.00  0.00    -0.456 OA 
HETATM   38  H   UNL     1     -10.719   9.663  67.935  1.00  0.00     0.000 HD 
BRANCH  36  39
HETATM   39  C   UNL     1      -8.797   7.981  67.548  1.00  0.00    -0.129 C  
HETATM   40  C   UNL     1      -7.382   8.252  68.098  1.00  0.00    -0.096 C  
HETATM   41  C   UNL     1      -8.791   6.556  66.946  1.00  0.00    -0.120 C  
BRANCH  39  42
HETATM   42  C   UNL     1      -9.141   9.001  66.436  1.00  0.00    -0.170 C  
HETATM   43  O   UNL     1      -8.801   8.510  65.144  1.00  0.00    -0.335 OA 
HETATM   44  H   UNL     1      -9.011   9.137  64.461  1.00  0.00     0.000 HD 
ENDBRANCH  39  42
ENDBRANCH  36  39
ENDBRANCH  34  36
ENDBRANCH  31  32
ENDBRANCH  30  31
ENDBRANCH  28  30
ENDBRANCH  25  26
ENDBRANCH  24  25
ENDBRANCH  23  24
ENDBRANCH  22  23
ENDBRANCH  21  22
ENDBRANCH  20  21
ENDBRANCH  18  20
ENDBRANCH  15  16
ENDBRANCH  14  15
ENDBRANCH  12  14
ENDBRANCH   7  10
ENDBRANCH   2   7
TORSDOF 19
ENDMDL
MODEL      121
REMARK 921   NORMALIZED FREE ENERGY PREDICTED BY IDOCK:   -4.73 KCAL/MOL
REMARK 922        TOTAL FREE ENERGY PREDICTED BY IDOCK:  -12.17 KCAL/MOL
REMARK 923 INTER-LIGAND FREE ENERGY PREDICTED BY IDOCK:  -11.03 KCAL/MOL
REMARK 924 INTRA-LIGAND FREE ENERGY PREDICTED BY IDOCK:   -1.14 KCAL/MOL
REMARK 927      BINDING AFFINITY PREDICTED BY RF-SCORE:    0.00 PKD
ROOT
HETATM    1  C   UNL     1     -12.695   6.923  71.082  1.00  0.00    -0.331 C  
HETATM    2  C   UNL     1     -11.344   7.278  71.731  1.00  0.00    -0.285 C  
HETATM    3  C   UNL     1     -11.404   8.718  72.299  1.00  0.00    -0.356 C  
ENDROOT
BRANCH   2   4
HETATM    4  C   UNL     1     -11.101   6.340  72.932  1.00  0.00    -0.236 C  
HETATM    5  O   UNL     1     -12.104   5.331  73.014  1.00  0.00    -0.528 OA 
HETATM    6  H   UNL     1     -11.954   4.753  73.753  1.00  0.00     0.000 HD 
ENDBRANCH   2   4
BRANCH   2   7
HETATM    7  C   UNL     1     -10.170   7.143  70.711  1.00  0.00    -0.197 C  
HETATM    8  O   UNL     1      -8.957   6.664  71.317  1.00  0.00    -0.143 OA 
HETATM    9  H   UNL     1      -8.243   6.581  70.696  1.00  0.00     0.000 HD 
BRANCH   7  10
HETATM   10  C   UNL     1     -10.466   6.243  69.491  1.00  0.00    -0.237 C  
HETATM   11  O   UNL     1     -10.647   5.030  69.545  1.00  0.00    -0.182 OA 
HETATM   12  N   UNL     1     -10.583   6.949  68.315  1.00  0.00    -0.208 N  
HETATM   13  H   UNL     1     -10.359   7.945  68.300  1.00  0.00     0.000 HD 
BRANCH  12  14
HETATM   14  C   UNL     1     -11.020   6.298  67.100  1.00  0.00    -0.370 C  
BRANCH  14  15
HETATM   15  C   UNL     1      -9.918   5.491  66.420  1.00  0.00    -0.203 C  
BRANCH  15  16
HETATM   16  C   UNL     1      -8.708   6.380  66.242  1.00  0.00    -0.143 C  
HETATM   17  O   UNL     1      -7.597   6.049  66.644  1.00  0.00    -0.092 OA 
HETATM   18  N   UNL     1      -8.963   7.556  65.575  1.00  0.00    -0.384 N  
HETATM   19  H   UNL     1      -9.914   7.709  65.241  1.00  0.00     0.000 HD 
BRANCH  18  20
HETATM   20  C   UNL     1      -7.978   8.607  65.306  1.00  0.00    -0.114 C  
BRANCH  20  21
HETATM   21  C   UNL     1      -8.289  10.009  65.838  1.00  0.00    -0.127 C  
BRANCH  21  22
HETATM   22  S   UNL     1      -8.766  10.083  67.607  1.00  0.00    -0.121 SA 
BRANCH  22  23
HETATM   23  S   UNL     1     -10.811  10.336  67.564  1.00  0.00    -0.275 SA 
BRANCH  23  24
HETATM   24  C   UNL     1     -11.186  10.568  69.332  1.00  0.00    -0.269 C  
BRANCH  24  25
HETATM   25  C   UNL     1     -11.727  11.974  69.603  1.00  0.00    -0.335 C  
BRANCH  25  26
HETATM   26  N   UNL     1     -10.784  13.056  69.336  1.00  0.00    -0.431 N  
HETATM   27  H   UNL     1      -9.815  12.812  69.132  1.00  0.00     0.000 HD 
HETATM   28  C   UNL     1     -11.132  14.391  69.344  1.00  0.00    -0.261 C  
HETATM   29  O   UNL     1     -12.251  14.802  69.629  1.00  0.00    -0.306 OA 
BRANCH  28  30
HETATM   30  C   UNL     1     -10.022  15.330  68.928  1.00  0.00    -0.225 C  
BRANCH  30  31
HETATM   31  C   UNL     1     -10.579  16.418  68.016  1.00  0.00    -0.314 C  
BRANCH  31  32
HETATM   32  N   UNL     1     -11.044  15.885  66.749  1.00  0.00    -0.148 N  
HETATM   33  H   UNL     1     -11.994  15.518  66.689  1.00  0.00     0.000 HD 
HETATM   34  C   UNL     1     -10.251  15.856  65.626  1.00  0.00    -0.379 C  
HETATM   35  O   UNL     1      -9.069  16.189  65.623  1.00  0.00    -0.394 OA 
BRANCH  34  36
HETATM   36  C   UNL     1     -10.959  15.295  64.373  1.00  0.00    -0.028 C  
HETATM   37  O   UNL     1     -12.035  16.164  63.986  1.00  0.00    -1.196 OA 
HETATM   38  H   UNL     1     -12.470  15.819  63.216  1.00  0.00     0.000 HD 
BRANCH  36  39
HETATM   39  C   UNL     1     -11.483  13.844  64.557  1.00  0.00    -0.393 C  
HETATM   40  C   UNL     1     -12.488  13.751  65.724  1.00  0.00    -0.527 C  
HETATM   41  C   UNL     1     -12.231  13.418  63.271  1.00  0.00    -0.314 C  
BRANCH  39  42
HETATM   42  C   UNL     1     -10.297  12.880  64.798  1.00  0.00    -0.323 C  
HETATM   43  O   UNL     1      -9.542  12.662  63.611  1.00  0.00    -0.654 OA 
HETATM   44  H   UNL     1      -8.814  12.070  63.759  1.00  0.00     0.000 HD 
ENDBRANCH  39  42
ENDBRANCH  36  39
ENDBRANCH  34  36
ENDBRANCH  31  32
ENDBRANCH  30  31
ENDBRANCH  28  30
ENDBRANCH  25  26
ENDBRANCH  24  25
ENDBRANCH  23  24
ENDBRANCH  22  23
ENDBRANCH  21  22
ENDBRANCH  20  21
ENDBRANCH  18  20
ENDBRANCH  15  16
ENDBRANCH  14  15
ENDBRANCH  12  14
ENDBRANCH   7  10
ENDBRANCH   2   7
TORSDOF 19
ENDMDL
MODEL      122
REMARK 921   NORMALIZED FREE ENERGY PREDICTED BY IDOCK:   -4.73 KCAL/MOL
REMARK 922        TOTAL FREE ENERGY PREDICTED BY IDOCK:  -12.16 KCAL/MOL
REMARK 923 INTER-LIGAND FREE ENERGY PREDICTED BY IDOCK:   -9.58 KCAL/MOL
REMARK 924 INTRA-LIGAND FREE ENERGY PREDICTED BY IDOCK:   -2.58 KCAL/MOL
REMARK 927      BINDING AFFINITY PREDICTED BY RF-SCORE:    0.00 PKD
ROOT
HETATM    1  C   UNL     1      -9.959   3.134  71.809  1.00  0.00    -0.192 C  
HETATM    2  C   UNL     1      -9.931   4.362  72.738  1.00  0.00    -0.209 C  
HETATM    3  C   UNL     1     -11.320   4.545  73.399  1.00  0.00    -0.376 C  
ENDROOT
BRANCH   2   4
HETATM    4  C   UNL     1      -8.928   4.104  73.882  1.00  0.00    -0.091 C  
HETATM    5  O   UNL     1      -7.930   5.121  73.937  1.00  0.00    -0.101 OA 
HETATM    6  H   UNL     1      -7.312   4.961  74.641  1.00  0.00     0.000 HD 
ENDBRANCH   2   4
BRANCH   2   7
HETATM    7  C   UNL     1      -9.522   5.653  71.961  1.00  0.00    -0.150 C  
HETATM    8  O   UNL     1      -8.563   5.398  70.921  1.00  0.00    -0.122 OA 
HETATM    9  H   UNL     1      -8.315   6.183  70.448  1.00  0.00     0.000 HD 
BRANCH   7  10
HETATM   10  C   UNL     1     -10.696   6.432  71.327  1.00  0.00    -0.241 C  
HETATM   11  O   UNL     1     -11.380   6.027  70.392  1.00  0.00    -0.338 OA 
HETATM   12  N   UNL     1     -10.962   7.622  71.968  1.00  0.00    -0.236 N  
HETATM   13  H   UNL     1     -10.329   7.955  72.696  1.00  0.00     0.000 HD 
BRANCH  12  14
HETATM   14  C   UNL     1     -12.125   8.407  71.620  1.00  0.00    -0.313 C  
BRANCH  14  15
HETATM   15  C   UNL     1     -11.832   9.497  70.595  1.00  0.00    -0.301 C  
BRANCH  15  16
HETATM   16  C   UNL     1     -12.443  10.793  71.080  1.00  0.00    -0.420 C  
HETATM   17  O   UNL     1     -13.317  10.814  71.941  1.00  0.00    -0.427 OA 
HETATM   18  N   UNL     1     -11.914  11.921  70.495  1.00  0.00    -0.484 N  
HETATM   19  H   UNL     1     -11.157  11.791  69.826  1.00  0.00     0.000 HD 
BRANCH  18  20
HETATM   20  C   UNL     1     -12.353  13.295  70.757  1.00  0.00    -0.344 C  
BRANCH  20  21
HETATM   21  C   UNL     1     -12.274  14.287  69.593  1.00  0.00    -0.323 C  
BRANCH  21  22
HETATM   22  S   UNL     1     -11.142  15.705  69.854  1.00  0.00    -0.352 SA 
BRANCH  22  23
HETATM   23  S   UNL     1     -10.676  16.331  67.947  1.00  0.00    -0.324 SA 
BRANCH  23  24
HETATM   24  C   UNL     1     -11.142  14.871  66.961  1.00  0.00    -0.338 C  
BRANCH  24  25
HETATM   25  C   UNL     1     -11.210  15.210  65.470  1.00  0.00    -0.320 C  
BRANCH  25  26
HETATM   26  N   UNL     1     -10.622  14.208  64.585  1.00  0.00    -0.552 N  
HETATM   27  H   UNL     1      -9.672  14.363  64.246  1.00  0.00     0.000 HD 
HETATM   28  C   UNL     1     -11.279  13.064  64.183  1.00  0.00    -0.399 C  
HETATM   29  O   UNL     1     -12.439  12.803  64.483  1.00  0.00    -0.499 OA 
BRANCH  28  30
HETATM   30  C   UNL     1     -10.437  12.115  63.361  1.00  0.00    -0.450 C  
BRANCH  30  31
HETATM   31  C   UNL     1     -10.380  10.751  64.041  1.00  0.00    -0.286 C  
BRANCH  31  32
HETATM   32  N   UNL     1     -10.146  10.862  65.469  1.00  0.00    -0.254 N  
HETATM   33  H   UNL     1     -10.098  11.790  65.889  1.00  0.00     0.000 HD 
HETATM   34  C   UNL     1      -9.987   9.760  66.277  1.00  0.00    -0.262 C  
HETATM   35  O   UNL     1      -9.937   8.610  65.852  1.00  0.00    -0.162 OA 
BRANCH  34  36
HETATM   36  C   UNL     1      -9.800  10.101  67.772  1.00  0.00    -0.163 C  
HETATM   37  O   UNL     1     -10.211  11.455  68.022  1.00  0.00    -0.177 OA 
HETATM   38  H   UNL     1     -10.096  11.664  68.941  1.00  0.00     0.000 HD 
BRANCH  36  39
HETATM   39  C   UNL     1      -8.347   9.882  68.279  1.00  0.00    -0.110 C  
HETATM   40  C   UNL     1      -7.312  10.451  67.288  1.00  0.00    -0.090 C  
HETATM   41  C   UNL     1      -8.168  10.638  69.617  1.00  0.00     0.046 C  
BRANCH  39  42
HETATM   42  C   UNL     1      -8.090   8.373  68.509  1.00  0.00    -0.123 C  
HETATM   43  O   UNL     1      -7.876   8.076  69.885  1.00  0.00    -0.097 OA 
HETATM   44  H   UNL     1      -7.718   7.150  70.027  1.00  0.00     0.000 HD 
ENDBRANCH  39  42
ENDBRANCH  36  39
ENDBRANCH  34  36
ENDBRANCH  31  32
ENDBRANCH  30  31
ENDBRANCH  28  30
ENDBRANCH  25  26
ENDBRANCH  24  25
ENDBRANCH  23  24
ENDBRANCH  22  23
ENDBRANCH  21  22
ENDBRANCH  20  21
ENDBRANCH  18  20
ENDBRANCH  15  16
ENDBRANCH  14  15
ENDBRANCH  12  14
ENDBRANCH   7  10
ENDBRANCH   2   7
TORSDOF 19
ENDMDL
MODEL      123
REMARK 921   NORMALIZED FREE ENERGY PREDICTED BY IDOCK:   -4.72 KCAL/MOL
REMARK 922        TOTAL FREE ENERGY PREDICTED BY IDOCK:  -12.14 KCAL/MOL
REMARK 923 INTER-LIGAND FREE ENERGY PREDICTED BY IDOCK:  -10.79 KCAL/MOL
REMARK 924 INTRA-LIGAND FREE ENERGY PREDICTED BY IDOCK:   -1.35 KCAL/MOL
REMARK 927      BINDING AFFINITY PREDICTED BY RF-SCORE:    0.00 PKD
ROOT
HETATM    1  C   UNL     1     -10.406  20.255  68.488  1.00  0.00    -0.262 C  
HETATM    2  C   UNL     1      -9.677  19.479  67.375  1.00  0.00    -0.449 C  
HETATM    3  C   UNL     1     -10.493  19.566  66.061  1.00  0.00    -0.611 C  
ENDROOT
BRANCH   2   4
HETATM    4  C   UNL     1      -8.318  20.156  67.096  1.00  0.00    -0.337 C  
HETATM    5  O   UNL     1      -7.958  20.049  65.721  1.00  0.00    -0.448 OA 
HETATM    6  H   UNL     1      -7.121  20.465  65.550  1.00  0.00     0.000 HD 
ENDBRANCH   2   4
BRANCH   2   7
HETATM    7  C   UNL     1      -9.450  17.988  67.778  1.00  0.00    -0.264 C  
HETATM    8  O   UNL     1     -10.423  17.510  68.722  1.00  0.00    -0.355 OA 
HETATM    9  H   UNL     1     -10.285  16.603  68.966  1.00  0.00     0.000 HD 
BRANCH   7  10
HETATM   10  C   UNL     1      -9.420  16.991  66.598  1.00  0.00    -0.263 C  
HETATM   11  O   UNL     1      -8.537  16.942  65.747  1.00  0.00    -0.505 OA 
HETATM   12  N   UNL     1     -10.460  16.089  66.627  1.00  0.00    -0.304 N  
HETATM   13  H   UNL     1     -11.208  16.204  67.311  1.00  0.00     0.000 HD 
BRANCH  12  14
HETATM   14  C   UNL     1     -10.505  14.980  65.700  1.00  0.00    -0.350 C  
BRANCH  14  15
HETATM   15  C   UNL     1      -9.951  13.684  66.283  1.00  0.00    -0.305 C  
BRANCH  15  16
HETATM   16  C   UNL     1     -10.403  12.531  65.415  1.00  0.00    -0.282 C  
HETATM   17  O   UNL     1     -11.241  11.722  65.798  1.00  0.00    -0.322 OA 
HETATM   18  N   UNL     1      -9.815  12.497  64.171  1.00  0.00    -0.599 N  
HETATM   19  H   UNL     1      -9.167  13.248  63.938  1.00  0.00     0.000 HD 
BRANCH  18  20
HETATM   20  C   UNL     1     -10.047  11.467  63.154  1.00  0.00    -0.352 C  
BRANCH  20  21
HETATM   21  C   UNL     1      -8.831  10.662  62.685  1.00  0.00    -0.270 C  
BRANCH  21  22
HETATM   22  S   UNL     1      -7.862   9.865  64.022  1.00  0.00    -0.149 SA 
BRANCH  22  23
HETATM   23  S   UNL     1      -7.744   7.890  63.445  1.00  0.00    -0.142 SA 
BRANCH  23  24
HETATM   24  C   UNL     1      -8.132   7.031  65.006  1.00  0.00    -0.119 C  
BRANCH  24  25
HETATM   25  C   UNL     1      -7.989   5.515  64.852  1.00  0.00    -0.115 C  
BRANCH  25  26
HETATM   26  N   UNL     1      -8.219   4.750  66.075  1.00  0.00    -0.110 N  
HETATM   27  H   UNL     1      -7.415   4.522  66.659  1.00  0.00     0.000 HD 
HETATM   28  C   UNL     1      -9.465   4.319  66.482  1.00  0.00    -0.185 C  
HETATM   29  O   UNL     1     -10.491   4.487  65.832  1.00  0.00    -0.280 OA 
BRANCH  28  30
HETATM   30  C   UNL     1      -9.482   3.644  67.835  1.00  0.00    -0.224 C  
BRANCH  30  31
HETATM   31  C   UNL     1      -8.927   4.592  68.893  1.00  0.00    -0.108 C  
BRANCH  31  32
HETATM   32  N   UNL     1      -9.761   5.767  69.066  1.00  0.00    -0.133 N  
HETATM   33  H   UNL     1      -9.752   6.486  68.342  1.00  0.00     0.000 HD 
HETATM   34  C   UNL     1     -10.562   5.947  70.169  1.00  0.00    -0.292 C  
HETATM   35  O   UNL     1     -10.570   5.184  71.131  1.00  0.00    -0.205 OA 
BRANCH  34  36
HETATM   36  C   UNL     1     -11.405   7.241  70.128  1.00  0.00    -0.207 C  
HETATM   37  O   UNL     1     -11.268   7.875  68.847  1.00  0.00    -0.404 OA 
HETATM   38  H   UNL     1     -11.786   8.671  68.822  1.00  0.00     0.000 HD 
BRANCH  36  39
HETATM   39  C   UNL     1     -11.053   8.244  71.262  1.00  0.00    -0.296 C  
HETATM   40  C   UNL     1      -9.548   8.207  71.601  1.00  0.00    -0.237 C  
HETATM   41  C   UNL     1     -11.381   9.676  70.777  1.00  0.00    -0.409 C  
BRANCH  39  42
HETATM   42  C   UNL     1     -11.891   7.930  72.524  1.00  0.00    -0.335 C  
HETATM   43  O   UNL     1     -11.143   7.191  73.485  1.00  0.00    -0.564 OA 
HETATM   44  H   UNL     1     -11.657   6.998  74.260  1.00  0.00     0.000 HD 
ENDBRANCH  39  42
ENDBRANCH  36  39
ENDBRANCH  34  36
ENDBRANCH  31  32
ENDBRANCH  30  31
ENDBRANCH  28  30
ENDBRANCH  25  26
ENDBRANCH  24  25
ENDBRANCH  23  24
ENDBRANCH  22  23
ENDBRANCH  21  22
ENDBRANCH  20  21
ENDBRANCH  18  20
ENDBRANCH  15  16
ENDBRANCH  14  15
ENDBRANCH  12  14
ENDBRANCH   7  10
ENDBRANCH   2   7
TORSDOF 19
ENDMDL
MODEL      124
REMARK 921   NORMALIZED FREE ENERGY PREDICTED BY IDOCK:   -4.71 KCAL/MOL
REMARK 922        TOTAL FREE ENERGY PREDICTED BY IDOCK:  -12.12 KCAL/MOL
REMARK 923 INTER-LIGAND FREE ENERGY PREDICTED BY IDOCK:   -9.71 KCAL/MOL
REMARK 924 INTRA-LIGAND FREE ENERGY PREDICTED BY IDOCK:   -2.41 KCAL/MOL
REMARK 927      BINDING AFFINITY PREDICTED BY RF-SCORE:    0.00 PKD
ROOT
HETATM    1  C   UNL     1     -12.282  13.686  63.245  1.00  0.00    -0.096 C  
HETATM    2  C   UNL     1     -11.715  13.769  64.675  1.00  0.00    -0.417 C  
HETATM    3  C   UNL     1     -12.882  13.807  65.693  1.00  0.00    -0.456 C  
ENDROOT
BRANCH   2   4
HETATM    4  C   UNL     1     -10.911  12.485  64.972  1.00  0.00    -0.290 C  
HETATM    5  O   UNL     1      -9.507  12.730  64.925  1.00  0.00    -0.445 OA 
HETATM    6  H   UNL     1      -9.012  11.940  65.107  1.00  0.00     0.000 HD 
ENDBRANCH   2   4
BRANCH   2   7
HETATM    7  C   UNL     1     -10.797  15.018  64.851  1.00  0.00    -0.411 C  
HETATM    8  O   UNL     1     -11.222  16.140  64.058  1.00  0.00    -1.164 OA 
HETATM    9  H   UNL     1     -10.663  16.900  64.165  1.00  0.00     0.000 HD 
BRANCH   7  10
HETATM   10  C   UNL     1     -10.640  15.513  66.306  1.00  0.00    -0.307 C  
HETATM   11  O   UNL     1     -10.834  16.667  66.676  1.00  0.00    -0.184 OA 
HETATM   12  N   UNL     1     -10.324  14.504  67.188  1.00  0.00    -0.264 N  
HETATM   13  H   UNL     1     -10.105  13.573  66.832  1.00  0.00     0.000 HD 
BRANCH  12  14
HETATM   14  C   UNL     1     -10.299  14.746  68.613  1.00  0.00    -0.245 C  
BRANCH  14  15
HETATM   15  C   UNL     1     -11.646  14.509  69.289  1.00  0.00    -0.339 C  
BRANCH  15  16
HETATM   16  C   UNL     1     -11.906  13.021  69.339  1.00  0.00    -0.322 C  
HETATM   17  O   UNL     1     -12.026  12.350  68.318  1.00  0.00    -0.334 OA 
HETATM   18  N   UNL     1     -11.966  12.499  70.611  1.00  0.00    -0.513 N  
HETATM   19  H   UNL     1     -11.804  13.139  71.387  1.00  0.00     0.000 HD 
BRANCH  18  20
HETATM   20  C   UNL     1     -12.243  11.098  70.939  1.00  0.00    -0.364 C  
BRANCH  20  21
HETATM   21  C   UNL     1     -13.250  10.830  72.061  1.00  0.00    -0.361 C  
BRANCH  21  22
HETATM   22  S   UNL     1     -13.363   9.082  72.605  1.00  0.00    -0.186 SA 
BRANCH  22  23
HETATM   23  S   UNL     1     -12.425   8.029  71.103  1.00  0.00    -0.126 SA 
BRANCH  23  24
HETATM   24  C   UNL     1     -11.524   6.762  72.054  1.00  0.00    -0.282 C  
BRANCH  24  25
HETATM   25  C   UNL     1     -10.710   5.853  71.131  1.00  0.00    -0.265 C  
BRANCH  25  26
HETATM   26  N   UNL     1     -11.032   5.974  69.711  1.00  0.00    -0.372 N  
HETATM   27  H   UNL     1     -11.937   6.367  69.454  1.00  0.00     0.000 HD 
HETATM   28  C   UNL     1     -10.178   5.586  68.699  1.00  0.00    -0.193 C  
HETATM   29  O   UNL     1      -9.091   5.052  68.892  1.00  0.00    -0.103 OA 
BRANCH  28  30
HETATM   30  C   UNL     1     -10.670   5.909  67.307  1.00  0.00    -0.380 C  
BRANCH  30  31
HETATM   31  C   UNL     1      -9.482   6.168  66.385  1.00  0.00    -0.144 C  
BRANCH  31  32
HETATM   32  N   UNL     1      -8.524   7.085  66.974  1.00  0.00    -0.120 N  
HETATM   33  H   UNL     1      -7.822   6.717  67.615  1.00  0.00     0.000 HD 
HETATM   34  C   UNL     1      -8.528   8.432  66.698  1.00  0.00    -0.111 C  
HETATM   35  O   UNL     1      -9.387   8.981  66.013  1.00  0.00    -0.205 OA 
BRANCH  34  36
HETATM   36  C   UNL     1      -7.391   9.217  67.389  1.00  0.00    -0.084 C  
HETATM   37  O   UNL     1      -6.295   8.336  67.683  1.00  0.00    -0.051 OA 
HETATM   38  H   UNL     1      -5.596   8.819  68.108  1.00  0.00     0.000 HD 
BRANCH  36  39
HETATM   39  C   UNL     1      -7.845   9.955  68.679  1.00  0.00    -0.086 C  
HETATM   40  C   UNL     1      -6.655  10.224  69.623  1.00  0.00    -0.077 C  
HETATM   41  C   UNL     1      -8.438  11.328  68.283  1.00  0.00    -0.152 C  
BRANCH  39  42
HETATM   42  C   UNL     1      -8.927   9.125  69.410  1.00  0.00    -0.147 C  
HETATM   43  O   UNL     1      -8.383   7.948  69.998  1.00  0.00    -0.118 OA 
HETATM   44  H   UNL     1      -9.047   7.438  70.446  1.00  0.00     0.000 HD 
ENDBRANCH  39  42
ENDBRANCH  36  39
ENDBRANCH  34  36
ENDBRANCH  31  32
ENDBRANCH  30  31
ENDBRANCH  28  30
ENDBRANCH  25  26
ENDBRANCH  24  25
ENDBRANCH  23  24
ENDBRANCH  22  23
ENDBRANCH  21  22
ENDBRANCH  20  21
ENDBRANCH  18  20
ENDBRANCH  15  16
ENDBRANCH  14  15
ENDBRANCH  12  14
ENDBRANCH   7  10
ENDBRANCH   2   7
TORSDOF 19
ENDMDL
MODEL      125
REMARK 921   NORMALIZED FREE ENERGY PREDICTED BY IDOCK:   -4.70 KCAL/MOL
REMARK 922        TOTAL FREE ENERGY PREDICTED BY IDOCK:  -12.09 KCAL/MOL
REMARK 923 INTER-LIGAND FREE ENERGY PREDICTED BY IDOCK:   -8.81 KCAL/MOL
REMARK 924 INTRA-LIGAND FREE ENERGY PREDICTED BY IDOCK:   -3.28 KCAL/MOL
REMARK 927      BINDING AFFINITY PREDICTED BY RF-SCORE:    0.00 PKD
ROOT
HETATM    1  C   UNL     1     -10.849  17.489  67.712  1.00  0.00    -0.251 C  
HETATM    2  C   UNL     1      -9.864  18.030  66.659  1.00  0.00    -0.352 C  
HETATM    3  C   UNL     1     -10.510  19.222  65.909  1.00  0.00    -0.534 C  
ENDROOT
BRANCH   2   4
HETATM    4  C   UNL     1      -8.615  18.584  67.376  1.00  0.00    -0.258 C  
HETATM    5  O   UNL     1      -7.540  18.788  66.462  1.00  0.00    -0.229 OA 
HETATM    6  H   UNL     1      -6.771  19.128  66.904  1.00  0.00     0.000 HD 
ENDBRANCH   2   4
BRANCH   2   7
HETATM    7  C   UNL     1      -9.442  16.916  65.650  1.00  0.00     0.170 C  
HETATM    8  O   UNL     1      -8.595  15.917  66.244  1.00  0.00    -0.312 OA 
HETATM    9  H   UNL     1      -8.339  15.240  65.631  1.00  0.00     0.000 HD 
BRANCH   7  10
HETATM   10  C   UNL     1     -10.613  16.181  64.962  1.00  0.00    -0.276 C  
HETATM   11  O   UNL     1     -11.458  16.721  64.254  1.00  0.00    -1.125 OA 
HETATM   12  N   UNL     1     -10.584  14.818  65.158  1.00  0.00    -0.388 N  
HETATM   13  H   UNL     1      -9.907  14.416  65.806  1.00  0.00     0.000 HD 
BRANCH  12  14
HETATM   14  C   UNL     1     -11.503  13.949  64.456  1.00  0.00    -0.381 C  
BRANCH  14  15
HETATM   15  C   UNL     1     -11.395  12.488  64.882  1.00  0.00    -0.351 C  
BRANCH  15  16
HETATM   16  C   UNL     1     -10.372  11.803  64.003  1.00  0.00    -0.356 C  
HETATM   17  O   UNL     1      -9.924  12.339  62.994  1.00  0.00    -0.320 OA 
HETATM   18  N   UNL     1      -9.983  10.561  64.450  1.00  0.00    -0.342 N  
HETATM   19  H   UNL     1     -10.384  10.233  65.328  1.00  0.00     0.000 HD 
BRANCH  18  20
HETATM   20  C   UNL     1      -9.038   9.674  63.767  1.00  0.00    -0.178 C  
BRANCH  20  21
HETATM   21  C   UNL     1      -8.392   8.565  64.603  1.00  0.00    -0.146 C  
BRANCH  21  22
HETATM   22  S   UNL     1      -9.104   8.336  66.278  1.00  0.00    -0.193 SA 
BRANCH  22  23
HETATM   23  S   UNL     1      -7.645   9.053  67.544  1.00  0.00    -0.089 SA 
BRANCH  23  24
HETATM   24  C   UNL     1      -6.624  10.040  66.401  1.00  0.00    -0.080 C  
BRANCH  24  25
HETATM   25  C   UNL     1      -5.286  10.417  67.041  1.00  0.00    -0.041 C  
BRANCH  25  26
HETATM   26  N   UNL     1      -5.226  11.771  67.585  1.00  0.00    -0.057 N  
HETATM   27  H   UNL     1      -4.974  12.533  66.955  1.00  0.00     0.000 HD 
HETATM   28  C   UNL     1      -5.491  12.076  68.904  1.00  0.00    -0.050 C  
HETATM   29  O   UNL     1      -5.748  11.236  69.760  1.00  0.00    -0.059 OA 
BRANCH  28  30
HETATM   30  C   UNL     1      -5.480  13.554  69.219  1.00  0.00    -0.076 C  
BRANCH  30  31
HETATM   31  C   UNL     1      -6.792  14.189  68.767  1.00  0.00    -0.101 C  
BRANCH  31  32
HETATM   32  N   UNL     1      -7.938  13.354  69.073  1.00  0.00    -0.336 N  
HETATM   33  H   UNL     1      -8.050  13.002  70.023  1.00  0.00     0.000 HD 
HETATM   34  C   UNL     1      -8.878  13.019  68.127  1.00  0.00    -0.194 C  
HETATM   35  O   UNL     1      -8.781  13.317  66.940  1.00  0.00    -0.207 OA 
BRANCH  34  36
HETATM   36  C   UNL     1     -10.043  12.164  68.676  1.00  0.00    -0.151 C  
HETATM   37  O   UNL     1     -10.450  11.200  67.692  1.00  0.00    -0.182 OA 
HETATM   38  H   UNL     1     -11.166  10.675  68.030  1.00  0.00     0.000 HD 
BRANCH  36  39
HETATM   39  C   UNL     1     -11.265  13.007  69.136  1.00  0.00    -0.297 C  
HETATM   40  C   UNL     1     -11.971  12.362  70.346  1.00  0.00    -0.342 C  
HETATM   41  C   UNL     1     -10.766  14.402  69.583  1.00  0.00    -0.084 C  
BRANCH  39  42
HETATM   42  C   UNL     1     -12.262  13.175  67.965  1.00  0.00    -0.048 C  
HETATM   43  O   UNL     1     -12.494  14.546  67.659  1.00  0.00    -0.595 OA 
HETATM   44  H   UNL     1     -13.106  14.649  66.940  1.00  0.00     0.000 HD 
ENDBRANCH  39  42
ENDBRANCH  36  39
ENDBRANCH  34  36
ENDBRANCH  31  32
ENDBRANCH  30  31
ENDBRANCH  28  30
ENDBRANCH  25  26
ENDBRANCH  24  25
ENDBRANCH  23  24
ENDBRANCH  22  23
ENDBRANCH  21  22
ENDBRANCH  20  21
ENDBRANCH  18  20
ENDBRANCH  15  16
ENDBRANCH  14  15
ENDBRANCH  12  14
ENDBRANCH   7  10
ENDBRANCH   2   7
TORSDOF 19
ENDMDL
MODEL      126
REMARK 921   NORMALIZED FREE ENERGY PREDICTED BY IDOCK:   -4.69 KCAL/MOL
REMARK 922        TOTAL FREE ENERGY PREDICTED BY IDOCK:  -12.09 KCAL/MOL
REMARK 923 INTER-LIGAND FREE ENERGY PREDICTED BY IDOCK:  -10.15 KCAL/MOL
REMARK 924 INTRA-LIGAND FREE ENERGY PREDICTED BY IDOCK:   -1.94 KCAL/MOL
REMARK 927      BINDING AFFINITY PREDICTED BY RF-SCORE:    0.00 PKD
ROOT
HETATM    1  C   UNL     1     -12.667  13.560  65.542  1.00  0.00    -0.493 C  
HETATM    2  C   UNL     1     -11.221  13.874  65.116  1.00  0.00    -0.326 C  
HETATM    3  C   UNL     1     -10.875  13.081  63.832  1.00  0.00    -0.347 C  
ENDROOT
BRANCH   2   4
HETATM    4  C   UNL     1     -11.117  15.371  64.752  1.00  0.00    -0.403 C  
HETATM    5  O   UNL     1     -12.092  15.737  63.779  1.00  0.00    -1.125 OA 
HETATM    6  H   UNL     1     -12.028  16.658  63.555  1.00  0.00     0.000 HD 
ENDBRANCH   2   4
BRANCH   2   7
HETATM    7  C   UNL     1     -10.207  13.538  66.254  1.00  0.00    -0.299 C  
HETATM    8  O   UNL     1      -9.048  14.389  66.239  1.00  0.00    -0.455 OA 
HETATM    9  H   UNL     1      -8.432  14.184  66.932  1.00  0.00     0.000 HD 
BRANCH   7  10
HETATM   10  C   UNL     1     -10.793  13.579  67.683  1.00  0.00    -0.260 C  
HETATM   11  O   UNL     1     -11.232  14.586  68.230  1.00  0.00    -0.256 OA 
HETATM   12  N   UNL     1     -10.848  12.338  68.279  1.00  0.00    -0.214 N  
HETATM   13  H   UNL     1     -10.413  11.538  67.820  1.00  0.00     0.000 HD 
BRANCH  12  14
HETATM   14  C   UNL     1     -11.516  12.156  69.549  1.00  0.00    -0.265 C  
BRANCH  14  15
HETATM   15  C   UNL     1     -12.639  11.125  69.496  1.00  0.00     0.002 C  
BRANCH  15  16
HETATM   16  C   UNL     1     -12.501  10.198  70.683  1.00  0.00    -0.284 C  
HETATM   17  O   UNL     1     -11.592  10.322  71.499  1.00  0.00    -0.273 OA 
HETATM   18  N   UNL     1     -13.487   9.243  70.773  1.00  0.00    -0.512 N  
HETATM   19  H   UNL     1     -14.222   9.261  70.067  1.00  0.00     0.000 HD 
BRANCH  18  20
HETATM   20  C   UNL     1     -13.565   8.201  71.801  1.00  0.00    -0.359 C  
BRANCH  20  21
HETATM   21  C   UNL     1     -12.775   6.913  71.552  1.00  0.00    -0.349 C  
BRANCH  21  22
HETATM   22  S   UNL     1     -11.083   6.887  72.260  1.00  0.00    -0.259 SA 
BRANCH  22  23
HETATM   23  S   UNL     1     -10.828   4.937  72.873  1.00  0.00    -0.251 SA 
BRANCH  23  24
HETATM   24  C   UNL     1     -10.255   4.144  71.334  1.00  0.00    -0.021 C  
BRANCH  24  25
HETATM   25  C   UNL     1      -9.484   5.133  70.457  1.00  0.00    -0.169 C  
BRANCH  25  26
HETATM   26  N   UNL     1     -10.055   5.351  69.130  1.00  0.00    -0.203 N  
HETATM   27  H   UNL     1     -10.765   6.075  69.024  1.00  0.00     0.000 HD 
HETATM   28  C   UNL     1      -9.686   4.630  68.014  1.00  0.00    -0.140 C  
HETATM   29  O   UNL     1      -8.885   3.701  68.035  1.00  0.00    -0.099 OA 
BRANCH  28  30
HETATM   30  C   UNL     1     -10.322   5.102  66.726  1.00  0.00    -0.306 C  
BRANCH  30  31
HETATM   31  C   UNL     1     -10.848   6.523  66.899  1.00  0.00    -0.357 C  
BRANCH  31  32
HETATM   32  N   UNL     1     -10.049   7.494  66.173  1.00  0.00    -0.411 N  
HETATM   33  H   UNL     1      -9.397   7.161  65.463  1.00  0.00     0.000 HD 
HETATM   34  C   UNL     1     -10.140   8.845  66.409  1.00  0.00    -0.263 C  
HETATM   35  O   UNL     1     -10.826   9.333  67.302  1.00  0.00    -0.238 OA 
BRANCH  34  36
HETATM   36  C   UNL     1      -9.240   9.703  65.491  1.00  0.00    -0.234 C  
HETATM   37  O   UNL     1      -9.331   9.233  64.137  1.00  0.00    -0.416 OA 
HETATM   38  H   UNL     1      -8.777   9.761  63.573  1.00  0.00     0.000 HD 
BRANCH  36  39
HETATM   39  C   UNL     1      -7.754   9.743  65.945  1.00  0.00    -0.105 C  
HETATM   40  C   UNL     1      -7.331   8.416  66.608  1.00  0.00    -0.082 C  
HETATM   41  C   UNL     1      -6.859   9.941  64.699  1.00  0.00    -0.126 C  
BRANCH  39  42
HETATM   42  C   UNL     1      -7.533  10.921  66.924  1.00  0.00    -0.128 C  
HETATM   43  O   UNL     1      -8.517  10.948  67.952  1.00  0.00    -0.125 OA 
HETATM   44  H   UNL     1      -8.382  11.671  68.553  1.00  0.00     0.000 HD 
ENDBRANCH  39  42
ENDBRANCH  36  39
ENDBRANCH  34  36
ENDBRANCH  31  32
ENDBRANCH  30  31
ENDBRANCH  28  30
ENDBRANCH  25  26
ENDBRANCH  24  25
ENDBRANCH  23  24
ENDBRANCH  22  23
ENDBRANCH  21  22
ENDBRANCH  20  21
ENDBRANCH  18  20
ENDBRANCH  15  16
ENDBRANCH  14  15
ENDBRANCH  12  14
ENDBRANCH   7  10
ENDBRANCH   2   7
TORSDOF 19
ENDMDL
MODEL      127
REMARK 921   NORMALIZED FREE ENERGY PREDICTED BY IDOCK:   -4.69 KCAL/MOL
REMARK 922        TOTAL FREE ENERGY PREDICTED BY IDOCK:  -12.09 KCAL/MOL
REMARK 923 INTER-LIGAND FREE ENERGY PREDICTED BY IDOCK:  -10.37 KCAL/MOL
REMARK 924 INTRA-LIGAND FREE ENERGY PREDICTED BY IDOCK:   -1.71 KCAL/MOL
REMARK 927      BINDING AFFINITY PREDICTED BY RF-SCORE:    0.00 PKD
ROOT
HETATM    1  C   UNL     1      -9.958   4.488  70.041  1.00  0.00    -0.280 C  
HETATM    2  C   UNL     1      -9.102   3.690  71.042  1.00  0.00    -0.177 C  
HETATM    3  C   UNL     1      -9.754   2.309  71.297  1.00  0.00    -0.201 C  
ENDROOT
BRANCH   2   4
HETATM    4  C   UNL     1      -7.718   3.417  70.415  1.00  0.00    -0.043 C  
HETATM    5  O   UNL     1      -7.283   4.516  69.619  1.00  0.00    -0.049 OA 
HETATM    6  H   UNL     1      -6.432   4.348  69.233  1.00  0.00     0.000 HD 
ENDBRANCH   2   4
BRANCH   2   7
HETATM    7  C   UNL     1      -8.927   4.466  72.385  1.00  0.00    -0.119 C  
HETATM    8  O   UNL     1      -7.819   5.383  72.360  1.00  0.00    -0.100 OA 
HETATM    9  H   UNL     1      -7.713   5.855  73.177  1.00  0.00     0.000 HD 
BRANCH   7  10
HETATM   10  C   UNL     1     -10.171   5.255  72.851  1.00  0.00    -0.183 C  
HETATM   11  O   UNL     1     -11.187   4.747  73.315  1.00  0.00    -0.302 OA 
HETATM   12  N   UNL     1     -10.008   6.620  72.764  1.00  0.00    -0.170 N  
HETATM   13  H   UNL     1      -9.177   7.000  72.310  1.00  0.00     0.000 HD 
BRANCH  12  14
HETATM   14  C   UNL     1     -11.000   7.521  73.307  1.00  0.00    -0.309 C  
BRANCH  14  15
HETATM   15  C   UNL     1     -11.860   8.185  72.237  1.00  0.00    -0.441 C  
BRANCH  15  16
HETATM   16  C   UNL     1     -10.950   8.833  71.218  1.00  0.00    -0.275 C  
HETATM   17  O   UNL     1      -9.822   9.219  71.511  1.00  0.00    -0.288 OA 
HETATM   18  N   UNL     1     -11.486   8.921  69.954  1.00  0.00    -0.443 N  
HETATM   19  H   UNL     1     -12.414   8.524  69.811  1.00  0.00     0.000 HD 
BRANCH  18  20
HETATM   20  C   UNL     1     -10.831   9.538  68.798  1.00  0.00    -0.142 C  
BRANCH  20  21
HETATM   21  C   UNL     1     -10.122   8.602  67.815  1.00  0.00    -0.211 C  
BRANCH  21  22
HETATM   22  S   UNL     1      -8.302   8.805  67.722  1.00  0.00    -0.118 SA 
BRANCH  22  23
HETATM   23  S   UNL     1      -7.858   8.434  65.744  1.00  0.00    -0.106 SA 
BRANCH  23  24
HETATM   24  C   UNL     1      -9.111   9.448  64.893  1.00  0.00    -0.202 C  
BRANCH  24  25
HETATM   25  C   UNL     1      -8.842  10.942  65.092  1.00  0.00    -0.156 C  
BRANCH  25  26
HETATM   26  N   UNL     1      -9.813  11.830  64.459  1.00  0.00    -0.353 N  
HETATM   27  H   UNL     1      -9.593  12.205  63.535  1.00  0.00     0.000 HD 
HETATM   28  C   UNL     1     -11.010  12.191  65.041  1.00  0.00    -0.309 C  
HETATM   29  O   UNL     1     -11.352  11.846  66.167  1.00  0.00    -0.332 OA 
BRANCH  28  30
HETATM   30  C   UNL     1     -11.909  13.027  64.158  1.00  0.00    -0.478 C  
BRANCH  30  31
HETATM   31  C   UNL     1     -12.358  14.275  64.911  1.00  0.00    -0.425 C  
BRANCH  31  32
HETATM   32  N   UNL     1     -11.246  14.971  65.530  1.00  0.00    -0.350 N  
HETATM   33  H   UNL     1     -10.797  14.553  66.345  1.00  0.00     0.000 HD 
HETATM   34  C   UNL     1     -10.774  16.173  65.057  1.00  0.00    -0.337 C  
HETATM   35  O   UNL     1     -11.304  16.796  64.142  1.00  0.00    -1.194 OA 
BRANCH  34  36
HETATM   36  C   UNL     1      -9.551  16.714  65.831  1.00  0.00    -0.214 C  
HETATM   37  O   UNL     1      -8.867  15.634  66.484  1.00  0.00    -0.259 OA 
HETATM   38  H   UNL     1      -8.115  15.967  66.960  1.00  0.00     0.000 HD 
BRANCH  36  39
HETATM   39  C   UNL     1      -9.912  17.821  66.861  1.00  0.00    -0.332 C  
HETATM   40  C   UNL     1     -10.868  17.288  67.949  1.00  0.00    -0.283 C  
HETATM   41  C   UNL     1      -8.617  18.280  67.571  1.00  0.00    -0.253 C  
BRANCH  39  42
HETATM   42  C   UNL     1     -10.552  19.029  66.136  1.00  0.00    -0.416 C  
HETATM   43  O   UNL     1      -9.839  20.236  66.390  1.00  0.00    -0.522 OA 
HETATM   44  H   UNL     1     -10.232  20.978  65.945  1.00  0.00     0.000 HD 
ENDBRANCH  39  42
ENDBRANCH  36  39
ENDBRANCH  34  36
ENDBRANCH  31  32
ENDBRANCH  30  31
ENDBRANCH  28  30
ENDBRANCH  25  26
ENDBRANCH  24  25
ENDBRANCH  23  24
ENDBRANCH  22  23
ENDBRANCH  21  22
ENDBRANCH  20  21
ENDBRANCH  18  20
ENDBRANCH  15  16
ENDBRANCH  14  15
ENDBRANCH  12  14
ENDBRANCH   7  10
ENDBRANCH   2   7
TORSDOF 19
ENDMDL
MODEL      128
REMARK 921   NORMALIZED FREE ENERGY PREDICTED BY IDOCK:   -4.69 KCAL/MOL
REMARK 922        TOTAL FREE ENERGY PREDICTED BY IDOCK:  -12.07 KCAL/MOL
REMARK 923 INTER-LIGAND FREE ENERGY PREDICTED BY IDOCK:  -10.29 KCAL/MOL
REMARK 924 INTRA-LIGAND FREE ENERGY PREDICTED BY IDOCK:   -1.78 KCAL/MOL
REMARK 927      BINDING AFFINITY PREDICTED BY RF-SCORE:    0.00 PKD
ROOT
HETATM    1  C   UNL     1     -10.444  19.175  67.717  1.00  0.00    -0.512 C  
HETATM    2  C   UNL     1      -9.847  18.008  66.908  1.00  0.00    -0.330 C  
HETATM    3  C   UNL     1     -10.628  17.844  65.581  1.00  0.00    -0.110 C  
ENDROOT
BRANCH   2   4
HETATM    4  C   UNL     1      -8.393  18.355  66.525  1.00  0.00    -0.272 C  
HETATM    5  O   UNL     1      -7.460  17.573  67.267  1.00  0.00    -0.184 OA 
HETATM    6  H   UNL     1      -6.565  17.787  67.031  1.00  0.00     0.000 HD 
ENDBRANCH   2   4
BRANCH   2   7
HETATM    7  C   UNL     1      -9.874  16.678  67.724  1.00  0.00    -0.252 C  
HETATM    8  O   UNL     1     -10.745  16.741  68.867  1.00  0.00    -0.315 OA 
HETATM    9  H   UNL     1     -10.761  15.932  69.363  1.00  0.00     0.000 HD 
BRANCH   7  10
HETATM   10  C   UNL     1     -10.264  15.422  66.914  1.00  0.00    -0.273 C  
HETATM   11  O   UNL     1      -9.517  14.830  66.140  1.00  0.00    -0.296 OA 
HETATM   12  N   UNL     1     -11.534  14.970  67.196  1.00  0.00    -0.332 N  
HETATM   13  H   UNL     1     -12.146  15.528  67.792  1.00  0.00     0.000 HD 
BRANCH  12  14
HETATM   14  C   UNL     1     -12.011  13.716  66.658  1.00  0.00    -0.415 C  
BRANCH  14  15
HETATM   15  C   UNL     1     -12.777  13.875  65.348  1.00  0.00    -0.525 C  
BRANCH  15  16
HETATM   16  C   UNL     1     -12.268  12.846  64.364  1.00  0.00    -0.417 C  
HETATM   17  O   UNL     1     -13.033  12.161  63.691  1.00  0.00    -0.780 OA 
HETATM   18  N   UNL     1     -10.897  12.774  64.277  1.00  0.00    -0.364 N  
HETATM   19  H   UNL     1     -10.357  13.424  64.848  1.00  0.00     0.000 HD 
BRANCH  18  20
HETATM   20  C   UNL     1     -10.150  11.838  63.432  1.00  0.00    -0.446 C  
BRANCH  20  21
HETATM   21  C   UNL     1      -9.969  10.412  63.960  1.00  0.00    -0.235 C  
BRANCH  21  22
HETATM   22  S   UNL     1      -9.071  10.278  65.553  1.00  0.00    -0.191 SA 
BRANCH  22  23
HETATM   23  S   UNL     1      -8.662   8.267  65.730  1.00  0.00    -0.152 SA 
BRANCH  23  24
HETATM   24  C   UNL     1      -9.774   7.788  67.093  1.00  0.00    -0.186 C  
BRANCH  24  25
HETATM   25  C   UNL     1      -9.847   8.886  68.158  1.00  0.00    -0.167 C  
BRANCH  25  26
HETATM   26  N   UNL     1     -11.022   8.824  69.023  1.00  0.00    -0.435 N  
HETATM   27  H   UNL     1     -11.896   8.480  68.625  1.00  0.00     0.000 HD 
HETATM   28  C   UNL     1     -11.014   9.204  70.349  1.00  0.00    -0.248 C  
HETATM   29  O   UNL     1     -10.037   9.683  70.915  1.00  0.00    -0.279 OA 
BRANCH  28  30
HETATM   30  C   UNL     1     -12.311   8.948  71.081  1.00  0.00    -0.282 C  
BRANCH  30  31
HETATM   31  C   UNL     1     -12.022   8.326  72.444  1.00  0.00    -0.384 C  
BRANCH  31  32
HETATM   32  N   UNL     1     -10.858   7.461  72.415  1.00  0.00    -0.244 N  
HETATM   33  H   UNL     1      -9.944   7.873  72.229  1.00  0.00     0.000 HD 
HETATM   34  C   UNL     1     -10.943   6.105  72.629  1.00  0.00    -0.256 C  
HETATM   35  O   UNL     1     -12.005   5.506  72.769  1.00  0.00    -0.237 OA 
BRANCH  34  36
HETATM   36  C   UNL     1      -9.579   5.381  72.604  1.00  0.00    -0.150 C  
HETATM   37  O   UNL     1      -8.518   6.324  72.822  1.00  0.00    -0.123 OA 
HETATM   38  H   UNL     1      -7.679   5.878  72.807  1.00  0.00     0.000 HD 
BRANCH  36  39
HETATM   39  C   UNL     1      -9.325   4.584  71.294  1.00  0.00    -0.209 C  
HETATM   40  C   UNL     1     -10.094   5.194  70.105  1.00  0.00    -0.342 C  
HETATM   41  C   UNL     1      -7.818   4.654  70.953  1.00  0.00    -0.077 C  
BRANCH  39  42
HETATM   42  C   UNL     1      -9.734   3.104  71.489  1.00  0.00    -0.156 C  
HETATM   43  O   UNL     1      -9.625   2.361  70.279  1.00  0.00    -0.115 OA 
HETATM   44  H   UNL     1      -9.876   1.453  70.398  1.00  0.00     0.000 HD 
ENDBRANCH  39  42
ENDBRANCH  36  39
ENDBRANCH  34  36
ENDBRANCH  31  32
ENDBRANCH  30  31
ENDBRANCH  28  30
ENDBRANCH  25  26
ENDBRANCH  24  25
ENDBRANCH  23  24
ENDBRANCH  22  23
ENDBRANCH  21  22
ENDBRANCH  20  21
ENDBRANCH  18  20
ENDBRANCH  15  16
ENDBRANCH  14  15
ENDBRANCH  12  14
ENDBRANCH   7  10
ENDBRANCH   2   7
TORSDOF 19
ENDMDL
MODEL      129
REMARK 921   NORMALIZED FREE ENERGY PREDICTED BY IDOCK:   -4.68 KCAL/MOL
REMARK 922        TOTAL FREE ENERGY PREDICTED BY IDOCK:  -12.07 KCAL/MOL
REMARK 923 INTER-LIGAND FREE ENERGY PREDICTED BY IDOCK:   -8.57 KCAL/MOL
REMARK 924 INTRA-LIGAND FREE ENERGY PREDICTED BY IDOCK:   -3.49 KCAL/MOL
REMARK 927      BINDING AFFINITY PREDICTED BY RF-SCORE:    0.00 PKD
ROOT
HETATM    1  C   UNL     1     -12.034  12.902  66.560  1.00  0.00    -0.447 C  
HETATM    2  C   UNL     1     -10.732  12.086  66.455  1.00  0.00    -0.293 C  
HETATM    3  C   UNL     1     -10.935  10.700  67.115  1.00  0.00    -0.312 C  
ENDROOT
BRANCH   2   4
HETATM    4  C   UNL     1     -10.421  11.825  64.966  1.00  0.00    -0.285 C  
HETATM    5  O   UNL     1      -9.988  13.014  64.310  1.00  0.00    -0.616 OA 
HETATM    6  H   UNL     1      -9.796  12.854  63.394  1.00  0.00     0.000 HD 
ENDBRANCH   2   4
BRANCH   2   7
HETATM    7  C   UNL     1      -9.535  12.836  67.119  1.00  0.00    -0.223 C  
HETATM    8  O   UNL     1      -9.917  13.559  68.302  1.00  0.00    -0.228 OA 
HETATM    9  H   UNL     1      -9.189  14.015  68.706  1.00  0.00     0.000 HD 
BRANCH   7  10
HETATM   10  C   UNL     1      -8.330  11.944  67.490  1.00  0.00    -0.158 C  
HETATM   11  O   UNL     1      -7.544  11.460  66.681  1.00  0.00    -0.148 OA 
HETATM   12  N   UNL     1      -8.169  11.793  68.849  1.00  0.00    -0.356 N  
HETATM   13  H   UNL     1      -8.881  12.153  69.485  1.00  0.00     0.000 HD 
BRANCH  12  14
HETATM   14  C   UNL     1      -7.002  11.129  69.388  1.00  0.00    -0.124 C  
BRANCH  14  15
HETATM   15  C   UNL     1      -7.319   9.785  70.035  1.00  0.00    -0.145 C  
BRANCH  15  16
HETATM   16  C   UNL     1      -7.506   8.755  68.944  1.00  0.00    -0.083 C  
HETATM   17  O   UNL     1      -8.435   7.953  68.963  1.00  0.00    -0.129 OA 
HETATM   18  N   UNL     1      -6.571   8.821  67.937  1.00  0.00    -0.060 N  
HETATM   19  H   UNL     1      -5.870   9.559  67.997  1.00  0.00     0.000 HD 
BRANCH  18  20
HETATM   20  C   UNL     1      -6.501   7.918  66.785  1.00  0.00    -0.055 C  
BRANCH  20  21
HETATM   21  C   UNL     1      -5.959   6.508  67.036  1.00  0.00    -0.024 C  
BRANCH  21  22
HETATM   22  S   UNL     1      -6.643   5.204  65.942  1.00  0.00    -0.049 SA 
BRANCH  22  23
HETATM   23  S   UNL     1      -8.642   5.679  65.788  1.00  0.00    -0.150 SA 
BRANCH  23  24
HETATM   24  C   UNL     1      -9.411   4.328  66.742  1.00  0.00    -0.167 C  
BRANCH  24  25
HETATM   25  C   UNL     1      -9.781   4.789  68.153  1.00  0.00    -0.143 C  
BRANCH  25  26
HETATM   26  N   UNL     1      -8.645   5.003  69.046  1.00  0.00    -0.085 N  
HETATM   27  H   UNL     1      -7.816   5.462  68.670  1.00  0.00     0.000 HD 
HETATM   28  C   UNL     1      -8.633   4.619  70.371  1.00  0.00    -0.086 C  
HETATM   29  O   UNL     1      -9.551   4.012  70.913  1.00  0.00    -0.156 OA 
BRANCH  28  30
HETATM   30  C   UNL     1      -7.399   5.043  71.134  1.00  0.00    -0.073 C  
BRANCH  30  31
HETATM   31  C   UNL     1      -7.629   6.410  71.771  1.00  0.00    -0.095 C  
BRANCH  31  32
HETATM   32  N   UNL     1      -9.039   6.703  71.945  1.00  0.00    -0.144 N  
HETATM   33  H   UNL     1      -9.726   6.058  71.555  1.00  0.00     0.000 HD 
HETATM   34  C   UNL     1      -9.482   7.818  72.617  1.00  0.00    -0.193 C  
HETATM   35  O   UNL     1      -8.736   8.695  73.041  1.00  0.00    -0.380 OA 
BRANCH  34  36
HETATM   36  C   UNL     1     -11.020   7.910  72.731  1.00  0.00    -0.393 C  
HETATM   37  O   UNL     1     -11.558   6.647  73.153  1.00  0.00    -0.469 OA 
HETATM   38  H   UNL     1     -12.504   6.705  73.223  1.00  0.00     0.000 HD 
BRANCH  36  39
HETATM   39  C   UNL     1     -11.711   8.373  71.417  1.00  0.00    -0.332 C  
HETATM   40  C   UNL     1     -10.971   9.569  70.783  1.00  0.00    -0.389 C  
HETATM   41  C   UNL     1     -11.668   7.211  70.397  1.00  0.00    -0.273 C  
BRANCH  39  42
HETATM   42  C   UNL     1     -13.185   8.748  71.699  1.00  0.00    -0.357 C  
HETATM   43  O   UNL     1     -13.470   8.766  73.094  1.00  0.00    -0.953 OA 
HETATM   44  H   UNL     1     -14.375   8.996  73.268  1.00  0.00     0.000 HD 
ENDBRANCH  39  42
ENDBRANCH  36  39
ENDBRANCH  34  36
ENDBRANCH  31  32
ENDBRANCH  30  31
ENDBRANCH  28  30
ENDBRANCH  25  26
ENDBRANCH  24  25
ENDBRANCH  23  24
ENDBRANCH  22  23
ENDBRANCH  21  22
ENDBRANCH  20  21
ENDBRANCH  18  20
ENDBRANCH  15  16
ENDBRANCH  14  15
ENDBRANCH  12  14
ENDBRANCH   7  10
ENDBRANCH   2   7
TORSDOF 19
ENDMDL
MODEL      130
REMARK 921   NORMALIZED FREE ENERGY PREDICTED BY IDOCK:   -4.68 KCAL/MOL
REMARK 922        TOTAL FREE ENERGY PREDICTED BY IDOCK:  -12.05 KCAL/MOL
REMARK 923 INTER-LIGAND FREE ENERGY PREDICTED BY IDOCK:  -10.57 KCAL/MOL
REMARK 924 INTRA-LIGAND FREE ENERGY PREDICTED BY IDOCK:   -1.48 KCAL/MOL
REMARK 927      BINDING AFFINITY PREDICTED BY RF-SCORE:    0.00 PKD
ROOT
HETATM    1  C   UNL     1     -12.243  13.397  63.132  1.00  0.00    -0.139 C  
HETATM    2  C   UNL     1     -11.344  13.135  64.354  1.00  0.00    -0.400 C  
HETATM    3  C   UNL     1     -12.180  12.486  65.485  1.00  0.00    -0.442 C  
ENDROOT
BRANCH   2   4
HETATM    4  C   UNL     1     -10.255  12.112  63.968  1.00  0.00    -0.370 C  
HETATM    5  O   UNL     1     -10.719  11.215  62.962  1.00  0.00    -0.771 OA 
HETATM    6  H   UNL     1     -10.049  10.585  62.724  1.00  0.00     0.000 HD 
ENDBRANCH   2   4
BRANCH   2   7
HETATM    7  C   UNL     1     -10.674  14.451  64.860  1.00  0.00    -0.426 C  
HETATM    8  O   UNL     1     -11.258  15.632  64.283  1.00  0.00    -0.736 OA 
HETATM    9  H   UNL     1     -10.851  16.432  64.590  1.00  0.00     0.000 HD 
BRANCH   7  10
HETATM   10  C   UNL     1     -10.674  14.637  66.393  1.00  0.00    -0.309 C  
HETATM   11  O   UNL     1     -11.183  15.586  66.983  1.00  0.00    -0.285 OA 
HETATM   12  N   UNL     1     -10.100  13.580  67.064  1.00  0.00    -0.241 N  
HETATM   13  H   UNL     1      -9.629  12.844  66.537  1.00  0.00     0.000 HD 
BRANCH  12  14
HETATM   14  C   UNL     1     -10.156  13.500  68.507  1.00  0.00    -0.215 C  
BRANCH  14  15
HETATM   15  C   UNL     1     -11.576  13.370  69.048  1.00  0.00    -0.358 C  
BRANCH  15  16
HETATM   16  C   UNL     1     -11.863  11.907  69.307  1.00  0.00    -0.318 C  
HETATM   17  O   UNL     1     -12.219  11.150  68.410  1.00  0.00    -0.610 OA 
HETATM   18  N   UNL     1     -11.662  11.513  70.610  1.00  0.00    -0.444 N  
HETATM   19  H   UNL     1     -11.318  12.215  71.264  1.00  0.00     0.000 HD 
BRANCH  18  20
HETATM   20  C   UNL     1     -11.903  10.166  71.133  1.00  0.00    -0.381 C  
BRANCH  20  21
HETATM   21  C   UNL     1     -13.356   9.779  71.424  1.00  0.00    -0.371 C  
BRANCH  21  22
HETATM   22  S   UNL     1     -13.643   7.991  71.713  1.00  0.00    -0.320 SA 
BRANCH  22  23
HETATM   23  S   UNL     1     -11.936   7.088  70.997  1.00  0.00    -0.364 SA 
BRANCH  23  24
HETATM   24  C   UNL     1     -11.474   6.017  72.398  1.00  0.00    -0.308 C  
BRANCH  24  25
HETATM   25  C   UNL     1     -10.170   5.268  72.115  1.00  0.00    -0.199 C  
BRANCH  25  26
HETATM   26  N   UNL     1     -10.197   4.417  70.928  1.00  0.00    -0.118 N  
HETATM   27  H   UNL     1     -11.070   3.946  70.693  1.00  0.00     0.000 HD 
HETATM   28  C   UNL     1      -9.106   4.216  70.109  1.00  0.00    -0.113 C  
HETATM   29  O   UNL     1      -7.994   4.686  70.326  1.00  0.00    -0.063 OA 
BRANCH  28  30
HETATM   30  C   UNL     1      -9.392   3.390  68.876  1.00  0.00    -0.237 C  
BRANCH  30  31
HETATM   31  C   UNL     1      -9.200   4.242  67.625  1.00  0.00    -0.149 C  
BRANCH  31  32
HETATM   32  N   UNL     1      -9.155   5.660  67.931  1.00  0.00    -0.108 N  
HETATM   33  H   UNL     1      -8.421   6.007  68.547  1.00  0.00     0.000 HD 
HETATM   34  C   UNL     1     -10.068   6.553  67.420  1.00  0.00    -0.162 C  
HETATM   35  O   UNL     1     -11.038   6.219  66.746  1.00  0.00    -0.343 OA 
BRANCH  34  36
HETATM   36  C   UNL     1      -9.808   8.019  67.830  1.00  0.00    -0.167 C  
HETATM   37  O   UNL     1     -11.023   8.779  67.733  1.00  0.00    -0.494 OA 
HETATM   38  H   UNL     1     -10.862   9.681  67.986  1.00  0.00     0.000 HD 
BRANCH  36  39
HETATM   39  C   UNL     1      -8.683   8.702  67.003  1.00  0.00    -0.135 C  
HETATM   40  C   UNL     1      -8.654   8.181  65.552  1.00  0.00    -0.173 C  
HETATM   41  C   UNL     1      -8.964  10.222  66.942  1.00  0.00    -0.149 C  
BRANCH  39  42
HETATM   42  C   UNL     1      -7.311   8.465  67.681  1.00  0.00    -0.093 C  
HETATM   43  O   UNL     1      -6.388   9.508  67.386  1.00  0.00    -0.063 OA 
HETATM   44  H   UNL     1      -5.546   9.363  67.801  1.00  0.00     0.000 HD 
ENDBRANCH  39  42
ENDBRANCH  36  39
ENDBRANCH  34  36
ENDBRANCH  31  32
ENDBRANCH  30  31
ENDBRANCH  28  30
ENDBRANCH  25  26
ENDBRANCH  24  25
ENDBRANCH  23  24
ENDBRANCH  22  23
ENDBRANCH  21  22
ENDBRANCH  20  21
ENDBRANCH  18  20
ENDBRANCH  15  16
ENDBRANCH  14  15
ENDBRANCH  12  14
ENDBRANCH   7  10
ENDBRANCH   2   7
TORSDOF 19
ENDMDL
MODEL      131
REMARK 921   NORMALIZED FREE ENERGY PREDICTED BY IDOCK:   -4.67 KCAL/MOL
REMARK 922        TOTAL FREE ENERGY PREDICTED BY IDOCK:  -12.03 KCAL/MOL
REMARK 923 INTER-LIGAND FREE ENERGY PREDICTED BY IDOCK:   -9.92 KCAL/MOL
REMARK 924 INTRA-LIGAND FREE ENERGY PREDICTED BY IDOCK:   -2.11 KCAL/MOL
REMARK 927      BINDING AFFINITY PREDICTED BY RF-SCORE:    0.00 PKD
ROOT
HETATM    1  C   UNL     1     -10.251   5.973  72.068  1.00  0.00    -0.228 C  
HETATM    2  C   UNL     1     -10.470   6.915  70.870  1.00  0.00    -0.233 C  
HETATM    3  C   UNL     1     -11.289   6.184  69.778  1.00  0.00    -0.452 C  
ENDROOT
BRANCH   2   4
HETATM    4  C   UNL     1     -11.320   8.120  71.326  1.00  0.00    -0.265 C  
HETATM    5  O   UNL     1     -10.499   9.179  71.814  1.00  0.00    -0.352 OA 
HETATM    6  H   UNL     1     -11.023   9.920  72.095  1.00  0.00     0.000 HD 
ENDBRANCH   2   4
BRANCH   2   7
HETATM    7  C   UNL     1      -9.112   7.419  70.288  1.00  0.00    -0.151 C  
HETATM    8  O   UNL     1      -8.083   7.528  71.286  1.00  0.00    -0.094 OA 
HETATM    9  H   UNL     1      -7.257   7.835  70.931  1.00  0.00     0.000 HD 
BRANCH   7  10
HETATM   10  C   UNL     1      -8.545   6.571  69.128  1.00  0.00    -0.129 C  
HETATM   11  O   UNL     1      -8.157   5.411  69.235  1.00  0.00    -0.091 OA 
HETATM   12  N   UNL     1      -8.579   7.223  67.915  1.00  0.00    -0.121 N  
HETATM   13  H   UNL     1      -8.844   8.207  67.880  1.00  0.00     0.000 HD 
BRANCH  12  14
HETATM   14  C   UNL     1      -8.243   6.530  66.692  1.00  0.00    -0.112 C  
BRANCH  14  15
HETATM   15  C   UNL     1      -7.626   7.439  65.634  1.00  0.00    -0.092 C  
BRANCH  15  16
HETATM   16  C   UNL     1      -8.168   8.838  65.824  1.00  0.00    -0.121 C  
HETATM   17  O   UNL     1      -7.611   9.655  66.550  1.00  0.00    -0.096 OA 
HETATM   18  N   UNL     1      -9.305   9.107  65.097  1.00  0.00    -0.445 N  
HETATM   19  H   UNL     1      -9.657   8.370  64.487  1.00  0.00     0.000 HD 
BRANCH  18  20
HETATM   20  C   UNL     1     -10.052  10.368  65.129  1.00  0.00    -0.308 C  
BRANCH  20  21
HETATM   21  C   UNL     1     -10.202  11.125  63.806  1.00  0.00    -0.377 C  
BRANCH  21  22
HETATM   22  S   UNL     1     -11.785  12.027  63.601  1.00  0.00    -0.486 SA 
BRANCH  22  23
HETATM   23  S   UNL     1     -11.431  13.863  64.467  1.00  0.00    -0.369 SA 
BRANCH  23  24
HETATM   24  C   UNL     1     -12.401  13.733  66.005  1.00  0.00    -0.457 C  
BRANCH  24  25
HETATM   25  C   UNL     1     -11.599  13.034  67.106  1.00  0.00    -0.358 C  
BRANCH  25  26
HETATM   26  N   UNL     1     -10.541  13.846  67.704  1.00  0.00    -0.244 N  
HETATM   27  H   UNL     1     -10.811  14.599  68.337  1.00  0.00     0.000 HD 
HETATM   28  C   UNL     1      -9.198  13.648  67.460  1.00  0.00    -0.218 C  
HETATM   29  O   UNL     1      -8.763  12.811  66.677  1.00  0.00    -0.167 OA 
BRANCH  28  30
HETATM   30  C   UNL     1      -8.278  14.530  68.274  1.00  0.00    -0.149 C  
BRANCH  30  31
HETATM   31  C   UNL     1      -9.075  15.248  69.358  1.00  0.00    -0.228 C  
BRANCH  31  32
HETATM   32  N   UNL     1      -8.870  16.684  69.327  1.00  0.00    -0.118 N  
HETATM   33  H   UNL     1      -8.078  17.078  69.835  1.00  0.00     0.000 HD 
HETATM   34  C   UNL     1      -9.704  17.533  68.638  1.00  0.00    -0.319 C  
HETATM   35  O   UNL     1     -10.731  17.164  68.076  1.00  0.00    -0.372 OA 
BRANCH  34  36
HETATM   36  C   UNL     1      -9.275  19.016  68.695  1.00  0.00    -0.368 C  
HETATM   37  O   UNL     1     -10.381  19.831  69.112  1.00  0.00    -0.628 OA 
HETATM   38  H   UNL     1     -10.117  20.743  69.147  1.00  0.00     0.000 HD 
BRANCH  36  39
HETATM   39  C   UNL     1      -8.698  19.544  67.351  1.00  0.00    -0.356 C  
HETATM   40  C   UNL     1      -7.590  20.592  67.586  1.00  0.00    -0.304 C  
HETATM   41  C   UNL     1      -8.059  18.362  66.586  1.00  0.00    -0.282 C  
BRANCH  39  42
HETATM   42  C   UNL     1      -9.833  20.153  66.492  1.00  0.00    -0.446 C  
HETATM   43  O   UNL     1     -10.880  19.217  66.259  1.00  0.00    -0.383 OA 
HETATM   44  H   UNL     1     -11.577  19.591  65.732  1.00  0.00     0.000 HD 
ENDBRANCH  39  42
ENDBRANCH  36  39
ENDBRANCH  34  36
ENDBRANCH  31  32
ENDBRANCH  30  31
ENDBRANCH  28  30
ENDBRANCH  25  26
ENDBRANCH  24  25
ENDBRANCH  23  24
ENDBRANCH  22  23
ENDBRANCH  21  22
ENDBRANCH  20  21
ENDBRANCH  18  20
ENDBRANCH  15  16
ENDBRANCH  14  15
ENDBRANCH  12  14
ENDBRANCH   7  10
ENDBRANCH   2   7
TORSDOF 19
ENDMDL
MODEL      132
REMARK 921   NORMALIZED FREE ENERGY PREDICTED BY IDOCK:   -4.66 KCAL/MOL
REMARK 922        TOTAL FREE ENERGY PREDICTED BY IDOCK:  -12.02 KCAL/MOL
REMARK 923 INTER-LIGAND FREE ENERGY PREDICTED BY IDOCK:   -9.29 KCAL/MOL
REMARK 924 INTRA-LIGAND FREE ENERGY PREDICTED BY IDOCK:   -2.72 KCAL/MOL
REMARK 927      BINDING AFFINITY PREDICTED BY RF-SCORE:    0.00 PKD
ROOT
HETATM    1  C   UNL     1     -10.982   9.414  71.128  1.00  0.00    -0.430 C  
HETATM    2  C   UNL     1     -10.827   7.928  71.504  1.00  0.00    -0.268 C  
HETATM    3  C   UNL     1     -11.348   7.700  72.945  1.00  0.00    -0.394 C  
ENDROOT
BRANCH   2   4
HETATM    4  C   UNL     1     -11.717   7.078  70.573  1.00  0.00    -0.312 C  
HETATM    5  O   UNL     1     -11.400   7.306  69.202  1.00  0.00    -0.454 OA 
HETATM    6  H   UNL     1     -11.949   6.783  68.629  1.00  0.00     0.000 HD 
ENDBRANCH   2   4
BRANCH   2   7
HETATM    7  C   UNL     1      -9.342   7.463  71.381  1.00  0.00    -0.142 C  
HETATM    8  O   UNL     1      -9.215   6.040  71.217  1.00  0.00    -0.146 OA 
HETATM    9  H   UNL     1      -8.312   5.757  71.143  1.00  0.00     0.000 HD 
BRANCH   7  10
HETATM   10  C   UNL     1      -8.539   8.134  70.245  1.00  0.00    -0.131 C  
HETATM   11  O   UNL     1      -8.573   7.789  69.068  1.00  0.00    -0.134 OA 
HETATM   12  N   UNL     1      -7.818   9.228  70.667  1.00  0.00    -0.149 N  
HETATM   13  H   UNL     1      -7.762   9.442  71.663  1.00  0.00     0.000 HD 
BRANCH  12  14
HETATM   14  C   UNL     1      -7.138  10.079  69.716  1.00  0.00    -0.119 C  
BRANCH  14  15
HETATM   15  C   UNL     1      -8.047  11.135  69.095  1.00  0.00    -0.030 C  
BRANCH  15  16
HETATM   16  C   UNL     1      -7.190  12.277  68.597  1.00  0.00    -0.105 C  
HETATM   17  O   UNL     1      -6.634  12.240  67.504  1.00  0.00    -0.110 OA 
HETATM   18  N   UNL     1      -7.120  13.349  69.457  1.00  0.00    -0.322 N  
HETATM   19  H   UNL     1      -7.661  13.294  70.319  1.00  0.00     0.000 HD 
BRANCH  18  20
HETATM   20  C   UNL     1      -6.330  14.563  69.235  1.00  0.00    -0.117 C  
BRANCH  20  21
HETATM   21  C   UNL     1      -7.024  15.904  69.490  1.00  0.00    -0.189 C  
BRANCH  21  22
HETATM   22  S   UNL     1      -7.335  16.917  67.994  1.00  0.00    -0.176 SA 
BRANCH  22  23
HETATM   23  S   UNL     1      -9.368  16.758  67.695  1.00  0.00    -0.230 SA 
BRANCH  23  24
HETATM   24  C   UNL     1      -9.464  15.288  66.621  1.00  0.00    -0.259 C  
BRANCH  24  25
HETATM   25  C   UNL     1     -10.912  14.981  66.233  1.00  0.00    -0.338 C  
BRANCH  25  26
HETATM   26  N   UNL     1     -11.064  14.088  65.087  1.00  0.00    -0.325 N  
HETATM   27  H   UNL     1     -10.239  13.883  64.523  1.00  0.00     0.000 HD 
HETATM   28  C   UNL     1     -12.261  13.506  64.727  1.00  0.00    -0.409 C  
HETATM   29  O   UNL     1     -13.325  13.724  65.298  1.00  0.00    -0.710 OA 
BRANCH  28  30
HETATM   30  C   UNL     1     -12.162  12.528  63.578  1.00  0.00    -0.652 C  
BRANCH  30  31
HETATM   31  C   UNL     1     -10.718  12.060  63.420  1.00  0.00    -0.417 C  
BRANCH  31  32
HETATM   32  N   UNL     1     -10.502  10.747  63.998  1.00  0.00    -0.474 N  
HETATM   33  H   UNL     1     -10.756   9.923  63.453  1.00  0.00     0.000 HD 
HETATM   34  C   UNL     1      -9.968  10.573  65.253  1.00  0.00    -0.299 C  
HETATM   35  O   UNL     1      -9.718  11.501  66.017  1.00  0.00    -0.212 OA 
BRANCH  34  36
HETATM   36  C   UNL     1      -9.775   9.094  65.653  1.00  0.00    -0.177 C  
HETATM   37  O   UNL     1      -9.981   8.936  67.065  1.00  0.00    -0.191 OA 
HETATM   38  H   UNL     1      -9.862   8.026  67.311  1.00  0.00     0.000 HD 
BRANCH  36  39
HETATM   39  C   UNL     1      -8.389   8.519  65.247  1.00  0.00    -0.168 C  
HETATM   40  C   UNL     1      -8.232   8.456  63.713  1.00  0.00    -0.106 C  
HETATM   41  C   UNL     1      -7.285   9.459  65.784  1.00  0.00    -0.095 C  
BRANCH  39  42
HETATM   42  C   UNL     1      -8.201   7.110  65.859  1.00  0.00    -0.132 C  
HETATM   43  O   UNL     1      -9.199   6.200  65.410  1.00  0.00    -0.372 OA 
HETATM   44  H   UNL     1      -9.084   5.335  65.786  1.00  0.00     0.000 HD 
ENDBRANCH  39  42
ENDBRANCH  36  39
ENDBRANCH  34  36
ENDBRANCH  31  32
ENDBRANCH  30  31
ENDBRANCH  28  30
ENDBRANCH  25  26
ENDBRANCH  24  25
ENDBRANCH  23  24
ENDBRANCH  22  23
ENDBRANCH  21  22
ENDBRANCH  20  21
ENDBRANCH  18  20
ENDBRANCH  15  16
ENDBRANCH  14  15
ENDBRANCH  12  14
ENDBRANCH   7  10
ENDBRANCH   2   7
TORSDOF 19
ENDMDL
MODEL      133
REMARK 921   NORMALIZED FREE ENERGY PREDICTED BY IDOCK:   -4.66 KCAL/MOL
REMARK 922        TOTAL FREE ENERGY PREDICTED BY IDOCK:  -12.02 KCAL/MOL
REMARK 923 INTER-LIGAND FREE ENERGY PREDICTED BY IDOCK:   -9.75 KCAL/MOL
REMARK 924 INTRA-LIGAND FREE ENERGY PREDICTED BY IDOCK:   -2.26 KCAL/MOL
REMARK 927      BINDING AFFINITY PREDICTED BY RF-SCORE:    0.00 PKD
ROOT
HETATM    1  C   UNL     1     -12.176  13.577  63.084  1.00  0.00    -0.023 C  
HETATM    2  C   UNL     1     -11.748  13.625  64.563  1.00  0.00    -0.429 C  
HETATM    3  C   UNL     1     -13.001  13.773  65.461  1.00  0.00    -0.363 C  
ENDROOT
BRANCH   2   4
HETATM    4  C   UNL     1     -11.090  12.281  64.940  1.00  0.00    -0.311 C  
HETATM    5  O   UNL     1      -9.693  12.290  64.659  1.00  0.00    -0.449 OA 
HETATM    6  H   UNL     1      -9.288  11.462  64.891  1.00  0.00     0.000 HD 
ENDBRANCH   2   4
BRANCH   2   7
HETATM    7  C   UNL     1     -10.747  14.794  64.827  1.00  0.00    -0.358 C  
HETATM    8  O   UNL     1     -11.087  15.993  64.112  1.00  0.00    -1.021 OA 
HETATM    9  H   UNL     1     -10.479  16.704  64.273  1.00  0.00     0.000 HD 
BRANCH   7  10
HETATM   10  C   UNL     1     -10.568  15.176  66.314  1.00  0.00    -0.310 C  
HETATM   11  O   UNL     1     -10.729  16.304  66.769  1.00  0.00    -0.293 OA 
HETATM   12  N   UNL     1     -10.274  14.096  67.117  1.00  0.00    -0.256 N  
HETATM   13  H   UNL     1     -10.082  13.189  66.691  1.00  0.00     0.000 HD 
BRANCH  12  14
HETATM   14  C   UNL     1     -10.234  14.233  68.556  1.00  0.00    -0.245 C  
BRANCH  14  15
HETATM   15  C   UNL     1     -11.584  13.990  69.222  1.00  0.00    -0.356 C  
BRANCH  15  16
HETATM   16  C   UNL     1     -11.857  12.503  69.232  1.00  0.00    -0.304 C  
HETATM   17  O   UNL     1     -11.998  11.864  68.194  1.00  0.00    -0.496 OA 
HETATM   18  N   UNL     1     -11.904  11.945  70.489  1.00  0.00    -0.510 N  
HETATM   19  H   UNL     1     -11.725  12.560  71.282  1.00  0.00     0.000 HD 
BRANCH  18  20
HETATM   20  C   UNL     1     -12.190  10.537  70.780  1.00  0.00    -0.369 C  
BRANCH  20  21
HETATM   21  C   UNL     1     -13.243  10.246  71.853  1.00  0.00    -0.445 C  
BRANCH  21  22
HETATM   22  S   UNL     1     -13.952   8.555  71.810  1.00  0.00    -0.432 SA 
BRANCH  22  23
HETATM   23  S   UNL     1     -12.328   7.341  71.446  1.00  0.00    -0.381 SA 
BRANCH  23  24
HETATM   24  C   UNL     1     -11.318   7.629  72.936  1.00  0.00    -0.341 C  
BRANCH  24  25
HETATM   25  C   UNL     1      -9.915   7.039  72.775  1.00  0.00    -0.179 C  
BRANCH  25  26
HETATM   26  N   UNL     1      -8.844   8.026  72.656  1.00  0.00    -0.181 N  
HETATM   27  H   UNL     1      -8.984   8.942  73.081  1.00  0.00     0.000 HD 
HETATM   28  C   UNL     1      -7.654   7.785  72.001  1.00  0.00    -0.081 C  
HETATM   29  O   UNL     1      -7.401   6.742  71.408  1.00  0.00    -0.080 OA 
BRANCH  28  30
HETATM   30  C   UNL     1      -6.647   8.908  72.100  1.00  0.00     0.001 C  
BRANCH  30  31
HETATM   31  C   UNL     1      -6.642   9.715  70.806  1.00  0.00    -0.099 C  
BRANCH  31  32
HETATM   32  N   UNL     1      -6.869   8.882  69.640  1.00  0.00    -0.049 N  
HETATM   33  H   UNL     1      -6.501   7.931  69.638  1.00  0.00     0.000 HD 
HETATM   34  C   UNL     1      -7.561   9.328  68.539  1.00  0.00    -0.085 C  
HETATM   35  O   UNL     1      -7.961  10.482  68.412  1.00  0.00    -0.107 OA 
BRANCH  34  36
HETATM   36  C   UNL     1      -7.731   8.264  67.432  1.00  0.00    -0.102 C  
HETATM   37  O   UNL     1      -7.043   8.679  66.242  1.00  0.00    -0.076 OA 
HETATM   38  H   UNL     1      -7.148   8.024  65.562  1.00  0.00     0.000 HD 
BRANCH  36  39
HETATM   39  C   UNL     1      -9.217   7.943  67.106  1.00  0.00    -0.175 C  
HETATM   40  C   UNL     1      -9.842   9.024  66.201  1.00  0.00    -0.349 C  
HETATM   41  C   UNL     1      -9.278   6.604  66.335  1.00  0.00    -0.180 C  
BRANCH  39  42
HETATM   42  C   UNL     1     -10.029   7.813  68.417  1.00  0.00    -0.178 C  
HETATM   43  O   UNL     1      -9.477   6.829  69.286  1.00  0.00    -0.143 OA 
HETATM   44  H   UNL     1      -9.976   6.749  70.091  1.00  0.00     0.000 HD 
ENDBRANCH  39  42
ENDBRANCH  36  39
ENDBRANCH  34  36
ENDBRANCH  31  32
ENDBRANCH  30  31
ENDBRANCH  28  30
ENDBRANCH  25  26
ENDBRANCH  24  25
ENDBRANCH  23  24
ENDBRANCH  22  23
ENDBRANCH  21  22
ENDBRANCH  20  21
ENDBRANCH  18  20
ENDBRANCH  15  16
ENDBRANCH  14  15
ENDBRANCH  12  14
ENDBRANCH   7  10
ENDBRANCH   2   7
TORSDOF 19
ENDMDL
MODEL      134
REMARK 921   NORMALIZED FREE ENERGY PREDICTED BY IDOCK:   -4.66 KCAL/MOL
REMARK 922        TOTAL FREE ENERGY PREDICTED BY IDOCK:  -12.01 KCAL/MOL
REMARK 923 INTER-LIGAND FREE ENERGY PREDICTED BY IDOCK:  -10.41 KCAL/MOL
REMARK 924 INTRA-LIGAND FREE ENERGY PREDICTED BY IDOCK:   -1.60 KCAL/MOL
REMARK 927      BINDING AFFINITY PREDICTED BY RF-SCORE:    0.00 PKD
ROOT
HETATM    1  C   UNL     1     -10.644   8.035  71.630  1.00  0.00    -0.280 C  
HETATM    2  C   UNL     1     -11.249   6.635  71.417  1.00  0.00    -0.318 C  
HETATM    3  C   UNL     1     -10.573   5.626  72.377  1.00  0.00    -0.270 C  
ENDROOT
BRANCH   2   4
HETATM    4  C   UNL     1     -12.745   6.671  71.796  1.00  0.00    -0.231 C  
HETATM    5  O   UNL     1     -13.516   7.343  70.804  1.00  0.00    -0.599 OA 
HETATM    6  H   UNL     1     -14.437   7.365  71.038  1.00  0.00     0.000 HD 
ENDBRANCH   2   4
BRANCH   2   7
HETATM    7  C   UNL     1     -11.093   6.168  69.936  1.00  0.00    -0.410 C  
HETATM    8  O   UNL     1     -11.428   7.196  68.988  1.00  0.00    -0.472 OA 
HETATM    9  H   UNL     1     -11.333   6.911  68.087  1.00  0.00     0.000 HD 
BRANCH   7  10
HETATM   10  C   UNL     1      -9.691   5.634  69.565  1.00  0.00    -0.154 C  
HETATM   11  O   UNL     1      -8.676   6.321  69.505  1.00  0.00    -0.130 OA 
HETATM   12  N   UNL     1      -9.667   4.271  69.371  1.00  0.00    -0.200 N  
HETATM   13  H   UNL     1     -10.542   3.747  69.364  1.00  0.00     0.000 HD 
BRANCH  12  14
HETATM   14  C   UNL     1      -8.415   3.572  69.179  1.00  0.00    -0.066 C  
BRANCH  14  15
HETATM   15  C   UNL     1      -8.276   2.957  67.791  1.00  0.00    -0.087 C  
BRANCH  15  16
HETATM   16  C   UNL     1      -7.233   3.735  67.020  1.00  0.00    -0.064 C  
HETATM   17  O   UNL     1      -6.176   3.223  66.664  1.00  0.00    -0.027 OA 
HETATM   18  N   UNL     1      -7.588   5.035  66.740  1.00  0.00    -0.087 N  
HETATM   19  H   UNL     1      -8.512   5.343  67.041  1.00  0.00     0.000 HD 
BRANCH  18  20
HETATM   20  C   UNL     1      -6.747   6.011  66.043  1.00  0.00    -0.056 C  
BRANCH  20  21
HETATM   21  C   UNL     1      -6.506   7.352  66.742  1.00  0.00    -0.052 C  
BRANCH  21  22
HETATM   22  S   UNL     1      -7.966   8.459  66.825  1.00  0.00    -0.099 SA 
BRANCH  22  23
HETATM   23  S   UNL     1      -7.370   9.978  68.083  1.00  0.00    -0.083 SA 
BRANCH  23  24
HETATM   24  C   UNL     1      -8.627   9.874  69.400  1.00  0.00    -0.174 C  
BRANCH  24  25
HETATM   25  C   UNL     1      -9.964  10.456  68.934  1.00  0.00    -0.199 C  
BRANCH  25  26
HETATM   26  N   UNL     1     -10.609  11.354  69.889  1.00  0.00    -0.345 N  
HETATM   27  H   UNL     1     -10.017  11.874  70.536  1.00  0.00     0.000 HD 
HETATM   28  C   UNL     1     -11.974  11.536  69.963  1.00  0.00    -0.357 C  
HETATM   29  O   UNL     1     -12.782  10.923  69.274  1.00  0.00    -0.282 OA 
BRANCH  28  30
HETATM   30  C   UNL     1     -12.411  12.597  70.947  1.00  0.00    -0.368 C  
BRANCH  30  31
HETATM   31  C   UNL     1     -12.270  13.979  70.316  1.00  0.00    -0.361 C  
BRANCH  31  32
HETATM   32  N   UNL     1     -12.566  13.964  68.895  1.00  0.00    -0.239 N  
HETATM   33  H   UNL     1     -13.541  13.928  68.597  1.00  0.00     0.000 HD 
HETATM   34  C   UNL     1     -11.581  13.996  67.937  1.00  0.00    -0.343 C  
HETATM   35  O   UNL     1     -10.382  13.947  68.196  1.00  0.00    -0.234 OA 
BRANCH  34  36
HETATM   36  C   UNL     1     -12.116  14.024  66.488  1.00  0.00    -0.459 C  
HETATM   37  O   UNL     1     -12.320  12.684  66.014  1.00  0.00    -0.587 OA 
HETATM   38  H   UNL     1     -12.649  12.702  65.122  1.00  0.00     0.000 HD 
BRANCH  36  39
HETATM   39  C   UNL     1     -11.200  14.806  65.506  1.00  0.00    -0.346 C  
HETATM   40  C   UNL     1     -10.453  15.951  66.221  1.00  0.00    -0.324 C  
HETATM   41  C   UNL     1     -10.131  13.838  64.946  1.00  0.00    -0.297 C  
BRANCH  39  42
HETATM   42  C   UNL     1     -12.039  15.369  64.334  1.00  0.00    -0.196 C  
HETATM   43  O   UNL     1     -11.426  16.509  63.743  1.00  0.00    -1.615 OA 
HETATM   44  H   UNL     1     -11.941  16.855  63.023  1.00  0.00     0.000 HD 
ENDBRANCH  39  42
ENDBRANCH  36  39
ENDBRANCH  34  36
ENDBRANCH  31  32
ENDBRANCH  30  31
ENDBRANCH  28  30
ENDBRANCH  25  26
ENDBRANCH  24  25
ENDBRANCH  23  24
ENDBRANCH  22  23
ENDBRANCH  21  22
ENDBRANCH  20  21
ENDBRANCH  18  20
ENDBRANCH  15  16
ENDBRANCH  14  15
ENDBRANCH  12  14
ENDBRANCH   7  10
ENDBRANCH   2   7
TORSDOF 19
ENDMDL
MODEL      135
REMARK 921   NORMALIZED FREE ENERGY PREDICTED BY IDOCK:   -4.64 KCAL/MOL
REMARK 922        TOTAL FREE ENERGY PREDICTED BY IDOCK:  -11.98 KCAL/MOL
REMARK 923 INTER-LIGAND FREE ENERGY PREDICTED BY IDOCK:   -9.84 KCAL/MOL
REMARK 924 INTRA-LIGAND FREE ENERGY PREDICTED BY IDOCK:   -2.13 KCAL/MOL
REMARK 927      BINDING AFFINITY PREDICTED BY RF-SCORE:    0.00 PKD
ROOT
HETATM    1  C   UNL     1      -9.705   4.855  65.526  1.00  0.00    -0.129 C  
HETATM    2  C   UNL     1      -9.262   5.250  66.947  1.00  0.00    -0.121 C  
HETATM    3  C   UNL     1      -7.730   5.063  67.083  1.00  0.00    -0.092 C  
ENDROOT
BRANCH   2   4
HETATM    4  C   UNL     1      -9.545   6.752  67.162  1.00  0.00    -0.144 C  
HETATM    5  O   UNL     1     -10.945   7.012  67.228  1.00  0.00    -0.453 OA 
HETATM    6  H   UNL     1     -11.119   7.937  67.360  1.00  0.00     0.000 HD 
ENDBRANCH   2   4
BRANCH   2   7
HETATM    7  C   UNL     1     -10.012   4.412  68.030  1.00  0.00    -0.009 C  
HETATM    8  O   UNL     1      -9.736   3.004  67.936  1.00  0.00    -0.240 OA 
HETATM    9  H   UNL     1     -10.192   2.495  68.595  1.00  0.00     0.000 HD 
BRANCH   7  10
HETATM   10  C   UNL     1      -9.742   4.841  69.489  1.00  0.00    -0.201 C  
HETATM   11  O   UNL     1      -8.753   4.518  70.141  1.00  0.00    -0.075 OA 
HETATM   12  N   UNL     1     -10.698   5.700  69.985  1.00  0.00    -0.323 N  
HETATM   13  H   UNL     1     -11.537   5.890  69.437  1.00  0.00     0.000 HD 
BRANCH  12  14
HETATM   14  C   UNL     1     -10.528   6.335  71.272  1.00  0.00    -0.218 C  
BRANCH  14  15
HETATM   15  C   UNL     1      -9.568   7.520  71.237  1.00  0.00    -0.165 C  
BRANCH  15  16
HETATM   16  C   UNL     1     -10.346   8.762  70.865  1.00  0.00    -0.223 C  
HETATM   17  O   UNL     1     -11.027   9.369  71.685  1.00  0.00    -0.369 OA 
HETATM   18  N   UNL     1     -10.198   9.151  69.553  1.00  0.00    -0.196 N  
HETATM   19  H   UNL     1      -9.568   8.600  68.970  1.00  0.00     0.000 HD 
BRANCH  18  20
HETATM   20  C   UNL     1     -10.870  10.292  68.928  1.00  0.00    -0.228 C  
BRANCH  20  21
HETATM   21  C   UNL     1      -9.985  11.442  68.437  1.00  0.00    -0.204 C  
BRANCH  21  22
HETATM   22  S   UNL     1      -8.194  11.246  68.779  1.00  0.00    -0.083 SA 
BRANCH  22  23
HETATM   23  S   UNL     1      -7.506  10.104  67.207  1.00  0.00    -0.091 SA 
BRANCH  23  24
HETATM   24  C   UNL     1      -8.263  10.954  65.782  1.00  0.00    -0.113 C  
BRANCH  24  25
HETATM   25  C   UNL     1      -9.239  10.034  65.046  1.00  0.00    -0.225 C  
BRANCH  25  26
HETATM   26  N   UNL     1     -10.527  10.642  64.718  1.00  0.00    -0.287 N  
HETATM   27  H   UNL     1     -11.352  10.326  65.228  1.00  0.00     0.000 HD 
HETATM   28  C   UNL     1     -10.687  11.618  63.757  1.00  0.00    -0.419 C  
HETATM   29  O   UNL     1      -9.777  12.032  63.047  1.00  0.00    -0.383 OA 
BRANCH  28  30
HETATM   30  C   UNL     1     -12.086  12.183  63.667  1.00  0.00    -0.648 C  
BRANCH  30  31
HETATM   31  C   UNL     1     -12.037  13.705  63.759  1.00  0.00    -0.382 C  
BRANCH  31  32
HETATM   32  N   UNL     1     -11.030  14.164  64.698  1.00  0.00    -0.500 N  
HETATM   33  H   UNL     1     -10.550  13.476  65.278  1.00  0.00     0.000 HD 
HETATM   34  C   UNL     1     -10.701  15.492  64.835  1.00  0.00    -0.392 C  
HETATM   35  O   UNL     1     -11.287  16.398  64.250  1.00  0.00    -0.892 OA 
BRANCH  34  36
HETATM   36  C   UNL     1      -9.569  15.755  65.852  1.00  0.00    -0.347 C  
HETATM   37  O   UNL     1      -8.901  14.525  66.173  1.00  0.00    -0.480 OA 
HETATM   38  H   UNL     1      -8.205  14.687  66.799  1.00  0.00     0.000 HD 
BRANCH  36  39
HETATM   39  C   UNL     1     -10.057  16.454  67.152  1.00  0.00    -0.271 C  
HETATM   40  C   UNL     1     -10.430  17.928  66.895  1.00  0.00    -0.334 C  
HETATM   41  C   UNL     1     -11.333  15.737  67.653  1.00  0.00    -0.194 C  
BRANCH  39  42
HETATM   42  C   UNL     1      -8.962  16.365  68.243  1.00  0.00    -0.206 C  
HETATM   43  O   UNL     1      -9.240  15.339  69.189  1.00  0.00    -0.208 OA 
HETATM   44  H   UNL     1      -8.568  15.284  69.859  1.00  0.00     0.000 HD 
ENDBRANCH  39  42
ENDBRANCH  36  39
ENDBRANCH  34  36
ENDBRANCH  31  32
ENDBRANCH  30  31
ENDBRANCH  28  30
ENDBRANCH  25  26
ENDBRANCH  24  25
ENDBRANCH  23  24
ENDBRANCH  22  23
ENDBRANCH  21  22
ENDBRANCH  20  21
ENDBRANCH  18  20
ENDBRANCH  15  16
ENDBRANCH  14  15
ENDBRANCH  12  14
ENDBRANCH   7  10
ENDBRANCH   2   7
TORSDOF 19
ENDMDL
MODEL      136
REMARK 921   NORMALIZED FREE ENERGY PREDICTED BY IDOCK:   -4.64 KCAL/MOL
REMARK 922        TOTAL FREE ENERGY PREDICTED BY IDOCK:  -11.97 KCAL/MOL
REMARK 923 INTER-LIGAND FREE ENERGY PREDICTED BY IDOCK:   -9.38 KCAL/MOL
REMARK 924 INTRA-LIGAND FREE ENERGY PREDICTED BY IDOCK:   -2.59 KCAL/MOL
REMARK 927      BINDING AFFINITY PREDICTED BY RF-SCORE:    0.00 PKD
ROOT
HETATM    1  C   UNL     1      -9.436   5.835  71.718  1.00  0.00    -0.167 C  
HETATM    2  C   UNL     1     -10.779   6.032  72.447  1.00  0.00    -0.267 C  
HETATM    3  C   UNL     1     -11.173   4.720  73.170  1.00  0.00    -0.390 C  
ENDROOT
BRANCH   2   4
HETATM    4  C   UNL     1     -10.604   7.105  73.542  1.00  0.00    -0.374 C  
HETATM    5  O   UNL     1     -10.093   8.321  73.001  1.00  0.00    -0.271 OA 
HETATM    6  H   UNL     1      -9.985   8.981  73.676  1.00  0.00     0.000 HD 
ENDBRANCH   2   4
BRANCH   2   7
HETATM    7  C   UNL     1     -11.904   6.468  71.457  1.00  0.00    -0.333 C  
HETATM    8  O   UNL     1     -12.825   7.407  72.039  1.00  0.00    -0.447 OA 
HETATM    9  H   UNL     1     -13.509   7.673  71.437  1.00  0.00     0.000 HD 
BRANCH   7  10
HETATM   10  C   UNL     1     -11.405   7.072  70.126  1.00  0.00    -0.277 C  
HETATM   11  O   UNL     1     -11.262   6.442  69.083  1.00  0.00    -0.353 OA 
HETATM   12  N   UNL     1     -11.198   8.432  70.194  1.00  0.00    -0.413 N  
HETATM   13  H   UNL     1     -11.263   8.907  71.095  1.00  0.00     0.000 HD 
BRANCH  12  14
HETATM   14  C   UNL     1     -10.889   9.195  69.006  1.00  0.00    -0.090 C  
BRANCH  14  15
HETATM   15  C   UNL     1      -9.658  10.081  69.162  1.00  0.00    -0.217 C  
BRANCH  15  16
HETATM   16  C   UNL     1      -8.423   9.234  68.950  1.00  0.00    -0.129 C  
HETATM   17  O   UNL     1      -8.123   8.325  69.718  1.00  0.00    -0.113 OA 
HETATM   18  N   UNL     1      -7.701   9.557  67.824  1.00  0.00    -0.088 N  
HETATM   19  H   UNL     1      -8.068  10.299  67.230  1.00  0.00     0.000 HD 
BRANCH  18  20
HETATM   20  C   UNL     1      -6.448   8.920  67.410  1.00  0.00    -0.057 C  
BRANCH  20  21
HETATM   21  C   UNL     1      -6.108   8.953  65.917  1.00  0.00    -0.052 C  
BRANCH  21  22
HETATM   22  S   UNL     1      -6.645  10.465  65.029  1.00  0.00    -0.025 SA 
BRANCH  22  23
HETATM   23  S   UNL     1      -7.675   9.746  63.395  1.00  0.00    -0.143 SA 
BRANCH  23  24
HETATM   24  C   UNL     1      -9.271  10.609  63.562  1.00  0.00    -0.262 C  
BRANCH  24  25
HETATM   25  C   UNL     1      -9.648  10.794  65.034  1.00  0.00    -0.254 C  
BRANCH  25  26
HETATM   26  N   UNL     1     -10.732  11.743  65.275  1.00  0.00    -0.279 N  
HETATM   27  H   UNL     1     -11.633  11.568  64.830  1.00  0.00     0.000 HD 
HETATM   28  C   UNL     1     -10.605  12.861  66.072  1.00  0.00    -0.270 C  
HETATM   29  O   UNL     1      -9.556  13.199  66.610  1.00  0.00    -0.248 OA 
BRANCH  28  30
HETATM   30  C   UNL     1     -11.887  13.637  66.272  1.00  0.00    -0.426 C  
BRANCH  30  31
HETATM   31  C   UNL     1     -11.810  14.439  67.568  1.00  0.00    -0.386 C  
BRANCH  31  32
HETATM   32  N   UNL     1     -11.027  15.651  67.416  1.00  0.00    -0.312 N  
HETATM   33  H   UNL     1     -10.625  15.865  66.504  1.00  0.00     0.000 HD 
HETATM   34  C   UNL     1     -10.809  16.522  68.458  1.00  0.00    -0.349 C  
HETATM   35  O   UNL     1     -11.174  16.305  69.609  1.00  0.00    -0.329 OA 
BRANCH  34  36
HETATM   36  C   UNL     1      -9.993  17.774  68.066  1.00  0.00    -0.333 C  
HETATM   37  O   UNL     1     -10.390  18.231  66.764  1.00  0.00    -0.355 OA 
HETATM   38  H   UNL     1      -9.888  19.001  66.523  1.00  0.00     0.000 HD 
BRANCH  36  39
HETATM   39  C   UNL     1      -8.456  17.549  68.109  1.00  0.00    -0.254 C  
HETATM   40  C   UNL     1      -7.728  18.749  68.750  1.00  0.00    -0.351 C  
HETATM   41  C   UNL     1      -8.159  16.309  68.985  1.00  0.00    -0.236 C  
BRANCH  39  42
HETATM   42  C   UNL     1      -7.918  17.302  66.679  1.00  0.00    -0.261 C  
HETATM   43  O   UNL     1      -8.256  16.003  66.204  1.00  0.00    -0.268 OA 
HETATM   44  H   UNL     1      -7.926  15.851  65.326  1.00  0.00     0.000 HD 
ENDBRANCH  39  42
ENDBRANCH  36  39
ENDBRANCH  34  36
ENDBRANCH  31  32
ENDBRANCH  30  31
ENDBRANCH  28  30
ENDBRANCH  25  26
ENDBRANCH  24  25
ENDBRANCH  23  24
ENDBRANCH  22  23
ENDBRANCH  21  22
ENDBRANCH  20  21
ENDBRANCH  18  20
ENDBRANCH  15  16
ENDBRANCH  14  15
ENDBRANCH  12  14
ENDBRANCH   7  10
ENDBRANCH   2   7
TORSDOF 19
ENDMDL
MODEL      137
REMARK 921   NORMALIZED FREE ENERGY PREDICTED BY IDOCK:   -4.64 KCAL/MOL
REMARK 922        TOTAL FREE ENERGY PREDICTED BY IDOCK:  -11.97 KCAL/MOL
REMARK 923 INTER-LIGAND FREE ENERGY PREDICTED BY IDOCK:  -10.37 KCAL/MOL
REMARK 924 INTRA-LIGAND FREE ENERGY PREDICTED BY IDOCK:   -1.60 KCAL/MOL
REMARK 927      BINDING AFFINITY PREDICTED BY RF-SCORE:    0.00 PKD
ROOT
HETATM    1  C   UNL     1      -7.075  18.486  67.791  1.00  0.00    -0.222 C  
HETATM    2  C   UNL     1      -7.602  19.723  67.040  1.00  0.00    -0.290 C  
HETATM    3  C   UNL     1      -7.032  21.007  67.692  1.00  0.00    -0.335 C  
ENDROOT
BRANCH   2   4
HETATM    4  C   UNL     1      -7.075  19.693  65.590  1.00  0.00    -0.300 C  
HETATM    5  O   UNL     1      -6.902  18.355  65.128  1.00  0.00    -0.512 OA 
HETATM    6  H   UNL     1      -6.577  18.337  64.235  1.00  0.00     0.000 HD 
ENDBRANCH   2   4
BRANCH   2   7
HETATM    7  C   UNL     1      -9.162  19.762  67.033  1.00  0.00    -0.352 C  
HETATM    8  O   UNL     1      -9.696  20.554  65.958  1.00  0.00    -0.651 OA 
HETATM    9  H   UNL     1     -10.645  20.577  65.954  1.00  0.00     0.000 HD 
BRANCH   7  10
HETATM   10  C   UNL     1      -9.849  18.379  66.975  1.00  0.00    -0.326 C  
HETATM   11  O   UNL     1      -9.856  17.643  65.993  1.00  0.00    -0.478 OA 
HETATM   12  N   UNL     1     -10.407  18.003  68.177  1.00  0.00    -0.383 N  
HETATM   13  H   UNL     1     -10.439  18.670  68.949  1.00  0.00     0.000 HD 
BRANCH  12  14
HETATM   14  C   UNL     1     -10.948  16.674  68.359  1.00  0.00    -0.345 C  
BRANCH  14  15
HETATM   15  C   UNL     1     -10.006  15.739  69.111  1.00  0.00    -0.241 C  
BRANCH  15  16
HETATM   16  C   UNL     1      -9.786  14.499  68.273  1.00  0.00    -0.218 C  
HETATM   17  O   UNL     1      -9.300  14.557  67.147  1.00  0.00    -0.202 OA 
HETATM   18  N   UNL     1     -10.149  13.325  68.892  1.00  0.00    -0.430 N  
HETATM   19  H   UNL     1     -10.497  13.388  69.848  1.00  0.00     0.000 HD 
BRANCH  18  20
HETATM   20  C   UNL     1     -10.074  11.992  68.289  1.00  0.00    -0.201 C  
BRANCH  20  21
HETATM   21  C   UNL     1     -11.194  11.600  67.320  1.00  0.00    -0.304 C  
BRANCH  21  22
HETATM   22  S   UNL     1     -10.696  11.481  65.560  1.00  0.00    -0.251 SA 
BRANCH  22  23
HETATM   23  S   UNL     1      -8.803  10.670  65.630  1.00  0.00    -0.190 SA 
BRANCH  23  24
HETATM   24  C   UNL     1      -8.779   9.670  64.106  1.00  0.00    -0.216 C  
BRANCH  24  25
HETATM   25  C   UNL     1      -8.140   8.301  64.353  1.00  0.00    -0.145 C  
BRANCH  25  26
HETATM   26  N   UNL     1      -8.968   7.365  65.109  1.00  0.00    -0.335 N  
HETATM   27  H   UNL     1      -9.943   7.253  64.832  1.00  0.00     0.000 HD 
HETATM   28  C   UNL     1      -8.503   6.623  66.174  1.00  0.00    -0.135 C  
HETATM   29  O   UNL     1      -7.367   6.718  66.627  1.00  0.00    -0.071 OA 
BRANCH  28  30
HETATM   30  C   UNL     1      -9.501   5.636  66.733  1.00  0.00    -0.150 C  
BRANCH  30  31
HETATM   31  C   UNL     1     -10.868   6.300  66.864  1.00  0.00    -0.354 C  
BRANCH  31  32
HETATM   32  N   UNL     1     -11.353   6.291  68.232  1.00  0.00    -0.486 N  
HETATM   33  H   UNL     1     -11.883   5.483  68.560  1.00  0.00     0.000 HD 
HETATM   34  C   UNL     1     -11.123   7.331  69.102  1.00  0.00     0.008 C  
HETATM   35  O   UNL     1     -10.578   8.380  68.774  1.00  0.00    -0.203 OA 
BRANCH  34  36
HETATM   36  C   UNL     1     -11.682   7.094  70.523  1.00  0.00    -0.272 C  
HETATM   37  O   UNL     1     -12.444   8.235  70.947  1.00  0.00    -0.494 OA 
HETATM   38  H   UNL     1     -12.787   8.089  71.821  1.00  0.00     0.000 HD 
BRANCH  36  39
HETATM   39  C   UNL     1     -10.583   6.765  71.572  1.00  0.00    -0.245 C  
HETATM   40  C   UNL     1     -10.979   7.261  72.978  1.00  0.00    -0.388 C  
HETATM   41  C   UNL     1     -10.419   5.229  71.655  1.00  0.00    -0.280 C  
BRANCH  39  42
HETATM   42  C   UNL     1      -9.237   7.399  71.143  1.00  0.00    -0.155 C  
HETATM   43  O   UNL     1      -9.127   8.751  71.576  1.00  0.00    -0.214 OA 
HETATM   44  H   UNL     1      -8.301   9.140  71.314  1.00  0.00     0.000 HD 
ENDBRANCH  39  42
ENDBRANCH  36  39
ENDBRANCH  34  36
ENDBRANCH  31  32
ENDBRANCH  30  31
ENDBRANCH  28  30
ENDBRANCH  25  26
ENDBRANCH  24  25
ENDBRANCH  23  24
ENDBRANCH  22  23
ENDBRANCH  21  22
ENDBRANCH  20  21
ENDBRANCH  18  20
ENDBRANCH  15  16
ENDBRANCH  14  15
ENDBRANCH  12  14
ENDBRANCH   7  10
ENDBRANCH   2   7
TORSDOF 19
ENDMDL
MODEL      138
REMARK 921   NORMALIZED FREE ENERGY PREDICTED BY IDOCK:   -4.63 KCAL/MOL
REMARK 922        TOTAL FREE ENERGY PREDICTED BY IDOCK:  -11.95 KCAL/MOL
REMARK 923 INTER-LIGAND FREE ENERGY PREDICTED BY IDOCK:  -10.07 KCAL/MOL
REMARK 924 INTRA-LIGAND FREE ENERGY PREDICTED BY IDOCK:   -1.88 KCAL/MOL
REMARK 927      BINDING AFFINITY PREDICTED BY RF-SCORE:    0.00 PKD
ROOT
HETATM    1  C   UNL     1     -12.225  13.668  63.143  1.00  0.00     0.107 C  
HETATM    2  C   UNL     1     -11.358  13.183  64.320  1.00  0.00    -0.427 C  
HETATM    3  C   UNL     1     -12.258  12.505  65.383  1.00  0.00    -0.475 C  
ENDROOT
BRANCH   2   4
HETATM    4  C   UNL     1     -10.381  12.101  63.814  1.00  0.00    -0.437 C  
HETATM    5  O   UNL     1     -10.993  11.269  62.830  1.00  0.00    -0.801 OA 
HETATM    6  H   UNL     1     -10.392  10.602  62.519  1.00  0.00     0.000 HD 
ENDBRANCH   2   4
BRANCH   2   7
HETATM    7  C   UNL     1     -10.554  14.360  64.957  1.00  0.00    -0.432 C  
HETATM    8  O   UNL     1     -10.785  15.615  64.295  1.00  0.00    -0.697 OA 
HETATM    9  H   UNL     1     -10.296  16.331  64.682  1.00  0.00     0.000 HD 
BRANCH   7  10
HETATM   10  C   UNL     1     -10.804  14.580  66.466  1.00  0.00    -0.314 C  
HETATM   11  O   UNL     1     -11.524  15.456  66.934  1.00  0.00    -0.224 OA 
HETATM   12  N   UNL     1     -10.188  13.636  67.257  1.00  0.00    -0.244 N  
HETATM   13  H   UNL     1      -9.545  12.966  66.835  1.00  0.00     0.000 HD 
BRANCH  12  14
HETATM   14  C   UNL     1     -10.442  13.583  68.680  1.00  0.00    -0.232 C  
BRANCH  14  15
HETATM   15  C   UNL     1     -11.784  12.949  69.029  1.00  0.00    -0.375 C  
BRANCH  15  16
HETATM   16  C   UNL     1     -11.604  11.450  69.109  1.00  0.00    -0.314 C  
HETATM   17  O   UNL     1     -11.783  10.724  68.137  1.00  0.00    -0.501 OA 
HETATM   18  N   UNL     1     -11.203  10.993  70.344  1.00  0.00    -0.462 N  
HETATM   19  H   UNL     1     -11.037  11.690  71.069  1.00  0.00     0.000 HD 
BRANCH  18  20
HETATM   20  C   UNL     1     -10.995   9.587  70.699  1.00  0.00    -0.306 C  
BRANCH  20  21
HETATM   21  C   UNL     1     -11.967   8.970  71.709  1.00  0.00    -0.368 C  
BRANCH  21  22
HETATM   22  S   UNL     1     -12.519   7.266  71.317  1.00  0.00    -0.353 SA 
BRANCH  22  23
HETATM   23  S   UNL     1     -11.281   6.680  69.777  1.00  0.00    -0.351 SA 
BRANCH  23  24
HETATM   24  C   UNL     1     -10.295   5.374  70.580  1.00  0.00    -0.262 C  
BRANCH  24  25
HETATM   25  C   UNL     1      -9.639   4.460  69.543  1.00  0.00    -0.201 C  
BRANCH  25  26
HETATM   26  N   UNL     1      -9.890   4.831  68.152  1.00  0.00    -0.142 N  
HETATM   27  H   UNL     1     -10.330   5.733  67.966  1.00  0.00     0.000 HD 
HETATM   28  C   UNL     1      -9.565   4.030  67.078  1.00  0.00    -0.201 C  
HETATM   29  O   UNL     1      -9.085   2.906  67.186  1.00  0.00    -0.149 OA 
BRANCH  28  30
HETATM   30  C   UNL     1      -9.810   4.663  65.727  1.00  0.00    -0.227 C  
BRANCH  30  31
HETATM   31  C   UNL     1      -8.494   5.168  65.145  1.00  0.00    -0.147 C  
BRANCH  31  32
HETATM   32  N   UNL     1      -8.089   6.435  65.725  1.00  0.00    -0.120 N  
HETATM   33  H   UNL     1      -8.075   6.528  66.741  1.00  0.00     0.000 HD 
HETATM   34  C   UNL     1      -7.725   7.514  64.956  1.00  0.00    -0.116 C  
HETATM   35  O   UNL     1      -7.798   7.528  63.730  1.00  0.00    -0.121 OA 
BRANCH  34  36
HETATM   36  C   UNL     1      -7.280   8.747  65.775  1.00  0.00    -0.084 C  
HETATM   37  O   UNL     1      -6.216   8.384  66.668  1.00  0.00    -0.052 OA 
HETATM   38  H   UNL     1      -5.943   9.142  67.172  1.00  0.00     0.000 HD 
BRANCH  36  39
HETATM   39  C   UNL     1      -8.439   9.414  66.567  1.00  0.00    -0.137 C  
HETATM   40  C   UNL     1      -8.506   8.890  68.016  1.00  0.00    -0.126 C  
HETATM   41  C   UNL     1      -8.181  10.937  66.638  1.00  0.00    -0.145 C  
BRANCH  39  42
HETATM   42  C   UNL     1      -9.786   9.159  65.847  1.00  0.00    -0.266 C  
HETATM   43  O   UNL     1     -10.597   8.228  66.555  1.00  0.00    -0.365 OA 
HETATM   44  H   UNL     1     -11.423   8.072  66.113  1.00  0.00     0.000 HD 
ENDBRANCH  39  42
ENDBRANCH  36  39
ENDBRANCH  34  36
ENDBRANCH  31  32
ENDBRANCH  30  31
ENDBRANCH  28  30
ENDBRANCH  25  26
ENDBRANCH  24  25
ENDBRANCH  23  24
ENDBRANCH  22  23
ENDBRANCH  21  22
ENDBRANCH  20  21
ENDBRANCH  18  20
ENDBRANCH  15  16
ENDBRANCH  14  15
ENDBRANCH  12  14
ENDBRANCH   7  10
ENDBRANCH   2   7
TORSDOF 19
ENDMDL
MODEL      139
REMARK 921   NORMALIZED FREE ENERGY PREDICTED BY IDOCK:   -4.62 KCAL/MOL
REMARK 922        TOTAL FREE ENERGY PREDICTED BY IDOCK:  -11.93 KCAL/MOL
REMARK 923 INTER-LIGAND FREE ENERGY PREDICTED BY IDOCK:   -8.97 KCAL/MOL
REMARK 924 INTRA-LIGAND FREE ENERGY PREDICTED BY IDOCK:   -2.95 KCAL/MOL
REMARK 927      BINDING AFFINITY PREDICTED BY RF-SCORE:    0.00 PKD
ROOT
HETATM    1  C   UNL     1     -10.416  14.477  68.971  1.00  0.00    -0.241 C  
HETATM    2  C   UNL     1      -9.568  13.617  68.015  1.00  0.00    -0.216 C  
HETATM    3  C   UNL     1      -9.894  13.996  66.549  1.00  0.00    -0.298 C  
ENDROOT
BRANCH   2   4
HETATM    4  C   UNL     1      -8.076  13.943  68.234  1.00  0.00    -0.150 C  
HETATM    5  O   UNL     1      -7.417  14.215  66.999  1.00  0.00    -0.315 OA 
HETATM    6  H   UNL     1      -6.498  14.416  67.134  1.00  0.00     0.000 HD 
ENDBRANCH   2   4
BRANCH   2   7
HETATM    7  C   UNL     1      -9.814  12.093  68.252  1.00  0.00    -0.212 C  
HETATM    8  O   UNL     1      -8.875  11.513  69.173  1.00  0.00    -0.376 OA 
HETATM    9  H   UNL     1      -9.025  10.587  69.317  1.00  0.00     0.000 HD 
BRANCH   7  10
HETATM   10  C   UNL     1     -11.232  11.730  68.745  1.00  0.00    -0.251 C  
HETATM   11  O   UNL     1     -12.188  11.493  68.011  1.00  0.00    -0.582 OA 
HETATM   12  N   UNL     1     -11.316  11.622  70.115  1.00  0.00    -0.500 N  
HETATM   13  H   UNL     1     -10.519  11.892  70.692  1.00  0.00     0.000 HD 
BRANCH  12  14
HETATM   14  C   UNL     1     -12.520  11.130  70.747  1.00  0.00    -0.384 C  
BRANCH  14  15
HETATM   15  C   UNL     1     -12.288   9.889  71.602  1.00  0.00    -0.496 C  
BRANCH  15  16
HETATM   16  C   UNL     1     -11.152   9.093  70.999  1.00  0.00    -0.305 C  
HETATM   17  O   UNL     1      -9.977   9.374  71.217  1.00  0.00    -0.287 OA 
HETATM   18  N   UNL     1     -11.555   8.030  70.224  1.00  0.00    -0.471 N  
HETATM   19  H   UNL     1     -12.556   7.857  70.150  1.00  0.00     0.000 HD 
BRANCH  18  20
HETATM   20  C   UNL     1     -10.660   7.125  69.497  1.00  0.00    -0.234 C  
BRANCH  20  21
HETATM   21  C   UNL     1     -10.781   5.629  69.800  1.00  0.00    -0.331 C  
BRANCH  21  22
HETATM   22  S   UNL     1      -9.880   5.062  71.293  1.00  0.00    -0.190 SA 
BRANCH  22  23
HETATM   23  S   UNL     1      -9.465   3.081  70.905  1.00  0.00    -0.150 SA 
BRANCH  23  24
HETATM   24  C   UNL     1      -7.719   3.169  70.389  1.00  0.00    -0.043 C  
BRANCH  24  25
HETATM   25  C   UNL     1      -7.480   4.351  69.445  1.00  0.00    -0.055 C  
BRANCH  25  26
HETATM   26  N   UNL     1      -7.979   4.160  68.085  1.00  0.00    -0.081 N  
HETATM   27  H   UNL     1      -8.182   3.210  67.776  1.00  0.00     0.000 HD 
HETATM   28  C   UNL     1      -8.189   5.195  67.198  1.00  0.00    -0.107 C  
HETATM   29  O   UNL     1      -7.927   6.367  67.443  1.00  0.00    -0.113 OA 
BRANCH  28  30
HETATM   30  C   UNL     1      -8.816   4.777  65.887  1.00  0.00    -0.127 C  
BRANCH  30  31
HETATM   31  C   UNL     1      -8.008   5.344  64.723  1.00  0.00    -0.110 C  
BRANCH  31  32
HETATM   32  N   UNL     1      -8.502   6.638  64.294  1.00  0.00    -0.337 N  
HETATM   33  H   UNL     1      -9.451   6.705  63.928  1.00  0.00     0.000 HD 
HETATM   34  C   UNL     1      -7.735   7.778  64.361  1.00  0.00    -0.123 C  
HETATM   35  O   UNL     1      -6.555   7.782  64.699  1.00  0.00    -0.044 OA 
BRANCH  34  36
HETATM   36  C   UNL     1      -8.471   9.056  63.901  1.00  0.00    -0.160 C  
HETATM   37  O   UNL     1      -7.603   9.855  63.082  1.00  0.00    -0.125 OA 
HETATM   38  H   UNL     1      -8.056  10.641  62.799  1.00  0.00     0.000 HD 
BRANCH  36  39
HETATM   39  C   UNL     1      -9.028   9.906  65.077  1.00  0.00    -0.239 C  
HETATM   40  C   UNL     1      -9.698   9.019  66.147  1.00  0.00    -0.354 C  
HETATM   41  C   UNL     1      -7.851  10.641  65.761  1.00  0.00    -0.141 C  
BRANCH  39  42
HETATM   42  C   UNL     1     -10.038  10.950  64.543  1.00  0.00    -0.341 C  
HETATM   43  O   UNL     1      -9.444  11.819  63.584  1.00  0.00    -0.483 OA 
HETATM   44  H   UNL     1     -10.064  12.459  63.256  1.00  0.00     0.000 HD 
ENDBRANCH  39  42
ENDBRANCH  36  39
ENDBRANCH  34  36
ENDBRANCH  31  32
ENDBRANCH  30  31
ENDBRANCH  28  30
ENDBRANCH  25  26
ENDBRANCH  24  25
ENDBRANCH  23  24
ENDBRANCH  22  23
ENDBRANCH  21  22
ENDBRANCH  20  21
ENDBRANCH  18  20
ENDBRANCH  15  16
ENDBRANCH  14  15
ENDBRANCH  12  14
ENDBRANCH   7  10
ENDBRANCH   2   7
TORSDOF 19
ENDMDL
MODEL      140
REMARK 921   NORMALIZED FREE ENERGY PREDICTED BY IDOCK:   -4.62 KCAL/MOL
REMARK 922        TOTAL FREE ENERGY PREDICTED BY IDOCK:  -11.93 KCAL/MOL
REMARK 923 INTER-LIGAND FREE ENERGY PREDICTED BY IDOCK:  -10.53 KCAL/MOL
REMARK 924 INTRA-LIGAND FREE ENERGY PREDICTED BY IDOCK:   -1.39 KCAL/MOL
REMARK 927      BINDING AFFINITY PREDICTED BY RF-SCORE:    0.00 PKD
ROOT
HETATM    1  C   UNL     1      -9.610  17.208  65.862  1.00  0.00    -0.110 C  
HETATM    2  C   UNL     1     -10.503  15.998  66.195  1.00  0.00    -0.334 C  
HETATM    3  C   UNL     1      -9.628  14.725  66.312  1.00  0.00    -0.339 C  
ENDROOT
BRANCH   2   4
HETATM    4  C   UNL     1     -11.151  16.217  67.579  1.00  0.00    -0.140 C  
HETATM    5  O   UNL     1     -11.047  15.050  68.391  1.00  0.00    -0.255 OA 
HETATM    6  H   UNL     1     -11.446  15.185  69.243  1.00  0.00     0.000 HD 
ENDBRANCH   2   4
BRANCH   2   7
HETATM    7  C   UNL     1     -11.615  15.798  65.119  1.00  0.00     0.068 C  
HETATM    8  O   UNL     1     -11.256  16.343  63.838  1.00  0.00    -1.383 OA 
HETATM    9  H   UNL     1     -11.933  16.222  63.183  1.00  0.00     0.000 HD 
BRANCH   7  10
HETATM   10  C   UNL     1     -12.050  14.333  64.893  1.00  0.00    -0.435 C  
HETATM   11  O   UNL     1     -12.970  13.778  65.487  1.00  0.00    -0.651 OA 
HETATM   12  N   UNL     1     -11.343  13.709  63.890  1.00  0.00    -0.591 N  
HETATM   13  H   UNL     1     -10.543  14.181  63.468  1.00  0.00     0.000 HD 
BRANCH  12  14
HETATM   14  C   UNL     1     -11.721  12.392  63.427  1.00  0.00    -0.472 C  
BRANCH  14  15
HETATM   15  C   UNL     1     -10.625  11.349  63.619  1.00  0.00    -0.476 C  
BRANCH  15  16
HETATM   16  C   UNL     1     -10.277  11.278  65.089  1.00  0.00    -0.289 C  
HETATM   17  O   UNL     1     -11.135  11.103  65.948  1.00  0.00    -0.173 OA 
HETATM   18  N   UNL     1      -8.933  11.397  65.359  1.00  0.00    -0.380 N  
HETATM   19  H   UNL     1      -8.302  11.490  64.564  1.00  0.00     0.000 HD 
BRANCH  18  20
HETATM   20  C   UNL     1      -8.336  11.401  66.697  1.00  0.00    -0.172 C  
BRANCH  20  21
HETATM   21  C   UNL     1      -8.100  10.041  67.360  1.00  0.00    -0.114 C  
BRANCH  21  22
HETATM   22  S   UNL     1      -6.646   9.112  66.736  1.00  0.00    -0.068 SA 
BRANCH  22  23
HETATM   23  S   UNL     1      -5.390   8.996  68.365  1.00  0.00    -0.038 SA 
BRANCH  23  24
HETATM   24  C   UNL     1      -6.233   7.743  69.387  1.00  0.00    -0.034 C  
BRANCH  24  25
HETATM   25  C   UNL     1      -6.600   6.510  68.557  1.00  0.00    -0.051 C  
BRANCH  25  26
HETATM   26  N   UNL     1      -7.824   5.831  68.975  1.00  0.00    -0.093 N  
HETATM   27  H   UNL     1      -8.709   6.326  68.871  1.00  0.00     0.000 HD 
HETATM   28  C   UNL     1      -7.847   4.557  69.503  1.00  0.00    -0.058 C  
HETATM   29  O   UNL     1      -6.841   3.892  69.725  1.00  0.00    -0.040 OA 
BRANCH  28  30
HETATM   30  C   UNL     1      -9.234   4.010  69.759  1.00  0.00    -0.212 C  
BRANCH  30  31
HETATM   31  C   UNL     1      -9.760   4.538  71.090  1.00  0.00    -0.186 C  
BRANCH  31  32
HETATM   32  N   UNL     1     -10.598   5.710  70.921  1.00  0.00    -0.257 N  
HETATM   33  H   UNL     1     -10.730   6.089  69.983  1.00  0.00     0.000 HD 
HETATM   34  C   UNL     1     -11.219   6.330  71.980  1.00  0.00    -0.281 C  
HETATM   35  O   UNL     1     -11.047   6.005  73.151  1.00  0.00    -0.255 OA 
BRANCH  34  36
HETATM   36  C   UNL     1     -12.104   7.529  71.572  1.00  0.00    -0.316 C  
HETATM   37  O   UNL     1     -13.007   7.139  70.526  1.00  0.00    -0.581 OA 
HETATM   38  H   UNL     1     -13.551   7.877  70.275  1.00  0.00     0.000 HD 
BRANCH  36  39
HETATM   39  C   UNL     1     -11.289   8.779  71.138  1.00  0.00    -0.345 C  
HETATM   40  C   UNL     1     -10.016   8.947  71.992  1.00  0.00    -0.338 C  
HETATM   41  C   UNL     1     -10.839   8.593  69.670  1.00  0.00    -0.163 C  
BRANCH  39  42
HETATM   42  C   UNL     1     -12.171  10.047  71.242  1.00  0.00    -0.402 C  
HETATM   43  O   UNL     1     -12.918  10.272  70.051  1.00  0.00    -0.568 OA 
HETATM   44  H   UNL     1     -13.459  11.050  70.116  1.00  0.00     0.000 HD 
ENDBRANCH  39  42
ENDBRANCH  36  39
ENDBRANCH  34  36
ENDBRANCH  31  32
ENDBRANCH  30  31
ENDBRANCH  28  30
ENDBRANCH  25  26
ENDBRANCH  24  25
ENDBRANCH  23  24
ENDBRANCH  22  23
ENDBRANCH  21  22
ENDBRANCH  20  21
ENDBRANCH  18  20
ENDBRANCH  15  16
ENDBRANCH  14  15
ENDBRANCH  12  14
ENDBRANCH   7  10
ENDBRANCH   2   7
TORSDOF 19
ENDMDL
MODEL      141
REMARK 921   NORMALIZED FREE ENERGY PREDICTED BY IDOCK:   -4.61 KCAL/MOL
REMARK 922        TOTAL FREE ENERGY PREDICTED BY IDOCK:  -11.92 KCAL/MOL
REMARK 923 INTER-LIGAND FREE ENERGY PREDICTED BY IDOCK:   -9.73 KCAL/MOL
REMARK 924 INTRA-LIGAND FREE ENERGY PREDICTED BY IDOCK:   -2.19 KCAL/MOL
REMARK 927      BINDING AFFINITY PREDICTED BY RF-SCORE:    0.00 PKD
ROOT
HETATM    1  C   UNL     1      -8.940   1.774  64.516  1.00  0.00    -0.111 C  
HETATM    2  C   UNL     1      -9.219   3.150  63.883  1.00  0.00    -0.104 C  
HETATM    3  C   UNL     1      -8.451   3.270  62.543  1.00  0.00    -0.074 C  
ENDROOT
BRANCH   2   4
HETATM    4  C   UNL     1     -10.721   3.253  63.543  1.00  0.00    -0.252 C  
HETATM    5  O   UNL     1     -10.979   4.339  62.657  1.00  0.00    -0.354 OA 
HETATM    6  H   UNL     1     -11.903   4.402  62.447  1.00  0.00     0.000 HD 
ENDBRANCH   2   4
BRANCH   2   7
HETATM    7  C   UNL     1      -8.817   4.310  64.847  1.00  0.00    -0.138 C  
HETATM    8  O   UNL     1      -8.736   5.583  64.184  1.00  0.00    -0.322 OA 
HETATM    9  H   UNL     1      -8.491   6.289  64.770  1.00  0.00     0.000 HD 
BRANCH   7  10
HETATM   10  C   UNL     1      -9.736   4.486  66.076  1.00  0.00    -0.210 C  
HETATM   11  O   UNL     1      -9.848   3.670  66.987  1.00  0.00    -0.148 OA 
HETATM   12  N   UNL     1     -10.381   5.702  66.099  1.00  0.00    -0.439 N  
HETATM   13  H   UNL     1     -10.314   6.323  65.292  1.00  0.00     0.000 HD 
BRANCH  12  14
HETATM   14  C   UNL     1     -11.152   6.111  67.252  1.00  0.00    -0.236 C  
BRANCH  14  15
HETATM   15  C   UNL     1     -10.312   6.789  68.329  1.00  0.00    -0.215 C  
BRANCH  15  16
HETATM   16  C   UNL     1     -10.803   6.331  69.684  1.00  0.00    -0.339 C  
HETATM   17  O   UNL     1     -11.781   6.840  70.223  1.00  0.00    -0.363 OA 
HETATM   18  N   UNL     1     -10.080   5.294  70.227  1.00  0.00    -0.237 N  
HETATM   19  H   UNL     1      -9.315   4.914  69.671  1.00  0.00     0.000 HD 
BRANCH  18  20
HETATM   20  C   UNL     1     -10.321   4.692  71.541  1.00  0.00    -0.104 C  
BRANCH  20  21
HETATM   21  C   UNL     1      -9.488   5.216  72.714  1.00  0.00    -0.142 C  
BRANCH  21  22
HETATM   22  S   UNL     1     -10.269   6.561  73.685  1.00  0.00    -0.317 SA 
BRANCH  22  23
HETATM   23  S   UNL     1      -8.868   8.072  73.665  1.00  0.00    -0.226 SA 
BRANCH  23  24
HETATM   24  C   UNL     1      -8.065   7.802  72.051  1.00  0.00    -0.106 C  
BRANCH  24  25
HETATM   25  C   UNL     1      -8.438   8.904  71.057  1.00  0.00    -0.198 C  
BRANCH  25  26
HETATM   26  N   UNL     1      -9.848   9.286  71.065  1.00  0.00    -0.290 N  
HETATM   27  H   UNL     1     -10.434   8.949  71.829  1.00  0.00     0.000 HD 
HETATM   28  C   UNL     1     -10.429  10.078  70.097  1.00  0.00    -0.284 C  
HETATM   29  O   UNL     1      -9.835  10.492  69.107  1.00  0.00    -0.205 OA 
BRANCH  28  30
HETATM   30  C   UNL     1     -11.872  10.439  70.367  1.00  0.00    -0.418 C  
BRANCH  30  31
HETATM   31  C   UNL     1     -12.085  11.931  70.129  1.00  0.00    -0.302 C  
BRANCH  31  32
HETATM   32  N   UNL     1     -11.985  12.281  68.725  1.00  0.00    -0.282 N  
HETATM   33  H   UNL     1     -11.931  11.532  68.034  1.00  0.00     0.000 HD 
HETATM   34  C   UNL     1     -11.959  13.586  68.291  1.00  0.00    -0.342 C  
HETATM   35  O   UNL     1     -11.926  14.551  69.049  1.00  0.00    -0.315 OA 
BRANCH  34  36
HETATM   36  C   UNL     1     -11.900  13.734  66.754  1.00  0.00    -0.420 C  
HETATM   37  O   UNL     1     -12.328  12.515  66.127  1.00  0.00    -0.596 OA 
HETATM   38  H   UNL     1     -12.292  12.607  65.182  1.00  0.00     0.000 HD 
BRANCH  36  39
HETATM   39  C   UNL     1     -10.497  14.144  66.226  1.00  0.00    -0.286 C  
HETATM   40  C   UNL     1     -10.358  13.858  64.716  1.00  0.00    -0.419 C  
HETATM   41  C   UNL     1     -10.316  15.667  66.425  1.00  0.00    -0.303 C  
BRANCH  39  42
HETATM   42  C   UNL     1      -9.396  13.393  67.013  1.00  0.00    -0.243 C  
HETATM   43  O   UNL     1      -8.121  14.007  66.855  1.00  0.00    -0.389 OA 
HETATM   44  H   UNL     1      -7.445  13.546  67.339  1.00  0.00     0.000 HD 
ENDBRANCH  39  42
ENDBRANCH  36  39
ENDBRANCH  34  36
ENDBRANCH  31  32
ENDBRANCH  30  31
ENDBRANCH  28  30
ENDBRANCH  25  26
ENDBRANCH  24  25
ENDBRANCH  23  24
ENDBRANCH  22  23
ENDBRANCH  21  22
ENDBRANCH  20  21
ENDBRANCH  18  20
ENDBRANCH  15  16
ENDBRANCH  14  15
ENDBRANCH  12  14
ENDBRANCH   7  10
ENDBRANCH   2   7
TORSDOF 19
ENDMDL
MODEL      142
REMARK 921   NORMALIZED FREE ENERGY PREDICTED BY IDOCK:   -4.61 KCAL/MOL
REMARK 922        TOTAL FREE ENERGY PREDICTED BY IDOCK:  -11.91 KCAL/MOL
REMARK 923 INTER-LIGAND FREE ENERGY PREDICTED BY IDOCK:  -10.37 KCAL/MOL
REMARK 924 INTRA-LIGAND FREE ENERGY PREDICTED BY IDOCK:   -1.53 KCAL/MOL
REMARK 927      BINDING AFFINITY PREDICTED BY RF-SCORE:    0.00 PKD
ROOT
HETATM    1  C   UNL     1     -10.903  16.851  67.958  1.00  0.00    -0.338 C  
HETATM    2  C   UNL     1      -9.772  17.322  67.025  1.00  0.00    -0.267 C  
HETATM    3  C   UNL     1     -10.110  18.727  66.468  1.00  0.00    -0.437 C  
ENDROOT
BRANCH   2   4
HETATM    4  C   UNL     1      -8.474  17.474  67.846  1.00  0.00    -0.230 C  
HETATM    5  O   UNL     1      -8.181  18.844  68.107  1.00  0.00    -0.290 OA 
HETATM    6  H   UNL     1      -7.382  18.937  68.611  1.00  0.00     0.000 HD 
ENDBRANCH   2   4
BRANCH   2   7
HETATM    7  C   UNL     1      -9.541  16.313  65.857  1.00  0.00    -0.301 C  
HETATM    8  O   UNL     1      -8.910  15.095  66.288  1.00  0.00    -0.407 OA 
HETATM    9  H   UNL     1      -8.770  14.481  65.577  1.00  0.00     0.000 HD 
BRANCH   7  10
HETATM   10  C   UNL     1     -10.813  15.923  65.071  1.00  0.00    -0.426 C  
HETATM   11  O   UNL     1     -11.297  16.582  64.155  1.00  0.00    -1.060 OA 
HETATM   12  N   UNL     1     -11.328  14.703  65.448  1.00  0.00    -0.335 N  
HETATM   13  H   UNL     1     -10.937  14.219  66.257  1.00  0.00     0.000 HD 
BRANCH  12  14
HETATM   14  C   UNL     1     -12.417  14.099  64.713  1.00  0.00    -0.373 C  
BRANCH  14  15
HETATM   15  C   UNL     1     -12.415  12.575  64.777  1.00  0.00    -0.532 C  
BRANCH  15  16
HETATM   16  C   UNL     1     -10.990  12.087  64.635  1.00  0.00    -0.317 C  
HETATM   17  O   UNL     1     -10.344  12.270  63.608  1.00  0.00    -0.412 OA 
HETATM   18  N   UNL     1     -10.493  11.458  65.753  1.00  0.00    -0.256 N  
HETATM   19  H   UNL     1     -11.102  11.403  66.569  1.00  0.00     0.000 HD 
BRANCH  18  20
HETATM   20  C   UNL     1      -9.160  10.860  65.865  1.00  0.00    -0.193 C  
BRANCH  20  21
HETATM   21  C   UNL     1      -8.793  10.218  67.206  1.00  0.00    -0.132 C  
BRANCH  21  22
HETATM   22  S   UNL     1     -10.105   9.178  67.957  1.00  0.00    -0.206 SA 
BRANCH  22  23
HETATM   23  S   UNL     1     -10.314   9.935  69.862  1.00  0.00    -0.272 SA 
BRANCH  23  24
HETATM   24  C   UNL     1     -11.613   8.852  70.543  1.00  0.00    -0.160 C  
BRANCH  24  25
HETATM   25  C   UNL     1     -11.786   9.075  72.047  1.00  0.00    -0.356 C  
BRANCH  25  26
HETATM   26  N   UNL     1     -11.559   7.893  72.873  1.00  0.00    -0.586 N  
HETATM   27  H   UNL     1     -12.365   7.323  73.131  1.00  0.00     0.000 HD 
HETATM   28  C   UNL     1     -10.314   7.504  73.324  1.00  0.00    -0.357 C  
HETATM   29  O   UNL     1      -9.287   8.143  73.122  1.00  0.00    -0.265 OA 
BRANCH  28  30
HETATM   30  C   UNL     1     -10.300   6.188  74.066  1.00  0.00    -0.311 C  
BRANCH  30  31
HETATM   31  C   UNL     1     -10.955   5.106  73.214  1.00  0.00    -0.314 C  
BRANCH  31  32
HETATM   32  N   UNL     1     -10.510   5.153  71.834  1.00  0.00    -0.215 N  
HETATM   33  H   UNL     1     -10.790   5.944  71.255  1.00  0.00     0.000 HD 
HETATM   34  C   UNL     1      -9.727   4.169  71.278  1.00  0.00    -0.185 C  
HETATM   35  O   UNL     1      -9.418   3.136  71.866  1.00  0.00    -0.118 OA 
BRANCH  34  36
HETATM   36  C   UNL     1      -9.325   4.441  69.811  1.00  0.00    -0.154 C  
HETATM   37  O   UNL     1      -9.468   3.242  69.033  1.00  0.00    -0.163 OA 
HETATM   38  H   UNL     1      -9.220   3.410  68.131  1.00  0.00     0.000 HD 
BRANCH  36  39
HETATM   39  C   UNL     1      -7.886   5.009  69.660  1.00  0.00    -0.067 C  
HETATM   40  C   UNL     1      -6.855   3.883  69.440  1.00  0.00    -0.045 C  
HETATM   41  C   UNL     1      -7.842   5.924  68.413  1.00  0.00    -0.105 C  
BRANCH  39  42
HETATM   42  C   UNL     1      -7.511   5.837  70.912  1.00  0.00    -0.090 C  
HETATM   43  O   UNL     1      -7.916   7.197  70.789  1.00  0.00    -0.098 OA 
HETATM   44  H   UNL     1      -7.685   7.705  71.558  1.00  0.00     0.000 HD 
ENDBRANCH  39  42
ENDBRANCH  36  39
ENDBRANCH  34  36
ENDBRANCH  31  32
ENDBRANCH  30  31
ENDBRANCH  28  30
ENDBRANCH  25  26
ENDBRANCH  24  25
ENDBRANCH  23  24
ENDBRANCH  22  23
ENDBRANCH  21  22
ENDBRANCH  20  21
ENDBRANCH  18  20
ENDBRANCH  15  16
ENDBRANCH  14  15
ENDBRANCH  12  14
ENDBRANCH   7  10
ENDBRANCH   2   7
TORSDOF 19
ENDMDL
MODEL      143
REMARK 921   NORMALIZED FREE ENERGY PREDICTED BY IDOCK:   -4.61 KCAL/MOL
REMARK 922        TOTAL FREE ENERGY PREDICTED BY IDOCK:  -11.90 KCAL/MOL
REMARK 923 INTER-LIGAND FREE ENERGY PREDICTED BY IDOCK:   -9.91 KCAL/MOL
REMARK 924 INTRA-LIGAND FREE ENERGY PREDICTED BY IDOCK:   -1.99 KCAL/MOL
REMARK 927      BINDING AFFINITY PREDICTED BY RF-SCORE:    0.00 PKD
ROOT
HETATM    1  C   UNL     1     -11.672  12.291  67.016  1.00  0.00    -0.399 C  
HETATM    2  C   UNL     1     -11.659  12.949  65.623  1.00  0.00    -0.401 C  
HETATM    3  C   UNL     1     -12.852  13.929  65.502  1.00  0.00    -0.471 C  
ENDROOT
BRANCH   2   4
HETATM    4  C   UNL     1     -10.376  13.794  65.479  1.00  0.00    -0.321 C  
HETATM    5  O   UNL     1     -10.498  14.747  64.426  1.00  0.00    -0.505 OA 
HETATM    6  H   UNL     1      -9.709  15.268  64.336  1.00  0.00     0.000 HD 
ENDBRANCH   2   4
BRANCH   2   7
HETATM    7  C   UNL     1     -11.715  11.878  64.489  1.00  0.00    -0.248 C  
HETATM    8  O   UNL     1     -12.508  12.298  63.365  1.00  0.00    -0.610 OA 
HETATM    9  H   UNL     1     -12.542  11.647  62.675  1.00  0.00     0.000 HD 
BRANCH   7  10
HETATM   10  C   UNL     1     -10.340  11.431  63.945  1.00  0.00    -0.379 C  
HETATM   11  O   UNL     1      -9.772  11.937  62.981  1.00  0.00    -0.367 OA 
HETATM   12  N   UNL     1      -9.758  10.437  64.699  1.00  0.00    -0.305 N  
HETATM   13  H   UNL     1     -10.291   9.997  65.450  1.00  0.00     0.000 HD 
BRANCH  12  14
HETATM   14  C   UNL     1      -8.402  10.007  64.440  1.00  0.00    -0.168 C  
BRANCH  14  15
HETATM   15  C   UNL     1      -7.477  10.175  65.641  1.00  0.00    -0.144 C  
BRANCH  15  16
HETATM   16  C   UNL     1      -7.790   9.090  66.647  1.00  0.00    -0.100 C  
HETATM   17  O   UNL     1      -8.602   8.201  66.409  1.00  0.00    -0.125 OA 
HETATM   18  N   UNL     1      -7.072   9.180  67.818  1.00  0.00    -0.078 N  
HETATM   19  H   UNL     1      -6.388   9.932  67.891  1.00  0.00     0.000 HD 
BRANCH  18  20
HETATM   20  C   UNL     1      -7.211   8.282  68.967  1.00  0.00    -0.073 C  
BRANCH  20  21
HETATM   21  C   UNL     1      -8.212   8.688  70.053  1.00  0.00    -0.122 C  
BRANCH  21  22
HETATM   22  S   UNL     1      -9.955   8.228  69.717  1.00  0.00    -0.195 SA 
BRANCH  22  23
HETATM   23  S   UNL     1     -11.029   9.260  71.141  1.00  0.00    -0.369 SA 
BRANCH  23  24
HETATM   24  C   UNL     1     -12.183  10.217  70.104  1.00  0.00    -0.176 C  
BRANCH  24  25
HETATM   25  C   UNL     1     -13.045  11.153  70.955  1.00  0.00    -0.126 C  
BRANCH  25  26
HETATM   26  N   UNL     1     -12.359  12.349  71.438  1.00  0.00    -0.190 N  
HETATM   27  H   UNL     1     -11.352  12.418  71.293  1.00  0.00     0.000 HD 
HETATM   28  C   UNL     1     -13.000  13.389  72.078  1.00  0.00    -0.310 C  
HETATM   29  O   UNL     1     -14.195  13.388  72.354  1.00  0.00    -0.637 OA 
BRANCH  28  30
HETATM   30  C   UNL     1     -12.113  14.574  72.387  1.00  0.00    -0.186 C  
BRANCH  30  31
HETATM   31  C   UNL     1     -12.163  15.573  71.235  1.00  0.00    -0.390 C  
BRANCH  31  32
HETATM   32  N   UNL     1     -10.890  15.676  70.545  1.00  0.00    -0.333 N  
HETATM   33  H   UNL     1     -10.051  15.872  71.090  1.00  0.00     0.000 HD 
HETATM   34  C   UNL     1     -10.776  15.518  69.184  1.00  0.00    -0.250 C  
HETATM   35  O   UNL     1     -11.737  15.371  68.435  1.00  0.00    -0.352 OA 
BRANCH  34  36
HETATM   36  C   UNL     1      -9.325  15.616  68.662  1.00  0.00    -0.201 C  
HETATM   37  O   UNL     1      -8.408  15.171  69.674  1.00  0.00    -0.373 OA 
HETATM   38  H   UNL     1      -7.516  15.232  69.353  1.00  0.00     0.000 HD 
BRANCH  36  39
HETATM   39  C   UNL     1      -8.937  17.041  68.178  1.00  0.00    -0.227 C  
HETATM   40  C   UNL     1      -7.411  17.181  68.001  1.00  0.00    -0.191 C  
HETATM   41  C   UNL     1      -9.586  17.290  66.795  1.00  0.00    -0.279 C  
BRANCH  39  42
HETATM   42  C   UNL     1      -9.456  18.099  69.181  1.00  0.00    -0.006 C  
HETATM   43  O   UNL     1     -10.721  18.623  68.792  1.00  0.00    -0.302 OA 
HETATM   44  H   UNL     1     -11.039  19.272  69.407  1.00  0.00     0.000 HD 
ENDBRANCH  39  42
ENDBRANCH  36  39
ENDBRANCH  34  36
ENDBRANCH  31  32
ENDBRANCH  30  31
ENDBRANCH  28  30
ENDBRANCH  25  26
ENDBRANCH  24  25
ENDBRANCH  23  24
ENDBRANCH  22  23
ENDBRANCH  21  22
ENDBRANCH  20  21
ENDBRANCH  18  20
ENDBRANCH  15  16
ENDBRANCH  14  15
ENDBRANCH  12  14
ENDBRANCH   7  10
ENDBRANCH   2   7
TORSDOF 19
ENDMDL
MODEL      144
REMARK 921   NORMALIZED FREE ENERGY PREDICTED BY IDOCK:   -4.60 KCAL/MOL
REMARK 922        TOTAL FREE ENERGY PREDICTED BY IDOCK:  -11.90 KCAL/MOL
REMARK 923 INTER-LIGAND FREE ENERGY PREDICTED BY IDOCK:   -8.58 KCAL/MOL
REMARK 924 INTRA-LIGAND FREE ENERGY PREDICTED BY IDOCK:   -3.32 KCAL/MOL
REMARK 927      BINDING AFFINITY PREDICTED BY RF-SCORE:    0.00 PKD
ROOT
HETATM    1  C   UNL     1     -11.137   9.635  69.437  1.00  0.00    -0.170 C  
HETATM    2  C   UNL     1     -11.098   8.931  70.806  1.00  0.00    -0.312 C  
HETATM    3  C   UNL     1     -12.241   9.472  71.701  1.00  0.00    -0.477 C  
ENDROOT
BRANCH   2   4
HETATM    4  C   UNL     1     -11.369   7.425  70.606  1.00  0.00    -0.281 C  
HETATM    5  O   UNL     1     -11.611   7.119  69.235  1.00  0.00    -0.493 OA 
HETATM    6  H   UNL     1     -11.778   6.192  69.112  1.00  0.00     0.000 HD 
ENDBRANCH   2   4
BRANCH   2   7
HETATM    7  C   UNL     1      -9.717   9.129  71.508  1.00  0.00    -0.243 C  
HETATM    8  O   UNL     1      -9.576   8.333  72.697  1.00  0.00    -0.253 OA 
HETATM    9  H   UNL     1      -8.736   8.453  73.123  1.00  0.00     0.000 HD 
BRANCH   7  10
HETATM   10  C   UNL     1      -8.486   8.853  70.616  1.00  0.00    -0.184 C  
HETATM   11  O   UNL     1      -8.142   7.741  70.226  1.00  0.00    -0.108 OA 
HETATM   12  N   UNL     1      -7.833  10.001  70.227  1.00  0.00    -0.274 N  
HETATM   13  H   UNL     1      -8.109  10.898  70.626  1.00  0.00     0.000 HD 
BRANCH  12  14
HETATM   14  C   UNL     1      -6.760   9.951  69.259  1.00  0.00    -0.055 C  
BRANCH  14  15
HETATM   15  C   UNL     1      -7.166  10.464  67.882  1.00  0.00    -0.085 C  
BRANCH  15  16
HETATM   16  C   UNL     1      -7.555  11.921  68.004  1.00  0.00    -0.122 C  
HETATM   17  O   UNL     1      -7.142  12.625  68.920  1.00  0.00    -0.100 OA 
HETATM   18  N   UNL     1      -8.373  12.374  66.995  1.00  0.00    -0.250 N  
HETATM   19  H   UNL     1      -8.616  11.715  66.257  1.00  0.00     0.000 HD 
BRANCH  18  20
HETATM   20  C   UNL     1      -8.924  13.729  66.898  1.00  0.00    -0.221 C  
BRANCH  20  21
HETATM   21  C   UNL     1     -10.250  13.997  67.616  1.00  0.00    -0.241 C  
BRANCH  21  22
HETATM   22  S   UNL     1     -11.391  15.137  66.744  1.00  0.00    -0.183 SA 
BRANCH  22  23
HETATM   23  S   UNL     1     -12.629  13.884  65.673  1.00  0.00    -0.471 SA 
BRANCH  23  24
HETATM   24  C   UNL     1     -11.594  13.505  64.221  1.00  0.00    -0.397 C  
BRANCH  24  25
HETATM   25  C   UNL     1     -12.011  12.181  63.576  1.00  0.00    -0.524 C  
BRANCH  25  26
HETATM   26  N   UNL     1     -10.906  11.288  63.237  1.00  0.00    -0.785 N  
HETATM   27  H   UNL     1     -10.646  11.194  62.255  1.00  0.00     0.000 HD 
HETATM   28  C   UNL     1     -10.196  10.564  64.172  1.00  0.00    -0.217 C  
HETATM   29  O   UNL     1     -10.457  10.556  65.370  1.00  0.00    -0.244 OA 
BRANCH  28  30
HETATM   30  C   UNL     1      -9.023   9.795  63.609  1.00  0.00    -0.270 C  
BRANCH  30  31
HETATM   31  C   UNL     1      -8.322   9.029  64.726  1.00  0.00    -0.173 C  
BRANCH  31  32
HETATM   32  N   UNL     1      -8.834   7.679  64.869  1.00  0.00    -0.351 N  
HETATM   33  H   UNL     1      -9.000   7.125  64.029  1.00  0.00     0.000 HD 
HETATM   34  C   UNL     1      -9.105   7.120  66.096  1.00  0.00    -0.119 C  
HETATM   35  O   UNL     1      -9.025   7.737  67.155  1.00  0.00    -0.122 OA 
BRANCH  34  36
HETATM   36  C   UNL     1      -9.593   5.656  66.024  1.00  0.00    -0.080 C  
HETATM   37  O   UNL     1     -10.550   5.406  67.066  1.00  0.00    -0.254 OA 
HETATM   38  H   UNL     1     -10.850   4.505  67.021  1.00  0.00     0.000 HD 
BRANCH  36  39
HETATM   39  C   UNL     1      -8.441   4.616  66.095  1.00  0.00    -0.114 C  
HETATM   40  C   UNL     1      -8.978   3.196  66.372  1.00  0.00    -0.158 C  
HETATM   41  C   UNL     1      -7.722   4.576  64.726  1.00  0.00    -0.081 C  
BRANCH  39  42
HETATM   42  C   UNL     1      -7.427   5.024  67.191  1.00  0.00    -0.087 C  
HETATM   43  O   UNL     1      -8.029   5.061  68.481  1.00  0.00    -0.085 OA 
HETATM   44  H   UNL     1      -7.407   5.312  69.154  1.00  0.00     0.000 HD 
ENDBRANCH  39  42
ENDBRANCH  36  39
ENDBRANCH  34  36
ENDBRANCH  31  32
ENDBRANCH  30  31
ENDBRANCH  28  30
ENDBRANCH  25  26
ENDBRANCH  24  25
ENDBRANCH  23  24
ENDBRANCH  22  23
ENDBRANCH  21  22
ENDBRANCH  20  21
ENDBRANCH  18  20
ENDBRANCH  15  16
ENDBRANCH  14  15
ENDBRANCH  12  14
ENDBRANCH   7  10
ENDBRANCH   2   7
TORSDOF 19
ENDMDL
MODEL      145
REMARK 921   NORMALIZED FREE ENERGY PREDICTED BY IDOCK:   -4.60 KCAL/MOL
REMARK 922        TOTAL FREE ENERGY PREDICTED BY IDOCK:  -11.88 KCAL/MOL
REMARK 923 INTER-LIGAND FREE ENERGY PREDICTED BY IDOCK:   -9.72 KCAL/MOL
REMARK 924 INTRA-LIGAND FREE ENERGY PREDICTED BY IDOCK:   -2.16 KCAL/MOL
REMARK 927      BINDING AFFINITY PREDICTED BY RF-SCORE:    0.00 PKD
ROOT
HETATM    1  C   UNL     1     -11.229   5.355  73.308  1.00  0.00    -0.322 C  
HETATM    2  C   UNL     1     -10.796   6.409  72.272  1.00  0.00    -0.272 C  
HETATM    3  C   UNL     1     -11.895   6.554  71.190  1.00  0.00    -0.383 C  
ENDROOT
BRANCH   2   4
HETATM    4  C   UNL     1     -10.678   7.781  72.968  1.00  0.00    -0.384 C  
HETATM    5  O   UNL     1      -9.556   8.515  72.482  1.00  0.00    -0.282 OA 
HETATM    6  H   UNL     1      -9.483   9.359  72.911  1.00  0.00     0.000 HD 
ENDBRANCH   2   4
BRANCH   2   7
HETATM    7  C   UNL     1      -9.431   6.032  71.615  1.00  0.00    -0.148 C  
HETATM    8  O   UNL     1      -8.391   5.805  72.581  1.00  0.00    -0.116 OA 
HETATM    9  H   UNL     1      -7.560   5.576  72.181  1.00  0.00     0.000 HD 
BRANCH   7  10
HETATM   10  C   UNL     1      -9.473   4.802  70.682  1.00  0.00    -0.171 C  
HETATM   11  O   UNL     1      -9.791   3.669  71.033  1.00  0.00    -0.182 OA 
HETATM   12  N   UNL     1      -9.185   5.108  69.370  1.00  0.00    -0.107 N  
HETATM   13  H   UNL     1      -8.861   6.046  69.132  1.00  0.00     0.000 HD 
BRANCH  12  14
HETATM   14  C   UNL     1      -9.336   4.119  68.327  1.00  0.00    -0.158 C  
BRANCH  14  15
HETATM   15  C   UNL     1      -9.976   4.673  67.059  1.00  0.00    -0.227 C  
BRANCH  15  16
HETATM   16  C   UNL     1      -8.885   4.952  66.049  1.00  0.00    -0.126 C  
HETATM   17  O   UNL     1      -8.094   4.084  65.695  1.00  0.00    -0.100 OA 
HETATM   18  N   UNL     1      -8.884   6.238  65.558  1.00  0.00    -0.322 N  
HETATM   19  H   UNL     1      -9.618   6.865  65.886  1.00  0.00     0.000 HD 
BRANCH  18  20
HETATM   20  C   UNL     1      -7.914   6.778  64.603  1.00  0.00    -0.117 C  
BRANCH  20  21
HETATM   21  C   UNL     1      -6.940   7.840  65.120  1.00  0.00    -0.059 C  
BRANCH  21  22
HETATM   22  S   UNL     1      -6.789   9.336  64.070  1.00  0.00    -0.094 SA 
BRANCH  22  23
HETATM   23  S   UNL     1      -8.425   9.238  62.821  1.00  0.00    -0.218 SA 
BRANCH  23  24
HETATM   24  C   UNL     1      -9.643  10.238  63.738  1.00  0.00    -0.284 C  
BRANCH  24  25
HETATM   25  C   UNL     1     -10.181  11.381  62.875  1.00  0.00    -0.162 C  
BRANCH  25  26
HETATM   26  N   UNL     1     -10.635  12.552  63.621  1.00  0.00    -0.433 N  
HETATM   27  H   UNL     1      -9.935  13.225  63.935  1.00  0.00     0.000 HD 
HETATM   28  C   UNL     1     -11.958  12.798  63.923  1.00  0.00    -0.480 C  
HETATM   29  O   UNL     1     -12.875  12.033  63.645  1.00  0.00    -0.713 OA 
BRANCH  28  30
HETATM   30  C   UNL     1     -12.209  14.126  64.602  1.00  0.00    -0.465 C  
BRANCH  30  31
HETATM   31  C   UNL     1     -11.890  14.014  66.090  1.00  0.00    -0.407 C  
BRANCH  31  32
HETATM   32  N   UNL     1     -11.914  12.640  66.553  1.00  0.00    -0.386 N  
HETATM   33  H   UNL     1     -12.446  11.951  66.021  1.00  0.00     0.000 HD 
HETATM   34  C   UNL     1     -11.246  12.232  67.684  1.00  0.00    -0.290 C  
HETATM   35  O   UNL     1     -10.656  13.001  68.437  1.00  0.00    -0.239 OA 
BRANCH  34  36
HETATM   36  C   UNL     1     -11.362  10.717  67.968  1.00  0.00    -0.307 C  
HETATM   37  O   UNL     1     -12.209  10.496  69.106  1.00  0.00    -0.662 OA 
HETATM   38  H   UNL     1     -12.280   9.564  69.281  1.00  0.00     0.000 HD 
BRANCH  36  39
HETATM   39  C   UNL     1      -9.988  10.021  68.179  1.00  0.00    -0.176 C  
HETATM   40  C   UNL     1      -8.951  10.492  67.139  1.00  0.00    -0.147 C  
HETATM   41  C   UNL     1      -9.446  10.405  69.577  1.00  0.00    -0.164 C  
BRANCH  39  42
HETATM   42  C   UNL     1     -10.158   8.485  68.103  1.00  0.00    -0.200 C  
HETATM   43  O   UNL     1     -11.106   8.105  67.111  1.00  0.00    -0.419 OA 
HETATM   44  H   UNL     1     -11.210   7.162  67.065  1.00  0.00     0.000 HD 
ENDBRANCH  39  42
ENDBRANCH  36  39
ENDBRANCH  34  36
ENDBRANCH  31  32
ENDBRANCH  30  31
ENDBRANCH  28  30
ENDBRANCH  25  26
ENDBRANCH  24  25
ENDBRANCH  23  24
ENDBRANCH  22  23
ENDBRANCH  21  22
ENDBRANCH  20  21
ENDBRANCH  18  20
ENDBRANCH  15  16
ENDBRANCH  14  15
ENDBRANCH  12  14
ENDBRANCH   7  10
ENDBRANCH   2   7
TORSDOF 19
ENDMDL
MODEL      146
REMARK 921   NORMALIZED FREE ENERGY PREDICTED BY IDOCK:   -4.59 KCAL/MOL
REMARK 922        TOTAL FREE ENERGY PREDICTED BY IDOCK:  -11.87 KCAL/MOL
REMARK 923 INTER-LIGAND FREE ENERGY PREDICTED BY IDOCK:   -8.74 KCAL/MOL
REMARK 924 INTRA-LIGAND FREE ENERGY PREDICTED BY IDOCK:   -3.13 KCAL/MOL
REMARK 927      BINDING AFFINITY PREDICTED BY RF-SCORE:    0.00 PKD
ROOT
HETATM    1  C   UNL     1     -10.074  14.637  68.780  1.00  0.00    -0.235 C  
HETATM    2  C   UNL     1      -9.329  13.647  67.865  1.00  0.00    -0.206 C  
HETATM    3  C   UNL     1      -9.622  13.989  66.383  1.00  0.00    -0.299 C  
ENDROOT
BRANCH   2   4
HETATM    4  C   UNL     1      -7.809  13.823  68.066  1.00  0.00    -0.152 C  
HETATM    5  O   UNL     1      -7.467  13.842  69.450  1.00  0.00    -0.325 OA 
HETATM    6  H   UNL     1      -6.531  13.950  69.574  1.00  0.00     0.000 HD 
ENDBRANCH   2   4
BRANCH   2   7
HETATM    7  C   UNL     1      -9.734  12.172  68.174  1.00  0.00    -0.208 C  
HETATM    8  O   UNL     1      -8.949  11.587  69.227  1.00  0.00    -0.369 OA 
HETATM    9  H   UNL     1      -9.195  10.689  69.415  1.00  0.00     0.000 HD 
BRANCH   7  10
HETATM   10  C   UNL     1     -11.221  11.965  68.535  1.00  0.00    -0.256 C  
HETATM   11  O   UNL     1     -12.118  11.769  67.720  1.00  0.00    -0.595 OA 
HETATM   12  N   UNL     1     -11.449  11.948  69.893  1.00  0.00    -0.495 N  
HETATM   13  H   UNL     1     -10.691  12.181  70.535  1.00  0.00     0.000 HD 
BRANCH  12  14
HETATM   14  C   UNL     1     -12.750  11.603  70.422  1.00  0.00    -0.026 C  
BRANCH  14  15
HETATM   15  C   UNL     1     -12.683  10.683  71.637  1.00  0.00    -0.531 C  
BRANCH  15  16
HETATM   16  C   UNL     1     -11.832   9.483  71.287  1.00  0.00    -0.373 C  
HETATM   17  O   UNL     1     -10.620   9.575  71.122  1.00  0.00    -0.319 OA 
HETATM   18  N   UNL     1     -12.530   8.300  71.203  1.00  0.00    -0.461 N  
HETATM   19  H   UNL     1     -13.528   8.329  71.408  1.00  0.00     0.000 HD 
BRANCH  18  20
HETATM   20  C   UNL     1     -11.955   7.001  70.843  1.00  0.00    -0.364 C  
BRANCH  20  21
HETATM   21  C   UNL     1     -11.806   5.968  71.964  1.00  0.00    -0.224 C  
BRANCH  21  22
HETATM   22  S   UNL     1     -10.650   6.439  73.308  1.00  0.00    -0.275 SA 
BRANCH  22  23
HETATM   23  S   UNL     1     -10.313   4.674  74.318  1.00  0.00    -0.282 SA 
BRANCH  23  24
HETATM   24  C   UNL     1      -8.579   4.326  73.874  1.00  0.00    -0.098 C  
BRANCH  24  25
HETATM   25  C   UNL     1      -8.208   4.981  72.542  1.00  0.00    -0.116 C  
BRANCH  25  26
HETATM   26  N   UNL     1      -8.520   4.183  71.358  1.00  0.00    -0.095 N  
HETATM   27  H   UNL     1      -8.525   3.167  71.450  1.00  0.00     0.000 HD 
HETATM   28  C   UNL     1      -8.808   4.728  70.125  1.00  0.00    -0.094 C  
HETATM   29  O   UNL     1      -8.776   5.931  69.886  1.00  0.00    -0.126 OA 
BRANCH  28  30
HETATM   30  C   UNL     1      -9.212   3.720  69.073  1.00  0.00    -0.221 C  
BRANCH  30  31
HETATM   31  C   UNL     1      -8.437   3.976  67.785  1.00  0.00    -0.095 C  
BRANCH  31  32
HETATM   32  N   UNL     1      -9.009   5.059  67.008  1.00  0.00    -0.112 N  
HETATM   33  H   UNL     1     -10.021   5.094  66.885  1.00  0.00     0.000 HD 
HETATM   34  C   UNL     1      -8.237   6.040  66.431  1.00  0.00    -0.112 C  
HETATM   35  O   UNL     1      -7.010   6.032  66.445  1.00  0.00    -0.063 OA 
BRANCH  34  36
HETATM   36  C   UNL     1      -9.052   7.125  65.691  1.00  0.00     0.139 C  
HETATM   37  O   UNL     1      -8.306   7.618  64.567  1.00  0.00    -0.326 OA 
HETATM   38  H   UNL     1      -8.807   8.285  64.113  1.00  0.00     0.000 HD 
BRANCH  36  39
HETATM   39  C   UNL     1      -9.482   8.305  66.606  1.00  0.00    -0.271 C  
HETATM   40  C   UNL     1      -8.335   8.743  67.540  1.00  0.00    -0.109 C  
HETATM   41  C   UNL     1      -9.841   9.519  65.717  1.00  0.00    -0.363 C  
BRANCH  39  42
HETATM   42  C   UNL     1     -10.722   7.902  67.440  1.00  0.00    -0.208 C  
HETATM   43  O   UNL     1     -11.233   8.997  68.193  1.00  0.00    -0.469 OA 
HETATM   44  H   UNL     1     -11.994   8.750  68.705  1.00  0.00     0.000 HD 
ENDBRANCH  39  42
ENDBRANCH  36  39
ENDBRANCH  34  36
ENDBRANCH  31  32
ENDBRANCH  30  31
ENDBRANCH  28  30
ENDBRANCH  25  26
ENDBRANCH  24  25
ENDBRANCH  23  24
ENDBRANCH  22  23
ENDBRANCH  21  22
ENDBRANCH  20  21
ENDBRANCH  18  20
ENDBRANCH  15  16
ENDBRANCH  14  15
ENDBRANCH  12  14
ENDBRANCH   7  10
ENDBRANCH   2   7
TORSDOF 19
ENDMDL
MODEL      147
REMARK 921   NORMALIZED FREE ENERGY PREDICTED BY IDOCK:   -4.59 KCAL/MOL
REMARK 922        TOTAL FREE ENERGY PREDICTED BY IDOCK:  -11.87 KCAL/MOL
REMARK 923 INTER-LIGAND FREE ENERGY PREDICTED BY IDOCK:   -9.03 KCAL/MOL
REMARK 924 INTRA-LIGAND FREE ENERGY PREDICTED BY IDOCK:   -2.83 KCAL/MOL
REMARK 927      BINDING AFFINITY PREDICTED BY RF-SCORE:    0.00 PKD
ROOT
HETATM    1  C   UNL     1     -11.873  10.178  71.174  1.00  0.00    -0.472 C  
HETATM    2  C   UNL     1     -10.938   9.357  70.266  1.00  0.00    -0.305 C  
HETATM    3  C   UNL     1      -9.520   9.313  70.886  1.00  0.00    -0.330 C  
ENDROOT
BRANCH   2   4
HETATM    4  C   UNL     1     -11.442   7.899  70.211  1.00  0.00    -0.088 C  
HETATM    5  O   UNL     1     -12.649   7.739  70.953  1.00  0.00    -0.515 OA 
HETATM    6  H   UNL     1     -12.959   6.842  70.919  1.00  0.00     0.000 HD 
ENDBRANCH   2   4
BRANCH   2   7
HETATM    7  C   UNL     1     -10.884   9.950  68.822  1.00  0.00    -0.208 C  
HETATM    8  O   UNL     1     -12.123  10.560  68.423  1.00  0.00    -0.804 OA 
HETATM    9  H   UNL     1     -12.090  10.920  67.545  1.00  0.00     0.000 HD 
BRANCH   7  10
HETATM   10  C   UNL     1      -9.761  10.983  68.583  1.00  0.00    -0.195 C  
HETATM   11  O   UNL     1      -8.595  10.699  68.321  1.00  0.00    -0.119 OA 
HETATM   12  N   UNL     1     -10.208  12.285  68.618  1.00  0.00    -0.338 N  
HETATM   13  H   UNL     1     -11.167  12.480  68.906  1.00  0.00     0.000 HD 
BRANCH  12  14
HETATM   14  C   UNL     1      -9.335  13.378  68.254  1.00  0.00    -0.205 C  
BRANCH  14  15
HETATM   15  C   UNL     1     -10.084  14.671  67.947  1.00  0.00    -0.225 C  
BRANCH  15  16
HETATM   16  C   UNL     1     -11.172  14.371  66.940  1.00  0.00    -0.334 C  
HETATM   17  O   UNL     1     -12.279  13.971  67.283  1.00  0.00    -0.405 OA 
HETATM   18  N   UNL     1     -10.814  14.613  65.633  1.00  0.00    -0.315 N  
HETATM   19  H   UNL     1      -9.883  14.991  65.464  1.00  0.00     0.000 HD 
BRANCH  18  20
HETATM   20  C   UNL     1     -11.664  14.370  64.464  1.00  0.00    -0.419 C  
BRANCH  20  21
HETATM   21  C   UNL     1     -11.874  12.912  64.044  1.00  0.00    -0.443 C  
BRANCH  21  22
HETATM   22  S   UNL     1     -10.347  12.004  63.591  1.00  0.00    -0.467 SA 
BRANCH  22  23
HETATM   23  S   UNL     1     -10.170  10.561  65.051  1.00  0.00    -0.235 SA 
BRANCH  23  24
HETATM   24  C   UNL     1      -8.508   9.896  64.706  1.00  0.00    -0.172 C  
BRANCH  24  25
HETATM   25  C   UNL     1      -8.366   8.464  65.228  1.00  0.00    -0.160 C  
BRANCH  25  26
HETATM   26  N   UNL     1      -7.393   8.297  66.304  1.00  0.00    -0.078 N  
HETATM   27  H   UNL     1      -6.445   8.644  66.154  1.00  0.00     0.000 HD 
HETATM   28  C   UNL     1      -7.684   7.695  67.510  1.00  0.00    -0.118 C  
HETATM   29  O   UNL     1      -8.771   7.192  67.776  1.00  0.00    -0.125 OA 
BRANCH  28  30
HETATM   30  C   UNL     1      -6.557   7.733  68.517  1.00  0.00    -0.057 C  
BRANCH  30  31
HETATM   31  C   UNL     1      -6.602   6.483  69.391  1.00  0.00    -0.044 C  
BRANCH  31  32
HETATM   32  N   UNL     1      -7.549   6.614  70.483  1.00  0.00    -0.096 N  
HETATM   33  H   UNL     1      -8.203   7.397  70.475  1.00  0.00     0.000 HD 
HETATM   34  C   UNL     1      -7.598   5.720  71.527  1.00  0.00    -0.099 C  
HETATM   35  O   UNL     1      -6.795   4.802  71.670  1.00  0.00    -0.040 OA 
BRANCH  34  36
HETATM   36  C   UNL     1      -8.713   6.016  72.554  1.00  0.00    -0.122 C  
HETATM   37  O   UNL     1      -8.185   5.939  73.888  1.00  0.00    -0.109 OA 
HETATM   38  H   UNL     1      -8.872   6.121  74.519  1.00  0.00     0.000 HD 
BRANCH  36  39
HETATM   39  C   UNL     1      -9.947   5.081  72.413  1.00  0.00    -0.226 C  
HETATM   40  C   UNL     1     -10.281   4.808  70.931  1.00  0.00    -0.247 C  
HETATM   41  C   UNL     1      -9.617   3.720  73.069  1.00  0.00    -0.158 C  
BRANCH  39  42
HETATM   42  C   UNL     1     -11.169   5.708  73.126  1.00  0.00    -0.236 C  
HETATM   43  O   UNL     1     -10.939   7.069  73.472  1.00  0.00    -0.527 OA 
HETATM   44  H   UNL     1     -11.689   7.454  73.910  1.00  0.00     0.000 HD 
ENDBRANCH  39  42
ENDBRANCH  36  39
ENDBRANCH  34  36
ENDBRANCH  31  32
ENDBRANCH  30  31
ENDBRANCH  28  30
ENDBRANCH  25  26
ENDBRANCH  24  25
ENDBRANCH  23  24
ENDBRANCH  22  23
ENDBRANCH  21  22
ENDBRANCH  20  21
ENDBRANCH  18  20
ENDBRANCH  15  16
ENDBRANCH  14  15
ENDBRANCH  12  14
ENDBRANCH   7  10
ENDBRANCH   2   7
TORSDOF 19
ENDMDL
MODEL      148
REMARK 921   NORMALIZED FREE ENERGY PREDICTED BY IDOCK:   -4.59 KCAL/MOL
REMARK 922        TOTAL FREE ENERGY PREDICTED BY IDOCK:  -11.87 KCAL/MOL
REMARK 923 INTER-LIGAND FREE ENERGY PREDICTED BY IDOCK:  -10.22 KCAL/MOL
REMARK 924 INTRA-LIGAND FREE ENERGY PREDICTED BY IDOCK:   -1.65 KCAL/MOL
REMARK 927      BINDING AFFINITY PREDICTED BY RF-SCORE:    0.00 PKD
ROOT
HETATM    1  C   UNL     1     -10.729  12.452  64.711  1.00  0.00    -0.332 C  
HETATM    2  C   UNL     1     -11.263  13.738  65.367  1.00  0.00    -0.306 C  
HETATM    3  C   UNL     1     -10.350  14.931  64.989  1.00  0.00    -0.401 C  
ENDROOT
BRANCH   2   4
HETATM    4  C   UNL     1     -12.661  14.053  64.794  1.00  0.00    -0.205 C  
HETATM    5  O   UNL     1     -12.600  14.323  63.396  1.00  0.00    -1.067 OA 
HETATM    6  H   UNL     1     -13.461  14.517  63.044  1.00  0.00     0.000 HD 
ENDBRANCH   2   4
BRANCH   2   7
HETATM    7  C   UNL     1     -11.351  13.590  66.919  1.00  0.00    -0.326 C  
HETATM    8  O   UNL     1     -12.506  14.239  67.477  1.00  0.00    -0.578 OA 
HETATM    9  H   UNL     1     -12.560  14.149  68.420  1.00  0.00     0.000 HD 
BRANCH   7  10
HETATM   10  C   UNL     1     -11.341  12.135  67.437  1.00  0.00    -0.326 C  
HETATM   11  O   UNL     1     -12.342  11.500  67.756  1.00  0.00    -0.329 OA 
HETATM   12  N   UNL     1     -10.084  11.572  67.442  1.00  0.00    -0.189 N  
HETATM   13  H   UNL     1      -9.271  12.152  67.234  1.00  0.00     0.000 HD 
BRANCH  12  14
HETATM   14  C   UNL     1      -9.902  10.168  67.738  1.00  0.00    -0.163 C  
BRANCH  14  15
HETATM   15  C   UNL     1      -9.806   9.297  66.490  1.00  0.00    -0.331 C  
BRANCH  15  16
HETATM   16  C   UNL     1      -9.921   7.847  66.903  1.00  0.00    -0.262 C  
HETATM   17  O   UNL     1      -9.254   6.967  66.368  1.00  0.00    -0.158 OA 
HETATM   18  N   UNL     1     -10.806   7.620  67.932  1.00  0.00    -0.476 N  
HETATM   19  H   UNL     1     -11.272   8.431  68.336  1.00  0.00     0.000 HD 
BRANCH  18  20
HETATM   20  C   UNL     1     -11.132   6.306  68.494  1.00  0.00    -0.308 C  
BRANCH  20  21
HETATM   21  C   UNL     1     -11.016   6.148  70.013  1.00  0.00    -0.372 C  
BRANCH  21  22
HETATM   22  S   UNL     1     -12.141   7.214  70.995  1.00  0.00    -0.335 SA 
BRANCH  22  23
HETATM   23  S   UNL     1     -11.087   8.968  71.234  1.00  0.00    -0.343 SA 
BRANCH  23  24
HETATM   24  C   UNL     1      -9.798   8.459  72.419  1.00  0.00    -0.308 C  
BRANCH  24  25
HETATM   25  C   UNL     1      -8.484   8.140  71.703  1.00  0.00    -0.136 C  
BRANCH  25  26
HETATM   26  N   UNL     1      -8.157   9.033  70.594  1.00  0.00    -0.145 N  
HETATM   27  H   UNL     1      -8.790   9.060  69.795  1.00  0.00     0.000 HD 
HETATM   28  C   UNL     1      -7.039   9.840  70.568  1.00  0.00    -0.122 C  
HETATM   29  O   UNL     1      -6.183   9.848  71.446  1.00  0.00    -0.278 OA 
BRANCH  28  30
HETATM   30  C   UNL     1      -6.962  10.764  69.374  1.00  0.00    -0.116 C  
BRANCH  30  31
HETATM   31  C   UNL     1      -6.268  12.064  69.770  1.00  0.00    -0.136 C  
BRANCH  31  32
HETATM   32  N   UNL     1      -7.148  13.211  69.650  1.00  0.00    -0.311 N  
HETATM   33  H   UNL     1      -8.135  13.055  69.447  1.00  0.00     0.000 HD 
HETATM   34  C   UNL     1      -6.699  14.503  69.799  1.00  0.00    -0.150 C  
HETATM   35  O   UNL     1      -5.517  14.795  69.953  1.00  0.00    -0.095 OA 
BRANCH  34  36
HETATM   36  C   UNL     1      -7.810  15.570  69.683  1.00  0.00    -0.128 C  
HETATM   37  O   UNL     1      -9.100  14.949  69.796  1.00  0.00    -0.441 OA 
HETATM   38  H   UNL     1      -9.783  15.606  69.724  1.00  0.00     0.000 HD 
BRANCH  36  39
HETATM   39  C   UNL     1      -7.731  16.405  68.374  1.00  0.00    -0.177 C  
HETATM   40  C   UNL     1      -7.443  15.510  67.151  1.00  0.00    -0.244 C  
HETATM   41  C   UNL     1      -9.099  17.086  68.136  1.00  0.00    -0.237 C  
BRANCH  39  42
HETATM   42  C   UNL     1      -6.637  17.492  68.507  1.00  0.00    -0.198 C  
HETATM   43  O   UNL     1      -6.348  17.789  69.869  1.00  0.00    -0.186 OA 
HETATM   44  H   UNL     1      -5.676  18.456  69.950  1.00  0.00     0.000 HD 
ENDBRANCH  39  42
ENDBRANCH  36  39
ENDBRANCH  34  36
ENDBRANCH  31  32
ENDBRANCH  30  31
ENDBRANCH  28  30
ENDBRANCH  25  26
ENDBRANCH  24  25
ENDBRANCH  23  24
ENDBRANCH  22  23
ENDBRANCH  21  22
ENDBRANCH  20  21
ENDBRANCH  18  20
ENDBRANCH  15  16
ENDBRANCH  14  15
ENDBRANCH  12  14
ENDBRANCH   7  10
ENDBRANCH   2   7
TORSDOF 19
ENDMDL
MODEL      149
REMARK 921   NORMALIZED FREE ENERGY PREDICTED BY IDOCK:   -4.57 KCAL/MOL
REMARK 922        TOTAL FREE ENERGY PREDICTED BY IDOCK:  -11.82 KCAL/MOL
REMARK 923 INTER-LIGAND FREE ENERGY PREDICTED BY IDOCK:   -9.73 KCAL/MOL
REMARK 924 INTRA-LIGAND FREE ENERGY PREDICTED BY IDOCK:   -2.09 KCAL/MOL
REMARK 927      BINDING AFFINITY PREDICTED BY RF-SCORE:    0.00 PKD
ROOT
HETATM    1  C   UNL     1     -10.740  11.638  65.600  1.00  0.00    -0.330 C  
HETATM    2  C   UNL     1      -9.595  10.609  65.547  1.00  0.00    -0.271 C  
HETATM    3  C   UNL     1     -10.047   9.295  66.231  1.00  0.00    -0.322 C  
ENDROOT
BRANCH   2   4
HETATM    4  C   UNL     1      -9.300  10.261  64.073  1.00  0.00    -0.289 C  
HETATM    5  O   UNL     1     -10.299  10.789  63.205  1.00  0.00    -0.618 OA 
HETATM    6  H   UNL     1     -10.118  10.574  62.297  1.00  0.00     0.000 HD 
ENDBRANCH   2   4
BRANCH   2   7
HETATM    7  C   UNL     1      -8.303  11.161  66.227  1.00  0.00    -0.163 C  
HETATM    8  O   UNL     1      -8.584  12.065  67.309  1.00  0.00    -0.162 OA 
HETATM    9  H   UNL     1      -7.798  12.400  67.723  1.00  0.00     0.000 HD 
BRANCH   7  10
HETATM   10  C   UNL     1      -7.336  10.082  66.763  1.00  0.00    -0.095 C  
HETATM   11  O   UNL     1      -6.558   9.434  66.070  1.00  0.00    -0.070 OA 
HETATM   12  N   UNL     1      -7.373   9.958  68.135  1.00  0.00    -0.079 N  
HETATM   13  H   UNL     1      -8.080  10.465  68.668  1.00  0.00     0.000 HD 
BRANCH  12  14
HETATM   14  C   UNL     1      -6.422   9.118  68.828  1.00  0.00    -0.049 C  
BRANCH  14  15
HETATM   15  C   UNL     1      -7.078   7.976  69.599  1.00  0.00    -0.061 C  
BRANCH  15  16
HETATM   16  C   UNL     1      -7.791   8.552  70.802  1.00  0.00    -0.097 C  
HETATM   17  O   UNL     1      -7.705   9.740  71.097  1.00  0.00    -0.247 OA 
HETATM   18  N   UNL     1      -8.549   7.640  71.500  1.00  0.00    -0.114 N  
HETATM   19  H   UNL     1      -8.587   6.688  71.138  1.00  0.00     0.000 HD 
BRANCH  18  20
HETATM   20  C   UNL     1      -9.305   7.927  72.722  1.00  0.00    -0.234 C  
BRANCH  20  21
HETATM   21  C   UNL     1     -10.704   7.316  72.837  1.00  0.00    -0.322 C  
BRANCH  21  22
HETATM   22  S   UNL     1     -11.825   7.663  71.427  1.00  0.00    -0.303 SA 
BRANCH  22  23
HETATM   23  S   UNL     1     -12.014   9.715  71.432  1.00  0.00    -0.421 SA 
BRANCH  23  24
HETATM   24  C   UNL     1     -11.211  10.158  69.857  1.00  0.00    -0.287 C  
BRANCH  24  25
HETATM   25  C   UNL     1     -11.819  11.433  69.267  1.00  0.00    -0.349 C  
BRANCH  25  26
HETATM   26  N   UNL     1     -10.912  12.577  69.212  1.00  0.00    -0.441 N  
HETATM   27  H   UNL     1      -9.968  12.461  69.581  1.00  0.00     0.000 HD 
HETATM   28  C   UNL     1     -11.262  13.804  68.689  1.00  0.00    -0.278 C  
HETATM   29  O   UNL     1     -12.383  14.072  68.270  1.00  0.00    -0.252 OA 
BRANCH  28  30
HETATM   30  C   UNL     1     -10.131  14.806  68.631  1.00  0.00    -0.238 C  
BRANCH  30  31
HETATM   31  C   UNL     1     -10.032  15.394  67.227  1.00  0.00    -0.226 C  
BRANCH  31  32
HETATM   32  N   UNL     1      -9.081  16.488  67.158  1.00  0.00    -0.209 N  
HETATM   33  H   UNL     1      -8.260  16.464  67.762  1.00  0.00     0.000 HD 
HETATM   34  C   UNL     1      -9.248  17.556  66.308  1.00  0.00    -0.203 C  
HETATM   35  O   UNL     1     -10.246  17.719  65.612  1.00  0.00    -0.590 OA 
BRANCH  34  36
HETATM   36  C   UNL     1      -8.093  18.582  66.357  1.00  0.00    -0.273 C  
HETATM   37  O   UNL     1      -6.876  17.932  66.756  1.00  0.00    -0.166 OA 
HETATM   38  H   UNL     1      -6.167  18.563  66.787  1.00  0.00     0.000 HD 
BRANCH  36  39
HETATM   39  C   UNL     1      -8.383  19.794  67.287  1.00  0.00    -0.351 C  
HETATM   40  C   UNL     1      -7.351  20.922  67.080  1.00  0.00    -0.369 C  
HETATM   41  C   UNL     1      -9.773  20.371  66.932  1.00  0.00    -0.567 C  
BRANCH  39  42
HETATM   42  C   UNL     1      -8.383  19.337  68.765  1.00  0.00    -0.351 C  
HETATM   43  O   UNL     1      -7.086  19.426  69.347  1.00  0.00    -0.337 OA 
HETATM   44  H   UNL     1      -7.086  19.146  70.255  1.00  0.00     0.000 HD 
ENDBRANCH  39  42
ENDBRANCH  36  39
ENDBRANCH  34  36
ENDBRANCH  31  32
ENDBRANCH  30  31
ENDBRANCH  28  30
ENDBRANCH  25  26
ENDBRANCH  24  25
ENDBRANCH  23  24
ENDBRANCH  22  23
ENDBRANCH  21  22
ENDBRANCH  20  21
ENDBRANCH  18  20
ENDBRANCH  15  16
ENDBRANCH  14  15
ENDBRANCH  12  14
ENDBRANCH   7  10
ENDBRANCH   2   7
TORSDOF 19
ENDMDL
MODEL      150
REMARK 921   NORMALIZED FREE ENERGY PREDICTED BY IDOCK:   -4.56 KCAL/MOL
REMARK 922        TOTAL FREE ENERGY PREDICTED BY IDOCK:  -11.81 KCAL/MOL
REMARK 923 INTER-LIGAND FREE ENERGY PREDICTED BY IDOCK:   -9.72 KCAL/MOL
REMARK 924 INTRA-LIGAND FREE ENERGY PREDICTED BY IDOCK:   -2.09 KCAL/MOL
REMARK 927      BINDING AFFINITY PREDICTED BY RF-SCORE:    0.00 PKD
ROOT
HETATM    1  C   UNL     1     -11.278   8.000  72.546  1.00  0.00    -0.452 C  
HETATM    2  C   UNL     1     -10.202   8.131  71.452  1.00  0.00    -0.248 C  
HETATM    3  C   UNL     1      -8.944   8.817  72.040  1.00  0.00    -0.227 C  
ENDROOT
BRANCH   2   4
HETATM    4  C   UNL     1      -9.766   6.720  71.004  1.00  0.00    -0.174 C  
HETATM    5  O   UNL     1     -10.718   5.734  71.397  1.00  0.00    -0.243 OA 
HETATM    6  H   UNL     1     -10.449   4.865  71.122  1.00  0.00     0.000 HD 
ENDBRANCH   2   4
BRANCH   2   7
HETATM    7  C   UNL     1     -10.736   8.932  70.223  1.00  0.00    -0.221 C  
HETATM    8  O   UNL     1     -10.517  10.348  70.342  1.00  0.00    -0.432 OA 
HETATM    9  H   UNL     1     -10.842  10.835  69.595  1.00  0.00     0.000 HD 
BRANCH   7  10
HETATM   10  C   UNL     1     -10.165   8.489  68.857  1.00  0.00    -0.207 C  
HETATM   11  O   UNL     1      -9.007   8.667  68.493  1.00  0.00    -0.138 OA 
HETATM   12  N   UNL     1     -11.075   7.794  68.092  1.00  0.00    -0.392 N  
HETATM   13  H   UNL     1     -12.046   7.726  68.401  1.00  0.00     0.000 HD 
BRANCH  12  14
HETATM   14  C   UNL     1     -10.673   7.159  66.857  1.00  0.00    -0.293 C  
BRANCH  14  15
HETATM   15  C   UNL     1     -10.370   5.673  67.014  1.00  0.00    -0.306 C  
BRANCH  15  16
HETATM   16  C   UNL     1      -8.929   5.430  66.625  1.00  0.00    -0.116 C  
HETATM   17  O   UNL     1      -8.611   4.544  65.838  1.00  0.00    -0.114 OA 
HETATM   18  N   UNL     1      -8.032   6.298  67.205  1.00  0.00    -0.108 N  
HETATM   19  H   UNL     1      -8.410   7.029  67.807  1.00  0.00     0.000 HD 
BRANCH  18  20
HETATM   20  C   UNL     1      -6.578   6.257  67.028  1.00  0.00    -0.059 C  
BRANCH  20  21
HETATM   21  C   UNL     1      -5.929   7.439  66.302  1.00  0.00    -0.037 C  
BRANCH  21  22
HETATM   22  S   UNL     1      -5.584   8.903  67.351  1.00  0.00    -0.039 SA 
BRANCH  22  23
HETATM   23  S   UNL     1      -6.646  10.424  66.452  1.00  0.00    -0.107 SA 
BRANCH  23  24
HETATM   24  C   UNL     1      -6.174  10.213  64.704  1.00  0.00    -0.130 C  
BRANCH  24  25
HETATM   25  C   UNL     1      -7.326   9.623  63.888  1.00  0.00    -0.120 C  
BRANCH  25  26
HETATM   26  N   UNL     1      -8.350  10.584  63.487  1.00  0.00    -0.268 N  
HETATM   27  H   UNL     1      -8.149  11.201  62.699  1.00  0.00     0.000 HD 
HETATM   28  C   UNL     1      -9.573  10.703  64.114  1.00  0.00    -0.300 C  
HETATM   29  O   UNL     1      -9.898  10.054  65.102  1.00  0.00    -0.302 OA 
BRANCH  28  30
HETATM   30  C   UNL     1     -10.519  11.684  63.460  1.00  0.00    -0.498 C  
BRANCH  30  31
HETATM   31  C   UNL     1     -11.753  11.876  64.336  1.00  0.00    -0.275 C  
BRANCH  31  32
HETATM   32  N   UNL     1     -11.428  12.487  65.612  1.00  0.00    -0.342 N  
HETATM   33  H   UNL     1     -10.654  12.105  66.156  1.00  0.00     0.000 HD 
HETATM   34  C   UNL     1     -12.125  13.561  66.113  1.00  0.00    -0.436 C  
HETATM   35  O   UNL     1     -13.124  14.030  65.576  1.00  0.00    -0.713 OA 
BRANCH  34  36
HETATM   36  C   UNL     1     -11.581  14.087  67.460  1.00  0.00    -0.367 C  
HETATM   37  O   UNL     1     -12.654  14.640  68.239  1.00  0.00    -0.464 OA 
HETATM   38  H   UNL     1     -12.319  14.964  69.067  1.00  0.00     0.000 HD 
BRANCH  36  39
HETATM   39  C   UNL     1     -10.442  15.132  67.301  1.00  0.00    -0.271 C  
HETATM   40  C   UNL     1     -10.268  15.558  65.829  1.00  0.00    -0.390 C  
HETATM   41  C   UNL     1     -10.814  16.400  68.106  1.00  0.00    -0.346 C  
BRANCH  39  42
HETATM   42  C   UNL     1      -9.114  14.553  67.848  1.00  0.00    -0.191 C  
HETATM   43  O   UNL     1      -8.196  14.256  66.801  1.00  0.00    -0.399 OA 
HETATM   44  H   UNL     1      -7.381  13.901  67.137  1.00  0.00     0.000 HD 
ENDBRANCH  39  42
ENDBRANCH  36  39
ENDBRANCH  34  36
ENDBRANCH  31  32
ENDBRANCH  30  31
ENDBRANCH  28  30
ENDBRANCH  25  26
ENDBRANCH  24  25
ENDBRANCH  23  24
ENDBRANCH  22  23
ENDBRANCH  21  22
ENDBRANCH  20  21
ENDBRANCH  18  20
ENDBRANCH  15  16
ENDBRANCH  14  15
ENDBRANCH  12  14
ENDBRANCH   7  10
ENDBRANCH   2   7
TORSDOF 19
ENDMDL
MODEL      151
REMARK 921   NORMALIZED FREE ENERGY PREDICTED BY IDOCK:   -4.56 KCAL/MOL
REMARK 922        TOTAL FREE ENERGY PREDICTED BY IDOCK:  -11.81 KCAL/MOL
REMARK 923 INTER-LIGAND FREE ENERGY PREDICTED BY IDOCK:  -10.44 KCAL/MOL
REMARK 924 INTRA-LIGAND FREE ENERGY PREDICTED BY IDOCK:   -1.37 KCAL/MOL
REMARK 927      BINDING AFFINITY PREDICTED BY RF-SCORE:    0.00 PKD
ROOT
HETATM    1  C   UNL     1     -12.488   7.215  70.890  1.00  0.00    -0.302 C  
HETATM    2  C   UNL     1     -11.241   7.942  71.428  1.00  0.00    -0.280 C  
HETATM    3  C   UNL     1     -11.447   9.473  71.321  1.00  0.00    -0.447 C  
ENDROOT
BRANCH   2   4
HETATM    4  C   UNL     1     -11.081   7.621  72.929  1.00  0.00    -0.393 C  
HETATM    5  O   UNL     1     -11.561   6.314  73.234  1.00  0.00    -0.432 OA 
HETATM    6  H   UNL     1     -11.462   6.116  74.158  1.00  0.00     0.000 HD 
ENDBRANCH   2   4
BRANCH   2   7
HETATM    7  C   UNL     1      -9.954   7.509  70.657  1.00  0.00    -0.183 C  
HETATM    8  O   UNL     1      -9.312   6.364  71.242  1.00  0.00    -0.156 OA 
HETATM    9  H   UNL     1      -8.530   6.101  70.773  1.00  0.00     0.000 HD 
BRANCH   7  10
HETATM   10  C   UNL     1     -10.163   7.208  69.156  1.00  0.00    -0.194 C  
HETATM   11  O   UNL     1     -10.654   6.174  68.713  1.00  0.00    -0.213 OA 
HETATM   12  N   UNL     1      -9.807   8.259  68.340  1.00  0.00    -0.167 N  
HETATM   13  H   UNL     1      -9.341   9.073  68.741  1.00  0.00     0.000 HD 
BRANCH  12  14
HETATM   14  C   UNL     1     -10.085   8.223  66.922  1.00  0.00    -0.296 C  
BRANCH  14  15
HETATM   15  C   UNL     1      -8.914   7.707  66.091  1.00  0.00    -0.197 C  
BRANCH  15  16
HETATM   16  C   UNL     1      -8.637   8.695  64.981  1.00  0.00    -0.158 C  
HETATM   17  O   UNL     1      -7.593   8.666  64.335  1.00  0.00    -0.103 OA 
HETATM   18  N   UNL     1      -9.656   9.590  64.752  1.00  0.00    -0.439 N  
HETATM   19  H   UNL     1     -10.500   9.492  65.315  1.00  0.00     0.000 HD 
BRANCH  18  20
HETATM   20  C   UNL     1      -9.627  10.671  63.763  1.00  0.00    -0.306 C  
BRANCH  20  21
HETATM   21  C   UNL     1     -10.213  12.021  64.187  1.00  0.00    -0.339 C  
BRANCH  21  22
HETATM   22  S   UNL     1      -9.908  12.488  65.935  1.00  0.00    -0.218 SA 
BRANCH  22  23
HETATM   23  S   UNL     1     -11.655  11.977  66.901  1.00  0.00    -0.269 SA 
BRANCH  23  24
HETATM   24  C   UNL     1     -11.155  12.107  68.649  1.00  0.00    -0.251 C  
BRANCH  24  25
HETATM   25  C   UNL     1     -12.334  12.525  69.531  1.00  0.00     0.066 C  
BRANCH  25  26
HETATM   26  N   UNL     1     -11.964  13.224  70.760  1.00  0.00    -0.513 N  
HETATM   27  H   UNL     1     -11.066  13.000  71.190  1.00  0.00     0.000 HD 
HETATM   28  C   UNL     1     -12.762  14.169  71.369  1.00  0.00    -0.364 C  
HETATM   29  O   UNL     1     -13.881  14.476  70.973  1.00  0.00    -0.311 OA 
BRANCH  28  30
HETATM   30  C   UNL     1     -12.129  14.845  72.565  1.00  0.00    -0.385 C  
BRANCH  30  31
HETATM   31  C   UNL     1     -11.703  16.262  72.194  1.00  0.00    -0.441 C  
BRANCH  31  32
HETATM   32  N   UNL     1     -11.851  16.523  70.774  1.00  0.00    -0.402 N  
HETATM   33  H   UNL     1     -12.704  16.973  70.444  1.00  0.00     0.000 HD 
HETATM   34  C   UNL     1     -10.881  16.186  69.859  1.00  0.00    -0.355 C  
HETATM   35  O   UNL     1      -9.865  15.562  70.148  1.00  0.00    -0.239 OA 
BRANCH  34  36
HETATM   36  C   UNL     1     -11.218  16.600  68.409  1.00  0.00    -0.239 C  
HETATM   37  O   UNL     1     -11.426  15.431  67.601  1.00  0.00    -0.326 OA 
HETATM   38  H   UNL     1     -11.633  15.685  66.709  1.00  0.00     0.000 HD 
BRANCH  36  39
HETATM   39  C   UNL     1     -10.140  17.513  67.761  1.00  0.00    -0.330 C  
HETATM   40  C   UNL     1     -10.494  17.852  66.298  1.00  0.00    -0.320 C  
HETATM   41  C   UNL     1     -10.084  18.847  68.542  1.00  0.00    -0.460 C  
BRANCH  39  42
HETATM   42  C   UNL     1      -8.755  16.825  67.827  1.00  0.00    -0.210 C  
HETATM   43  O   UNL     1      -7.904  17.442  68.788  1.00  0.00    -0.266 OA 
HETATM   44  H   UNL     1      -7.053  17.020  68.829  1.00  0.00     0.000 HD 
ENDBRANCH  39  42
ENDBRANCH  36  39
ENDBRANCH  34  36
ENDBRANCH  31  32
ENDBRANCH  30  31
ENDBRANCH  28  30
ENDBRANCH  25  26
ENDBRANCH  24  25
ENDBRANCH  23  24
ENDBRANCH  22  23
ENDBRANCH  21  22
ENDBRANCH  20  21
ENDBRANCH  18  20
ENDBRANCH  15  16
ENDBRANCH  14  15
ENDBRANCH  12  14
ENDBRANCH   7  10
ENDBRANCH   2   7
TORSDOF 19
ENDMDL
MODEL      152
REMARK 921   NORMALIZED FREE ENERGY PREDICTED BY IDOCK:   -4.56 KCAL/MOL
REMARK 922        TOTAL FREE ENERGY PREDICTED BY IDOCK:  -11.80 KCAL/MOL
REMARK 923 INTER-LIGAND FREE ENERGY PREDICTED BY IDOCK:   -9.82 KCAL/MOL
REMARK 924 INTRA-LIGAND FREE ENERGY PREDICTED BY IDOCK:   -1.99 KCAL/MOL
REMARK 927      BINDING AFFINITY PREDICTED BY RF-SCORE:    0.00 PKD
ROOT
HETATM    1  C   UNL     1      -7.149  14.254  67.599  1.00  0.00    -0.200 C  
HETATM    2  C   UNL     1      -8.275  15.299  67.706  1.00  0.00    -0.157 C  
HETATM    3  C   UNL     1      -7.842  16.430  68.672  1.00  0.00    -0.211 C  
ENDROOT
BRANCH   2   4
HETATM    4  C   UNL     1      -8.486  15.955  66.325  1.00  0.00    -0.267 C  
HETATM    5  O   UNL     1      -9.774  15.648  65.797  1.00  0.00    -0.328 OA 
HETATM    6  H   UNL     1      -9.904  16.051  64.946  1.00  0.00     0.000 HD 
ENDBRANCH   2   4
BRANCH   2   7
HETATM    7  C   UNL     1      -9.609  14.650  68.191  1.00  0.00    -0.213 C  
HETATM    8  O   UNL     1      -9.401  13.443  68.944  1.00  0.00    -0.398 OA 
HETATM    9  H   UNL     1     -10.213  13.049  69.239  1.00  0.00     0.000 HD 
BRANCH   7  10
HETATM   10  C   UNL     1     -10.515  15.573  69.036  1.00  0.00    -0.231 C  
HETATM   11  O   UNL     1     -11.065  16.587  68.616  1.00  0.00    -0.345 OA 
HETATM   12  N   UNL     1     -10.715  15.108  70.316  1.00  0.00    -0.455 N  
HETATM   13  H   UNL     1     -10.188  14.300  70.647  1.00  0.00     0.000 HD 
BRANCH  12  14
HETATM   14  C   UNL     1     -11.664  15.751  71.198  1.00  0.00    -0.428 C  
BRANCH  14  15
HETATM   15  C   UNL     1     -13.116  15.429  70.859  1.00  0.00    -0.528 C  
BRANCH  15  16
HETATM   16  C   UNL     1     -13.536  14.207  71.645  1.00  0.00    -0.366 C  
HETATM   17  O   UNL     1     -14.364  14.273  72.549  1.00  0.00    -0.554 OA 
HETATM   18  N   UNL     1     -12.935  13.038  71.238  1.00  0.00    -0.293 N  
HETATM   19  H   UNL     1     -12.298  13.090  70.444  1.00  0.00     0.000 HD 
BRANCH  18  20
HETATM   20  C   UNL     1     -13.137  11.724  71.855  1.00  0.00    -0.376 C  
BRANCH  20  21
HETATM   21  C   UNL     1     -12.940  10.496  70.962  1.00  0.00    -0.383 C  
BRANCH  21  22
HETATM   22  S   UNL     1     -11.792   9.228  71.623  1.00  0.00    -0.397 SA 
BRANCH  22  23
HETATM   23  S   UNL     1     -12.863   7.471  71.500  1.00  0.00    -0.347 SA 
BRANCH  23  24
HETATM   24  C   UNL     1     -11.611   6.246  72.008  1.00  0.00    -0.322 C  
BRANCH  24  25
HETATM   25  C   UNL     1     -10.244   6.903  72.207  1.00  0.00    -0.186 C  
BRANCH  25  26
HETATM   26  N   UNL     1      -9.233   6.527  71.221  1.00  0.00    -0.155 N  
HETATM   27  H   UNL     1      -9.278   5.592  70.818  1.00  0.00     0.000 HD 
HETATM   28  C   UNL     1      -8.221   7.368  70.807  1.00  0.00    -0.111 C  
HETATM   29  O   UNL     1      -8.038   8.491  71.264  1.00  0.00    -0.110 OA 
BRANCH  28  30
HETATM   30  C   UNL     1      -7.359   6.811  69.697  1.00  0.00    -0.087 C  
BRANCH  30  31
HETATM   31  C   UNL     1      -8.242   6.231  68.597  1.00  0.00    -0.112 C  
BRANCH  31  32
HETATM   32  N   UNL     1      -8.721   7.253  67.685  1.00  0.00    -0.125 N  
HETATM   33  H   UNL     1      -8.096   7.590  66.953  1.00  0.00     0.000 HD 
HETATM   34  C   UNL     1      -9.988   7.782  67.770  1.00  0.00    -0.174 C  
HETATM   35  O   UNL     1     -10.777   7.507  68.669  1.00  0.00    -0.171 OA 
BRANCH  34  36
HETATM   36  C   UNL     1     -10.310   8.818  66.670  1.00  0.00    -0.228 C  
HETATM   37  O   UNL     1      -9.538   8.538  65.492  1.00  0.00    -0.444 OA 
HETATM   38  H   UNL     1      -9.736   9.176  64.816  1.00  0.00     0.000 HD 
BRANCH  36  39
HETATM   39  C   UNL     1     -10.085  10.288  67.121  1.00  0.00    -0.259 C  
HETATM   40  C   UNL     1     -10.019  11.245  65.913  1.00  0.00    -0.277 C  
HETATM   41  C   UNL     1     -11.284  10.730  67.993  1.00  0.00    -0.372 C  
BRANCH  39  42
HETATM   42  C   UNL     1      -8.784  10.392  67.954  1.00  0.00    -0.118 C  
HETATM   43  O   UNL     1      -7.653   9.920  67.230  1.00  0.00    -0.088 OA 
HETATM   44  H   UNL     1      -6.855   9.984  67.741  1.00  0.00     0.000 HD 
ENDBRANCH  39  42
ENDBRANCH  36  39
ENDBRANCH  34  36
ENDBRANCH  31  32
ENDBRANCH  30  31
ENDBRANCH  28  30
ENDBRANCH  25  26
ENDBRANCH  24  25
ENDBRANCH  23  24
ENDBRANCH  22  23
ENDBRANCH  21  22
ENDBRANCH  20  21
ENDBRANCH  18  20
ENDBRANCH  15  16
ENDBRANCH  14  15
ENDBRANCH  12  14
ENDBRANCH   7  10
ENDBRANCH   2   7
TORSDOF 19
ENDMDL
MODEL      153
REMARK 921   NORMALIZED FREE ENERGY PREDICTED BY IDOCK:   -4.55 KCAL/MOL
REMARK 922        TOTAL FREE ENERGY PREDICTED BY IDOCK:  -11.79 KCAL/MOL
REMARK 923 INTER-LIGAND FREE ENERGY PREDICTED BY IDOCK:  -10.24 KCAL/MOL
REMARK 924 INTRA-LIGAND FREE ENERGY PREDICTED BY IDOCK:   -1.55 KCAL/MOL
REMARK 927      BINDING AFFINITY PREDICTED BY RF-SCORE:    0.00 PKD
ROOT
HETATM    1  C   UNL     1     -10.948   7.996  72.964  1.00  0.00    -0.310 C  
HETATM    2  C   UNL     1     -11.412   7.816  71.506  1.00  0.00    -0.298 C  
HETATM    3  C   UNL     1     -12.832   7.198  71.486  1.00  0.00    -0.434 C  
ENDROOT
BRANCH   2   4
HETATM    4  C   UNL     1     -11.525   9.204  70.840  1.00  0.00    -0.296 C  
HETATM    5  O   UNL     1     -10.306   9.935  70.952  1.00  0.00    -0.340 OA 
HETATM    6  H   UNL     1     -10.377  10.789  70.542  1.00  0.00     0.000 HD 
ENDBRANCH   2   4
BRANCH   2   7
HETATM    7  C   UNL     1     -10.418   6.925  70.698  1.00  0.00    -0.210 C  
HETATM    8  O   UNL     1     -10.710   5.521  70.809  1.00  0.00    -0.261 OA 
HETATM    9  H   UNL     1     -10.105   4.979  70.318  1.00  0.00     0.000 HD 
BRANCH   7  10
HETATM   10  C   UNL     1     -10.316   7.259  69.193  1.00  0.00    -0.205 C  
HETATM   11  O   UNL     1      -9.554   8.093  68.713  1.00  0.00    -0.148 OA 
HETATM   12  N   UNL     1     -11.124   6.467  68.409  1.00  0.00    -0.476 N  
HETATM   13  H   UNL     1     -11.790   5.833  68.850  1.00  0.00     0.000 HD 
BRANCH  12  14
HETATM   14  C   UNL     1     -11.040   6.522  66.966  1.00  0.00    -0.339 C  
BRANCH  14  15
HETATM   15  C   UNL     1     -10.397   5.284  66.352  1.00  0.00    -0.315 C  
BRANCH  15  16
HETATM   16  C   UNL     1      -8.950   5.595  66.039  1.00  0.00    -0.154 C  
HETATM   17  O   UNL     1      -8.045   5.313  66.817  1.00  0.00    -0.104 OA 
HETATM   18  N   UNL     1      -8.751   6.187  64.813  1.00  0.00    -0.354 N  
HETATM   19  H   UNL     1      -9.571   6.333  64.225  1.00  0.00     0.000 HD 
BRANCH  18  20
HETATM   20  C   UNL     1      -7.457   6.624  64.285  1.00  0.00    -0.096 C  
BRANCH  20  21
HETATM   21  C   UNL     1      -6.917   7.968  64.783  1.00  0.00    -0.070 C  
BRANCH  21  22
HETATM   22  S   UNL     1      -6.809   9.284  63.510  1.00  0.00    -0.093 SA 
BRANCH  22  23
HETATM   23  S   UNL     1      -8.742   9.476  62.823  1.00  0.00    -0.232 SA 
BRANCH  23  24
HETATM   24  C   UNL     1      -9.658   9.730  64.379  1.00  0.00    -0.090 C  
BRANCH  24  25
HETATM   25  C   UNL     1      -9.372  11.114  64.968  1.00  0.00    -0.207 C  
BRANCH  25  26
HETATM   26  N   UNL     1     -10.552  11.838  65.434  1.00  0.00    -0.268 N  
HETATM   27  H   UNL     1     -10.764  11.823  66.432  1.00  0.00     0.000 HD 
HETATM   28  C   UNL     1     -11.396  12.540  64.599  1.00  0.00    -0.318 C  
HETATM   29  O   UNL     1     -11.270  12.580  63.379  1.00  0.00    -0.469 OA 
BRANCH  28  30
HETATM   30  C   UNL     1     -12.487  13.306  65.311  1.00  0.00    -0.543 C  
BRANCH  30  31
HETATM   31  C   UNL     1     -11.992  13.757  66.682  1.00  0.00    -0.431 C  
BRANCH  31  32
HETATM   32  N   UNL     1     -11.171  14.950  66.602  1.00  0.00    -0.345 N  
HETATM   33  H   UNL     1     -10.531  15.054  65.814  1.00  0.00     0.000 HD 
HETATM   34  C   UNL     1     -11.222  15.946  67.549  1.00  0.00    -0.171 C  
HETATM   35  O   UNL     1     -11.890  15.869  68.577  1.00  0.00    -0.366 OA 
BRANCH  34  36
HETATM   36  C   UNL     1     -10.303  17.149  67.245  1.00  0.00    -0.320 C  
HETATM   37  O   UNL     1     -10.202  17.343  65.825  1.00  0.00    -0.555 OA 
HETATM   38  H   UNL     1      -9.637  18.083  65.638  1.00  0.00     0.000 HD 
BRANCH  36  39
HETATM   39  C   UNL     1      -8.886  17.018  67.869  1.00  0.00    -0.224 C  
HETATM   40  C   UNL     1      -8.387  18.368  68.426  1.00  0.00    -0.328 C  
HETATM   41  C   UNL     1      -8.954  16.027  69.055  1.00  0.00    -0.244 C  
BRANCH  39  42
HETATM   42  C   UNL     1      -7.891  16.479  66.812  1.00  0.00    -0.261 C  
HETATM   43  O   UNL     1      -8.204  15.146  66.423  1.00  0.00    -0.366 OA 
HETATM   44  H   UNL     1      -7.594  14.815  65.774  1.00  0.00     0.000 HD 
ENDBRANCH  39  42
ENDBRANCH  36  39
ENDBRANCH  34  36
ENDBRANCH  31  32
ENDBRANCH  30  31
ENDBRANCH  28  30
ENDBRANCH  25  26
ENDBRANCH  24  25
ENDBRANCH  23  24
ENDBRANCH  22  23
ENDBRANCH  21  22
ENDBRANCH  20  21
ENDBRANCH  18  20
ENDBRANCH  15  16
ENDBRANCH  14  15
ENDBRANCH  12  14
ENDBRANCH   7  10
ENDBRANCH   2   7
TORSDOF 19
ENDMDL
MODEL      154
REMARK 921   NORMALIZED FREE ENERGY PREDICTED BY IDOCK:   -4.55 KCAL/MOL
REMARK 922        TOTAL FREE ENERGY PREDICTED BY IDOCK:  -11.79 KCAL/MOL
REMARK 923 INTER-LIGAND FREE ENERGY PREDICTED BY IDOCK:  -10.15 KCAL/MOL
REMARK 924 INTRA-LIGAND FREE ENERGY PREDICTED BY IDOCK:   -1.64 KCAL/MOL
REMARK 927      BINDING AFFINITY PREDICTED BY RF-SCORE:    0.00 PKD
ROOT
HETATM    1  C   UNL     1      -9.820  18.721  68.826  1.00  0.00    -0.434 C  
HETATM    2  C   UNL     1      -9.313  17.383  68.256  1.00  0.00    -0.278 C  
HETATM    3  C   UNL     1      -9.409  17.409  66.710  1.00  0.00    -0.279 C  
ENDROOT
BRANCH   2   4
HETATM    4  C   UNL     1      -7.818  17.222  68.603  1.00  0.00    -0.272 C  
HETATM    5  O   UNL     1      -7.580  16.018  69.328  1.00  0.00    -0.221 OA 
HETATM    6  H   UNL     1      -6.659  15.920  69.541  1.00  0.00     0.000 HD 
ENDBRANCH   2   4
BRANCH   2   7
HETATM    7  C   UNL     1     -10.120  16.177  68.832  1.00  0.00    -0.238 C  
HETATM    8  O   UNL     1     -11.369  16.574  69.424  1.00  0.00    -0.252 OA 
HETATM    9  H   UNL     1     -11.859  15.840  69.774  1.00  0.00     0.000 HD 
BRANCH   7  10
HETATM   10  C   UNL     1     -10.424  15.052  67.819  1.00  0.00    -0.249 C  
HETATM   11  O   UNL     1      -9.591  14.263  67.380  1.00  0.00    -0.207 OA 
HETATM   12  N   UNL     1     -11.760  14.961  67.497  1.00  0.00    -0.371 N  
HETATM   13  H   UNL     1     -12.408  15.676  67.829  1.00  0.00     0.000 HD 
BRANCH  12  14
HETATM   14  C   UNL     1     -12.256  13.866  66.693  1.00  0.00    -0.424 C  
BRANCH  14  15
HETATM   15  C   UNL     1     -12.372  14.211  65.212  1.00  0.00    -0.469 C  
BRANCH  15  16
HETATM   16  C   UNL     1     -11.747  13.094  64.406  1.00  0.00    -0.380 C  
HETATM   17  O   UNL     1     -12.117  12.834  63.265  1.00  0.00    -0.539 OA 
HETATM   18  N   UNL     1     -10.727  12.433  65.051  1.00  0.00    -0.284 N  
HETATM   19  H   UNL     1     -10.469  12.764  65.980  1.00  0.00     0.000 HD 
BRANCH  18  20
HETATM   20  C   UNL     1      -9.983  11.292  64.511  1.00  0.00    -0.284 C  
BRANCH  20  21
HETATM   21  C   UNL     1      -8.975  10.612  65.441  1.00  0.00    -0.189 C  
BRANCH  21  22
HETATM   22  S   UNL     1      -7.434  10.034  64.632  1.00  0.00    -0.136 SA 
BRANCH  22  23
HETATM   23  S   UNL     1      -8.078   9.233  62.846  1.00  0.00    -0.166 SA 
BRANCH  23  24
HETATM   24  C   UNL     1      -7.879   7.447  63.155  1.00  0.00    -0.126 C  
BRANCH  24  25
HETATM   25  C   UNL     1      -7.540   7.176  64.622  1.00  0.00    -0.106 C  
BRANCH  25  26
HETATM   26  N   UNL     1      -8.624   6.587  65.404  1.00  0.00    -0.291 N  
HETATM   27  H   UNL     1      -9.425   7.175  65.636  1.00  0.00     0.000 HD 
HETATM   28  C   UNL     1      -8.625   5.280  65.846  1.00  0.00    -0.128 C  
HETATM   29  O   UNL     1      -7.692   4.502  65.674  1.00  0.00    -0.091 OA 
BRANCH  28  30
HETATM   30  C   UNL     1      -9.899   4.854  66.538  1.00  0.00    -0.225 C  
BRANCH  30  31
HETATM   31  C   UNL     1     -10.853   6.039  66.642  1.00  0.00    -0.213 C  
BRANCH  31  32
HETATM   32  N   UNL     1     -11.188   6.354  68.018  1.00  0.00    -0.533 N  
HETATM   33  H   UNL     1     -12.113   6.105  68.368  1.00  0.00     0.000 HD 
HETATM   34  C   UNL     1     -10.302   6.975  68.868  1.00  0.00    -0.190 C  
HETATM   35  O   UNL     1      -9.204   7.393  68.514  1.00  0.00    -0.143 OA 
BRANCH  34  36
HETATM   36  C   UNL     1     -10.842   7.169  70.302  1.00  0.00    -0.249 C  
HETATM   37  O   UNL     1     -12.210   6.738  70.374  1.00  0.00    -0.581 OA 
HETATM   38  H   UNL     1     -12.542   6.857  71.257  1.00  0.00     0.000 HD 
BRANCH  36  39
HETATM   39  C   UNL     1     -10.714   8.629  70.819  1.00  0.00    -0.260 C  
HETATM   40  C   UNL     1      -9.302   8.909  71.375  1.00  0.00    -0.338 C  
HETATM   41  C   UNL     1     -10.941   9.597  69.634  1.00  0.00    -0.253 C  
BRANCH  39  42
HETATM   42  C   UNL     1     -11.779   8.900  71.909  1.00  0.00    -0.369 C  
HETATM   43  O   UNL     1     -12.488  10.111  71.667  1.00  0.00    -0.383 OA 
HETATM   44  H   UNL     1     -13.141  10.277  72.336  1.00  0.00     0.000 HD 
ENDBRANCH  39  42
ENDBRANCH  36  39
ENDBRANCH  34  36
ENDBRANCH  31  32
ENDBRANCH  30  31
ENDBRANCH  28  30
ENDBRANCH  25  26
ENDBRANCH  24  25
ENDBRANCH  23  24
ENDBRANCH  22  23
ENDBRANCH  21  22
ENDBRANCH  20  21
ENDBRANCH  18  20
ENDBRANCH  15  16
ENDBRANCH  14  15
ENDBRANCH  12  14
ENDBRANCH   7  10
ENDBRANCH   2   7
TORSDOF 19
ENDMDL
MODEL      155
REMARK 921   NORMALIZED FREE ENERGY PREDICTED BY IDOCK:   -4.54 KCAL/MOL
REMARK 922        TOTAL FREE ENERGY PREDICTED BY IDOCK:  -11.75 KCAL/MOL
REMARK 923 INTER-LIGAND FREE ENERGY PREDICTED BY IDOCK:  -10.62 KCAL/MOL
REMARK 924 INTRA-LIGAND FREE ENERGY PREDICTED BY IDOCK:   -1.13 KCAL/MOL
REMARK 927      BINDING AFFINITY PREDICTED BY RF-SCORE:    0.00 PKD
ROOT
HETATM    1  C   UNL     1     -10.821  14.701  67.206  1.00  0.00    -0.305 C  
HETATM    2  C   UNL     1     -10.683  15.834  66.172  1.00  0.00    -0.293 C  
HETATM    3  C   UNL     1     -10.845  17.203  66.878  1.00  0.00    -0.005 C  
ENDROOT
BRANCH   2   4
HETATM    4  C   UNL     1      -9.256  15.807  65.584  1.00  0.00    -0.087 C  
HETATM    5  O   UNL     1      -8.365  15.069  66.418  1.00  0.00    -0.400 OA 
HETATM    6  H   UNL     1      -7.487  15.053  66.057  1.00  0.00     0.000 HD 
ENDBRANCH   2   4
BRANCH   2   7
HETATM    7  C   UNL     1     -11.728  15.686  65.022  1.00  0.00     0.028 C  
HETATM    8  O   UNL     1     -11.340  16.377  63.823  1.00  0.00    -1.487 OA 
HETATM    9  H   UNL     1     -11.976  16.287  63.123  1.00  0.00     0.000 HD 
BRANCH   7  10
HETATM   10  C   UNL     1     -12.065  14.231  64.630  1.00  0.00    -0.463 C  
HETATM   11  O   UNL     1     -13.150  13.689  64.821  1.00  0.00    -0.658 OA 
HETATM   12  N   UNL     1     -11.038  13.599  63.965  1.00  0.00    -0.565 N  
HETATM   13  H   UNL     1     -10.131  14.059  63.886  1.00  0.00     0.000 HD 
BRANCH  12  14
HETATM   14  C   UNL     1     -11.229  12.292  63.376  1.00  0.00    -0.420 C  
BRANCH  14  15
HETATM   15  C   UNL     1     -11.016  11.150  64.364  1.00  0.00    -0.270 C  
BRANCH  15  16
HETATM   16  C   UNL     1      -9.696  10.481  64.052  1.00  0.00    -0.323 C  
HETATM   17  O   UNL     1      -8.931  10.925  63.203  1.00  0.00    -0.210 OA 
HETATM   18  N   UNL     1      -9.432   9.368  64.817  1.00  0.00    -0.446 N  
HETATM   19  H   UNL     1     -10.116   9.115  65.529  1.00  0.00     0.000 HD 
BRANCH  18  20
HETATM   20  C   UNL     1      -8.246   8.516  64.690  1.00  0.00    -0.160 C  
BRANCH  20  21
HETATM   21  C   UNL     1      -7.598   8.024  65.987  1.00  0.00    -0.085 C  
BRANCH  21  22
HETATM   22  S   UNL     1      -7.488   6.201  66.159  1.00  0.00    -0.087 SA 
BRANCH  22  23
HETATM   23  S   UNL     1      -8.321   5.483  64.417  1.00  0.00    -0.079 SA 
BRANCH  23  24
HETATM   24  C   UNL     1      -9.689   4.464  65.061  1.00  0.00    -0.164 C  
BRANCH  24  25
HETATM   25  C   UNL     1      -9.166   3.167  65.684  1.00  0.00    -0.141 C  
BRANCH  25  26
HETATM   26  N   UNL     1      -9.570   2.945  67.070  1.00  0.00    -0.407 N  
HETATM   27  H   UNL     1     -10.567   2.869  67.274  1.00  0.00     0.000 HD 
HETATM   28  C   UNL     1      -8.679   2.834  68.116  1.00  0.00    -0.103 C  
HETATM   29  O   UNL     1      -7.466   2.965  67.995  1.00  0.00    -0.053 OA 
BRANCH  28  30
HETATM   30  C   UNL     1      -9.313   2.492  69.445  1.00  0.00    -0.171 C  
BRANCH  30  31
HETATM   31  C   UNL     1      -9.199   3.681  70.394  1.00  0.00    -0.146 C  
BRANCH  31  32
HETATM   32  N   UNL     1     -10.274   4.637  70.206  1.00  0.00    -0.204 N  
HETATM   33  H   UNL     1     -11.222   4.289  70.066  1.00  0.00     0.000 HD 
HETATM   34  C   UNL     1     -10.061   5.996  70.210  1.00  0.00    -0.194 C  
HETATM   35  O   UNL     1      -8.947   6.507  70.279  1.00  0.00    -0.152 OA 
BRANCH  34  36
HETATM   36  C   UNL     1     -11.349   6.833  70.044  1.00  0.00    -0.342 C  
HETATM   37  O   UNL     1     -11.150   7.848  69.048  1.00  0.00    -0.427 OA 
HETATM   38  H   UNL     1     -11.942   8.362  68.946  1.00  0.00     0.000 HD 
BRANCH  36  39
HETATM   39  C   UNL     1     -11.844   7.475  71.370  1.00  0.00    -0.321 C  
HETATM   40  C   UNL     1     -13.371   7.330  71.531  1.00  0.00    -0.435 C  
HETATM   41  C   UNL     1     -11.184   6.735  72.558  1.00  0.00    -0.305 C  
BRANCH  39  42
HETATM   42  C   UNL     1     -11.443   8.969  71.416  1.00  0.00    -0.330 C  
HETATM   43  O   UNL     1     -12.310   9.773  70.622  1.00  0.00    -0.410 OA 
HETATM   44  H   UNL     1     -12.064  10.691  70.650  1.00  0.00     0.000 HD 
ENDBRANCH  39  42
ENDBRANCH  36  39
ENDBRANCH  34  36
ENDBRANCH  31  32
ENDBRANCH  30  31
ENDBRANCH  28  30
ENDBRANCH  25  26
ENDBRANCH  24  25
ENDBRANCH  23  24
ENDBRANCH  22  23
ENDBRANCH  21  22
ENDBRANCH  20  21
ENDBRANCH  18  20
ENDBRANCH  15  16
ENDBRANCH  14  15
ENDBRANCH  12  14
ENDBRANCH   7  10
ENDBRANCH   2   7
TORSDOF 19
ENDMDL
MODEL      156
REMARK 921   NORMALIZED FREE ENERGY PREDICTED BY IDOCK:   -4.53 KCAL/MOL
REMARK 922        TOTAL FREE ENERGY PREDICTED BY IDOCK:  -11.75 KCAL/MOL
REMARK 923 INTER-LIGAND FREE ENERGY PREDICTED BY IDOCK:   -8.48 KCAL/MOL
REMARK 924 INTRA-LIGAND FREE ENERGY PREDICTED BY IDOCK:   -3.27 KCAL/MOL
REMARK 927      BINDING AFFINITY PREDICTED BY RF-SCORE:    0.00 PKD
ROOT
HETATM    1  C   UNL     1     -12.048  14.345  66.165  1.00  0.00    -0.373 C  
HETATM    2  C   UNL     1     -11.788  12.954  65.559  1.00  0.00    -0.455 C  
HETATM    3  C   UNL     1     -11.969  11.870  66.650  1.00  0.00     0.028 C  
ENDROOT
BRANCH   2   4
HETATM    4  C   UNL     1     -12.849  12.671  64.475  1.00  0.00    -0.270 C  
HETATM    5  O   UNL     1     -12.393  11.692  63.545  1.00  0.00    -0.596 OA 
HETATM    6  H   UNL     1     -13.046  11.518  62.878  1.00  0.00     0.000 HD 
ENDBRANCH   2   4
BRANCH   2   7
HETATM    7  C   UNL     1     -10.360  12.865  64.933  1.00  0.00    -0.308 C  
HETATM    8  O   UNL     1      -9.516  13.966  65.310  1.00  0.00    -0.522 OA 
HETATM    9  H   UNL     1      -8.648  13.912  64.930  1.00  0.00     0.000 HD 
BRANCH   7  10
HETATM   10  C   UNL     1      -9.590  11.563  65.247  1.00  0.00    -0.218 C  
HETATM   11  O   UNL     1      -9.801  10.479  64.710  1.00  0.00    -0.272 OA 
HETATM   12  N   UNL     1      -8.571  11.744  66.155  1.00  0.00    -0.375 N  
HETATM   13  H   UNL     1      -8.471  12.642  66.628  1.00  0.00     0.000 HD 
BRANCH  12  14
HETATM   14  C   UNL     1      -7.639  10.677  66.446  1.00  0.00    -0.138 C  
BRANCH  14  15
HETATM   15  C   UNL     1      -7.869  10.032  67.809  1.00  0.00    -0.094 C  
BRANCH  15  16
HETATM   16  C   UNL     1      -8.066   8.545  67.613  1.00  0.00    -0.107 C  
HETATM   17  O   UNL     1      -7.909   7.745  68.529  1.00  0.00    -0.115 OA 
HETATM   18  N   UNL     1      -8.458   8.189  66.342  1.00  0.00    -0.124 N  
HETATM   19  H   UNL     1      -8.606   8.941  65.670  1.00  0.00     0.000 HD 
BRANCH  18  20
HETATM   20  C   UNL     1      -8.678   6.817  65.878  1.00  0.00    -0.137 C  
BRANCH  20  21
HETATM   21  C   UNL     1      -7.443   6.012  65.465  1.00  0.00    -0.082 C  
BRANCH  21  22
HETATM   22  S   UNL     1      -7.726   4.215  65.234  1.00  0.00    -0.086 SA 
BRANCH  22  23
HETATM   23  S   UNL     1      -9.668   3.929  65.861  1.00  0.00    -0.123 SA 
BRANCH  23  24
HETATM   24  C   UNL     1      -9.421   3.450  67.602  1.00  0.00    -0.181 C  
BRANCH  24  25
HETATM   25  C   UNL     1      -9.620   4.645  68.538  1.00  0.00    -0.158 C  
BRANCH  25  26
HETATM   26  N   UNL     1      -8.635   4.754  69.611  1.00  0.00    -0.081 N  
HETATM   27  H   UNL     1      -7.653   4.864  69.355  1.00  0.00     0.000 HD 
HETATM   28  C   UNL     1      -8.960   4.717  70.951  1.00  0.00    -0.121 C  
HETATM   29  O   UNL     1     -10.097   4.534  71.372  1.00  0.00    -0.190 OA 
BRANCH  28  30
HETATM   30  C   UNL     1      -7.796   4.963  71.884  1.00  0.00    -0.108 C  
BRANCH  30  31
HETATM   31  C   UNL     1      -7.812   6.412  72.361  1.00  0.00    -0.102 C  
BRANCH  31  32
HETATM   32  N   UNL     1      -9.156   6.957  72.412  1.00  0.00    -0.134 N  
HETATM   33  H   UNL     1      -9.925   6.343  72.682  1.00  0.00     0.000 HD 
HETATM   34  C   UNL     1      -9.430   8.270  72.109  1.00  0.00    -0.258 C  
HETATM   35  O   UNL     1      -8.589   9.058  71.687  1.00  0.00    -0.333 OA 
BRANCH  34  36
HETATM   36  C   UNL     1     -10.917   8.654  72.276  1.00  0.00    -0.322 C  
HETATM   37  O   UNL     1     -11.604   7.641  73.028  1.00  0.00    -0.596 OA 
HETATM   38  H   UNL     1     -12.518   7.877  73.130  1.00  0.00     0.000 HD 
BRANCH  36  39
HETATM   39  C   UNL     1     -11.646   8.905  70.927  1.00  0.00    -0.331 C  
HETATM   40  C   UNL     1     -13.178   8.933  71.110  1.00  0.00    -0.133 C  
HETATM   41  C   UNL     1     -11.222  10.290  70.382  1.00  0.00    -0.407 C  
BRANCH  39  42
HETATM   42  C   UNL     1     -11.253   7.814  69.902  1.00  0.00    -0.062 C  
HETATM   43  O   UNL     1     -12.003   6.617  70.089  1.00  0.00    -0.594 OA 
HETATM   44  H   UNL     1     -11.761   5.947  69.461  1.00  0.00     0.000 HD 
ENDBRANCH  39  42
ENDBRANCH  36  39
ENDBRANCH  34  36
ENDBRANCH  31  32
ENDBRANCH  30  31
ENDBRANCH  28  30
ENDBRANCH  25  26
ENDBRANCH  24  25
ENDBRANCH  23  24
ENDBRANCH  22  23
ENDBRANCH  21  22
ENDBRANCH  20  21
ENDBRANCH  18  20
ENDBRANCH  15  16
ENDBRANCH  14  15
ENDBRANCH  12  14
ENDBRANCH   7  10
ENDBRANCH   2   7
TORSDOF 19
ENDMDL
MODEL      157
REMARK 921   NORMALIZED FREE ENERGY PREDICTED BY IDOCK:   -4.51 KCAL/MOL
REMARK 922        TOTAL FREE ENERGY PREDICTED BY IDOCK:  -11.70 KCAL/MOL
REMARK 923 INTER-LIGAND FREE ENERGY PREDICTED BY IDOCK:   -9.74 KCAL/MOL
REMARK 924 INTRA-LIGAND FREE ENERGY PREDICTED BY IDOCK:   -1.96 KCAL/MOL
REMARK 927      BINDING AFFINITY PREDICTED BY RF-SCORE:    0.00 PKD
ROOT
HETATM    1  C   UNL     1      -9.740   9.309  71.288  1.00  0.00    -0.299 C  
HETATM    2  C   UNL     1     -10.987   8.406  71.239  1.00  0.00    -0.305 C  
HETATM    3  C   UNL     1     -11.003   7.476  72.478  1.00  0.00    -0.362 C  
ENDROOT
BRANCH   2   4
HETATM    4  C   UNL     1     -12.250   9.287  71.332  1.00  0.00    -0.349 C  
HETATM    5  O   UNL     1     -12.269  10.277  70.306  1.00  0.00    -0.366 OA 
HETATM    6  H   UNL     1     -13.047  10.820  70.364  1.00  0.00     0.000 HD 
ENDBRANCH   2   4
BRANCH   2   7
HETATM    7  C   UNL     1     -11.028   7.564  69.925  1.00  0.00    -0.211 C  
HETATM    8  O   UNL     1     -10.917   8.372  68.741  1.00  0.00    -0.432 OA 
HETATM    9  H   UNL     1     -10.942   7.859  67.942  1.00  0.00     0.000 HD 
BRANCH   7  10
HETATM   10  C   UNL     1      -9.960   6.452  69.829  1.00  0.00    -0.166 C  
HETATM   11  O   UNL     1      -8.748   6.643  69.860  1.00  0.00    -0.138 OA 
HETATM   12  N   UNL     1     -10.501   5.187  69.776  1.00  0.00    -0.265 N  
HETATM   13  H   UNL     1     -11.511   5.074  69.684  1.00  0.00     0.000 HD 
BRANCH  12  14
HETATM   14  C   UNL     1      -9.656   4.015  69.849  1.00  0.00    -0.211 C  
BRANCH  14  15
HETATM   15  C   UNL     1      -9.403   3.370  68.491  1.00  0.00    -0.231 C  
BRANCH  15  16
HETATM   16  C   UNL     1      -8.024   3.769  68.015  1.00  0.00    -0.076 C  
HETATM   17  O   UNL     1      -7.039   3.070  68.230  1.00  0.00    -0.048 OA 
HETATM   18  N   UNL     1      -7.988   4.950  67.311  1.00  0.00    -0.095 N  
HETATM   19  H   UNL     1      -8.875   5.426  67.149  1.00  0.00     0.000 HD 
BRANCH  18  20
HETATM   20  C   UNL     1      -6.778   5.579  66.775  1.00  0.00    -0.061 C  
BRANCH  20  21
HETATM   21  C   UNL     1      -6.736   7.110  66.759  1.00  0.00    -0.060 C  
BRANCH  21  22
HETATM   22  S   UNL     1      -8.276   7.926  66.190  1.00  0.00    -0.124 SA 
BRANCH  22  23
HETATM   23  S   UNL     1      -7.619   9.648  65.267  1.00  0.00    -0.118 SA 
BRANCH  23  24
HETATM   24  C   UNL     1      -7.667  10.840  66.646  1.00  0.00    -0.141 C  
BRANCH  24  25
HETATM   25  C   UNL     1      -9.056  10.887  67.288  1.00  0.00    -0.141 C  
BRANCH  25  26
HETATM   26  N   UNL     1      -9.882  12.021  66.881  1.00  0.00    -0.202 N  
HETATM   27  H   UNL     1      -9.418  12.836  66.479  1.00  0.00     0.000 HD 
HETATM   28  C   UNL     1     -11.255  12.050  67.011  1.00  0.00    -0.320 C  
HETATM   29  O   UNL     1     -11.910  11.152  67.529  1.00  0.00    -0.591 OA 
BRANCH  28  30
HETATM   30  C   UNL     1     -11.914  13.275  66.420  1.00  0.00    -0.465 C  
BRANCH  30  31
HETATM   31  C   UNL     1     -10.997  13.902  65.374  1.00  0.00    -0.316 C  
BRANCH  31  32
HETATM   32  N   UNL     1     -10.246  15.024  65.906  1.00  0.00    -0.293 N  
HETATM   33  H   UNL     1      -9.559  14.851  66.639  1.00  0.00     0.000 HD 
HETATM   34  C   UNL     1     -10.428  16.311  65.457  1.00  0.00    -0.362 C  
HETATM   35  O   UNL     1     -11.293  16.630  64.646  1.00  0.00    -0.679 OA 
BRANCH  34  36
HETATM   36  C   UNL     1      -9.491  17.344  66.121  1.00  0.00    -0.169 C  
HETATM   37  O   UNL     1      -8.193  16.766  66.330  1.00  0.00    -0.260 OA 
HETATM   38  H   UNL     1      -7.617  17.402  66.739  1.00  0.00     0.000 HD 
BRANCH  36  39
HETATM   39  C   UNL     1     -10.045  17.913  67.457  1.00  0.00    -0.343 C  
HETATM   40  C   UNL     1     -10.891  16.864  68.209  1.00  0.00    -0.357 C  
HETATM   41  C   UNL     1      -8.854  18.284  68.372  1.00  0.00    -0.321 C  
BRANCH  39  42
HETATM   42  C   UNL     1     -10.890  19.180  67.183  1.00  0.00    -0.410 C  
HETATM   43  O   UNL     1     -10.813  19.582  65.819  1.00  0.00    -0.453 OA 
HETATM   44  H   UNL     1     -11.331  20.360  65.650  1.00  0.00     0.000 HD 
ENDBRANCH  39  42
ENDBRANCH  36  39
ENDBRANCH  34  36
ENDBRANCH  31  32
ENDBRANCH  30  31
ENDBRANCH  28  30
ENDBRANCH  25  26
ENDBRANCH  24  25
ENDBRANCH  23  24
ENDBRANCH  22  23
ENDBRANCH  21  22
ENDBRANCH  20  21
ENDBRANCH  18  20
ENDBRANCH  15  16
ENDBRANCH  14  15
ENDBRANCH  12  14
ENDBRANCH   7  10
ENDBRANCH   2   7
TORSDOF 19
ENDMDL
MODEL      158
REMARK 921   NORMALIZED FREE ENERGY PREDICTED BY IDOCK:   -4.50 KCAL/MOL
REMARK 922        TOTAL FREE ENERGY PREDICTED BY IDOCK:  -11.68 KCAL/MOL
REMARK 923 INTER-LIGAND FREE ENERGY PREDICTED BY IDOCK:  -10.15 KCAL/MOL
REMARK 924 INTRA-LIGAND FREE ENERGY PREDICTED BY IDOCK:   -1.53 KCAL/MOL
REMARK 927      BINDING AFFINITY PREDICTED BY RF-SCORE:    0.00 PKD
ROOT
HETATM    1  C   UNL     1      -8.377   5.062  64.296  1.00  0.00    -0.136 C  
HETATM    2  C   UNL     1      -7.819   5.600  65.627  1.00  0.00    -0.099 C  
HETATM    3  C   UNL     1      -7.692   4.439  66.643  1.00  0.00    -0.094 C  
ENDROOT
BRANCH   2   4
HETATM    4  C   UNL     1      -6.393   6.141  65.393  1.00  0.00    -0.038 C  
HETATM    5  O   UNL     1      -6.203   7.400  66.034  1.00  0.00    -0.039 OA 
HETATM    6  H   UNL     1      -5.325   7.733  65.889  1.00  0.00     0.000 HD 
ENDBRANCH   2   4
BRANCH   2   7
HETATM    7  C   UNL     1      -8.724   6.734  66.204  1.00  0.00    -0.148 C  
HETATM    8  O   UNL     1      -9.076   7.723  65.221  1.00  0.00    -0.384 OA 
HETATM    9  H   UNL     1      -9.626   8.412  65.573  1.00  0.00     0.000 HD 
BRANCH   7  10
HETATM   10  C   UNL     1     -10.034   6.251  66.865  1.00  0.00    -0.169 C  
HETATM   11  O   UNL     1     -10.850   5.504  66.334  1.00  0.00    -0.270 OA 
HETATM   12  N   UNL     1     -10.174   6.685  68.165  1.00  0.00    -0.158 N  
HETATM   13  H   UNL     1      -9.509   7.358  68.546  1.00  0.00     0.000 HD 
BRANCH  12  14
HETATM   14  C   UNL     1     -11.254   6.199  68.995  1.00  0.00    -0.304 C  
BRANCH  14  15
HETATM   15  C   UNL     1     -10.802   5.792  70.394  1.00  0.00    -0.360 C  
BRANCH  15  16
HETATM   16  C   UNL     1     -11.749   6.398  71.404  1.00  0.00    -0.306 C  
HETATM   17  O   UNL     1     -11.573   6.275  72.612  1.00  0.00    -0.252 OA 
HETATM   18  N   UNL     1     -12.789   7.109  70.849  1.00  0.00    -0.585 N  
HETATM   19  H   UNL     1     -12.813   7.188  69.833  1.00  0.00     0.000 HD 
BRANCH  18  20
HETATM   20  C   UNL     1     -13.864   7.761  71.601  1.00  0.00    -0.383 C  
BRANCH  20  21
HETATM   21  C   UNL     1     -13.633   9.211  72.035  1.00  0.00    -0.459 C  
BRANCH  21  22
HETATM   22  S   UNL     1     -11.960   9.874  71.680  1.00  0.00    -0.257 SA 
BRANCH  22  23
HETATM   23  S   UNL     1     -12.232  11.051  70.011  1.00  0.00    -0.333 SA 
BRANCH  23  24
HETATM   24  C   UNL     1     -10.827  10.535  68.969  1.00  0.00    -0.232 C  
BRANCH  24  25
HETATM   25  C   UNL     1     -11.046  10.935  67.509  1.00  0.00    -0.310 C  
BRANCH  25  26
HETATM   26  N   UNL     1     -11.654  12.250  67.317  1.00  0.00    -0.354 N  
HETATM   27  H   UNL     1     -12.665  12.332  67.420  1.00  0.00     0.000 HD 
HETATM   28  C   UNL     1     -10.935  13.385  67.004  1.00  0.00    -0.287 C  
HETATM   29  O   UNL     1      -9.726  13.392  66.802  1.00  0.00    -0.247 OA 
BRANCH  28  30
HETATM   30  C   UNL     1     -11.755  14.654  66.965  1.00  0.00    -0.379 C  
BRANCH  30  31
HETATM   31  C   UNL     1     -11.726  15.331  68.331  1.00  0.00    -0.321 C  
BRANCH  31  32
HETATM   32  N   UNL     1     -11.117  16.646  68.277  1.00  0.00    -0.346 N  
HETATM   33  H   UNL     1     -11.622  17.404  67.818  1.00  0.00     0.000 HD 
HETATM   34  C   UNL     1      -9.882  16.909  68.823  1.00  0.00    -0.269 C  
HETATM   35  O   UNL     1      -9.160  16.045  69.313  1.00  0.00    -0.246 OA 
BRANCH  34  36
HETATM   36  C   UNL     1      -9.443  18.385  68.699  1.00  0.00    -0.335 C  
HETATM   37  O   UNL     1     -10.594  19.226  68.526  1.00  0.00    -0.433 OA 
HETATM   38  H   UNL     1     -10.324  20.134  68.450  1.00  0.00     0.000 HD 
BRANCH  36  39
HETATM   39  C   UNL     1      -8.422  18.633  67.554  1.00  0.00    -0.280 C  
HETATM   40  C   UNL     1      -8.423  20.110  67.108  1.00  0.00    -0.403 C  
HETATM   41  C   UNL     1      -7.002  18.309  68.074  1.00  0.00    -0.222 C  
BRANCH  39  42
HETATM   42  C   UNL     1      -8.745  17.714  66.351  1.00  0.00    -0.234 C  
HETATM   43  O   UNL     1      -9.905  18.148  65.649  1.00  0.00    -0.478 OA 
HETATM   44  H   UNL     1     -10.103  17.584  64.911  1.00  0.00     0.000 HD 
ENDBRANCH  39  42
ENDBRANCH  36  39
ENDBRANCH  34  36
ENDBRANCH  31  32
ENDBRANCH  30  31
ENDBRANCH  28  30
ENDBRANCH  25  26
ENDBRANCH  24  25
ENDBRANCH  23  24
ENDBRANCH  22  23
ENDBRANCH  21  22
ENDBRANCH  20  21
ENDBRANCH  18  20
ENDBRANCH  15  16
ENDBRANCH  14  15
ENDBRANCH  12  14
ENDBRANCH   7  10
ENDBRANCH   2   7
TORSDOF 19
ENDMDL
MODEL      159
REMARK 921   NORMALIZED FREE ENERGY PREDICTED BY IDOCK:   -4.49 KCAL/MOL
REMARK 922        TOTAL FREE ENERGY PREDICTED BY IDOCK:  -11.66 KCAL/MOL
REMARK 923 INTER-LIGAND FREE ENERGY PREDICTED BY IDOCK:  -10.18 KCAL/MOL
REMARK 924 INTRA-LIGAND FREE ENERGY PREDICTED BY IDOCK:   -1.48 KCAL/MOL
REMARK 927      BINDING AFFINITY PREDICTED BY RF-SCORE:    0.00 PKD
ROOT
HETATM    1  C   UNL     1      -7.056  13.495  68.873  1.00  0.00    -0.093 C  
HETATM    2  C   UNL     1      -6.552  14.903  69.243  1.00  0.00    -0.131 C  
HETATM    3  C   UNL     1      -7.761  15.854  69.426  1.00  0.00    -0.199 C  
ENDROOT
BRANCH   2   4
HETATM    4  C   UNL     1      -5.833  14.836  70.607  1.00  0.00    -0.149 C  
HETATM    5  O   UNL     1      -6.259  13.707  71.365  1.00  0.00    -0.556 OA 
HETATM    6  H   UNL     1      -5.816  13.666  72.204  1.00  0.00     0.000 HD 
ENDBRANCH   2   4
BRANCH   2   7
HETATM    7  C   UNL     1      -5.577  15.461  68.160  1.00  0.00    -0.125 C  
HETATM    8  O   UNL     1      -5.137  14.454  67.233  1.00  0.00    -0.272 OA 
HETATM    9  H   UNL     1      -4.544  14.794  66.574  1.00  0.00     0.000 HD 
BRANCH   7  10
HETATM   10  C   UNL     1      -6.129  16.643  67.333  1.00  0.00    -0.161 C  
HETATM   11  O   UNL     1      -6.818  16.528  66.323  1.00  0.00    -0.133 OA 
HETATM   12  N   UNL     1      -5.833  17.871  67.882  1.00  0.00    -0.155 N  
HETATM   13  H   UNL     1      -5.203  17.927  68.682  1.00  0.00     0.000 HD 
BRANCH  12  14
HETATM   14  C   UNL     1      -6.405  19.083  67.338  1.00  0.00    -0.181 C  
BRANCH  14  15
HETATM   15  C   UNL     1      -7.348  19.791  68.305  1.00  0.00    -0.349 C  
BRANCH  15  16
HETATM   16  C   UNL     1      -8.743  19.241  68.108  1.00  0.00    -0.331 C  
HETATM   17  O   UNL     1      -9.565  19.219  69.019  1.00  0.00    -0.399 OA 
HETATM   18  N   UNL     1      -9.004  18.804  66.829  1.00  0.00    -0.298 N  
HETATM   19  H   UNL     1      -8.264  18.914  66.137  1.00  0.00     0.000 HD 
BRANCH  18  20
HETATM   20  C   UNL     1     -10.259  18.194  66.383  1.00  0.00    -0.399 C  
BRANCH  20  21
HETATM   21  C   UNL     1     -10.379  16.673  66.505  1.00  0.00    -0.299 C  
BRANCH  21  22
HETATM   22  S   UNL     1     -11.145  15.833  65.066  1.00  0.00    -0.321 SA 
BRANCH  22  23
HETATM   23  S   UNL     1     -11.358  13.878  65.681  1.00  0.00    -0.315 SA 
BRANCH  23  24
HETATM   24  C   UNL     1     -11.743  14.094  67.450  1.00  0.00    -0.391 C  
BRANCH  24  25
HETATM   25  C   UNL     1     -10.712  13.383  68.330  1.00  0.00    -0.256 C  
BRANCH  25  26
HETATM   26  N   UNL     1     -11.277  12.609  69.433  1.00  0.00    -0.433 N  
HETATM   27  H   UNL     1     -11.207  12.993  70.376  1.00  0.00     0.000 HD 
HETATM   28  C   UNL     1     -11.898  11.389  69.270  1.00  0.00    -0.349 C  
HETATM   29  O   UNL     1     -11.989  10.809  68.193  1.00  0.00    -0.527 OA 
BRANCH  28  30
HETATM   30  C   UNL     1     -12.507  10.823  70.532  1.00  0.00    -0.447 C  
BRANCH  30  31
HETATM   31  C   UNL     1     -11.612   9.720  71.089  1.00  0.00    -0.392 C  
BRANCH  31  32
HETATM   32  N   UNL     1     -11.618   8.536  70.251  1.00  0.00    -0.469 N  
HETATM   33  H   UNL     1     -12.251   8.502  69.452  1.00  0.00     0.000 HD 
HETATM   34  C   UNL     1     -10.800   7.457  70.495  1.00  0.00    -0.243 C  
HETATM   35  O   UNL     1     -10.073   7.367  71.480  1.00  0.00    -0.185 OA 
BRANCH  34  36
HETATM   36  C   UNL     1     -10.929   6.325  69.452  1.00  0.00    -0.375 C  
HETATM   37  O   UNL     1     -10.525   5.075  70.032  1.00  0.00    -0.276 OA 
HETATM   38  H   UNL     1     -10.604   4.378  69.390  1.00  0.00     0.000 HD 
BRANCH  36  39
HETATM   39  C   UNL     1     -10.129   6.592  68.146  1.00  0.00    -0.174 C  
HETATM   40  C   UNL     1      -8.889   5.679  68.048  1.00  0.00    -0.105 C  
HETATM   41  C   UNL     1     -11.034   6.273  66.934  1.00  0.00    -0.404 C  
BRANCH  39  42
HETATM   42  C   UNL     1      -9.701   8.078  68.084  1.00  0.00    -0.160 C  
HETATM   43  O   UNL     1      -8.561   8.335  68.898  1.00  0.00    -0.131 OA 
HETATM   44  H   UNL     1      -8.298   9.248  68.860  1.00  0.00     0.000 HD 
ENDBRANCH  39  42
ENDBRANCH  36  39
ENDBRANCH  34  36
ENDBRANCH  31  32
ENDBRANCH  30  31
ENDBRANCH  28  30
ENDBRANCH  25  26
ENDBRANCH  24  25
ENDBRANCH  23  24
ENDBRANCH  22  23
ENDBRANCH  21  22
ENDBRANCH  20  21
ENDBRANCH  18  20
ENDBRANCH  15  16
ENDBRANCH  14  15
ENDBRANCH  12  14
ENDBRANCH   7  10
ENDBRANCH   2   7
TORSDOF 19
ENDMDL
MODEL      160
REMARK 921   NORMALIZED FREE ENERGY PREDICTED BY IDOCK:   -4.49 KCAL/MOL
REMARK 922        TOTAL FREE ENERGY PREDICTED BY IDOCK:  -11.66 KCAL/MOL
REMARK 923 INTER-LIGAND FREE ENERGY PREDICTED BY IDOCK:   -8.94 KCAL/MOL
REMARK 924 INTRA-LIGAND FREE ENERGY PREDICTED BY IDOCK:   -2.72 KCAL/MOL
REMARK 927      BINDING AFFINITY PREDICTED BY RF-SCORE:    0.00 PKD
ROOT
HETATM    1  C   UNL     1      -7.754  16.490  67.253  1.00  0.00    -0.193 C  
HETATM    2  C   UNL     1      -9.001  15.645  67.574  1.00  0.00    -0.199 C  
HETATM    3  C   UNL     1      -8.684  14.146  67.349  1.00  0.00    -0.217 C  
ENDROOT
BRANCH   2   4
HETATM    4  C   UNL     1      -9.344  15.804  69.071  1.00  0.00    -0.244 C  
HETATM    5  O   UNL     1     -10.735  16.050  69.261  1.00  0.00    -0.234 OA 
HETATM    6  H   UNL     1     -10.945  16.148  70.183  1.00  0.00     0.000 HD 
ENDBRANCH   2   4
BRANCH   2   7
HETATM    7  C   UNL     1     -10.222  16.081  66.705  1.00  0.00    -0.274 C  
HETATM    8  O   UNL     1      -9.839  16.833  65.541  1.00  0.00    -0.564 OA 
HETATM    9  H   UNL     1     -10.582  17.097  65.013  1.00  0.00     0.000 HD 
BRANCH   7  10
HETATM   10  C   UNL     1     -11.132  14.926  66.232  1.00  0.00    -0.340 C  
HETATM   11  O   UNL     1     -11.961  14.356  66.936  1.00  0.00    -0.410 OA 
HETATM   12  N   UNL     1     -10.978  14.630  64.896  1.00  0.00    -0.416 N  
HETATM   13  H   UNL     1     -10.233  15.079  64.363  1.00  0.00     0.000 HD 
BRANCH  12  14
HETATM   14  C   UNL     1     -11.860  13.692  64.238  1.00  0.00    -0.425 C  
BRANCH  14  15
HETATM   15  C   UNL     1     -11.118  12.567  63.524  1.00  0.00    -0.497 C  
BRANCH  15  16
HETATM   16  C   UNL     1     -10.432  11.706  64.561  1.00  0.00    -0.308 C  
HETATM   17  O   UNL     1     -10.963  11.439  65.634  1.00  0.00    -0.266 OA 
HETATM   18  N   UNL     1      -9.196  11.238  64.179  1.00  0.00    -0.390 N  
HETATM   19  H   UNL     1      -8.871  11.481  63.244  1.00  0.00     0.000 HD 
BRANCH  18  20
HETATM   20  C   UNL     1      -8.308  10.418  65.009  1.00  0.00    -0.166 C  
BRANCH  20  21
HETATM   21  C   UNL     1      -8.706   8.955  65.222  1.00  0.00    -0.186 C  
BRANCH  21  22
HETATM   22  S   UNL     1      -7.576   7.723  64.468  1.00  0.00    -0.115 SA 
BRANCH  22  23
HETATM   23  S   UNL     1      -5.958   7.682  65.743  1.00  0.00    -0.038 SA 
BRANCH  23  24
HETATM   24  C   UNL     1      -6.758   7.291  67.334  1.00  0.00    -0.068 C  
BRANCH  24  25
HETATM   25  C   UNL     1      -7.525   5.969  67.256  1.00  0.00    -0.081 C  
BRANCH  25  26
HETATM   26  N   UNL     1      -8.670   5.870  68.158  1.00  0.00    -0.112 N  
HETATM   27  H   UNL     1      -9.491   6.441  67.959  1.00  0.00     0.000 HD 
HETATM   28  C   UNL     1      -8.701   5.046  69.263  1.00  0.00    -0.091 C  
HETATM   29  O   UNL     1      -7.753   4.359  69.628  1.00  0.00    -0.054 OA 
BRANCH  28  30
HETATM   30  C   UNL     1     -10.028   5.019  69.987  1.00  0.00    -0.324 C  
BRANCH  30  31
HETATM   31  C   UNL     1      -9.914   5.776  71.306  1.00  0.00    -0.191 C  
BRANCH  31  32
HETATM   32  N   UNL     1     -10.394   7.140  71.197  1.00  0.00    -0.203 N  
HETATM   33  H   UNL     1     -11.392   7.321  71.310  1.00  0.00     0.000 HD 
HETATM   34  C   UNL     1      -9.553   8.199  70.948  1.00  0.00    -0.162 C  
HETATM   35  O   UNL     1      -8.356   8.072  70.707  1.00  0.00    -0.110 OA 
BRANCH  34  36
HETATM   36  C   UNL     1     -10.263   9.571  70.922  1.00  0.00    -0.286 C  
HETATM   37  O   UNL     1     -11.509   9.492  71.633  1.00  0.00    -0.381 OA 
HETATM   38  H   UNL     1     -11.945  10.336  71.617  1.00  0.00     0.000 HD 
BRANCH  36  39
HETATM   39  C   UNL     1     -10.500  10.118  69.487  1.00  0.00    -0.263 C  
HETATM   40  C   UNL     1      -9.348  11.041  69.038  1.00  0.00    -0.105 C  
HETATM   41  C   UNL     1     -10.546   8.927  68.502  1.00  0.00    -0.183 C  
BRANCH  39  42
HETATM   42  C   UNL     1     -11.846  10.880  69.428  1.00  0.00    -0.328 C  
HETATM   43  O   UNL     1     -11.939  11.701  68.268  1.00  0.00    -0.516 OA 
HETATM   44  H   UNL     1     -12.765  12.169  68.231  1.00  0.00     0.000 HD 
ENDBRANCH  39  42
ENDBRANCH  36  39
ENDBRANCH  34  36
ENDBRANCH  31  32
ENDBRANCH  30  31
ENDBRANCH  28  30
ENDBRANCH  25  26
ENDBRANCH  24  25
ENDBRANCH  23  24
ENDBRANCH  22  23
ENDBRANCH  21  22
ENDBRANCH  20  21
ENDBRANCH  18  20
ENDBRANCH  15  16
ENDBRANCH  14  15
ENDBRANCH  12  14
ENDBRANCH   7  10
ENDBRANCH   2   7
TORSDOF 19
ENDMDL
MODEL      161
REMARK 921   NORMALIZED FREE ENERGY PREDICTED BY IDOCK:   -4.49 KCAL/MOL
REMARK 922        TOTAL FREE ENERGY PREDICTED BY IDOCK:  -11.66 KCAL/MOL
REMARK 923 INTER-LIGAND FREE ENERGY PREDICTED BY IDOCK:   -8.98 KCAL/MOL
REMARK 924 INTRA-LIGAND FREE ENERGY PREDICTED BY IDOCK:   -2.69 KCAL/MOL
REMARK 927      BINDING AFFINITY PREDICTED BY RF-SCORE:    0.00 PKD
ROOT
HETATM    1  C   UNL     1      -8.314  11.070  66.115  1.00  0.00    -0.163 C  
HETATM    2  C   UNL     1      -9.719  10.718  65.592  1.00  0.00    -0.287 C  
HETATM    3  C   UNL     1     -10.519   9.993  66.702  1.00  0.00    -0.244 C  
ENDROOT
BRANCH   2   4
HETATM    4  C   UNL     1     -10.481  12.023  65.279  1.00  0.00    -0.284 C  
HETATM    5  O   UNL     1      -9.587  13.071  64.912  1.00  0.00    -0.510 OA 
HETATM    6  H   UNL     1     -10.056  13.875  64.720  1.00  0.00     0.000 HD 
ENDBRANCH   2   4
BRANCH   2   7
HETATM    7  C   UNL     1      -9.642   9.833  64.309  1.00  0.00    -0.041 C  
HETATM    8  O   UNL     1      -9.424  10.601  63.113  1.00  0.00    -0.269 OA 
HETATM    9  H   UNL     1      -9.378  10.062  62.333  1.00  0.00     0.000 HD 
BRANCH   7  10
HETATM   10  C   UNL     1      -8.571   8.720  64.346  1.00  0.00    -0.084 C  
HETATM   11  O   UNL     1      -7.501   8.760  63.747  1.00  0.00    -0.103 OA 
HETATM   12  N   UNL     1      -8.900   7.683  65.191  1.00  0.00    -0.372 N  
HETATM   13  H   UNL     1      -9.826   7.654  65.617  1.00  0.00     0.000 HD 
BRANCH  12  14
HETATM   14  C   UNL     1      -7.948   6.634  65.481  1.00  0.00    -0.118 C  
BRANCH  14  15
HETATM   15  C   UNL     1      -6.900   7.039  66.513  1.00  0.00    -0.061 C  
BRANCH  15  16
HETATM   16  C   UNL     1      -7.566   7.129  67.867  1.00  0.00    -0.111 C  
HETATM   17  O   UNL     1      -8.030   8.183  68.291  1.00  0.00    -0.119 OA 
HETATM   18  N   UNL     1      -7.623   5.936  68.550  1.00  0.00    -0.089 N  
HETATM   19  H   UNL     1      -7.249   5.110  68.083  1.00  0.00     0.000 HD 
BRANCH  18  20
HETATM   20  C   UNL     1      -8.179   5.756  69.894  1.00  0.00    -0.115 C  
BRANCH  20  21
HETATM   21  C   UNL     1      -9.490   4.973  70.009  1.00  0.00    -0.166 C  
BRANCH  21  22
HETATM   22  S   UNL     1     -10.280   5.016  71.663  1.00  0.00    -0.194 SA 
BRANCH  22  23
HETATM   23  S   UNL     1      -9.137   6.358  72.730  1.00  0.00    -0.132 SA 
BRANCH  23  24
HETATM   24  C   UNL     1     -10.420   7.341  73.572  1.00  0.00    -0.374 C  
BRANCH  24  25
HETATM   25  C   UNL     1     -11.576   7.668  72.624  1.00  0.00    -0.317 C  
BRANCH  25  26
HETATM   26  N   UNL     1     -11.449   8.939  71.916  1.00  0.00    -0.355 N  
HETATM   27  H   UNL     1     -11.611   9.800  72.438  1.00  0.00     0.000 HD 
HETATM   28  C   UNL     1     -11.121   9.038  70.580  1.00  0.00    -0.254 C  
HETATM   29  O   UNL     1     -10.959   8.071  69.844  1.00  0.00    -0.242 OA 
BRANCH  28  30
HETATM   30  C   UNL     1     -10.932  10.454  70.085  1.00  0.00    -0.365 C  
BRANCH  30  31
HETATM   31  C   UNL     1     -12.038  11.348  70.639  1.00  0.00    -0.372 C  
BRANCH  31  32
HETATM   32  N   UNL     1     -11.747  12.757  70.453  1.00  0.00    -0.541 N  
HETATM   33  H   UNL     1     -11.472  13.313  71.263  1.00  0.00     0.000 HD 
HETATM   34  C   UNL     1     -11.828  13.370  69.225  1.00  0.00    -0.334 C  
HETATM   35  O   UNL     1     -12.237  12.808  68.213  1.00  0.00    -0.197 OA 
BRANCH  34  36
HETATM   36  C   UNL     1     -11.427  14.862  69.241  1.00  0.00    -0.303 C  
HETATM   37  O   UNL     1     -12.513  15.667  68.756  1.00  0.00    -0.528 OA 
HETATM   38  H   UNL     1     -12.266  16.585  68.766  1.00  0.00     0.000 HD 
BRANCH  36  39
HETATM   39  C   UNL     1     -10.135  15.164  68.433  1.00  0.00    -0.225 C  
HETATM   40  C   UNL     1      -9.220  16.155  69.182  1.00  0.00    -0.246 C  
HETATM   41  C   UNL     1      -9.340  13.848  68.256  1.00  0.00    -0.209 C  
BRANCH  39  42
HETATM   42  C   UNL     1     -10.502  15.728  67.039  1.00  0.00    -0.309 C  
HETATM   43  O   UNL     1     -11.461  14.911  66.374  1.00  0.00    -0.344 OA 
HETATM   44  H   UNL     1     -11.686  15.257  65.519  1.00  0.00     0.000 HD 
ENDBRANCH  39  42
ENDBRANCH  36  39
ENDBRANCH  34  36
ENDBRANCH  31  32
ENDBRANCH  30  31
ENDBRANCH  28  30
ENDBRANCH  25  26
ENDBRANCH  24  25
ENDBRANCH  23  24
ENDBRANCH  22  23
ENDBRANCH  21  22
ENDBRANCH  20  21
ENDBRANCH  18  20
ENDBRANCH  15  16
ENDBRANCH  14  15
ENDBRANCH  12  14
ENDBRANCH   7  10
ENDBRANCH   2   7
TORSDOF 19
ENDMDL
MODEL      162
REMARK 921   NORMALIZED FREE ENERGY PREDICTED BY IDOCK:   -4.49 KCAL/MOL
REMARK 922        TOTAL FREE ENERGY PREDICTED BY IDOCK:  -11.66 KCAL/MOL
REMARK 923 INTER-LIGAND FREE ENERGY PREDICTED BY IDOCK:   -9.76 KCAL/MOL
REMARK 924 INTRA-LIGAND FREE ENERGY PREDICTED BY IDOCK:   -1.90 KCAL/MOL
REMARK 927      BINDING AFFINITY PREDICTED BY RF-SCORE:    0.00 PKD
ROOT
HETATM    1  C   UNL     1     -10.619  19.647  67.790  1.00  0.00    -0.530 C  
HETATM    2  C   UNL     1      -9.982  18.582  66.878  1.00  0.00    -0.370 C  
HETATM    3  C   UNL     1     -10.852  18.399  65.609  1.00  0.00     0.055 C  
ENDROOT
BRANCH   2   4
HETATM    4  C   UNL     1      -8.605  19.088  66.399  1.00  0.00    -0.315 C  
HETATM    5  O   UNL     1      -7.879  18.060  65.728  1.00  0.00    -0.534 OA 
HETATM    6  H   UNL     1      -7.031  18.372  65.434  1.00  0.00     0.000 HD 
ENDBRANCH   2   4
BRANCH   2   7
HETATM    7  C   UNL     1      -9.814  17.222  67.624  1.00  0.00    -0.279 C  
HETATM    8  O   UNL     1     -10.579  17.153  68.839  1.00  0.00    -0.337 OA 
HETATM    9  H   UNL     1     -10.477  16.326  69.293  1.00  0.00     0.000 HD 
BRANCH   7  10
HETATM   10  C   UNL     1     -10.160  15.970  66.787  1.00  0.00    -0.268 C  
HETATM   11  O   UNL     1      -9.541  15.601  65.794  1.00  0.00    -0.332 OA 
HETATM   12  N   UNL     1     -11.209  15.246  67.308  1.00  0.00    -0.330 N  
HETATM   13  H   UNL     1     -11.740  15.622  68.094  1.00  0.00     0.000 HD 
BRANCH  12  14
HETATM   14  C   UNL     1     -11.568  13.959  66.755  1.00  0.00    -0.378 C  
BRANCH  14  15
HETATM   15  C   UNL     1     -12.657  14.044  65.689  1.00  0.00    -0.542 C  
BRANCH  15  16
HETATM   16  C   UNL     1     -12.074  13.599  64.367  1.00  0.00    -0.427 C  
HETATM   17  O   UNL     1     -12.660  13.788  63.306  1.00  0.00    -0.830 OA 
HETATM   18  N   UNL     1     -10.839  13.001  64.465  1.00  0.00    -0.349 N  
HETATM   19  H   UNL     1     -10.421  12.939  65.393  1.00  0.00     0.000 HD 
BRANCH  18  20
HETATM   20  C   UNL     1     -10.075  12.447  63.344  1.00  0.00    -0.119 C  
BRANCH  20  21
HETATM   21  C   UNL     1     -10.074  10.924  63.185  1.00  0.00    -0.264 C  
BRANCH  21  22
HETATM   22  S   UNL     1      -9.315   9.996  64.574  1.00  0.00    -0.286 SA 
BRANCH  22  23
HETATM   23  S   UNL     1      -7.313   9.924  64.092  1.00  0.00    -0.133 SA 
BRANCH  23  24
HETATM   24  C   UNL     1      -7.215   8.351  63.176  1.00  0.00    -0.093 C  
BRANCH  24  25
HETATM   25  C   UNL     1      -7.790   7.196  63.998  1.00  0.00    -0.113 C  
BRANCH  25  26
HETATM   26  N   UNL     1      -7.211   7.043  65.331  1.00  0.00    -0.071 N  
HETATM   27  H   UNL     1      -6.231   7.294  65.462  1.00  0.00     0.000 HD 
HETATM   28  C   UNL     1      -7.917   6.579  66.421  1.00  0.00    -0.110 C  
HETATM   29  O   UNL     1      -9.081   6.197  66.367  1.00  0.00    -0.142 OA 
BRANCH  28  30
HETATM   30  C   UNL     1      -7.150   6.612  67.723  1.00  0.00    -0.085 C  
BRANCH  30  31
HETATM   31  C   UNL     1      -8.052   6.155  68.866  1.00  0.00    -0.108 C  
BRANCH  31  32
HETATM   32  N   UNL     1      -9.202   7.022  69.036  1.00  0.00    -0.138 N  
HETATM   33  H   UNL     1     -10.054   6.816  68.514  1.00  0.00     0.000 HD 
HETATM   34  C   UNL     1      -9.186   8.112  69.874  1.00  0.00    -0.151 C  
HETATM   35  O   UNL     1      -8.183   8.492  70.471  1.00  0.00    -0.100 OA 
BRANCH  34  36
HETATM   36  C   UNL     1     -10.532   8.868  69.945  1.00  0.00    -0.214 C  
HETATM   37  O   UNL     1     -11.619   7.956  69.725  1.00  0.00    -0.443 OA 
HETATM   38  H   UNL     1     -12.446   8.422  69.769  1.00  0.00     0.000 HD 
BRANCH  36  39
HETATM   39  C   UNL     1     -10.624  10.060  68.952  1.00  0.00    -0.239 C  
HETATM   40  C   UNL     1      -9.261  10.764  68.787  1.00  0.00    -0.192 C  
HETATM   41  C   UNL     1     -11.033   9.518  67.562  1.00  0.00    -0.125 C  
BRANCH  39  42
HETATM   42  C   UNL     1     -11.690  11.072  69.438  1.00  0.00    -0.323 C  
HETATM   43  O   UNL     1     -12.869  10.419  69.895  1.00  0.00    -0.543 OA 
HETATM   44  H   UNL     1     -13.523  11.040  70.194  1.00  0.00     0.000 HD 
ENDBRANCH  39  42
ENDBRANCH  36  39
ENDBRANCH  34  36
ENDBRANCH  31  32
ENDBRANCH  30  31
ENDBRANCH  28  30
ENDBRANCH  25  26
ENDBRANCH  24  25
ENDBRANCH  23  24
ENDBRANCH  22  23
ENDBRANCH  21  22
ENDBRANCH  20  21
ENDBRANCH  18  20
ENDBRANCH  15  16
ENDBRANCH  14  15
ENDBRANCH  12  14
ENDBRANCH   7  10
ENDBRANCH   2   7
TORSDOF 19
ENDMDL
MODEL      163
REMARK 921   NORMALIZED FREE ENERGY PREDICTED BY IDOCK:   -4.48 KCAL/MOL
REMARK 922        TOTAL FREE ENERGY PREDICTED BY IDOCK:  -11.64 KCAL/MOL
REMARK 923 INTER-LIGAND FREE ENERGY PREDICTED BY IDOCK:   -8.85 KCAL/MOL
REMARK 924 INTRA-LIGAND FREE ENERGY PREDICTED BY IDOCK:   -2.79 KCAL/MOL
REMARK 927      BINDING AFFINITY PREDICTED BY RF-SCORE:    0.00 PKD
ROOT
HETATM    1  C   UNL     1     -10.721  14.321  64.527  1.00  0.00    -0.280 C  
HETATM    2  C   UNL     1     -11.624  13.133  64.907  1.00  0.00    -0.356 C  
HETATM    3  C   UNL     1     -12.866  13.650  65.675  1.00  0.00    -0.425 C  
ENDROOT
BRANCH   2   4
HETATM    4  C   UNL     1     -12.148  12.468  63.617  1.00  0.00    -0.554 C  
HETATM    5  O   UNL     1     -11.282  11.422  63.183  1.00  0.00    -0.808 OA 
HETATM    6  H   UNL     1     -11.605  11.013  62.389  1.00  0.00     0.000 HD 
ENDBRANCH   2   4
BRANCH   2   7
HETATM    7  C   UNL     1     -10.851  12.083  65.764  1.00  0.00    -0.287 C  
HETATM    8  O   UNL     1      -9.465  11.973  65.397  1.00  0.00    -0.387 OA 
HETATM    9  H   UNL     1      -8.995  11.335  65.919  1.00  0.00     0.000 HD 
BRANCH   7  10
HETATM   10  C   UNL     1     -10.909  12.315  67.290  1.00  0.00    -0.245 C  
HETATM   11  O   UNL     1     -10.464  13.306  67.863  1.00  0.00    -0.230 OA 
HETATM   12  N   UNL     1     -11.585  11.322  67.962  1.00  0.00    -0.290 N  
HETATM   13  H   UNL     1     -11.880  10.484  67.460  1.00  0.00     0.000 HD 
BRANCH  12  14
HETATM   14  C   UNL     1     -11.883  11.451  69.372  1.00  0.00    -0.351 C  
BRANCH  14  15
HETATM   15  C   UNL     1     -11.798  10.129  70.128  1.00  0.00    -0.299 C  
BRANCH  15  16
HETATM   16  C   UNL     1     -10.343   9.821  70.401  1.00  0.00    -0.293 C  
HETATM   17  O   UNL     1      -9.440  10.329  69.744  1.00  0.00    -0.191 OA 
HETATM   18  N   UNL     1     -10.134   8.957  71.451  1.00  0.00    -0.280 N  
HETATM   19  H   UNL     1     -10.955   8.631  71.960  1.00  0.00     0.000 HD 
BRANCH  18  20
HETATM   20  C   UNL     1      -8.827   8.466  71.897  1.00  0.00    -0.203 C  
BRANCH  20  21
HETATM   21  C   UNL     1      -8.031   7.606  70.911  1.00  0.00    -0.094 C  
BRANCH  21  22
HETATM   22  S   UNL     1      -7.477   5.984  71.565  1.00  0.00    -0.095 SA 
BRANCH  22  23
HETATM   23  S   UNL     1      -8.916   5.486  72.953  1.00  0.00    -0.122 SA 
BRANCH  23  24
HETATM   24  C   UNL     1     -10.352   5.147  71.883  1.00  0.00    -0.212 C  
BRANCH  24  25
HETATM   25  C   UNL     1      -9.932   4.403  70.614  1.00  0.00    -0.183 C  
BRANCH  25  26
HETATM   26  N   UNL     1     -10.160   5.134  69.370  1.00  0.00    -0.225 N  
HETATM   27  H   UNL     1      -9.595   4.889  68.556  1.00  0.00     0.000 HD 
HETATM   28  C   UNL     1     -11.098   6.137  69.235  1.00  0.00    -0.393 C  
HETATM   29  O   UNL     1     -11.791   6.550  70.158  1.00  0.00    -0.416 OA 
BRANCH  28  30
HETATM   30  C   UNL     1     -11.240   6.675  67.830  1.00  0.00    -0.244 C  
BRANCH  30  31
HETATM   31  C   UNL     1     -10.660   5.678  66.832  1.00  0.00    -0.296 C  
BRANCH  31  32
HETATM   32  N   UNL     1      -9.637   6.276  65.993  1.00  0.00    -0.377 N  
HETATM   33  H   UNL     1      -9.898   6.617  65.068  1.00  0.00     0.000 HD 
HETATM   34  C   UNL     1      -8.329   6.397  66.401  1.00  0.00    -0.119 C  
HETATM   35  O   UNL     1      -7.902   5.935  67.455  1.00  0.00    -0.100 OA 
BRANCH  34  36
HETATM   36  C   UNL     1      -7.418   7.109  65.376  1.00  0.00    -0.087 C  
HETATM   37  O   UNL     1      -6.191   6.378  65.221  1.00  0.00    -0.029 OA 
HETATM   38  H   UNL     1      -5.630   6.816  64.591  1.00  0.00     0.000 HD 
BRANCH  36  39
HETATM   39  C   UNL     1      -7.116   8.589  65.740  1.00  0.00    -0.075 C  
HETATM   40  C   UNL     1      -7.149   9.495  64.491  1.00  0.00    -0.107 C  
HETATM   41  C   UNL     1      -8.213   9.097  66.705  1.00  0.00    -0.119 C  
BRANCH  39  42
HETATM   42  C   UNL     1      -5.738   8.692  66.436  1.00  0.00    -0.047 C  
HETATM   43  O   UNL     1      -5.754   8.104  67.732  1.00  0.00    -0.037 OA 
HETATM   44  H   UNL     1      -4.908   8.167  68.160  1.00  0.00     0.000 HD 
ENDBRANCH  39  42
ENDBRANCH  36  39
ENDBRANCH  34  36
ENDBRANCH  31  32
ENDBRANCH  30  31
ENDBRANCH  28  30
ENDBRANCH  25  26
ENDBRANCH  24  25
ENDBRANCH  23  24
ENDBRANCH  22  23
ENDBRANCH  21  22
ENDBRANCH  20  21
ENDBRANCH  18  20
ENDBRANCH  15  16
ENDBRANCH  14  15
ENDBRANCH  12  14
ENDBRANCH   7  10
ENDBRANCH   2   7
TORSDOF 19
ENDMDL
MODEL      164
REMARK 921   NORMALIZED FREE ENERGY PREDICTED BY IDOCK:   -4.48 KCAL/MOL
REMARK 922        TOTAL FREE ENERGY PREDICTED BY IDOCK:  -11.64 KCAL/MOL
REMARK 923 INTER-LIGAND FREE ENERGY PREDICTED BY IDOCK:   -9.94 KCAL/MOL
REMARK 924 INTRA-LIGAND FREE ENERGY PREDICTED BY IDOCK:   -1.70 KCAL/MOL
REMARK 927      BINDING AFFINITY PREDICTED BY RF-SCORE:    0.00 PKD
ROOT
HETATM    1  C   UNL     1      -9.175   7.931  72.922  1.00  0.00    -0.297 C  
HETATM    2  C   UNL     1     -10.089   7.041  72.061  1.00  0.00    -0.201 C  
HETATM    3  C   UNL     1      -9.246   6.329  70.974  1.00  0.00    -0.160 C  
ENDROOT
BRANCH   2   4
HETATM    4  C   UNL     1     -10.692   5.931  72.948  1.00  0.00    -0.249 C  
HETATM    5  O   UNL     1     -12.089   5.777  72.709  1.00  0.00    -0.543 OA 
HETATM    6  H   UNL     1     -12.460   5.095  73.256  1.00  0.00     0.000 HD 
ENDBRANCH   2   4
BRANCH   2   7
HETATM    7  C   UNL     1     -11.236   7.871  71.404  1.00  0.00    -0.247 C  
HETATM    8  O   UNL     1     -11.887   8.755  72.332  1.00  0.00    -0.357 OA 
HETATM    9  H   UNL     1     -12.585   9.260  71.933  1.00  0.00     0.000 HD 
BRANCH   7  10
HETATM   10  C   UNL     1     -10.814   8.713  70.180  1.00  0.00    -0.233 C  
HETATM   11  O   UNL     1     -10.166   9.754  70.238  1.00  0.00    -0.261 OA 
HETATM   12  N   UNL     1     -11.176   8.142  68.980  1.00  0.00    -0.306 N  
HETATM   13  H   UNL     1     -11.772   7.313  68.976  1.00  0.00     0.000 HD 
BRANCH  12  14
HETATM   14  C   UNL     1     -10.724   8.701  67.726  1.00  0.00    -0.110 C  
BRANCH  14  15
HETATM   15  C   UNL     1      -9.901   7.724  66.893  1.00  0.00    -0.305 C  
BRANCH  15  16
HETATM   16  C   UNL     1      -8.752   8.477  66.260  1.00  0.00    -0.142 C  
HETATM   17  O   UNL     1      -7.962   9.135  66.929  1.00  0.00    -0.103 OA 
HETATM   18  N   UNL     1      -8.666   8.334  64.894  1.00  0.00    -0.395 N  
HETATM   19  H   UNL     1      -9.348   7.724  64.443  1.00  0.00     0.000 HD 
BRANCH  18  20
HETATM   20  C   UNL     1      -7.674   8.986  64.035  1.00  0.00    -0.125 C  
BRANCH  20  21
HETATM   21  C   UNL     1      -7.933  10.446  63.653  1.00  0.00    -0.092 C  
BRANCH  21  22
HETATM   22  S   UNL     1      -9.605  10.791  62.982  1.00  0.00    -0.356 SA 
BRANCH  22  23
HETATM   23  S   UNL     1     -10.497  11.950  64.434  1.00  0.00    -0.338 SA 
BRANCH  23  24
HETATM   24  C   UNL     1     -11.943  12.606  63.538  1.00  0.00    -0.548 C  
BRANCH  24  25
HETATM   25  C   UNL     1     -12.358  13.974  64.084  1.00  0.00    -0.332 C  
BRANCH  25  26
HETATM   26  N   UNL     1     -11.348  14.639  64.906  1.00  0.00    -0.385 N  
HETATM   27  H   UNL     1     -10.803  14.069  65.553  1.00  0.00     0.000 HD 
HETATM   28  C   UNL     1     -11.093  15.993  64.854  1.00  0.00    -0.370 C  
HETATM   29  O   UNL     1     -11.724  16.779  64.156  1.00  0.00    -1.033 OA 
BRANCH  28  30
HETATM   30  C   UNL     1      -9.929  16.443  65.707  1.00  0.00    -0.331 C  
BRANCH  30  31
HETATM   31  C   UNL     1      -9.051  15.247  66.059  1.00  0.00    -0.209 C  
BRANCH  31  32
HETATM   32  N   UNL     1      -9.648  14.413  67.085  1.00  0.00    -0.243 N  
HETATM   33  H   UNL     1     -10.388  13.763  66.822  1.00  0.00     0.000 HD 
HETATM   34  C   UNL     1      -9.252  14.468  68.401  1.00  0.00    -0.196 C  
HETATM   35  O   UNL     1      -8.437  15.280  68.830  1.00  0.00    -0.157 OA 
BRANCH  34  36
HETATM   36  C   UNL     1      -9.980  13.460  69.318  1.00  0.00     0.469 C  
HETATM   37  O   UNL     1      -9.958  12.152  68.724  1.00  0.00    -0.366 OA 
HETATM   38  H   UNL     1     -10.407  11.533  69.288  1.00  0.00     0.000 HD 
BRANCH  36  39
HETATM   39  C   UNL     1     -11.442  13.872  69.651  1.00  0.00    -0.310 C  
HETATM   40  C   UNL     1     -12.090  12.892  70.650  1.00  0.00    -0.321 C  
HETATM   41  C   UNL     1     -11.425  15.267  70.319  1.00  0.00    -0.326 C  
BRANCH  39  42
HETATM   42  C   UNL     1     -12.280  13.939  68.352  1.00  0.00    -0.159 C  
HETATM   43  O   UNL     1     -12.323  15.258  67.817  1.00  0.00    -0.301 OA 
HETATM   44  H   UNL     1     -12.838  15.300  67.020  1.00  0.00     0.000 HD 
ENDBRANCH  39  42
ENDBRANCH  36  39
ENDBRANCH  34  36
ENDBRANCH  31  32
ENDBRANCH  30  31
ENDBRANCH  28  30
ENDBRANCH  25  26
ENDBRANCH  24  25
ENDBRANCH  23  24
ENDBRANCH  22  23
ENDBRANCH  21  22
ENDBRANCH  20  21
ENDBRANCH  18  20
ENDBRANCH  15  16
ENDBRANCH  14  15
ENDBRANCH  12  14
ENDBRANCH   7  10
ENDBRANCH   2   7
TORSDOF 19
ENDMDL
MODEL      165
REMARK 921   NORMALIZED FREE ENERGY PREDICTED BY IDOCK:   -4.48 KCAL/MOL
REMARK 922        TOTAL FREE ENERGY PREDICTED BY IDOCK:  -11.64 KCAL/MOL
REMARK 923 INTER-LIGAND FREE ENERGY PREDICTED BY IDOCK:   -9.25 KCAL/MOL
REMARK 924 INTRA-LIGAND FREE ENERGY PREDICTED BY IDOCK:   -2.39 KCAL/MOL
REMARK 927      BINDING AFFINITY PREDICTED BY RF-SCORE:    0.00 PKD
ROOT
HETATM    1  C   UNL     1      -9.343   7.913  73.235  1.00  0.00    -0.351 C  
HETATM    2  C   UNL     1      -9.213   6.622  72.404  1.00  0.00    -0.140 C  
HETATM    3  C   UNL     1      -8.261   6.869  71.208  1.00  0.00    -0.114 C  
ENDROOT
BRANCH   2   4
HETATM    4  C   UNL     1      -8.557   5.529  73.273  1.00  0.00    -0.116 C  
HETATM    5  O   UNL     1      -9.509   4.908  74.133  1.00  0.00    -0.120 OA 
HETATM    6  H   UNL     1      -9.105   4.235  74.668  1.00  0.00     0.000 HD 
ENDBRANCH   2   4
BRANCH   2   7
HETATM    7  C   UNL     1     -10.606   6.129  71.900  1.00  0.00    -0.220 C  
HETATM    8  O   UNL     1     -11.639   6.267  72.890  1.00  0.00    -0.466 OA 
HETATM    9  H   UNL     1     -12.486   5.967  72.583  1.00  0.00     0.000 HD 
BRANCH   7  10
HETATM   10  C   UNL     1     -11.109   6.807  70.606  1.00  0.00    -0.291 C  
HETATM   11  O   UNL     1     -11.474   7.976  70.527  1.00  0.00    -0.264 OA 
HETATM   12  N   UNL     1     -11.043   5.984  69.504  1.00  0.00    -0.403 N  
HETATM   13  H   UNL     1     -10.799   5.000  69.624  1.00  0.00     0.000 HD 
BRANCH  12  14
HETATM   14  C   UNL     1     -11.316   6.495  68.180  1.00  0.00     0.002 C  
BRANCH  14  15
HETATM   15  C   UNL     1     -10.604   5.720  67.076  1.00  0.00    -0.373 C  
BRANCH  15  16
HETATM   16  C   UNL     1      -9.234   6.325  66.867  1.00  0.00    -0.130 C  
HETATM   17  O   UNL     1      -8.308   6.115  67.645  1.00  0.00    -0.112 OA 
HETATM   18  N   UNL     1      -9.123   7.095  65.732  1.00  0.00    -0.375 N  
HETATM   19  H   UNL     1      -9.943   7.163  65.130  1.00  0.00     0.000 HD 
BRANCH  18  20
HETATM   20  C   UNL     1      -7.921   7.823  65.318  1.00  0.00    -0.127 C  
BRANCH  20  21
HETATM   21  C   UNL     1      -7.709   9.218  65.913  1.00  0.00    -0.098 C  
BRANCH  21  22
HETATM   22  S   UNL     1      -9.214  10.263  66.003  1.00  0.00    -0.173 SA 
BRANCH  22  23
HETATM   23  S   UNL     1      -9.854  10.052  67.950  1.00  0.00    -0.150 SA 
BRANCH  23  24
HETATM   24  C   UNL     1     -11.378  11.052  67.942  1.00  0.00    -0.311 C  
BRANCH  24  25
HETATM   25  C   UNL     1     -11.136  12.434  68.553  1.00  0.00    -0.258 C  
BRANCH  25  26
HETATM   26  N   UNL     1      -9.745  12.880  68.529  1.00  0.00    -0.370 N  
HETATM   27  H   UNL     1      -9.119  12.543  69.261  1.00  0.00     0.000 HD 
HETATM   28  C   UNL     1      -9.233  13.731  67.572  1.00  0.00    -0.216 C  
HETATM   29  O   UNL     1      -9.905  14.239  66.682  1.00  0.00    -0.262 OA 
BRANCH  28  30
HETATM   30  C   UNL     1      -7.743  13.967  67.677  1.00  0.00    -0.193 C  
BRANCH  30  31
HETATM   31  C   UNL     1      -7.468  15.116  68.642  1.00  0.00    -0.124 C  
BRANCH  31  32
HETATM   32  N   UNL     1      -8.406  16.210  68.472  1.00  0.00    -0.185 N  
HETATM   33  H   UNL     1      -9.350  16.001  68.146  1.00  0.00     0.000 HD 
HETATM   34  C   UNL     1      -8.068  17.517  68.734  1.00  0.00    -0.232 C  
HETATM   35  O   UNL     1      -6.935  17.875  69.040  1.00  0.00    -0.255 OA 
BRANCH  34  36
HETATM   36  C   UNL     1      -9.230  18.516  68.536  1.00  0.00    -0.335 C  
HETATM   37  O   UNL     1     -10.475  17.898  68.896  1.00  0.00    -0.378 OA 
HETATM   38  H   UNL     1     -11.189  18.512  68.774  1.00  0.00     0.000 HD 
BRANCH  36  39
HETATM   39  C   UNL     1      -9.314  19.088  67.093  1.00  0.00    -0.345 C  
HETATM   40  C   UNL     1      -9.728  20.574  67.100  1.00  0.00    -0.581 C  
HETATM   41  C   UNL     1      -7.914  19.003  66.442  1.00  0.00    -0.300 C  
BRANCH  39  42
HETATM   42  C   UNL     1     -10.317  18.260  66.254  1.00  0.00    -0.405 C  
HETATM   43  O   UNL     1      -9.763  17.015  65.844  1.00  0.00    -0.479 OA 
HETATM   44  H   UNL     1     -10.378  16.507  65.329  1.00  0.00     0.000 HD 
ENDBRANCH  39  42
ENDBRANCH  36  39
ENDBRANCH  34  36
ENDBRANCH  31  32
ENDBRANCH  30  31
ENDBRANCH  28  30
ENDBRANCH  25  26
ENDBRANCH  24  25
ENDBRANCH  23  24
ENDBRANCH  22  23
ENDBRANCH  21  22
ENDBRANCH  20  21
ENDBRANCH  18  20
ENDBRANCH  15  16
ENDBRANCH  14  15
ENDBRANCH  12  14
ENDBRANCH   7  10
ENDBRANCH   2   7
TORSDOF 19
ENDMDL
MODEL      166
REMARK 921   NORMALIZED FREE ENERGY PREDICTED BY IDOCK:   -4.46 KCAL/MOL
REMARK 922        TOTAL FREE ENERGY PREDICTED BY IDOCK:  -11.59 KCAL/MOL
REMARK 923 INTER-LIGAND FREE ENERGY PREDICTED BY IDOCK:  -10.04 KCAL/MOL
REMARK 924 INTRA-LIGAND FREE ENERGY PREDICTED BY IDOCK:   -1.55 KCAL/MOL
REMARK 927      BINDING AFFINITY PREDICTED BY RF-SCORE:    0.00 PKD
ROOT
HETATM    1  C   UNL     1     -11.517   5.414  72.753  1.00  0.00    -0.333 C  
HETATM    2  C   UNL     1     -11.380   6.656  71.853  1.00  0.00    -0.318 C  
HETATM    3  C   UNL     1     -12.634   6.787  70.955  1.00  0.00    -0.199 C  
ENDROOT
BRANCH   2   4
HETATM    4  C   UNL     1     -11.338   7.919  72.741  1.00  0.00    -0.393 C  
HETATM    5  O   UNL     1     -12.652   8.372  73.059  1.00  0.00    -0.676 OA 
HETATM    6  H   UNL     1     -12.626   9.149  73.605  1.00  0.00     0.000 HD 
ENDBRANCH   2   4
BRANCH   2   7
HETATM    7  C   UNL     1     -10.088   6.585  70.979  1.00  0.00    -0.184 C  
HETATM    8  O   UNL     1      -8.910   6.288  71.748  1.00  0.00    -0.137 OA 
HETATM    9  H   UNL     1      -8.125   6.244  71.216  1.00  0.00     0.000 HD 
BRANCH   7  10
HETATM   10  C   UNL     1     -10.146   5.576  69.811  1.00  0.00    -0.232 C  
HETATM   11  O   UNL     1     -10.140   4.355  69.941  1.00  0.00    -0.222 OA 
HETATM   12  N   UNL     1     -10.282   6.181  68.581  1.00  0.00    -0.164 N  
HETATM   13  H   UNL     1     -10.215   7.197  68.509  1.00  0.00     0.000 HD 
BRANCH  12  14
HETATM   14  C   UNL     1     -10.517   5.396  67.390  1.00  0.00    -0.189 C  
BRANCH  14  15
HETATM   15  C   UNL     1      -9.240   5.067  66.623  1.00  0.00    -0.129 C  
BRANCH  15  16
HETATM   16  C   UNL     1      -8.442   6.340  66.447  1.00  0.00    -0.125 C  
HETATM   17  O   UNL     1      -7.502   6.621  67.184  1.00  0.00    -0.084 OA 
HETATM   18  N   UNL     1      -8.845   7.118  65.387  1.00  0.00    -0.374 N  
HETATM   19  H   UNL     1      -9.607   6.765  64.809  1.00  0.00     0.000 HD 
BRANCH  18  20
HETATM   20  C   UNL     1      -8.268   8.414  65.021  1.00  0.00    -0.153 C  
BRANCH  20  21
HETATM   21  C   UNL     1      -8.607   9.609  65.917  1.00  0.00    -0.134 C  
BRANCH  21  22
HETATM   22  S   UNL     1     -10.196   9.475  66.825  1.00  0.00    -0.230 SA 
BRANCH  22  23
HETATM   23  S   UNL     1     -10.659  11.422  67.312  1.00  0.00    -0.241 SA 
BRANCH  23  24
HETATM   24  C   UNL     1     -10.624  11.360  69.134  1.00  0.00    -0.160 C  
BRANCH  24  25
HETATM   25  C   UNL     1     -11.962  11.806  69.728  1.00  0.00    -0.322 C  
BRANCH  25  26
HETATM   26  N   UNL     1     -11.905  13.038  70.511  1.00  0.00    -0.537 N  
HETATM   27  H   UNL     1     -11.249  13.763  70.222  1.00  0.00     0.000 HD 
HETATM   28  C   UNL     1     -12.691  13.274  71.620  1.00  0.00    -0.230 C  
HETATM   29  O   UNL     1     -13.472  12.453  72.090  1.00  0.00    -0.525 OA 
BRANCH  28  30
HETATM   30  C   UNL     1     -12.546  14.660  72.206  1.00  0.00    -0.401 C  
BRANCH  30  31
HETATM   31  C   UNL     1     -12.973  15.703  71.179  1.00  0.00    -0.478 C  
BRANCH  31  32
HETATM   32  N   UNL     1     -11.838  16.398  70.600  1.00  0.00    -0.448 N  
HETATM   33  H   UNL     1     -11.362  17.109  71.155  1.00  0.00     0.000 HD 
HETATM   34  C   UNL     1     -11.382  16.133  69.330  1.00  0.00    -0.323 C  
HETATM   35  O   UNL     1     -11.943  15.364  68.555  1.00  0.00    -0.316 OA 
BRANCH  34  36
HETATM   36  C   UNL     1     -10.132  16.948  68.931  1.00  0.00    -0.297 C  
HETATM   37  O   UNL     1     -10.484  17.939  67.953  1.00  0.00    -0.372 OA 
HETATM   38  H   UNL     1      -9.715  18.440  67.707  1.00  0.00     0.000 HD 
BRANCH  36  39
HETATM   39  C   UNL     1      -8.963  16.069  68.404  1.00  0.00    -0.188 C  
HETATM   40  C   UNL     1      -9.002  15.939  66.868  1.00  0.00    -0.257 C  
HETATM   41  C   UNL     1      -7.624  16.749  68.775  1.00  0.00    -0.240 C  
BRANCH  39  42
HETATM   42  C   UNL     1      -9.019  14.668  69.058  1.00  0.00    -0.093 C  
HETATM   43  O   UNL     1      -7.722  14.188  69.395  1.00  0.00    -0.338 OA 
HETATM   44  H   UNL     1      -7.756  13.327  69.796  1.00  0.00     0.000 HD 
ENDBRANCH  39  42
ENDBRANCH  36  39
ENDBRANCH  34  36
ENDBRANCH  31  32
ENDBRANCH  30  31
ENDBRANCH  28  30
ENDBRANCH  25  26
ENDBRANCH  24  25
ENDBRANCH  23  24
ENDBRANCH  22  23
ENDBRANCH  21  22
ENDBRANCH  20  21
ENDBRANCH  18  20
ENDBRANCH  15  16
ENDBRANCH  14  15
ENDBRANCH  12  14
ENDBRANCH   7  10
ENDBRANCH   2   7
TORSDOF 19
ENDMDL
MODEL      167
REMARK 921   NORMALIZED FREE ENERGY PREDICTED BY IDOCK:   -4.45 KCAL/MOL
REMARK 922        TOTAL FREE ENERGY PREDICTED BY IDOCK:  -11.58 KCAL/MOL
REMARK 923 INTER-LIGAND FREE ENERGY PREDICTED BY IDOCK:  -10.13 KCAL/MOL
REMARK 924 INTRA-LIGAND FREE ENERGY PREDICTED BY IDOCK:   -1.45 KCAL/MOL
REMARK 927      BINDING AFFINITY PREDICTED BY RF-SCORE:    0.00 PKD
ROOT
HETATM    1  C   UNL     1     -10.657   7.438  67.698  1.00  0.00    -0.309 C  
HETATM    2  C   UNL     1      -9.835   6.507  68.608  1.00  0.00    -0.143 C  
HETATM    3  C   UNL     1      -9.039   5.501  67.739  1.00  0.00    -0.107 C  
ENDROOT
BRANCH   2   4
HETATM    4  C   UNL     1      -8.793   7.346  69.378  1.00  0.00    -0.137 C  
HETATM    5  O   UNL     1      -8.014   6.533  70.251  1.00  0.00    -0.111 OA 
HETATM    6  H   UNL     1      -7.373   7.050  70.725  1.00  0.00     0.000 HD 
ENDBRANCH   2   4
BRANCH   2   7
HETATM    7  C   UNL     1     -10.750   5.747  69.619  1.00  0.00    -0.346 C  
HETATM    8  O   UNL     1     -10.134   4.560  70.147  1.00  0.00    -0.229 OA 
HETATM    9  H   UNL     1     -10.691   4.098  70.762  1.00  0.00     0.000 HD 
BRANCH   7  10
HETATM   10  C   UNL     1     -11.236   6.590  70.820  1.00  0.00    -0.321 C  
HETATM   11  O   UNL     1     -10.833   6.461  71.972  1.00  0.00    -0.224 OA 
HETATM   12  N   UNL     1     -12.132   7.572  70.462  1.00  0.00    -0.521 N  
HETATM   13  H   UNL     1     -12.492   7.603  69.508  1.00  0.00     0.000 HD 
BRANCH  12  14
HETATM   14  C   UNL     1     -12.569   8.562  71.422  1.00  0.00    -0.283 C  
BRANCH  14  15
HETATM   15  C   UNL     1     -11.608   9.739  71.553  1.00  0.00    -0.424 C  
BRANCH  15  16
HETATM   16  C   UNL     1     -11.334  10.295  70.174  1.00  0.00    -0.316 C  
HETATM   17  O   UNL     1     -12.241  10.585  69.401  1.00  0.00    -0.193 OA 
HETATM   18  N   UNL     1      -9.998  10.465  69.888  1.00  0.00    -0.420 N  
HETATM   19  H   UNL     1      -9.329  10.237  70.622  1.00  0.00     0.000 HD 
BRANCH  18  20
HETATM   20  C   UNL     1      -9.461  10.949  68.614  1.00  0.00    -0.190 C  
BRANCH  20  21
HETATM   21  C   UNL     1      -7.962  10.753  68.368  1.00  0.00    -0.124 C  
BRANCH  21  22
HETATM   22  S   UNL     1      -7.409  11.059  66.647  1.00  0.00    -0.140 SA 
BRANCH  22  23
HETATM   23  S   UNL     1      -7.789   9.281  65.675  1.00  0.00    -0.100 SA 
BRANCH  23  24
HETATM   24  C   UNL     1      -9.396   9.633  64.889  1.00  0.00    -0.242 C  
BRANCH  24  25
HETATM   25  C   UNL     1      -9.370  10.975  64.154  1.00  0.00    -0.210 C  
BRANCH  25  26
HETATM   26  N   UNL     1     -10.581  11.778  64.299  1.00  0.00    -0.307 N  
HETATM   27  H   UNL     1     -11.369  11.576  63.683  1.00  0.00     0.000 HD 
HETATM   28  C   UNL     1     -10.719  12.793  65.222  1.00  0.00    -0.294 C  
HETATM   29  O   UNL     1      -9.820  13.158  65.973  1.00  0.00    -0.280 OA 
BRANCH  28  30
HETATM   30  C   UNL     1     -12.097  13.412  65.272  1.00  0.00    -0.446 C  
BRANCH  30  31
HETATM   31  C   UNL     1     -12.098  14.733  64.509  1.00  0.00    -0.446 C  
BRANCH  31  32
HETATM   32  N   UNL     1     -10.895  15.507  64.752  1.00  0.00    -0.608 N  
HETATM   33  H   UNL     1     -10.199  15.579  64.009  1.00  0.00     0.000 HD 
HETATM   34  C   UNL     1     -10.659  16.145  65.946  1.00  0.00    -0.312 C  
HETATM   35  O   UNL     1     -11.390  16.042  66.926  1.00  0.00    -0.028 OA 
BRANCH  34  36
HETATM   36  C   UNL     1      -9.343  16.954  65.975  1.00  0.00    -0.179 C  
HETATM   37  O   UNL     1      -8.356  16.260  66.754  1.00  0.00    -0.199 OA 
HETATM   38  H   UNL     1      -7.547  16.757  66.772  1.00  0.00     0.000 HD 
BRANCH  36  39
HETATM   39  C   UNL     1      -9.520  18.404  66.505  1.00  0.00    -0.317 C  
HETATM   40  C   UNL     1     -10.721  19.106  65.838  1.00  0.00    -0.435 C  
HETATM   41  C   UNL     1      -9.805  18.347  68.024  1.00  0.00    -0.359 C  
BRANCH  39  42
HETATM   42  C   UNL     1      -8.226  19.218  66.260  1.00  0.00    -0.318 C  
HETATM   43  O   UNL     1      -8.357  20.566  66.701  1.00  0.00    -0.516 OA 
HETATM   44  H   UNL     1      -7.563  21.065  66.551  1.00  0.00     0.000 HD 
ENDBRANCH  39  42
ENDBRANCH  36  39
ENDBRANCH  34  36
ENDBRANCH  31  32
ENDBRANCH  30  31
ENDBRANCH  28  30
ENDBRANCH  25  26
ENDBRANCH  24  25
ENDBRANCH  23  24
ENDBRANCH  22  23
ENDBRANCH  21  22
ENDBRANCH  20  21
ENDBRANCH  18  20
ENDBRANCH  15  16
ENDBRANCH  14  15
ENDBRANCH  12  14
ENDBRANCH   7  10
ENDBRANCH   2   7
TORSDOF 19
ENDMDL
MODEL      168
REMARK 921   NORMALIZED FREE ENERGY PREDICTED BY IDOCK:   -4.45 KCAL/MOL
REMARK 922        TOTAL FREE ENERGY PREDICTED BY IDOCK:  -11.57 KCAL/MOL
REMARK 923 INTER-LIGAND FREE ENERGY PREDICTED BY IDOCK:   -9.69 KCAL/MOL
REMARK 924 INTRA-LIGAND FREE ENERGY PREDICTED BY IDOCK:   -1.88 KCAL/MOL
REMARK 927      BINDING AFFINITY PREDICTED BY RF-SCORE:    0.00 PKD
ROOT
HETATM    1  C   UNL     1     -10.636   8.897  69.572  1.00  0.00    -0.233 C  
HETATM    2  C   UNL     1     -10.945   8.597  71.050  1.00  0.00    -0.314 C  
HETATM    3  C   UNL     1      -9.662   8.788  71.897  1.00  0.00    -0.386 C  
ENDROOT
BRANCH   2   4
HETATM    4  C   UNL     1     -11.973   9.626  71.568  1.00  0.00    -0.406 C  
HETATM    5  O   UNL     1     -13.000   9.862  70.608  1.00  0.00    -0.543 OA 
HETATM    6  H   UNL     1     -13.632  10.496  70.926  1.00  0.00     0.000 HD 
ENDBRANCH   2   4
BRANCH   2   7
HETATM    7  C   UNL     1     -11.509   7.153  71.232  1.00  0.00    -0.282 C  
HETATM    8  O   UNL     1     -12.712   6.925  70.478  1.00  0.00    -0.569 OA 
HETATM    9  H   UNL     1     -13.055   6.047  70.588  1.00  0.00     0.000 HD 
BRANCH   7  10
HETATM   10  C   UNL     1     -10.521   6.018  70.884  1.00  0.00    -0.236 C  
HETATM   11  O   UNL     1      -9.900   5.355  71.709  1.00  0.00    -0.164 OA 
HETATM   12  N   UNL     1     -10.451   5.760  69.533  1.00  0.00    -0.264 N  
HETATM   13  H   UNL     1     -10.930   6.376  68.876  1.00  0.00     0.000 HD 
BRANCH  12  14
HETATM   14  C   UNL     1      -9.706   4.626  69.033  1.00  0.00    -0.172 C  
BRANCH  14  15
HETATM   15  C   UNL     1      -9.085   4.870  67.662  1.00  0.00    -0.126 C  
BRANCH  15  16
HETATM   16  C   UNL     1      -8.458   6.246  67.653  1.00  0.00    -0.116 C  
HETATM   17  O   UNL     1      -7.842   6.682  68.621  1.00  0.00    -0.110 OA 
HETATM   18  N   UNL     1      -8.616   6.933  66.471  1.00  0.00    -0.124 N  
HETATM   19  H   UNL     1      -9.104   6.456  65.714  1.00  0.00     0.000 HD 
BRANCH  18  20
HETATM   20  C   UNL     1      -8.141   8.295  66.214  1.00  0.00    -0.109 C  
BRANCH  20  21
HETATM   21  C   UNL     1      -9.199   9.398  66.123  1.00  0.00    -0.190 C  
BRANCH  21  22
HETATM   22  S   UNL     1      -8.551  11.069  65.734  1.00  0.00    -0.108 SA 
BRANCH  22  23
HETATM   23  S   UNL     1      -9.449  11.550  63.943  1.00  0.00    -0.065 SA 
BRANCH  23  24
HETATM   24  C   UNL     1     -10.593  12.875  64.453  1.00  0.00    -0.396 C  
BRANCH  24  25
HETATM   25  C   UNL     1     -11.661  12.344  65.412  1.00  0.00    -0.381 C  
BRANCH  25  26
HETATM   26  N   UNL     1     -11.555  12.835  66.783  1.00  0.00    -0.350 N  
HETATM   27  H   UNL     1     -11.303  13.814  66.926  1.00  0.00     0.000 HD 
HETATM   28  C   UNL     1     -11.776  12.050  67.895  1.00  0.00    -0.323 C  
HETATM   29  O   UNL     1     -12.029  10.851  67.843  1.00  0.00    -0.585 OA 
BRANCH  28  30
HETATM   30  C   UNL     1     -11.723  12.795  69.209  1.00  0.00    -0.376 C  
BRANCH  30  31
HETATM   31  C   UNL     1     -12.290  14.200  69.030  1.00  0.00    -0.110 C  
BRANCH  31  32
HETATM   32  N   UNL     1     -11.261  15.166  68.690  1.00  0.00    -0.271 N  
HETATM   33  H   UNL     1     -10.781  15.077  67.794  1.00  0.00     0.000 HD 
HETATM   34  C   UNL     1     -10.911  16.196  69.531  1.00  0.00    -0.329 C  
HETATM   35  O   UNL     1     -11.365  16.330  70.663  1.00  0.00    -0.386 OA 
BRANCH  34  36
HETATM   36  C   UNL     1      -9.831  17.137  68.952  1.00  0.00    -0.273 C  
HETATM   37  O   UNL     1     -10.382  17.916  67.879  1.00  0.00    -0.353 OA 
HETATM   38  H   UNL     1      -9.718  18.494  67.523  1.00  0.00     0.000 HD 
BRANCH  36  39
HETATM   39  C   UNL     1      -8.554  16.392  68.472  1.00  0.00    -0.223 C  
HETATM   40  C   UNL     1      -7.362  17.358  68.316  1.00  0.00    -0.214 C  
HETATM   41  C   UNL     1      -8.160  15.342  69.537  1.00  0.00    -0.207 C  
BRANCH  39  42
HETATM   42  C   UNL     1      -8.836  15.674  67.130  1.00  0.00    -0.208 C  
HETATM   43  O   UNL     1      -8.643  14.267  67.232  1.00  0.00    -0.193 OA 
HETATM   44  H   UNL     1      -8.815  13.826  66.408  1.00  0.00     0.000 HD 
ENDBRANCH  39  42
ENDBRANCH  36  39
ENDBRANCH  34  36
ENDBRANCH  31  32
ENDBRANCH  30  31
ENDBRANCH  28  30
ENDBRANCH  25  26
ENDBRANCH  24  25
ENDBRANCH  23  24
ENDBRANCH  22  23
ENDBRANCH  21  22
ENDBRANCH  20  21
ENDBRANCH  18  20
ENDBRANCH  15  16
ENDBRANCH  14  15
ENDBRANCH  12  14
ENDBRANCH   7  10
ENDBRANCH   2   7
TORSDOF 19
ENDMDL
MODEL      169
REMARK 921   NORMALIZED FREE ENERGY PREDICTED BY IDOCK:   -4.45 KCAL/MOL
REMARK 922        TOTAL FREE ENERGY PREDICTED BY IDOCK:  -11.56 KCAL/MOL
REMARK 923 INTER-LIGAND FREE ENERGY PREDICTED BY IDOCK:   -9.55 KCAL/MOL
REMARK 924 INTRA-LIGAND FREE ENERGY PREDICTED BY IDOCK:   -2.02 KCAL/MOL
REMARK 927      BINDING AFFINITY PREDICTED BY RF-SCORE:    0.00 PKD
ROOT
HETATM    1  C   UNL     1     -10.515  17.083  69.097  1.00  0.00    -0.323 C  
HETATM    2  C   UNL     1     -10.087  15.945  68.151  1.00  0.00    -0.229 C  
HETATM    3  C   UNL     1     -10.186  16.426  66.682  1.00  0.00    -0.296 C  
ENDROOT
BRANCH   2   4
HETATM    4  C   UNL     1      -8.603  15.609  68.407  1.00  0.00    -0.173 C  
HETATM    5  O   UNL     1      -8.466  14.548  69.350  1.00  0.00    -0.374 OA 
HETATM    6  H   UNL     1      -7.552  14.342  69.508  1.00  0.00     0.000 HD 
ENDBRANCH   2   4
BRANCH   2   7
HETATM    7  C   UNL     1     -10.961  14.669  68.366  1.00  0.00    -0.251 C  
HETATM    8  O   UNL     1     -12.356  14.970  68.536  1.00  0.00    -0.586 OA 
HETATM    9  H   UNL     1     -12.887  14.194  68.666  1.00  0.00     0.000 HD 
BRANCH   7  10
HETATM   10  C   UNL     1     -10.848  13.605  67.251  1.00  0.00    -0.284 C  
HETATM   11  O   UNL     1      -9.987  12.732  67.203  1.00  0.00    -0.214 OA 
HETATM   12  N   UNL     1     -11.869  13.679  66.330  1.00  0.00    -0.370 N  
HETATM   13  H   UNL     1     -12.526  14.459  66.367  1.00  0.00     0.000 HD 
BRANCH  12  14
HETATM   14  C   UNL     1     -12.022  12.666  65.310  1.00  0.00    -0.439 C  
BRANCH  14  15
HETATM   15  C   UNL     1     -11.173  12.926  64.070  1.00  0.00    -0.458 C  
BRANCH  15  16
HETATM   16  C   UNL     1     -10.242  11.753  63.866  1.00  0.00    -0.373 C  
HETATM   17  O   UNL     1      -9.649  11.573  62.807  1.00  0.00    -0.358 OA 
HETATM   18  N   UNL     1     -10.106  10.940  64.968  1.00  0.00    -0.279 N  
HETATM   19  H   UNL     1     -10.608  11.209  65.814  1.00  0.00     0.000 HD 
BRANCH  18  20
HETATM   20  C   UNL     1      -9.298   9.719  65.025  1.00  0.00    -0.263 C  
BRANCH  20  21
HETATM   21  C   UNL     1      -7.794   9.887  65.263  1.00  0.00    -0.131 C  
BRANCH  21  22
HETATM   22  S   UNL     1      -6.819   8.335  65.204  1.00  0.00    -0.070 SA 
BRANCH  22  23
HETATM   23  S   UNL     1      -6.000   8.188  67.089  1.00  0.00    -0.051 SA 
BRANCH  23  24
HETATM   24  C   UNL     1      -6.560   9.746  67.852  1.00  0.00    -0.061 C  
BRANCH  24  25
HETATM   25  C   UNL     1      -7.110   9.505  69.260  1.00  0.00    -0.058 C  
BRANCH  25  26
HETATM   26  N   UNL     1      -8.561   9.634  69.382  1.00  0.00    -0.145 N  
HETATM   27  H   UNL     1      -9.098   9.842  68.540  1.00  0.00     0.000 HD 
HETATM   28  C   UNL     1      -9.242   9.489  70.572  1.00  0.00    -0.225 C  
HETATM   29  O   UNL     1      -8.694   9.294  71.652  1.00  0.00    -0.312 OA 
BRANCH  28  30
HETATM   30  C   UNL     1     -10.747   9.551  70.444  1.00  0.00    -0.341 C  
BRANCH  30  31
HETATM   31  C   UNL     1     -11.392   9.342  71.810  1.00  0.00    -0.317 C  
BRANCH  31  32
HETATM   32  N   UNL     1     -11.090   8.036  72.365  1.00  0.00    -0.324 N  
HETATM   33  H   UNL     1     -10.297   7.943  72.999  1.00  0.00     0.000 HD 
HETATM   34  C   UNL     1     -11.834   6.919  72.066  1.00  0.00    -0.310 C  
HETATM   35  O   UNL     1     -12.747   6.913  71.245  1.00  0.00    -0.370 OA 
BRANCH  34  36
HETATM   36  C   UNL     1     -11.372   5.642  72.803  1.00  0.00    -0.299 C  
HETATM   37  O   UNL     1     -11.106   5.942  74.182  1.00  0.00    -0.326 OA 
HETATM   38  H   UNL     1     -10.822   5.156  74.635  1.00  0.00     0.000 HD 
BRANCH  36  39
HETATM   39  C   UNL     1     -10.132   4.968  72.153  1.00  0.00    -0.252 C  
HETATM   40  C   UNL     1     -10.032   5.299  70.650  1.00  0.00    -0.287 C  
HETATM   41  C   UNL     1      -8.855   5.517  72.831  1.00  0.00    -0.117 C  
BRANCH  39  42
HETATM   42  C   UNL     1     -10.197   3.435  72.357  1.00  0.00    -0.129 C  
HETATM   43  O   UNL     1     -10.554   3.093  73.692  1.00  0.00    -0.149 OA 
HETATM   44  H   UNL     1     -10.594   2.152  73.817  1.00  0.00     0.000 HD 
ENDBRANCH  39  42
ENDBRANCH  36  39
ENDBRANCH  34  36
ENDBRANCH  31  32
ENDBRANCH  30  31
ENDBRANCH  28  30
ENDBRANCH  25  26
ENDBRANCH  24  25
ENDBRANCH  23  24
ENDBRANCH  22  23
ENDBRANCH  21  22
ENDBRANCH  20  21
ENDBRANCH  18  20
ENDBRANCH  15  16
ENDBRANCH  14  15
ENDBRANCH  12  14
ENDBRANCH   7  10
ENDBRANCH   2   7
TORSDOF 19
ENDMDL
MODEL      170
REMARK 921   NORMALIZED FREE ENERGY PREDICTED BY IDOCK:   -4.44 KCAL/MOL
REMARK 922        TOTAL FREE ENERGY PREDICTED BY IDOCK:  -11.55 KCAL/MOL
REMARK 923 INTER-LIGAND FREE ENERGY PREDICTED BY IDOCK:   -9.15 KCAL/MOL
REMARK 924 INTRA-LIGAND FREE ENERGY PREDICTED BY IDOCK:   -2.40 KCAL/MOL
REMARK 927      BINDING AFFINITY PREDICTED BY RF-SCORE:    0.00 PKD
ROOT
HETATM    1  C   UNL     1     -10.749   2.009  63.417  1.00  0.00    -0.179 C  
HETATM    2  C   UNL     1      -9.639   2.751  64.185  1.00  0.00    -0.144 C  
HETATM    3  C   UNL     1      -9.162   1.882  65.375  1.00  0.00    -0.040 C  
ENDROOT
BRANCH   2   4
HETATM    4  C   UNL     1      -8.420   2.934  63.256  1.00  0.00    -0.086 C  
HETATM    5  O   UNL     1      -8.289   4.289  62.832  1.00  0.00    -0.081 OA 
HETATM    6  H   UNL     1      -7.539   4.401  62.260  1.00  0.00     0.000 HD 
ENDBRANCH   2   4
BRANCH   2   7
HETATM    7  C   UNL     1     -10.130   4.144  64.690  1.00  0.00    -0.175 C  
HETATM    8  O   UNL     1     -11.561   4.221  64.812  1.00  0.00    -0.963 OA 
HETATM    9  H   UNL     1     -11.859   5.068  65.119  1.00  0.00     0.000 HD 
BRANCH   7  10
HETATM   10  C   UNL     1      -9.524   4.602  66.035  1.00  0.00    -0.171 C  
HETATM   11  O   UNL     1     -10.107   4.558  67.115  1.00  0.00    -0.184 OA 
HETATM   12  N   UNL     1      -8.213   5.006  65.927  1.00  0.00    -0.112 N  
HETATM   13  H   UNL     1      -7.786   5.092  65.004  1.00  0.00     0.000 HD 
BRANCH  12  14
HETATM   14  C   UNL     1      -7.432   5.312  67.105  1.00  0.00    -0.084 C  
BRANCH  14  15
HETATM   15  C   UNL     1      -6.927   4.070  67.832  1.00  0.00    -0.055 C  
BRANCH  15  16
HETATM   16  C   UNL     1      -7.401   4.124  69.267  1.00  0.00    -0.054 C  
HETATM   17  O   UNL     1      -7.057   3.285  70.093  1.00  0.00    -0.040 OA 
HETATM   18  N   UNL     1      -8.214   5.196  69.554  1.00  0.00    -0.092 N  
HETATM   19  H   UNL     1      -8.396   5.860  68.803  1.00  0.00     0.000 HD 
BRANCH  18  20
HETATM   20  C   UNL     1      -8.838   5.461  70.853  1.00  0.00    -0.138 C  
BRANCH  20  21
HETATM   21  C   UNL     1     -10.368   5.446  70.909  1.00  0.00    -0.242 C  
BRANCH  21  22
HETATM   22  S   UNL     1     -11.090   5.747  72.568  1.00  0.00    -0.292 SA 
BRANCH  22  23
HETATM   23  S   UNL     1     -10.653   7.724  72.952  1.00  0.00    -0.374 SA 
BRANCH  23  24
HETATM   24  C   UNL     1     -12.071   8.568  72.178  1.00  0.00    -0.383 C  
BRANCH  24  25
HETATM   25  C   UNL     1     -11.615   9.483  71.039  1.00  0.00    -0.344 C  
BRANCH  25  26
HETATM   26  N   UNL     1     -11.192   8.788  69.826  1.00  0.00    -0.439 N  
HETATM   27  H   UNL     1     -11.876   8.210  69.338  1.00  0.00     0.000 HD 
HETATM   28  C   UNL     1      -9.918   8.872  69.303  1.00  0.00    -0.192 C  
HETATM   29  O   UNL     1      -9.003   9.492  69.834  1.00  0.00    -0.177 OA 
BRANCH  28  30
HETATM   30  C   UNL     1      -9.736   8.163  67.980  1.00  0.00    -0.186 C  
BRANCH  30  31
HETATM   31  C   UNL     1     -10.372   8.984  66.862  1.00  0.00    -0.254 C  
BRANCH  31  32
HETATM   32  N   UNL     1     -10.008  10.386  66.937  1.00  0.00    -0.198 N  
HETATM   33  H   UNL     1      -9.063  10.663  66.672  1.00  0.00     0.000 HD 
HETATM   34  C   UNL     1     -10.891  11.355  67.354  1.00  0.00    -0.254 C  
HETATM   35  O   UNL     1     -12.016  11.109  67.779  1.00  0.00    -0.630 OA 
BRANCH  34  36
HETATM   36  C   UNL     1     -10.315  12.788  67.310  1.00  0.00    -0.232 C  
HETATM   37  O   UNL     1     -10.531  13.442  68.570  1.00  0.00    -0.247 OA 
HETATM   38  H   UNL     1     -10.177  14.323  68.543  1.00  0.00     0.000 HD 
BRANCH  36  39
HETATM   39  C   UNL     1     -10.892  13.651  66.154  1.00  0.00    -0.279 C  
HETATM   40  C   UNL     1     -12.269  14.240  66.523  1.00  0.00    -0.419 C  
HETATM   41  C   UNL     1      -9.937  14.840  65.896  1.00  0.00    -0.351 C  
BRANCH  39  42
HETATM   42  C   UNL     1     -11.005  12.801  64.865  1.00  0.00    -0.294 C  
HETATM   43  O   UNL     1     -10.033  13.177  63.895  1.00  0.00    -0.760 OA 
HETATM   44  H   UNL     1     -10.103  12.655  63.105  1.00  0.00     0.000 HD 
ENDBRANCH  39  42
ENDBRANCH  36  39
ENDBRANCH  34  36
ENDBRANCH  31  32
ENDBRANCH  30  31
ENDBRANCH  28  30
ENDBRANCH  25  26
ENDBRANCH  24  25
ENDBRANCH  23  24
ENDBRANCH  22  23
ENDBRANCH  21  22
ENDBRANCH  20  21
ENDBRANCH  18  20
ENDBRANCH  15  16
ENDBRANCH  14  15
ENDBRANCH  12  14
ENDBRANCH   7  10
ENDBRANCH   2   7
TORSDOF 19
ENDMDL
MODEL      171
REMARK 921   NORMALIZED FREE ENERGY PREDICTED BY IDOCK:   -4.44 KCAL/MOL
REMARK 922        TOTAL FREE ENERGY PREDICTED BY IDOCK:  -11.55 KCAL/MOL
REMARK 923 INTER-LIGAND FREE ENERGY PREDICTED BY IDOCK:   -9.40 KCAL/MOL
REMARK 924 INTRA-LIGAND FREE ENERGY PREDICTED BY IDOCK:   -2.15 KCAL/MOL
REMARK 927      BINDING AFFINITY PREDICTED BY RF-SCORE:    0.00 PKD
ROOT
HETATM    1  C   UNL     1      -9.656   8.519  72.092  1.00  0.00    -0.382 C  
HETATM    2  C   UNL     1      -8.309   7.926  72.546  1.00  0.00    -0.191 C  
HETATM    3  C   UNL     1      -8.179   8.055  74.084  1.00  0.00    -0.318 C  
ENDROOT
BRANCH   2   4
HETATM    4  C   UNL     1      -8.290   6.417  72.226  1.00  0.00    -0.107 C  
HETATM    5  O   UNL     1      -9.412   5.750  72.801  1.00  0.00    -0.146 OA 
HETATM    6  H   UNL     1      -9.399   4.821  72.604  1.00  0.00     0.000 HD 
ENDBRANCH   2   4
BRANCH   2   7
HETATM    7  C   UNL     1      -7.110   8.630  71.837  1.00  0.00    -0.068 C  
HETATM    8  O   UNL     1      -5.896   7.863  71.901  1.00  0.00    -0.035 OA 
HETATM    9  H   UNL     1      -5.167   8.291  71.469  1.00  0.00     0.000 HD 
BRANCH   7  10
HETATM   10  C   UNL     1      -7.351   8.994  70.355  1.00  0.00    -0.084 C  
HETATM   11  O   UNL     1      -7.428   8.180  69.439  1.00  0.00    -0.087 OA 
HETATM   12  N   UNL     1      -7.549  10.342  70.155  1.00  0.00    -0.310 N  
HETATM   13  H   UNL     1      -7.411  10.992  70.930  1.00  0.00     0.000 HD 
BRANCH  12  14
HETATM   14  C   UNL     1      -7.951  10.849  68.862  1.00  0.00    -0.146 C  
BRANCH  14  15
HETATM   15  C   UNL     1      -6.808  11.495  68.087  1.00  0.00    -0.068 C  
BRANCH  15  16
HETATM   16  C   UNL     1      -6.781  12.973  68.407  1.00  0.00    -0.093 C  
HETATM   17  O   UNL     1      -6.507  13.387  69.529  1.00  0.00    -0.111 OA 
HETATM   18  N   UNL     1      -7.060  13.789  67.335  1.00  0.00    -0.300 N  
HETATM   19  H   UNL     1      -7.227  13.341  66.435  1.00  0.00     0.000 HD 
BRANCH  18  20
HETATM   20  C   UNL     1      -7.138  15.252  67.383  1.00  0.00    -0.191 C  
BRANCH  20  21
HETATM   21  C   UNL     1      -8.498  15.890  67.084  1.00  0.00    -0.199 C  
BRANCH  21  22
HETATM   22  S   UNL     1      -9.229  16.847  68.467  1.00  0.00    -0.266 SA 
BRANCH  22  23
HETATM   23  S   UNL     1     -11.171  16.165  68.575  1.00  0.00    -0.344 SA 
BRANCH  23  24
HETATM   24  C   UNL     1     -11.372  15.922  70.371  1.00  0.00    -0.385 C  
BRANCH  24  25
HETATM   25  C   UNL     1     -12.272  14.721  70.668  1.00  0.00    -0.319 C  
BRANCH  25  26
HETATM   26  N   UNL     1     -11.773  13.441  70.170  1.00  0.00    -0.505 N  
HETATM   27  H   UNL     1     -11.077  13.453  69.424  1.00  0.00     0.000 HD 
HETATM   28  C   UNL     1     -12.191  12.219  70.652  1.00  0.00    -0.287 C  
HETATM   29  O   UNL     1     -13.062  12.084  71.506  1.00  0.00    -0.390 OA 
BRANCH  28  30
HETATM   30  C   UNL     1     -11.458  11.032  70.070  1.00  0.00    -0.398 C  
BRANCH  30  31
HETATM   31  C   UNL     1     -12.129  10.594  68.772  1.00  0.00     0.127 C  
BRANCH  31  32
HETATM   32  N   UNL     1     -11.289  10.833  67.614  1.00  0.00    -0.307 N  
HETATM   33  H   UNL     1     -10.561  10.156  67.387  1.00  0.00     0.000 HD 
HETATM   34  C   UNL     1     -11.438  11.940  66.811  1.00  0.00    -0.316 C  
HETATM   35  O   UNL     1     -12.222  12.853  67.055  1.00  0.00    -0.391 OA 
BRANCH  34  36
HETATM   36  C   UNL     1     -10.475  11.973  65.604  1.00  0.00    -0.256 C  
HETATM   37  O   UNL     1      -9.259  12.646  65.965  1.00  0.00    -0.419 OA 
HETATM   38  H   UNL     1      -8.667  12.666  65.222  1.00  0.00     0.000 HD 
BRANCH  36  39
HETATM   39  C   UNL     1     -11.093  12.628  64.337  1.00  0.00    -0.385 C  
HETATM   40  C   UNL     1     -12.576  12.236  64.166  1.00  0.00    -0.493 C  
HETATM   41  C   UNL     1     -11.039  14.166  64.496  1.00  0.00    -0.340 C  
BRANCH  39  42
HETATM   42  C   UNL     1     -10.286  12.217  63.082  1.00  0.00    -0.159 C  
HETATM   43  O   UNL     1     -10.345  10.813  62.852  1.00  0.00    -0.727 OA 
HETATM   44  H   UNL     1      -9.849  10.561  62.081  1.00  0.00     0.000 HD 
ENDBRANCH  39  42
ENDBRANCH  36  39
ENDBRANCH  34  36
ENDBRANCH  31  32
ENDBRANCH  30  31
ENDBRANCH  28  30
ENDBRANCH  25  26
ENDBRANCH  24  25
ENDBRANCH  23  24
ENDBRANCH  22  23
ENDBRANCH  21  22
ENDBRANCH  20  21
ENDBRANCH  18  20
ENDBRANCH  15  16
ENDBRANCH  14  15
ENDBRANCH  12  14
ENDBRANCH   7  10
ENDBRANCH   2   7
TORSDOF 19
ENDMDL
MODEL      172
REMARK 921   NORMALIZED FREE ENERGY PREDICTED BY IDOCK:   -4.44 KCAL/MOL
REMARK 922        TOTAL FREE ENERGY PREDICTED BY IDOCK:  -11.54 KCAL/MOL
REMARK 923 INTER-LIGAND FREE ENERGY PREDICTED BY IDOCK:   -9.61 KCAL/MOL
REMARK 924 INTRA-LIGAND FREE ENERGY PREDICTED BY IDOCK:   -1.93 KCAL/MOL
REMARK 927      BINDING AFFINITY PREDICTED BY RF-SCORE:    0.00 PKD
ROOT
HETATM    1  C   UNL     1     -10.892   9.142  70.949  1.00  0.00    -0.345 C  
HETATM    2  C   UNL     1     -11.177   7.752  71.547  1.00  0.00    -0.278 C  
HETATM    3  C   UNL     1     -10.882   7.770  73.067  1.00  0.00    -0.451 C  
ENDROOT
BRANCH   2   4
HETATM    4  C   UNL     1     -12.680   7.437  71.393  1.00  0.00    -0.369 C  
HETATM    5  O   UNL     1     -13.415   8.592  70.995  1.00  0.00    -0.537 OA 
HETATM    6  H   UNL     1     -14.340   8.398  70.901  1.00  0.00     0.000 HD 
ENDBRANCH   2   4
BRANCH   2   7
HETATM    7  C   UNL     1     -10.332   6.645  70.841  1.00  0.00    -0.208 C  
HETATM    8  O   UNL     1      -9.165   7.168  70.185  1.00  0.00    -0.155 OA 
HETATM    9  H   UNL     1      -8.651   6.495  69.756  1.00  0.00     0.000 HD 
BRANCH   7  10
HETATM   10  C   UNL     1      -9.871   5.491  71.758  1.00  0.00    -0.171 C  
HETATM   11  O   UNL     1     -10.607   4.615  72.202  1.00  0.00    -0.185 OA 
HETATM   12  N   UNL     1      -8.512   5.490  71.983  1.00  0.00    -0.126 N  
HETATM   13  H   UNL     1      -7.947   6.273  71.653  1.00  0.00     0.000 HD 
BRANCH  12  14
HETATM   14  C   UNL     1      -7.877   4.395  72.681  1.00  0.00    -0.086 C  
BRANCH  14  15
HETATM   15  C   UNL     1      -7.421   3.274  71.753  1.00  0.00    -0.051 C  
BRANCH  15  16
HETATM   16  C   UNL     1      -6.574   3.872  70.652  1.00  0.00    -0.032 C  
HETATM   17  O   UNL     1      -6.034   4.967  70.774  1.00  0.00    -0.016 OA 
HETATM   18  N   UNL     1      -6.447   3.074  69.539  1.00  0.00    -0.029 N  
HETATM   19  H   UNL     1      -6.898   2.160  69.563  1.00  0.00     0.000 HD 
BRANCH  18  20
HETATM   20  C   UNL     1      -5.716   3.431  68.320  1.00  0.00    -0.022 C  
BRANCH  20  21
HETATM   21  C   UNL     1      -6.445   4.309  67.300  1.00  0.00    -0.042 C  
BRANCH  21  22
HETATM   22  S   UNL     1      -7.955   3.565  66.571  1.00  0.00    -0.088 SA 
BRANCH  22  23
HETATM   23  S   UNL     1      -9.472   4.188  67.819  1.00  0.00    -0.163 SA 
BRANCH  23  24
HETATM   24  C   UNL     1     -10.613   4.980  66.638  1.00  0.00    -0.195 C  
BRANCH  24  25
HETATM   25  C   UNL     1     -10.591   6.503  66.784  1.00  0.00    -0.253 C  
BRANCH  25  26
HETATM   26  N   UNL     1      -9.545   7.178  66.020  1.00  0.00    -0.405 N  
HETATM   27  H   UNL     1      -9.082   6.658  65.274  1.00  0.00     0.000 HD 
HETATM   28  C   UNL     1      -9.148   8.478  66.253  1.00  0.00    -0.185 C  
HETATM   29  O   UNL     1      -9.594   9.175  67.158  1.00  0.00    -0.150 OA 
BRANCH  28  30
HETATM   30  C   UNL     1      -8.130   9.007  65.269  1.00  0.00    -0.126 C  
BRANCH  30  31
HETATM   31  C   UNL     1      -8.834   9.484  64.002  1.00  0.00    -0.212 C  
BRANCH  31  32
HETATM   32  N   UNL     1     -10.095  10.141  64.291  1.00  0.00    -0.449 N  
HETATM   33  H   UNL     1     -10.737   9.703  64.952  1.00  0.00     0.000 HD 
HETATM   34  C   UNL     1     -10.457  11.332  63.707  1.00  0.00    -0.399 C  
HETATM   35  O   UNL     1      -9.795  11.886  62.834  1.00  0.00    -0.306 OA 
BRANCH  34  36
HETATM   36  C   UNL     1     -11.816  11.882  64.193  1.00  0.00    -0.318 C  
HETATM   37  O   UNL     1     -12.589  12.341  63.073  1.00  0.00    -0.714 OA 
HETATM   38  H   UNL     1     -13.424  12.680  63.373  1.00  0.00     0.000 HD 
BRANCH  36  39
HETATM   39  C   UNL     1     -11.682  13.012  65.251  1.00  0.00    -0.388 C  
HETATM   40  C   UNL     1     -11.766  12.454  66.687  1.00  0.00    -0.438 C  
HETATM   41  C   UNL     1     -10.294  13.677  65.095  1.00  0.00    -0.381 C  
BRANCH  39  42
HETATM   42  C   UNL     1     -12.784  14.076  65.029  1.00  0.00    -0.328 C  
HETATM   43  O   UNL     1     -12.506  14.899  63.901  1.00  0.00    -1.009 OA 
HETATM   44  H   UNL     1     -13.182  15.552  63.765  1.00  0.00     0.000 HD 
ENDBRANCH  39  42
ENDBRANCH  36  39
ENDBRANCH  34  36
ENDBRANCH  31  32
ENDBRANCH  30  31
ENDBRANCH  28  30
ENDBRANCH  25  26
ENDBRANCH  24  25
ENDBRANCH  23  24
ENDBRANCH  22  23
ENDBRANCH  21  22
ENDBRANCH  20  21
ENDBRANCH  18  20
ENDBRANCH  15  16
ENDBRANCH  14  15
ENDBRANCH  12  14
ENDBRANCH   7  10
ENDBRANCH   2   7
TORSDOF 19
ENDMDL
MODEL      173
REMARK 921   NORMALIZED FREE ENERGY PREDICTED BY IDOCK:   -4.43 KCAL/MOL
REMARK 922        TOTAL FREE ENERGY PREDICTED BY IDOCK:  -11.53 KCAL/MOL
REMARK 923 INTER-LIGAND FREE ENERGY PREDICTED BY IDOCK:   -8.50 KCAL/MOL
REMARK 924 INTRA-LIGAND FREE ENERGY PREDICTED BY IDOCK:   -3.03 KCAL/MOL
REMARK 927      BINDING AFFINITY PREDICTED BY RF-SCORE:    0.00 PKD
ROOT
HETATM    1  C   UNL     1     -10.555  12.385  65.665  1.00  0.00    -0.297 C  
HETATM    2  C   UNL     1     -11.140  13.629  66.358  1.00  0.00    -0.307 C  
HETATM    3  C   UNL     1     -10.271  14.867  66.022  1.00  0.00    -0.317 C  
ENDROOT
BRANCH   2   4
HETATM    4  C   UNL     1     -12.546  13.908  65.785  1.00  0.00    -0.494 C  
HETATM    5  O   UNL     1     -13.098  12.745  65.175  1.00  0.00    -0.750 OA 
HETATM    6  H   UNL     1     -13.964  12.917  64.822  1.00  0.00     0.000 HD 
ENDBRANCH   2   4
BRANCH   2   7
HETATM    7  C   UNL     1     -11.231  13.430  67.903  1.00  0.00    -0.275 C  
HETATM    8  O   UNL     1     -12.354  14.111  68.489  1.00  0.00    -0.556 OA 
HETATM    9  H   UNL     1     -12.409  13.990  69.429  1.00  0.00     0.000 HD 
BRANCH   7  10
HETATM   10  C   UNL     1     -11.288  11.958  68.370  1.00  0.00    -0.276 C  
HETATM   11  O   UNL     1     -12.275  11.235  68.282  1.00  0.00    -0.611 OA 
HETATM   12  N   UNL     1     -10.079  11.494  68.839  1.00  0.00    -0.361 N  
HETATM   13  H   UNL     1      -9.302  12.144  68.959  1.00  0.00     0.000 HD 
BRANCH  12  14
HETATM   14  C   UNL     1      -9.898  10.097  69.165  1.00  0.00    -0.214 C  
BRANCH  14  15
HETATM   15  C   UNL     1      -9.647   9.221  67.942  1.00  0.00    -0.163 C  
BRANCH  15  16
HETATM   16  C   UNL     1     -10.406   7.925  68.112  1.00  0.00    -0.200 C  
HETATM   17  O   UNL     1     -10.797   7.272  67.149  1.00  0.00    -0.337 OA 
HETATM   18  N   UNL     1     -10.587   7.543  69.422  1.00  0.00    -0.229 N  
HETATM   19  H   UNL     1     -10.179   8.136  70.143  1.00  0.00     0.000 HD 
BRANCH  18  20
HETATM   20  C   UNL     1     -11.320   6.353  69.863  1.00  0.00    -0.434 C  
BRANCH  20  21
HETATM   21  C   UNL     1     -11.717   6.285  71.340  1.00  0.00    -0.254 C  
BRANCH  21  22
HETATM   22  S   UNL     1     -11.783   7.901  72.205  1.00  0.00    -0.355 SA 
BRANCH  22  23
HETATM   23  S   UNL     1      -9.898   8.117  73.008  1.00  0.00    -0.175 SA 
BRANCH  23  24
HETATM   24  C   UNL     1      -9.314   6.390  73.036  1.00  0.00    -0.135 C  
BRANCH  24  25
HETATM   25  C   UNL     1      -8.033   6.227  72.216  1.00  0.00    -0.104 C  
BRANCH  25  26
HETATM   26  N   UNL     1      -7.981   5.021  71.392  1.00  0.00    -0.108 N  
HETATM   27  H   UNL     1      -8.014   4.116  71.860  1.00  0.00     0.000 HD 
HETATM   28  C   UNL     1      -7.892   5.041  70.015  1.00  0.00    -0.070 C  
HETATM   29  O   UNL     1      -7.791   6.068  69.353  1.00  0.00    -0.096 OA 
BRANCH  28  30
HETATM   30  C   UNL     1      -7.968   3.679  69.364  1.00  0.00    -0.060 C  
BRANCH  30  31
HETATM   31  C   UNL     1      -9.331   3.497  68.703  1.00  0.00    -0.166 C  
BRANCH  31  32
HETATM   32  N   UNL     1      -9.462   4.286  67.493  1.00  0.00    -0.166 N  
HETATM   33  H   UNL     1      -9.716   5.271  67.574  1.00  0.00     0.000 HD 
HETATM   34  C   UNL     1      -9.258   3.755  66.241  1.00  0.00    -0.167 C  
HETATM   35  O   UNL     1      -9.041   2.564  66.038  1.00  0.00    -0.140 OA 
BRANCH  34  36
HETATM   36  C   UNL     1      -9.399   4.780  65.095  1.00  0.00    -0.127 C  
HETATM   37  O   UNL     1     -10.102   4.189  63.990  1.00  0.00    -0.282 OA 
HETATM   38  H   UNL     1     -10.188   4.820  63.285  1.00  0.00     0.000 HD 
BRANCH  36  39
HETATM   39  C   UNL     1      -8.040   5.361  64.614  1.00  0.00    -0.125 C  
HETATM   40  C   UNL     1      -7.518   4.619  63.366  1.00  0.00    -0.054 C  
HETATM   41  C   UNL     1      -8.244   6.842  64.217  1.00  0.00     0.036 C  
BRANCH  39  42
HETATM   42  C   UNL     1      -6.997   5.280  65.755  1.00  0.00    -0.066 C  
HETATM   43  O   UNL     1      -7.078   6.403  66.627  1.00  0.00    -0.066 OA 
HETATM   44  H   UNL     1      -6.438   6.354  67.327  1.00  0.00     0.000 HD 
ENDBRANCH  39  42
ENDBRANCH  36  39
ENDBRANCH  34  36
ENDBRANCH  31  32
ENDBRANCH  30  31
ENDBRANCH  28  30
ENDBRANCH  25  26
ENDBRANCH  24  25
ENDBRANCH  23  24
ENDBRANCH  22  23
ENDBRANCH  21  22
ENDBRANCH  20  21
ENDBRANCH  18  20
ENDBRANCH  15  16
ENDBRANCH  14  15
ENDBRANCH  12  14
ENDBRANCH   7  10
ENDBRANCH   2   7
TORSDOF 19
ENDMDL
MODEL      174
REMARK 921   NORMALIZED FREE ENERGY PREDICTED BY IDOCK:   -4.43 KCAL/MOL
REMARK 922        TOTAL FREE ENERGY PREDICTED BY IDOCK:  -11.52 KCAL/MOL
REMARK 923 INTER-LIGAND FREE ENERGY PREDICTED BY IDOCK:   -9.75 KCAL/MOL
REMARK 924 INTRA-LIGAND FREE ENERGY PREDICTED BY IDOCK:   -1.78 KCAL/MOL
REMARK 927      BINDING AFFINITY PREDICTED BY RF-SCORE:    0.00 PKD
ROOT
HETATM    1  C   UNL     1      -9.669   3.397  72.818  1.00  0.00    -0.189 C  
HETATM    2  C   UNL     1      -9.788   4.890  72.463  1.00  0.00    -0.202 C  
HETATM    3  C   UNL     1     -11.274   5.247  72.211  1.00  0.00    -0.181 C  
ENDROOT
BRANCH   2   4
HETATM    4  C   UNL     1      -9.332   5.733  73.673  1.00  0.00    -0.137 C  
HETATM    5  O   UNL     1     -10.043   6.967  73.744  1.00  0.00    -0.269 OA 
HETATM    6  H   UNL     1      -9.761   7.485  74.489  1.00  0.00     0.000 HD 
ENDBRANCH   2   4
BRANCH   2   7
HETATM    7  C   UNL     1      -8.922   5.249  71.215  1.00  0.00    -0.140 C  
HETATM    8  O   UNL     1      -7.635   4.610  71.227  1.00  0.00    -0.075 OA 
HETATM    9  H   UNL     1      -7.108   4.828  70.467  1.00  0.00     0.000 HD 
BRANCH   7  10
HETATM   10  C   UNL     1      -9.581   4.939  69.852  1.00  0.00    -0.182 C  
HETATM   11  O   UNL     1      -9.722   3.812  69.385  1.00  0.00    -0.181 OA 
HETATM   12  N   UNL     1     -10.074   6.060  69.223  1.00  0.00    -0.171 N  
HETATM   13  H   UNL     1      -9.877   6.983  69.611  1.00  0.00     0.000 HD 
BRANCH  12  14
HETATM   14  C   UNL     1     -10.867   5.946  68.020  1.00  0.00    -0.232 C  
BRANCH  14  15
HETATM   15  C   UNL     1     -10.621   7.077  67.027  1.00  0.00    -0.412 C  
BRANCH  15  16
HETATM   16  C   UNL     1     -10.159   8.299  67.790  1.00  0.00    -0.206 C  
HETATM   17  O   UNL     1      -8.986   8.455  68.112  1.00  0.00    -0.138 OA 
HETATM   18  N   UNL     1     -11.156   9.209  68.057  1.00  0.00    -0.489 N  
HETATM   19  H   UNL     1     -12.088   9.001  67.701  1.00  0.00     0.000 HD 
BRANCH  18  20
HETATM   20  C   UNL     1     -10.985  10.453  68.813  1.00  0.00    -0.245 C  
BRANCH  20  21
HETATM   21  C   UNL     1     -12.134  11.464  68.762  1.00  0.00    -0.189 C  
BRANCH  21  22
HETATM   22  S   UNL     1     -11.691  13.172  69.263  1.00  0.00    -0.325 SA 
BRANCH  22  23
HETATM   23  S   UNL     1     -12.007  14.291  67.562  1.00  0.00    -0.325 SA 
BRANCH  23  24
HETATM   24  C   UNL     1     -11.706  13.057  66.254  1.00  0.00    -0.387 C  
BRANCH  24  25
HETATM   25  C   UNL     1     -10.305  13.212  65.659  1.00  0.00    -0.284 C  
BRANCH  25  26
HETATM   26  N   UNL     1      -9.363  13.954  66.494  1.00  0.00    -0.382 N  
HETATM   27  H   UNL     1      -9.458  14.969  66.542  1.00  0.00     0.000 HD 
HETATM   28  C   UNL     1      -8.353  13.358  67.220  1.00  0.00    -0.176 C  
HETATM   29  O   UNL     1      -8.112  12.156  67.193  1.00  0.00    -0.167 OA 
BRANCH  28  30
HETATM   30  C   UNL     1      -7.572  14.307  68.101  1.00  0.00    -0.134 C  
BRANCH  30  31
HETATM   31  C   UNL     1      -8.532  15.133  68.951  1.00  0.00    -0.199 C  
BRANCH  31  32
HETATM   32  N   UNL     1      -8.531  16.533  68.573  1.00  0.00    -0.215 N  
HETATM   33  H   UNL     1      -7.697  16.923  68.134  1.00  0.00     0.000 HD 
HETATM   34  C   UNL     1      -9.614  17.354  68.784  1.00  0.00    -0.267 C  
HETATM   35  O   UNL     1     -10.624  17.002  69.385  1.00  0.00    -0.335 OA 
BRANCH  34  36
HETATM   36  C   UNL     1      -9.420  18.795  68.260  1.00  0.00    -0.349 C  
HETATM   37  O   UNL     1     -10.356  19.679  68.896  1.00  0.00    -0.577 OA 
HETATM   38  H   UNL     1     -10.237  20.564  68.574  1.00  0.00     0.000 HD 
BRANCH  36  39
HETATM   39  C   UNL     1      -9.540  18.912  66.715  1.00  0.00    -0.354 C  
HETATM   40  C   UNL     1     -10.313  17.718  66.117  1.00  0.00    -0.340 C  
HETATM   41  C   UNL     1     -10.336  20.193  66.373  1.00  0.00    -0.510 C  
BRANCH  39  42
HETATM   42  C   UNL     1      -8.131  19.004  66.081  1.00  0.00    -0.244 C  
HETATM   43  O   UNL     1      -7.614  17.719  65.750  1.00  0.00    -0.536 OA 
HETATM   44  H   UNL     1      -6.749  17.776  65.361  1.00  0.00     0.000 HD 
ENDBRANCH  39  42
ENDBRANCH  36  39
ENDBRANCH  34  36
ENDBRANCH  31  32
ENDBRANCH  30  31
ENDBRANCH  28  30
ENDBRANCH  25  26
ENDBRANCH  24  25
ENDBRANCH  23  24
ENDBRANCH  22  23
ENDBRANCH  21  22
ENDBRANCH  20  21
ENDBRANCH  18  20
ENDBRANCH  15  16
ENDBRANCH  14  15
ENDBRANCH  12  14
ENDBRANCH   7  10
ENDBRANCH   2   7
TORSDOF 19
ENDMDL
MODEL      175
REMARK 921   NORMALIZED FREE ENERGY PREDICTED BY IDOCK:   -4.42 KCAL/MOL
REMARK 922        TOTAL FREE ENERGY PREDICTED BY IDOCK:  -11.52 KCAL/MOL
REMARK 923 INTER-LIGAND FREE ENERGY PREDICTED BY IDOCK:  -10.16 KCAL/MOL
REMARK 924 INTRA-LIGAND FREE ENERGY PREDICTED BY IDOCK:   -1.36 KCAL/MOL
REMARK 927      BINDING AFFINITY PREDICTED BY RF-SCORE:    0.00 PKD
ROOT
HETATM    1  C   UNL     1      -8.207  15.633  66.591  1.00  0.00    -0.284 C  
HETATM    2  C   UNL     1      -9.096  16.823  66.997  1.00  0.00    -0.239 C  
HETATM    3  C   UNL     1      -9.125  16.946  68.541  1.00  0.00    -0.257 C  
ENDROOT
BRANCH   2   4
HETATM    4  C   UNL     1      -8.468  18.127  66.462  1.00  0.00    -0.262 C  
HETATM    5  O   UNL     1      -9.425  19.182  66.411  1.00  0.00    -0.334 OA 
HETATM    6  H   UNL     1      -9.037  19.984  66.081  1.00  0.00     0.000 HD 
ENDBRANCH   2   4
BRANCH   2   7
HETATM    7  C   UNL     1     -10.545  16.668  66.437  1.00  0.00    -0.200 C  
HETATM    8  O   UNL     1     -10.621  16.891  65.018  1.00  0.00    -0.700 OA 
HETATM    9  H   UNL     1     -11.502  16.797  64.677  1.00  0.00     0.000 HD 
BRANCH   7  10
HETATM   10  C   UNL     1     -11.216  15.307  66.728  1.00  0.00    -0.241 C  
HETATM   11  O   UNL     1     -11.521  14.904  67.847  1.00  0.00    -0.318 OA 
HETATM   12  N   UNL     1     -11.515  14.598  65.586  1.00  0.00    -0.342 N  
HETATM   13  H   UNL     1     -11.185  14.935  64.682  1.00  0.00     0.000 HD 
BRANCH  12  14
HETATM   14  C   UNL     1     -12.291  13.379  65.653  1.00  0.00    -0.470 C  
BRANCH  14  15
HETATM   15  C   UNL     1     -11.437  12.117  65.601  1.00  0.00    -0.408 C  
BRANCH  15  16
HETATM   16  C   UNL     1     -11.043  11.860  64.163  1.00  0.00    -0.375 C  
HETATM   17  O   UNL     1     -11.548  12.481  63.233  1.00  0.00    -0.468 OA 
HETATM   18  N   UNL     1     -10.066  10.903  64.007  1.00  0.00    -0.332 N  
HETATM   19  H   UNL     1      -9.681  10.484  64.852  1.00  0.00     0.000 HD 
BRANCH  18  20
HETATM   20  C   UNL     1      -9.535  10.439  62.723  1.00  0.00    -0.321 C  
BRANCH  20  21
HETATM   21  C   UNL     1      -8.441   9.368  62.766  1.00  0.00    -0.201 C  
BRANCH  21  22
HETATM   22  S   UNL     1      -7.590   9.188  64.380  1.00  0.00    -0.120 SA 
BRANCH  22  23
HETATM   23  S   UNL     1      -7.568   7.154  64.710  1.00  0.00    -0.111 SA 
BRANCH  23  24
HETATM   24  C   UNL     1      -6.584   7.045  66.241  1.00  0.00    -0.052 C  
BRANCH  24  25
HETATM   25  C   UNL     1      -6.681   5.649  66.862  1.00  0.00    -0.062 C  
BRANCH  25  26
HETATM   26  N   UNL     1      -7.974   5.335  67.465  1.00  0.00    -0.100 N  
HETATM   27  H   UNL     1      -8.734   6.007  67.355  1.00  0.00     0.000 HD 
HETATM   28  C   UNL     1      -8.225   4.179  68.175  1.00  0.00    -0.092 C  
HETATM   29  O   UNL     1      -7.374   3.330  68.417  1.00  0.00    -0.050 OA 
BRANCH  28  30
HETATM   30  C   UNL     1      -9.662   4.011  68.611  1.00  0.00    -0.138 C  
BRANCH  30  31
HETATM   31  C   UNL     1      -9.809   4.408  70.076  1.00  0.00    -0.223 C  
BRANCH  31  32
HETATM   32  N   UNL     1     -10.674   5.560  70.247  1.00  0.00    -0.290 N  
HETATM   33  H   UNL     1     -10.973   6.077  69.420  1.00  0.00     0.000 HD 
HETATM   34  C   UNL     1     -11.106   5.980  71.484  1.00  0.00    -0.276 C  
HETATM   35  O   UNL     1     -10.728   5.480  72.539  1.00  0.00    -0.217 OA 
BRANCH  34  36
HETATM   36  C   UNL     1     -12.060   7.194  71.435  1.00  0.00    -0.344 C  
HETATM   37  O   UNL     1     -13.032   7.013  70.393  1.00  0.00    -0.483 OA 
HETATM   38  H   UNL     1     -13.618   7.760  70.363  1.00  0.00     0.000 HD 
BRANCH  36  39
HETATM   39  C   UNL     1     -11.325   8.551  71.251  1.00  0.00    -0.325 C  
HETATM   40  C   UNL     1     -10.019   8.601  72.072  1.00  0.00    -0.399 C  
HETATM   41  C   UNL     1     -10.939   8.710  69.762  1.00  0.00    -0.132 C  
BRANCH  39  42
HETATM   42  C   UNL     1     -12.256   9.717  71.663  1.00  0.00    -0.402 C  
HETATM   43  O   UNL     1     -13.328   9.888  70.741  1.00  0.00    -0.593 OA 
HETATM   44  H   UNL     1     -13.900  10.603  70.993  1.00  0.00     0.000 HD 
ENDBRANCH  39  42
ENDBRANCH  36  39
ENDBRANCH  34  36
ENDBRANCH  31  32
ENDBRANCH  30  31
ENDBRANCH  28  30
ENDBRANCH  25  26
ENDBRANCH  24  25
ENDBRANCH  23  24
ENDBRANCH  22  23
ENDBRANCH  21  22
ENDBRANCH  20  21
ENDBRANCH  18  20
ENDBRANCH  15  16
ENDBRANCH  14  15
ENDBRANCH  12  14
ENDBRANCH   7  10
ENDBRANCH   2   7
TORSDOF 19
ENDMDL
MODEL      176
REMARK 921   NORMALIZED FREE ENERGY PREDICTED BY IDOCK:   -4.38 KCAL/MOL
REMARK 922        TOTAL FREE ENERGY PREDICTED BY IDOCK:  -11.43 KCAL/MOL
REMARK 923 INTER-LIGAND FREE ENERGY PREDICTED BY IDOCK:   -8.96 KCAL/MOL
REMARK 924 INTRA-LIGAND FREE ENERGY PREDICTED BY IDOCK:   -2.47 KCAL/MOL
REMARK 927      BINDING AFFINITY PREDICTED BY RF-SCORE:    0.00 PKD
ROOT
HETATM    1  C   UNL     1     -10.569  17.897  67.807  1.00  0.00    -0.399 C  
HETATM    2  C   UNL     1      -9.832  18.255  66.503  1.00  0.00    -0.363 C  
HETATM    3  C   UNL     1     -10.636  19.333  65.733  1.00  0.00    -0.450 C  
ENDROOT
BRANCH   2   4
HETATM    4  C   UNL     1      -8.469  18.888  66.853  1.00  0.00    -0.286 C  
HETATM    5  O   UNL     1      -8.304  19.020  68.263  1.00  0.00    -0.308 OA 
HETATM    6  H   UNL     1      -7.465  19.410  68.478  1.00  0.00     0.000 HD 
ENDBRANCH   2   4
BRANCH   2   7
HETATM    7  C   UNL     1      -9.614  16.995  65.608  1.00  0.00     0.139 C  
HETATM    8  O   UNL     1      -8.928  15.935  66.295  1.00  0.00    -0.292 OA 
HETATM    9  H   UNL     1      -8.795  15.169  65.751  1.00  0.00     0.000 HD 
BRANCH   7  10
HETATM   10  C   UNL     1     -10.901  16.396  64.999  1.00  0.00    -0.273 C  
HETATM   11  O   UNL     1     -11.541  16.901  64.081  1.00  0.00    -1.091 OA 
HETATM   12  N   UNL     1     -11.238  15.176  65.543  1.00  0.00    -0.340 N  
HETATM   13  H   UNL     1     -10.721  14.823  66.349  1.00  0.00     0.000 HD 
BRANCH  12  14
HETATM   14  C   UNL     1     -12.316  14.389  64.986  1.00  0.00    -0.396 C  
BRANCH  14  15
HETATM   15  C   UNL     1     -12.312  12.940  65.462  1.00  0.00    -0.517 C  
BRANCH  15  16
HETATM   16  C   UNL     1     -11.245  12.185  64.701  1.00  0.00    -0.323 C  
HETATM   17  O   UNL     1     -10.810  12.586  63.626  1.00  0.00    -0.423 OA 
HETATM   18  N   UNL     1     -10.801  11.045  65.330  1.00  0.00    -0.158 N  
HETATM   19  H   UNL     1     -11.197  10.830  66.245  1.00  0.00     0.000 HD 
BRANCH  18  20
HETATM   20  C   UNL     1      -9.805  10.114  64.793  1.00  0.00    -0.312 C  
BRANCH  20  21
HETATM   21  C   UNL     1      -9.016   9.276  65.802  1.00  0.00    -0.192 C  
BRANCH  21  22
HETATM   22  S   UNL     1      -9.685   9.279  67.510  1.00  0.00    -0.167 SA 
BRANCH  22  23
HETATM   23  S   UNL     1      -8.356  10.447  68.566  1.00  0.00    -0.131 SA 
BRANCH  23  24
HETATM   24  C   UNL     1      -7.659  11.491  67.244  1.00  0.00    -0.143 C  
BRANCH  24  25
HETATM   25  C   UNL     1      -6.344  12.137  67.685  1.00  0.00    -0.109 C  
BRANCH  25  26
HETATM   26  N   UNL     1      -6.460  13.522  68.135  1.00  0.00    -0.106 N  
HETATM   27  H   UNL     1      -6.418  14.261  67.433  1.00  0.00     0.000 HD 
HETATM   28  C   UNL     1      -6.623  13.884  69.455  1.00  0.00    -0.097 C  
HETATM   29  O   UNL     1      -6.631  13.085  70.386  1.00  0.00     0.173 OA 
BRANCH  28  30
HETATM   30  C   UNL     1      -6.835  15.364  69.677  1.00  0.00    -0.185 C  
BRANCH  30  31
HETATM   31  C   UNL     1      -8.218  15.769  69.177  1.00  0.00    -0.247 C  
BRANCH  31  32
HETATM   32  N   UNL     1      -9.277  15.030  69.838  1.00  0.00    -0.442 N  
HETATM   33  H   UNL     1      -9.288  14.993  70.857  1.00  0.00     0.000 HD 
HETATM   34  C   UNL     1     -10.266  14.378  69.141  1.00  0.00    -0.127 C  
HETATM   35  O   UNL     1     -10.286  14.289  67.916  1.00  0.00    -0.229 OA 
BRANCH  34  36
HETATM   36  C   UNL     1     -11.322  13.697  70.040  1.00  0.00     0.013 C  
HETATM   37  O   UNL     1     -12.040  12.706  69.289  1.00  0.00    -0.259 OA 
HETATM   38  H   UNL     1     -12.690  12.287  69.842  1.00  0.00     0.000 HD 
BRANCH  36  39
HETATM   39  C   UNL     1     -12.316  14.698  70.692  1.00  0.00    -0.398 C  
HETATM   40  C   UNL     1     -13.029  15.559  69.629  1.00  0.00     0.413 C  
HETATM   41  C   UNL     1     -13.407  13.897  71.442  1.00  0.00    -0.363 C  
BRANCH  39  42
HETATM   42  C   UNL     1     -11.569  15.605  71.699  1.00  0.00    -0.442 C  
HETATM   43  O   UNL     1     -11.244  14.910  72.898  1.00  0.00    -0.125 OA 
HETATM   44  H   UNL     1     -10.785  15.467  73.516  1.00  0.00     0.000 HD 
ENDBRANCH  39  42
ENDBRANCH  36  39
ENDBRANCH  34  36
ENDBRANCH  31  32
ENDBRANCH  30  31
ENDBRANCH  28  30
ENDBRANCH  25  26
ENDBRANCH  24  25
ENDBRANCH  23  24
ENDBRANCH  22  23
ENDBRANCH  21  22
ENDBRANCH  20  21
ENDBRANCH  18  20
ENDBRANCH  15  16
ENDBRANCH  14  15
ENDBRANCH  12  14
ENDBRANCH   7  10
ENDBRANCH   2   7
TORSDOF 19
ENDMDL
MODEL      177
REMARK 921   NORMALIZED FREE ENERGY PREDICTED BY IDOCK:   -4.37 KCAL/MOL
REMARK 922        TOTAL FREE ENERGY PREDICTED BY IDOCK:  -11.41 KCAL/MOL
REMARK 923 INTER-LIGAND FREE ENERGY PREDICTED BY IDOCK:   -9.30 KCAL/MOL
REMARK 924 INTRA-LIGAND FREE ENERGY PREDICTED BY IDOCK:   -2.11 KCAL/MOL
REMARK 927      BINDING AFFINITY PREDICTED BY RF-SCORE:    0.00 PKD
ROOT
HETATM    1  C   UNL     1     -11.601  15.044  68.153  1.00  0.00    -0.360 C  
HETATM    2  C   UNL     1     -10.650  15.778  69.116  1.00  0.00    -0.242 C  
HETATM    3  C   UNL     1      -9.201  15.281  68.893  1.00  0.00    -0.211 C  
ENDROOT
BRANCH   2   4
HETATM    4  C   UNL     1     -10.658  17.285  68.779  1.00  0.00    -0.305 C  
HETATM    5  O   UNL     1      -9.335  17.779  68.584  1.00  0.00    -0.286 OA 
HETATM    6  H   UNL     1      -9.340  18.706  68.377  1.00  0.00     0.000 HD 
ENDBRANCH   2   4
BRANCH   2   7
HETATM    7  C   UNL     1     -11.075  15.570  70.604  1.00  0.00    -0.352 C  
HETATM    8  O   UNL     1     -11.504  16.787  71.238  1.00  0.00    -0.519 OA 
HETATM    9  H   UNL     1     -11.762  16.660  72.143  1.00  0.00     0.000 HD 
BRANCH   7  10
HETATM   10  C   UNL     1     -12.184  14.517  70.824  1.00  0.00    -0.333 C  
HETATM   11  O   UNL     1     -13.381  14.773  70.923  1.00  0.00    -0.372 OA 
HETATM   12  N   UNL     1     -11.708  13.225  70.828  1.00  0.00    -0.421 N  
HETATM   13  H   UNL     1     -10.702  13.058  70.811  1.00  0.00     0.000 HD 
BRANCH  12  14
HETATM   14  C   UNL     1     -12.618  12.100  70.857  1.00  0.00    -0.247 C  
BRANCH  14  15
HETATM   15  C   UNL     1     -12.234  10.991  69.883  1.00  0.00    -0.408 C  
BRANCH  15  16
HETATM   16  C   UNL     1     -11.717   9.811  70.675  1.00  0.00    -0.300 C  
HETATM   17  O   UNL     1     -10.585   9.796  71.148  1.00  0.00    -0.297 OA 
HETATM   18  N   UNL     1     -12.628   8.792  70.832  1.00  0.00    -0.494 N  
HETATM   19  H   UNL     1     -13.558   8.930  70.438  1.00  0.00     0.000 HD 
BRANCH  18  20
HETATM   20  C   UNL     1     -12.369   7.524  71.520  1.00  0.00    -0.339 C  
BRANCH  20  21
HETATM   21  C   UNL     1     -11.559   6.470  70.761  1.00  0.00    -0.377 C  
BRANCH  21  22
HETATM   22  S   UNL     1      -9.933   6.055  71.501  1.00  0.00    -0.180 SA 
BRANCH  22  23
HETATM   23  S   UNL     1      -9.999   4.010  71.742  1.00  0.00    -0.137 SA 
BRANCH  23  24
HETATM   24  C   UNL     1      -9.370   3.433  70.131  1.00  0.00    -0.174 C  
BRANCH  24  25
HETATM   25  C   UNL     1      -8.592   4.539  69.414  1.00  0.00    -0.081 C  
BRANCH  25  26
HETATM   26  N   UNL     1      -9.111   4.899  68.097  1.00  0.00    -0.110 N  
HETATM   27  H   UNL     1      -9.901   5.543  68.050  1.00  0.00     0.000 HD 
HETATM   28  C   UNL     1      -8.592   4.416  66.914  1.00  0.00    -0.104 C  
HETATM   29  O   UNL     1      -7.682   3.596  66.853  1.00  0.00    -0.079 OA 
BRANCH  28  30
HETATM   30  C   UNL     1      -9.211   5.011  65.670  1.00  0.00    -0.161 C  
BRANCH  30  31
HETATM   31  C   UNL     1      -8.514   6.322  65.321  1.00  0.00    -0.111 C  
BRANCH  31  32
HETATM   32  N   UNL     1      -9.209   7.473  65.866  1.00  0.00    -0.383 N  
HETATM   33  H   UNL     1     -10.059   7.798  65.404  1.00  0.00     0.000 HD 
HETATM   34  C   UNL     1      -8.765   8.142  66.982  1.00  0.00    -0.131 C  
HETATM   35  O   UNL     1      -7.708   7.884  67.551  1.00  0.00    -0.112 OA 
BRANCH  34  36
HETATM   36  C   UNL     1      -9.681   9.306  67.422  1.00  0.00    -0.161 C  
HETATM   37  O   UNL     1     -11.059   8.923  67.286  1.00  0.00    -0.373 OA 
HETATM   38  H   UNL     1     -11.623   9.639  67.556  1.00  0.00     0.000 HD 
BRANCH  36  39
HETATM   39  C   UNL     1      -9.415  10.628  66.651  1.00  0.00    -0.195 C  
HETATM   40  C   UNL     1      -9.188  11.809  67.617  1.00  0.00    -0.180 C  
HETATM   41  C   UNL     1      -8.124  10.464  65.814  1.00  0.00    -0.155 C  
BRANCH  39  42
HETATM   42  C   UNL     1     -10.600  10.936  65.704  1.00  0.00    -0.164 C  
HETATM   43  O   UNL     1     -11.633  11.657  66.367  1.00  0.00    -0.447 OA 
HETATM   44  H   UNL     1     -12.361  11.845  65.786  1.00  0.00     0.000 HD 
ENDBRANCH  39  42
ENDBRANCH  36  39
ENDBRANCH  34  36
ENDBRANCH  31  32
ENDBRANCH  30  31
ENDBRANCH  28  30
ENDBRANCH  25  26
ENDBRANCH  24  25
ENDBRANCH  23  24
ENDBRANCH  22  23
ENDBRANCH  21  22
ENDBRANCH  20  21
ENDBRANCH  18  20
ENDBRANCH  15  16
ENDBRANCH  14  15
ENDBRANCH  12  14
ENDBRANCH   7  10
ENDBRANCH   2   7
TORSDOF 19
ENDMDL
MODEL      178
REMARK 921   NORMALIZED FREE ENERGY PREDICTED BY IDOCK:   -4.37 KCAL/MOL
REMARK 922        TOTAL FREE ENERGY PREDICTED BY IDOCK:  -11.40 KCAL/MOL
REMARK 923 INTER-LIGAND FREE ENERGY PREDICTED BY IDOCK:   -9.98 KCAL/MOL
REMARK 924 INTRA-LIGAND FREE ENERGY PREDICTED BY IDOCK:   -1.42 KCAL/MOL
REMARK 927      BINDING AFFINITY PREDICTED BY RF-SCORE:    0.00 PKD
ROOT
HETATM    1  C   UNL     1      -6.100  14.066  67.842  1.00  0.00    -0.155 C  
HETATM    2  C   UNL     1      -6.565  15.254  68.705  1.00  0.00    -0.097 C  
HETATM    3  C   UNL     1      -8.111  15.253  68.800  1.00  0.00    -0.165 C  
ENDROOT
BRANCH   2   4
HETATM    4  C   UNL     1      -6.034  15.070  70.142  1.00  0.00    -0.147 C  
HETATM    5  O   UNL     1      -6.426  13.811  70.683  1.00  0.00    -0.411 OA 
HETATM    6  H   UNL     1      -6.099  13.698  71.568  1.00  0.00     0.000 HD 
ENDBRANCH   2   4
BRANCH   2   7
HETATM    7  C   UNL     1      -6.056  16.611  68.125  1.00  0.00    -0.125 C  
HETATM    8  O   UNL     1      -5.624  16.507  66.758  1.00  0.00    -0.336 OA 
HETATM    9  H   UNL     1      -5.315  17.333  66.405  1.00  0.00     0.000 HD 
BRANCH   7  10
HETATM   10  C   UNL     1      -7.068  17.776  68.205  1.00  0.00    -0.219 C  
HETATM   11  O   UNL     1      -7.272  18.457  69.206  1.00  0.00    -0.214 OA 
HETATM   12  N   UNL     1      -7.686  18.037  67.002  1.00  0.00    -0.210 N  
HETATM   13  H   UNL     1      -7.539  17.407  66.213  1.00  0.00     0.000 HD 
BRANCH  12  14
HETATM   14  C   UNL     1      -8.539  19.193  66.843  1.00  0.00    -0.299 C  
BRANCH  14  15
HETATM   15  C   UNL     1     -10.011  18.896  67.109  1.00  0.00    -0.382 C  
BRANCH  15  16
HETATM   16  C   UNL     1     -10.629  18.343  65.844  1.00  0.00    -0.285 C  
HETATM   17  O   UNL     1     -11.031  19.077  64.946  1.00  0.00    -0.349 OA 
HETATM   18  N   UNL     1     -10.668  16.969  65.787  1.00  0.00    -0.228 N  
HETATM   19  H   UNL     1     -10.262  16.456  66.568  1.00  0.00     0.000 HD 
BRANCH  18  20
HETATM   20  C   UNL     1     -11.248  16.184  64.694  1.00  0.00    -0.298 C  
BRANCH  20  21
HETATM   21  C   UNL     1     -11.854  14.825  65.055  1.00  0.00    -0.343 C  
BRANCH  21  22
HETATM   22  S   UNL     1     -11.318  14.137  66.669  1.00  0.00    -0.358 SA 
BRANCH  22  23
HETATM   23  S   UNL     1      -9.653  13.015  66.206  1.00  0.00    -0.197 SA 
BRANCH  23  24
HETATM   24  C   UNL     1     -10.091  12.378  64.555  1.00  0.00    -0.250 C  
BRANCH  24  25
HETATM   25  C   UNL     1     -10.943  11.111  64.659  1.00  0.00    -0.168 C  
BRANCH  25  26
HETATM   26  N   UNL     1     -10.238   9.938  65.170  1.00  0.00    -0.275 N  
HETATM   27  H   UNL     1      -9.608   9.442  64.540  1.00  0.00     0.000 HD 
HETATM   28  C   UNL     1     -10.378   9.466  66.459  1.00  0.00    -0.198 C  
HETATM   29  O   UNL     1     -11.147   9.950  67.283  1.00  0.00    -0.208 OA 
BRANCH  28  30
HETATM   30  C   UNL     1      -9.467   8.310  66.804  1.00  0.00    -0.256 C  
BRANCH  30  31
HETATM   31  C   UNL     1     -10.301   7.073  67.124  1.00  0.00    -0.281 C  
BRANCH  31  32
HETATM   32  N   UNL     1     -10.986   7.190  68.398  1.00  0.00    -0.447 N  
HETATM   33  H   UNL     1     -11.927   7.581  68.416  1.00  0.00     0.000 HD 
HETATM   34  C   UNL     1     -10.411   6.792  69.582  1.00  0.00    -0.198 C  
HETATM   35  O   UNL     1      -9.253   6.395  69.674  1.00  0.00    -0.142 OA 
BRANCH  34  36
HETATM   36  C   UNL     1     -11.332   6.956  70.812  1.00  0.00    -0.310 C  
HETATM   37  O   UNL     1     -12.707   6.845  70.414  1.00  0.00    -0.565 OA 
HETATM   38  H   UNL     1     -13.273   6.946  71.170  1.00  0.00     0.000 HD 
BRANCH  36  39
HETATM   39  C   UNL     1     -11.104   8.287  71.581  1.00  0.00    -0.326 C  
HETATM   40  C   UNL     1     -12.431   9.038  71.815  1.00  0.00    -0.438 C  
HETATM   41  C   UNL     1     -10.507   7.963  72.971  1.00  0.00    -0.410 C  
BRANCH  39  42
HETATM   42  C   UNL     1     -10.115   9.186  70.800  1.00  0.00    -0.268 C  
HETATM   43  O   UNL     1     -10.650  10.485  70.569  1.00  0.00    -0.420 OA 
HETATM   44  H   UNL     1     -10.044  11.037  70.089  1.00  0.00     0.000 HD 
ENDBRANCH  39  42
ENDBRANCH  36  39
ENDBRANCH  34  36
ENDBRANCH  31  32
ENDBRANCH  30  31
ENDBRANCH  28  30
ENDBRANCH  25  26
ENDBRANCH  24  25
ENDBRANCH  23  24
ENDBRANCH  22  23
ENDBRANCH  21  22
ENDBRANCH  20  21
ENDBRANCH  18  20
ENDBRANCH  15  16
ENDBRANCH  14  15
ENDBRANCH  12  14
ENDBRANCH   7  10
ENDBRANCH   2   7
TORSDOF 19
ENDMDL
MODEL      179
REMARK 921   NORMALIZED FREE ENERGY PREDICTED BY IDOCK:   -4.37 KCAL/MOL
REMARK 922        TOTAL FREE ENERGY PREDICTED BY IDOCK:  -11.40 KCAL/MOL
REMARK 923 INTER-LIGAND FREE ENERGY PREDICTED BY IDOCK:   -9.48 KCAL/MOL
REMARK 924 INTRA-LIGAND FREE ENERGY PREDICTED BY IDOCK:   -1.92 KCAL/MOL
REMARK 927      BINDING AFFINITY PREDICTED BY RF-SCORE:    0.00 PKD
ROOT
HETATM    1  C   UNL     1     -11.181   8.295  72.543  1.00  0.00    -0.446 C  
HETATM    2  C   UNL     1     -11.287   8.900  71.131  1.00  0.00    -0.357 C  
HETATM    3  C   UNL     1     -10.003   9.706  70.814  1.00  0.00    -0.260 C  
ENDROOT
BRANCH   2   4
HETATM    4  C   UNL     1     -11.355   7.755  70.097  1.00  0.00    -0.110 C  
HETATM    5  O   UNL     1     -11.275   8.254  68.764  1.00  0.00    -0.349 OA 
HETATM    6  H   UNL     1     -11.318   7.549  68.128  1.00  0.00     0.000 HD 
ENDBRANCH   2   4
BRANCH   2   7
HETATM    7  C   UNL     1     -12.549   9.808  70.994  1.00  0.00    -0.314 C  
HETATM    8  O   UNL     1     -13.016  10.309  72.258  1.00  0.00    -0.443 OA 
HETATM    9  H   UNL     1     -13.783  10.862  72.175  1.00  0.00     0.000 HD 
BRANCH   7  10
HETATM   10  C   UNL     1     -12.382  11.019  70.049  1.00  0.00    -0.305 C  
HETATM   11  O   UNL     1     -12.278  10.944  68.828  1.00  0.00    -0.518 OA 
HETATM   12  N   UNL     1     -12.434  12.228  70.707  1.00  0.00    -0.322 N  
HETATM   13  H   UNL     1     -12.453  12.246  71.727  1.00  0.00     0.000 HD 
BRANCH  12  14
HETATM   14  C   UNL     1     -12.461  13.472  69.970  1.00  0.00    -0.167 C  
BRANCH  14  15
HETATM   15  C   UNL     1     -11.078  13.943  69.533  1.00  0.00    -0.178 C  
BRANCH  15  16
HETATM   16  C   UNL     1     -11.232  14.838  68.323  1.00  0.00    -0.286 C  
HETATM   17  O   UNL     1     -11.869  14.486  67.335  1.00  0.00    -0.389 OA 
HETATM   18  N   UNL     1     -10.626  16.067  68.448  1.00  0.00    -0.258 N  
HETATM   19  H   UNL     1     -10.164  16.274  69.332  1.00  0.00     0.000 HD 
BRANCH  18  20
HETATM   20  C   UNL     1     -10.592  17.102  67.411  1.00  0.00    -0.297 C  
BRANCH  20  21
HETATM   21  C   UNL     1     -10.637  18.560  67.878  1.00  0.00    -0.348 C  
BRANCH  21  22
HETATM   22  S   UNL     1      -9.076  19.193  68.604  1.00  0.00    -0.356 SA 
BRANCH  22  23
HETATM   23  S   UNL     1      -7.996  19.848  66.976  1.00  0.00    -0.315 SA 
BRANCH  23  24
HETATM   24  C   UNL     1      -6.437  18.925  67.179  1.00  0.00    -0.191 C  
BRANCH  24  25
HETATM   25  C   UNL     1      -6.409  17.683  66.284  1.00  0.00    -0.244 C  
BRANCH  25  26
HETATM   26  N   UNL     1      -7.244  16.576  66.745  1.00  0.00    -0.220 N  
HETATM   27  H   UNL     1      -8.257  16.671  66.666  1.00  0.00     0.000 HD 
HETATM   28  C   UNL     1      -6.738  15.411  67.281  1.00  0.00    -0.061 C  
HETATM   29  O   UNL     1      -5.543  15.212  67.474  1.00  0.00    -0.318 OA 
BRANCH  28  30
HETATM   30  C   UNL     1      -7.779  14.357  67.584  1.00  0.00    -0.198 C  
BRANCH  30  31
HETATM   31  C   UNL     1      -7.123  12.981  67.636  1.00  0.00    -0.156 C  
BRANCH  31  32
HETATM   32  N   UNL     1      -7.459  12.170  66.481  1.00  0.00    -0.360 N  
HETATM   33  H   UNL     1      -6.910  12.277  65.628  1.00  0.00     0.000 HD 
HETATM   34  C   UNL     1      -8.493  11.263  66.494  1.00  0.00    -0.171 C  
HETATM   35  O   UNL     1      -9.265  11.130  67.438  1.00  0.00    -0.152 OA 
BRANCH  34  36
HETATM   36  C   UNL     1      -8.646  10.469  65.177  1.00  0.00    -0.180 C  
HETATM   37  O   UNL     1     -10.029  10.416  64.795  1.00  0.00    -0.314 OA 
HETATM   38  H   UNL     1     -10.123   9.927  63.985  1.00  0.00     0.000 HD 
BRANCH  36  39
HETATM   39  C   UNL     1      -8.055   9.033  65.249  1.00  0.00    -0.126 C  
HETATM   40  C   UNL     1      -6.815   8.979  66.165  1.00  0.00    -0.081 C  
HETATM   41  C   UNL     1      -9.118   8.088  65.856  1.00  0.00    -0.159 C  
BRANCH  39  42
HETATM   42  C   UNL     1      -7.688   8.541  63.828  1.00  0.00    -0.142 C  
HETATM   43  O   UNL     1      -8.846   8.211  63.067  1.00  0.00    -0.386 OA 
HETATM   44  H   UNL     1      -8.621   7.909  62.195  1.00  0.00     0.000 HD 
ENDBRANCH  39  42
ENDBRANCH  36  39
ENDBRANCH  34  36
ENDBRANCH  31  32
ENDBRANCH  30  31
ENDBRANCH  28  30
ENDBRANCH  25  26
ENDBRANCH  24  25
ENDBRANCH  23  24
ENDBRANCH  22  23
ENDBRANCH  21  22
ENDBRANCH  20  21
ENDBRANCH  18  20
ENDBRANCH  15  16
ENDBRANCH  14  15
ENDBRANCH  12  14
ENDBRANCH   7  10
ENDBRANCH   2   7
TORSDOF 19
ENDMDL
MODEL      180
REMARK 921   NORMALIZED FREE ENERGY PREDICTED BY IDOCK:   -4.36 KCAL/MOL
REMARK 922        TOTAL FREE ENERGY PREDICTED BY IDOCK:  -11.38 KCAL/MOL
REMARK 923 INTER-LIGAND FREE ENERGY PREDICTED BY IDOCK:   -8.78 KCAL/MOL
REMARK 924 INTRA-LIGAND FREE ENERGY PREDICTED BY IDOCK:   -2.60 KCAL/MOL
REMARK 927      BINDING AFFINITY PREDICTED BY RF-SCORE:    0.00 PKD
ROOT
HETATM    1  C   UNL     1     -10.393  12.037  65.146  1.00  0.00    -0.313 C  
HETATM    2  C   UNL     1     -11.201  13.263  65.609  1.00  0.00    -0.304 C  
HETATM    3  C   UNL     1     -10.654  14.537  64.919  1.00  0.00    -0.450 C  
ENDROOT
BRANCH   2   4
HETATM    4  C   UNL     1     -12.665  13.105  65.147  1.00  0.00    -0.405 C  
HETATM    5  O   UNL     1     -13.376  14.336  65.245  1.00  0.00    -0.660 OA 
HETATM    6  H   UNL     1     -14.278  14.238  64.961  1.00  0.00     0.000 HD 
ENDBRANCH   2   4
BRANCH   2   7
HETATM    7  C   UNL     1     -11.153  13.422  67.162  1.00  0.00    -0.286 C  
HETATM    8  O   UNL     1     -12.176  14.298  67.665  1.00  0.00    -0.573 OA 
HETATM    9  H   UNL     1     -12.147  14.395  68.609  1.00  0.00     0.000 HD 
BRANCH   7  10
HETATM   10  C   UNL     1     -11.245  12.100  67.956  1.00  0.00    -0.264 C  
HETATM   11  O   UNL     1     -12.211  11.343  67.944  1.00  0.00    -0.592 OA 
HETATM   12  N   UNL     1     -10.088  11.801  68.641  1.00  0.00    -0.288 N  
HETATM   13  H   UNL     1      -9.334  12.487  68.680  1.00  0.00     0.000 HD 
BRANCH  12  14
HETATM   14  C   UNL     1      -9.928  10.526  69.305  1.00  0.00    -0.213 C  
BRANCH  14  15
HETATM   15  C   UNL     1      -9.358   9.441  68.398  1.00  0.00    -0.137 C  
BRANCH  15  16
HETATM   16  C   UNL     1      -9.590   8.096  69.048  1.00  0.00    -0.156 C  
HETATM   17  O   UNL     1      -8.660   7.352  69.346  1.00  0.00    -0.132 OA 
HETATM   18  N   UNL     1     -10.912   7.807  69.294  1.00  0.00    -0.427 N  
HETATM   19  H   UNL     1     -11.600   8.519  69.051  1.00  0.00     0.000 HD 
BRANCH  18  20
HETATM   20  C   UNL     1     -11.412   6.559  69.878  1.00  0.00    -0.403 C  
BRANCH  20  21
HETATM   21  C   UNL     1     -12.061   6.646  71.262  1.00  0.00    -0.341 C  
BRANCH  21  22
HETATM   22  S   UNL     1     -11.120   7.612  72.505  1.00  0.00    -0.364 SA 
BRANCH  22  23
HETATM   23  S   UNL     1     -10.388   6.184  73.798  1.00  0.00    -0.292 SA 
BRANCH  23  24
HETATM   24  C   UNL     1     -11.381   4.728  73.332  1.00  0.00    -0.312 C  
BRANCH  24  25
HETATM   25  C   UNL     1     -10.548   3.446  73.402  1.00  0.00    -0.191 C  
BRANCH  25  26
HETATM   26  N   UNL     1      -9.721   3.186  72.226  1.00  0.00    -0.144 N  
HETATM   27  H   UNL     1     -10.184   2.886  71.368  1.00  0.00     0.000 HD 
HETATM   28  C   UNL     1      -8.349   3.324  72.213  1.00  0.00    -0.078 C  
HETATM   29  O   UNL     1      -7.684   3.624  73.199  1.00  0.00    -0.064 OA 
BRANCH  28  30
HETATM   30  C   UNL     1      -7.711   3.114  70.859  1.00  0.00    -0.043 C  
BRANCH  30  31
HETATM   31  C   UNL     1      -8.731   3.392  69.758  1.00  0.00    -0.077 C  
BRANCH  31  32
HETATM   32  N   UNL     1      -8.253   4.377  68.806  1.00  0.00    -0.080 N  
HETATM   33  H   UNL     1      -8.077   5.328  69.130  1.00  0.00     0.000 HD 
HETATM   34  C   UNL     1      -8.028   4.075  67.484  1.00  0.00    -0.091 C  
HETATM   35  O   UNL     1      -8.296   2.987  66.982  1.00  0.00    -0.086 OA 
BRANCH  34  36
HETATM   36  C   UNL     1      -7.472   5.256  66.657  1.00  0.00    -0.087 C  
HETATM   37  O   UNL     1      -6.912   6.247  67.533  1.00  0.00    -0.064 OA 
HETATM   38  H   UNL     1      -6.570   6.974  67.024  1.00  0.00     0.000 HD 
BRANCH  36  39
HETATM   39  C   UNL     1      -8.527   5.905  65.719  1.00  0.00    -0.148 C  
HETATM   40  C   UNL     1      -9.950   5.788  66.304  1.00  0.00    -0.129 C  
HETATM   41  C   UNL     1      -8.209   7.413  65.581  1.00  0.00    -0.137 C  
BRANCH  39  42
HETATM   42  C   UNL     1      -8.471   5.243  64.321  1.00  0.00    -0.115 C  
HETATM   43  O   UNL     1      -8.782   6.168  63.285  1.00  0.00    -0.332 OA 
HETATM   44  H   UNL     1      -8.747   5.761  62.426  1.00  0.00     0.000 HD 
ENDBRANCH  39  42
ENDBRANCH  36  39
ENDBRANCH  34  36
ENDBRANCH  31  32
ENDBRANCH  30  31
ENDBRANCH  28  30
ENDBRANCH  25  26
ENDBRANCH  24  25
ENDBRANCH  23  24
ENDBRANCH  22  23
ENDBRANCH  21  22
ENDBRANCH  20  21
ENDBRANCH  18  20
ENDBRANCH  15  16
ENDBRANCH  14  15
ENDBRANCH  12  14
ENDBRANCH   7  10
ENDBRANCH   2   7
TORSDOF 19
ENDMDL
MODEL      181
REMARK 921   NORMALIZED FREE ENERGY PREDICTED BY IDOCK:   -4.34 KCAL/MOL
REMARK 922        TOTAL FREE ENERGY PREDICTED BY IDOCK:  -11.34 KCAL/MOL
REMARK 923 INTER-LIGAND FREE ENERGY PREDICTED BY IDOCK:   -9.96 KCAL/MOL
REMARK 924 INTRA-LIGAND FREE ENERGY PREDICTED BY IDOCK:   -1.39 KCAL/MOL
REMARK 927      BINDING AFFINITY PREDICTED BY RF-SCORE:    0.00 PKD
ROOT
HETATM    1  C   UNL     1      -9.073   2.081  64.930  1.00  0.00    -0.130 C  
HETATM    2  C   UNL     1      -9.585   3.271  64.097  1.00  0.00    -0.144 C  
HETATM    3  C   UNL     1      -8.580   3.578  62.959  1.00  0.00    -0.089 C  
ENDROOT
BRANCH   2   4
HETATM    4  C   UNL     1     -10.913   2.875  63.419  1.00  0.00    -0.153 C  
HETATM    5  O   UNL     1     -11.305   1.552  63.777  1.00  0.00    -0.460 OA 
HETATM    6  H   UNL     1     -12.122   1.308  63.358  1.00  0.00     0.000 HD 
ENDBRANCH   2   4
BRANCH   2   7
HETATM    7  C   UNL     1      -9.804   4.535  64.987  1.00  0.00    -0.111 C  
HETATM    8  O   UNL     1     -11.155   4.653  65.464  1.00  0.00    -0.852 OA 
HETATM    9  H   UNL     1     -11.288   5.422  66.006  1.00  0.00     0.000 HD 
BRANCH   7  10
HETATM   10  C   UNL     1      -8.869   4.641  66.212  1.00  0.00    -0.113 C  
HETATM   11  O   UNL     1      -7.650   4.778  66.150  1.00  0.00    -0.088 OA 
HETATM   12  N   UNL     1      -9.547   4.643  67.410  1.00  0.00    -0.157 N  
HETATM   13  H   UNL     1     -10.550   4.460  67.422  1.00  0.00     0.000 HD 
BRANCH  12  14
HETATM   14  C   UNL     1      -8.854   4.900  68.653  1.00  0.00    -0.098 C  
BRANCH  14  15
HETATM   15  C   UNL     1      -9.645   4.468  69.884  1.00  0.00    -0.269 C  
BRANCH  15  16
HETATM   16  C   UNL     1     -10.507   5.625  70.335  1.00  0.00    -0.285 C  
HETATM   17  O   UNL     1     -11.280   6.193  69.570  1.00  0.00    -0.389 OA 
HETATM   18  N   UNL     1     -10.362   5.954  71.664  1.00  0.00    -0.212 N  
HETATM   19  H   UNL     1      -9.726   5.385  72.221  1.00  0.00     0.000 HD 
BRANCH  18  20
HETATM   20  C   UNL     1     -11.049   7.056  72.342  1.00  0.00    -0.259 C  
BRANCH  20  21
HETATM   21  C   UNL     1     -10.463   8.460  72.164  1.00  0.00    -0.326 C  
BRANCH  21  22
HETATM   22  S   UNL     1     -11.543   9.648  71.278  1.00  0.00    -0.406 SA 
BRANCH  22  23
HETATM   23  S   UNL     1     -10.899   9.549  69.323  1.00  0.00    -0.148 SA 
BRANCH  23  24
HETATM   24  C   UNL     1      -9.222  10.252  69.456  1.00  0.00    -0.170 C  
BRANCH  24  25
HETATM   25  C   UNL     1      -9.005  11.361  68.425  1.00  0.00    -0.172 C  
BRANCH  25  26
HETATM   26  N   UNL     1      -9.915  12.497  68.544  1.00  0.00    -0.334 N  
HETATM   27  H   UNL     1      -9.795  13.130  69.335  1.00  0.00     0.000 HD 
HETATM   28  C   UNL     1     -10.927  12.762  67.645  1.00  0.00    -0.244 C  
HETATM   29  O   UNL     1     -11.198  12.040  66.691  1.00  0.00    -0.293 OA 
BRANCH  28  30
HETATM   30  C   UNL     1     -11.672  14.052  67.903  1.00  0.00    -0.397 C  
BRANCH  30  31
HETATM   31  C   UNL     1     -10.717  15.095  68.477  1.00  0.00    -0.240 C  
BRANCH  31  32
HETATM   32  N   UNL     1     -10.429  16.154  67.528  1.00  0.00    -0.297 N  
HETATM   33  H   UNL     1     -11.105  16.348  66.789  1.00  0.00     0.000 HD 
HETATM   34  C   UNL     1      -9.280  16.907  67.590  1.00  0.00    -0.228 C  
HETATM   35  O   UNL     1      -8.370  16.689  68.384  1.00  0.00    -0.190 OA 
BRANCH  34  36
HETATM   36  C   UNL     1      -9.198  18.015  66.517  1.00  0.00    -0.275 C  
HETATM   37  O   UNL     1      -7.936  17.943  65.834  1.00  0.00    -0.523 OA 
HETATM   38  H   UNL     1      -7.886  18.625  65.174  1.00  0.00     0.000 HD 
BRANCH  36  39
HETATM   39  C   UNL     1      -9.418  19.444  67.086  1.00  0.00    -0.398 C  
HETATM   40  C   UNL     1     -10.359  20.271  66.185  1.00  0.00    -0.385 C  
HETATM   41  C   UNL     1     -10.093  19.328  68.473  1.00  0.00    -0.513 C  
BRANCH  39  42
HETATM   42  C   UNL     1      -8.058  20.167  67.240  1.00  0.00    -0.330 C  
HETATM   43  O   UNL     1      -7.229  19.533  68.209  1.00  0.00    -0.281 OA 
HETATM   44  H   UNL     1      -6.394  19.977  68.303  1.00  0.00     0.000 HD 
ENDBRANCH  39  42
ENDBRANCH  36  39
ENDBRANCH  34  36
ENDBRANCH  31  32
ENDBRANCH  30  31
ENDBRANCH  28  30
ENDBRANCH  25  26
ENDBRANCH  24  25
ENDBRANCH  23  24
ENDBRANCH  22  23
ENDBRANCH  21  22
ENDBRANCH  20  21
ENDBRANCH  18  20
ENDBRANCH  15  16
ENDBRANCH  14  15
ENDBRANCH  12  14
ENDBRANCH   7  10
ENDBRANCH   2   7
TORSDOF 19
ENDMDL
MODEL      182
REMARK 921   NORMALIZED FREE ENERGY PREDICTED BY IDOCK:   -4.34 KCAL/MOL
REMARK 922        TOTAL FREE ENERGY PREDICTED BY IDOCK:  -11.33 KCAL/MOL
REMARK 923 INTER-LIGAND FREE ENERGY PREDICTED BY IDOCK:   -9.06 KCAL/MOL
REMARK 924 INTRA-LIGAND FREE ENERGY PREDICTED BY IDOCK:   -2.27 KCAL/MOL
REMARK 927      BINDING AFFINITY PREDICTED BY RF-SCORE:    0.00 PKD
ROOT
HETATM    1  C   UNL     1      -9.764  13.367  66.249  1.00  0.00    -0.280 C  
HETATM    2  C   UNL     1     -10.367  12.109  66.904  1.00  0.00    -0.235 C  
HETATM    3  C   UNL     1     -11.434  12.528  67.946  1.00  0.00    -0.369 C  
ENDROOT
BRANCH   2   4
HETATM    4  C   UNL     1     -11.101  11.284  65.826  1.00  0.00    -0.084 C  
HETATM    5  O   UNL     1     -10.235  10.958  64.742  1.00  0.00    -0.293 OA 
HETATM    6  H   UNL     1     -10.687  10.451  64.079  1.00  0.00     0.000 HD 
ENDBRANCH   2   4
BRANCH   2   7
HETATM    7  C   UNL     1      -9.263  11.234  67.576  1.00  0.00    -0.158 C  
HETATM    8  O   UNL     1      -9.508   9.824  67.439  1.00  0.00    -0.148 OA 
HETATM    9  H   UNL     1      -8.837   9.292  67.848  1.00  0.00     0.000 HD 
BRANCH   7  10
HETATM   10  C   UNL     1      -7.824  11.504  67.081  1.00  0.00    -0.160 C  
HETATM   11  O   UNL     1      -7.384  11.156  65.990  1.00  0.00    -0.079 OA 
HETATM   12  N   UNL     1      -7.081  12.253  67.967  1.00  0.00    -0.089 N  
HETATM   13  H   UNL     1      -7.460  12.464  68.890  1.00  0.00     0.000 HD 
BRANCH  12  14
HETATM   14  C   UNL     1      -5.770  12.743  67.604  1.00  0.00    -0.134 C  
BRANCH  14  15
HETATM   15  C   UNL     1      -5.419  14.071  68.265  1.00  0.00    -0.112 C  
BRANCH  15  16
HETATM   16  C   UNL     1      -6.573  15.029  68.068  1.00  0.00    -0.145 C  
HETATM   17  O   UNL     1      -7.519  15.070  68.849  1.00  0.00    -0.123 OA 
HETATM   18  N   UNL     1      -6.448  15.848  66.970  1.00  0.00    -0.053 N  
HETATM   19  H   UNL     1      -5.596  15.763  66.417  1.00  0.00     0.000 HD 
BRANCH  18  20
HETATM   20  C   UNL     1      -7.439  16.835  66.533  1.00  0.00    -0.287 C  
BRANCH  20  21
HETATM   21  C   UNL     1      -7.326  18.246  67.117  1.00  0.00    -0.202 C  
BRANCH  21  22
HETATM   22  S   UNL     1      -8.491  18.619  68.483  1.00  0.00    -0.323 SA 
BRANCH  22  23
HETATM   23  S   UNL     1     -10.081  17.352  68.145  1.00  0.00    -0.350 SA 
BRANCH  23  24
HETATM   24  C   UNL     1     -10.291  16.585  69.786  1.00  0.00    -0.163 C  
BRANCH  24  25
HETATM   25  C   UNL     1     -11.687  15.976  69.936  1.00  0.00    -0.271 C  
BRANCH  25  26
HETATM   26  N   UNL     1     -11.752  14.797  70.796  1.00  0.00    -0.308 N  
HETATM   27  H   UNL     1     -10.896  14.265  70.950  1.00  0.00     0.000 HD 
HETATM   28  C   UNL     1     -12.909  14.364  71.410  1.00  0.00    -0.339 C  
HETATM   29  O   UNL     1     -14.004  14.892  71.251  1.00  0.00    -0.423 OA 
BRANCH  28  30
HETATM   30  C   UNL     1     -12.720  13.190  72.344  1.00  0.00    -0.016 C  
BRANCH  30  31
HETATM   31  C   UNL     1     -13.766  12.120  72.049  1.00  0.00    -0.006 C  
BRANCH  31  32
HETATM   32  N   UNL     1     -13.254  10.780  72.269  1.00  0.00    -0.567 N  
HETATM   33  H   UNL     1     -13.125  10.455  73.227  1.00  0.00     0.000 HD 
HETATM   34  C   UNL     1     -12.939   9.933  71.232  1.00  0.00    -0.395 C  
HETATM   35  O   UNL     1     -12.974  10.265  70.051  1.00  0.00    -0.084 OA 
BRANCH  34  36
HETATM   36  C   UNL     1     -12.460   8.536  71.688  1.00  0.00    -0.330 C  
HETATM   37  O   UNL     1     -12.734   8.356  73.087  1.00  0.00    -0.656 OA 
HETATM   38  H   UNL     1     -12.439   7.498  73.367  1.00  0.00     0.000 HD 
BRANCH  36  39
HETATM   39  C   UNL     1     -10.956   8.273  71.399  1.00  0.00    -0.301 C  
HETATM   40  C   UNL     1     -10.276   9.511  70.777  1.00  0.00    -0.363 C  
HETATM   41  C   UNL     1     -10.237   7.977  72.736  1.00  0.00    -0.389 C  
BRANCH  39  42
HETATM   42  C   UNL     1     -10.804   7.054  70.458  1.00  0.00    -0.251 C  
HETATM   43  O   UNL     1     -12.068   6.528  70.065  1.00  0.00    -0.576 OA 
HETATM   44  H   UNL     1     -11.975   5.779  69.488  1.00  0.00     0.000 HD 
ENDBRANCH  39  42
ENDBRANCH  36  39
ENDBRANCH  34  36
ENDBRANCH  31  32
ENDBRANCH  30  31
ENDBRANCH  28  30
ENDBRANCH  25  26
ENDBRANCH  24  25
ENDBRANCH  23  24
ENDBRANCH  22  23
ENDBRANCH  21  22
ENDBRANCH  20  21
ENDBRANCH  18  20
ENDBRANCH  15  16
ENDBRANCH  14  15
ENDBRANCH  12  14
ENDBRANCH   7  10
ENDBRANCH   2   7
TORSDOF 19
ENDMDL
MODEL      183
REMARK 921   NORMALIZED FREE ENERGY PREDICTED BY IDOCK:   -4.30 KCAL/MOL
REMARK 922        TOTAL FREE ENERGY PREDICTED BY IDOCK:  -11.25 KCAL/MOL
REMARK 923 INTER-LIGAND FREE ENERGY PREDICTED BY IDOCK:   -9.37 KCAL/MOL
REMARK 924 INTRA-LIGAND FREE ENERGY PREDICTED BY IDOCK:   -1.88 KCAL/MOL
REMARK 927      BINDING AFFINITY PREDICTED BY RF-SCORE:    0.00 PKD
ROOT
HETATM    1  C   UNL     1     -11.562   8.902  71.288  1.00  0.00    -0.371 C  
HETATM    2  C   UNL     1     -11.881   7.444  71.670  1.00  0.00    -0.323 C  
HETATM    3  C   UNL     1     -11.190   7.096  73.011  1.00  0.00    -0.279 C  
ENDROOT
BRANCH   2   4
HETATM    4  C   UNL     1     -13.400   7.308  71.907  1.00  0.00    -0.223 C  
HETATM    5  O   UNL     1     -14.146   7.955  70.879  1.00  0.00    -0.627 OA 
HETATM    6  H   UNL     1     -15.081   7.871  71.026  1.00  0.00     0.000 HD 
ENDBRANCH   2   4
BRANCH   2   7
HETATM    7  C   UNL     1     -11.432   6.452  70.551  1.00  0.00    -0.379 C  
HETATM    8  O   UNL     1     -11.940   6.807  69.254  1.00  0.00    -0.486 OA 
HETATM    9  H   UNL     1     -11.666   6.203  68.574  1.00  0.00     0.000 HD 
BRANCH   7  10
HETATM   10  C   UNL     1      -9.903   6.270  70.416  1.00  0.00    -0.176 C  
HETATM   11  O   UNL     1      -9.119   7.158  70.097  1.00  0.00    -0.151 OA 
HETATM   12  N   UNL     1      -9.478   5.007  70.765  1.00  0.00    -0.160 N  
HETATM   13  H   UNL     1     -10.166   4.279  70.959  1.00  0.00     0.000 HD 
BRANCH  12  14
HETATM   14  C   UNL     1      -8.068   4.700  70.859  1.00  0.00    -0.082 C  
BRANCH  14  15
HETATM   15  C   UNL     1      -7.561   3.838  69.707  1.00  0.00    -0.052 C  
BRANCH  15  16
HETATM   16  C   UNL     1      -6.608   4.661  68.870  1.00  0.00    -0.045 C  
HETATM   17  O   UNL     1      -5.404   4.425  68.840  1.00  0.00    -0.010 OA 
HETATM   18  N   UNL     1      -7.212   5.660  68.141  1.00  0.00    -0.071 N  
HETATM   19  H   UNL     1      -8.227   5.737  68.203  1.00  0.00     0.000 HD 
BRANCH  18  20
HETATM   20  C   UNL     1      -6.515   6.621  67.283  1.00  0.00    -0.045 C  
BRANCH  20  21
HETATM   21  C   UNL     1      -7.285   7.881  66.877  1.00  0.00    -0.089 C  
BRANCH  21  22
HETATM   22  S   UNL     1      -9.057   7.619  66.483  1.00  0.00    -0.173 SA 
BRANCH  22  23
HETATM   23  S   UNL     1      -9.860   9.516  66.504  1.00  0.00    -0.258 SA 
BRANCH  23  24
HETATM   24  C   UNL     1      -8.820  10.339  67.755  1.00  0.00    -0.125 C  
BRANCH  24  25
HETATM   25  C   UNL     1      -9.672  10.932  68.879  1.00  0.00    -0.187 C  
BRANCH  25  26
HETATM   26  N   UNL     1     -10.211  12.261  68.604  1.00  0.00    -0.338 N  
HETATM   27  H   UNL     1      -9.694  12.869  67.969  1.00  0.00     0.000 HD 
HETATM   28  C   UNL     1     -11.380  12.740  69.157  1.00  0.00    -0.281 C  
HETATM   29  O   UNL     1     -12.052  12.119  69.975  1.00  0.00    -0.313 OA 
BRANCH  28  30
HETATM   30  C   UNL     1     -11.806  14.097  68.644  1.00  0.00    -0.383 C  
BRANCH  30  31
HETATM   31  C   UNL     1     -10.797  14.602  67.618  1.00  0.00    -0.284 C  
BRANCH  31  32
HETATM   32  N   UNL     1     -10.674  16.047  67.637  1.00  0.00    -0.316 N  
HETATM   33  H   UNL     1     -11.257  16.598  67.007  1.00  0.00     0.000 HD 
HETATM   34  C   UNL     1      -9.800  16.701  68.474  1.00  0.00    -0.252 C  
HETATM   35  O   UNL     1      -8.996  16.123  69.199  1.00  0.00    -0.242 OA 
BRANCH  34  36
HETATM   36  C   UNL     1      -9.866  18.241  68.369  1.00  0.00    -0.369 C  
HETATM   37  O   UNL     1     -10.999  18.631  67.577  1.00  0.00    -0.392 OA 
HETATM   38  H   UNL     1     -11.039  19.578  67.513  1.00  0.00     0.000 HD 
BRANCH  36  39
HETATM   39  C   UNL     1      -8.569  18.878  67.797  1.00  0.00    -0.318 C  
HETATM   40  C   UNL     1      -7.409  18.804  68.812  1.00  0.00    -0.342 C  
HETATM   41  C   UNL     1      -8.135  18.082  66.544  1.00  0.00    -0.298 C  
BRANCH  39  42
HETATM   42  C   UNL     1      -8.834  20.350  67.399  1.00  0.00    -0.325 C  
HETATM   43  O   UNL     1      -9.244  20.465  66.040  1.00  0.00    -0.609 OA 
HETATM   44  H   UNL     1      -9.406  21.368  65.795  1.00  0.00     0.000 HD 
ENDBRANCH  39  42
ENDBRANCH  36  39
ENDBRANCH  34  36
ENDBRANCH  31  32
ENDBRANCH  30  31
ENDBRANCH  28  30
ENDBRANCH  25  26
ENDBRANCH  24  25
ENDBRANCH  23  24
ENDBRANCH  22  23
ENDBRANCH  21  22
ENDBRANCH  20  21
ENDBRANCH  18  20
ENDBRANCH  15  16
ENDBRANCH  14  15
ENDBRANCH  12  14
ENDBRANCH   7  10
ENDBRANCH   2   7
TORSDOF 19
ENDMDL
MODEL      184
REMARK 921   NORMALIZED FREE ENERGY PREDICTED BY IDOCK:   -4.30 KCAL/MOL
REMARK 922        TOTAL FREE ENERGY PREDICTED BY IDOCK:  -11.25 KCAL/MOL
REMARK 923 INTER-LIGAND FREE ENERGY PREDICTED BY IDOCK:   -9.62 KCAL/MOL
REMARK 924 INTRA-LIGAND FREE ENERGY PREDICTED BY IDOCK:   -1.63 KCAL/MOL
REMARK 927      BINDING AFFINITY PREDICTED BY RF-SCORE:    0.00 PKD
ROOT
HETATM    1  C   UNL     1      -8.059  19.631  66.072  1.00  0.00    -0.322 C  
HETATM    2  C   UNL     1      -8.473  18.319  66.762  1.00  0.00    -0.272 C  
HETATM    3  C   UNL     1      -7.701  17.134  66.130  1.00  0.00    -0.302 C  
ENDROOT
BRANCH   2   4
HETATM    4  C   UNL     1      -8.055  18.377  68.247  1.00  0.00    -0.298 C  
HETATM    5  O   UNL     1      -7.933  17.070  68.803  1.00  0.00    -0.245 OA 
HETATM    6  H   UNL     1      -7.676  17.106  69.717  1.00  0.00     0.000 HD 
ENDBRANCH   2   4
BRANCH   2   7
HETATM    7  C   UNL     1     -10.013  18.083  66.658  1.00  0.00    -0.362 C  
HETATM    8  O   UNL     1     -10.596  18.705  65.500  1.00  0.00    -0.608 OA 
HETATM    9  H   UNL     1     -11.532  18.562  65.437  1.00  0.00     0.000 HD 
BRANCH   7  10
HETATM   10  C   UNL     1     -10.448  16.601  66.656  1.00  0.00    -0.258 C  
HETATM   11  O   UNL     1     -10.543  15.899  67.659  1.00  0.00    -0.292 OA 
HETATM   12  N   UNL     1     -10.799  16.143  65.405  1.00  0.00    -0.340 N  
HETATM   13  H   UNL     1     -10.642  16.736  64.590  1.00  0.00     0.000 HD 
BRANCH  12  14
HETATM   14  C   UNL     1     -11.387  14.833  65.234  1.00  0.00    -0.363 C  
BRANCH  14  15
HETATM   15  C   UNL     1     -10.439  13.828  64.587  1.00  0.00    -0.433 C  
BRANCH  15  16
HETATM   16  C   UNL     1     -10.193  12.699  65.564  1.00  0.00    -0.281 C  
HETATM   17  O   UNL     1     -10.790  12.628  66.634  1.00  0.00    -0.251 OA 
HETATM   18  N   UNL     1      -9.278  11.768  65.132  1.00  0.00    -0.424 N  
HETATM   19  H   UNL     1      -8.878  11.899  64.204  1.00  0.00     0.000 HD 
BRANCH  18  20
HETATM   20  C   UNL     1      -8.831  10.602  65.899  1.00  0.00    -0.174 C  
BRANCH  20  21
HETATM   21  C   UNL     1      -9.503   9.261  65.587  1.00  0.00    -0.256 C  
BRANCH  21  22
HETATM   22  S   UNL     1      -8.388   7.806  65.615  1.00  0.00    -0.138 SA 
BRANCH  22  23
HETATM   23  S   UNL     1      -7.143   8.159  67.219  1.00  0.00    -0.080 SA 
BRANCH  23  24
HETATM   24  C   UNL     1      -7.818   7.011  68.463  1.00  0.00    -0.122 C  
BRANCH  24  25
HETATM   25  C   UNL     1      -7.783   5.566  67.959  1.00  0.00    -0.092 C  
BRANCH  25  26
HETATM   26  N   UNL     1      -8.498   4.606  68.796  1.00  0.00    -0.084 N  
HETATM   27  H   UNL     1      -9.447   4.345  68.526  1.00  0.00     0.000 HD 
HETATM   28  C   UNL     1      -7.961   4.033  69.930  1.00  0.00    -0.055 C  
HETATM   29  O   UNL     1      -6.855   4.315  70.377  1.00  0.00    -0.032 OA 
BRANCH  28  30
HETATM   30  C   UNL     1      -8.836   2.983  70.575  1.00  0.00    -0.149 C  
BRANCH  30  31
HETATM   31  C   UNL     1      -9.301   3.466  71.945  1.00  0.00    -0.127 C  
BRANCH  31  32
HETATM   32  N   UNL     1      -9.570   4.892  71.959  1.00  0.00    -0.150 N  
HETATM   33  H   UNL     1      -8.874   5.527  71.569  1.00  0.00     0.000 HD 
HETATM   34  C   UNL     1     -10.729   5.418  72.481  1.00  0.00    -0.237 C  
HETATM   35  O   UNL     1     -11.581   4.744  73.053  1.00  0.00    -0.257 OA 
BRANCH  34  36
HETATM   36  C   UNL     1     -10.835   6.953  72.349  1.00  0.00    -0.235 C  
HETATM   37  O   UNL     1     -11.440   7.506  73.528  1.00  0.00    -0.608 OA 
HETATM   38  H   UNL     1     -11.505   8.451  73.447  1.00  0.00     0.000 HD 
BRANCH  36  39
HETATM   39  C   UNL     1     -11.611   7.413  71.083  1.00  0.00    -0.313 C  
HETATM   40  C   UNL     1     -11.373   6.457  69.897  1.00  0.00    -0.500 C  
HETATM   41  C   UNL     1     -13.126   7.392  71.395  1.00  0.00    -0.401 C  
BRANCH  39  42
HETATM   42  C   UNL     1     -11.190   8.852  70.699  1.00  0.00    -0.266 C  
HETATM   43  O   UNL     1      -9.969   9.231  71.325  1.00  0.00    -0.296 OA 
HETATM   44  H   UNL     1      -9.710  10.115  71.089  1.00  0.00     0.000 HD 
ENDBRANCH  39  42
ENDBRANCH  36  39
ENDBRANCH  34  36
ENDBRANCH  31  32
ENDBRANCH  30  31
ENDBRANCH  28  30
ENDBRANCH  25  26
ENDBRANCH  24  25
ENDBRANCH  23  24
ENDBRANCH  22  23
ENDBRANCH  21  22
ENDBRANCH  20  21
ENDBRANCH  18  20
ENDBRANCH  15  16
ENDBRANCH  14  15
ENDBRANCH  12  14
ENDBRANCH   7  10
ENDBRANCH   2   7
TORSDOF 19
ENDMDL
MODEL      185
REMARK 921   NORMALIZED FREE ENERGY PREDICTED BY IDOCK:   -4.27 KCAL/MOL
REMARK 922        TOTAL FREE ENERGY PREDICTED BY IDOCK:  -11.19 KCAL/MOL
REMARK 923 INTER-LIGAND FREE ENERGY PREDICTED BY IDOCK:   -9.38 KCAL/MOL
REMARK 924 INTRA-LIGAND FREE ENERGY PREDICTED BY IDOCK:   -1.80 KCAL/MOL
REMARK 927      BINDING AFFINITY PREDICTED BY RF-SCORE:    0.00 PKD
ROOT
HETATM    1  C   UNL     1     -12.476  14.507  64.172  1.00  0.00    -0.215 C  
HETATM    2  C   UNL     1     -11.321  13.864  64.964  1.00  0.00    -0.336 C  
HETATM    3  C   UNL     1     -11.865  13.281  66.292  1.00  0.00    -0.444 C  
ENDROOT
BRANCH   2   4
HETATM    4  C   UNL     1     -10.759  12.675  64.157  1.00  0.00    -0.406 C  
HETATM    5  O   UNL     1      -9.549  12.186  64.729  1.00  0.00    -0.443 OA 
HETATM    6  H   UNL     1      -9.202  11.454  64.232  1.00  0.00     0.000 HD 
ENDBRANCH   2   4
BRANCH   2   7
HETATM    7  C   UNL     1     -10.183  14.894  65.246  1.00  0.00    -0.373 C  
HETATM    8  O   UNL     1     -10.621  16.258  65.122  1.00  0.00    -0.576 OA 
HETATM    9  H   UNL     1      -9.929  16.885  65.294  1.00  0.00     0.000 HD 
BRANCH   7  10
HETATM   10  C   UNL     1      -9.500  14.751  66.624  1.00  0.00    -0.273 C  
HETATM   11  O   UNL     1      -9.904  15.266  67.662  1.00  0.00    -0.216 OA 
HETATM   12  N   UNL     1      -8.408  13.912  66.600  1.00  0.00    -0.395 N  
HETATM   13  H   UNL     1      -8.064  13.557  65.707  1.00  0.00     0.000 HD 
BRANCH  12  14
HETATM   14  C   UNL     1      -7.741  13.527  67.824  1.00  0.00    -0.163 C  
BRANCH  14  15
HETATM   15  C   UNL     1      -6.441  12.765  67.589  1.00  0.00    -0.152 C  
BRANCH  15  16
HETATM   16  C   UNL     1      -6.779  11.372  67.105  1.00  0.00    -0.121 C  
HETATM   17  O   UNL     1      -7.165  11.162  65.959  1.00  0.00    -0.069 OA 
HETATM   18  N   UNL     1      -6.586  10.385  68.044  1.00  0.00    -0.060 N  
HETATM   19  H   UNL     1      -6.215  10.667  68.950  1.00  0.00     0.000 HD 
BRANCH  18  20
HETATM   20  C   UNL     1      -6.873   8.962  67.846  1.00  0.00    -0.070 C  
BRANCH  20  21
HETATM   21  C   UNL     1      -6.094   7.966  68.710  1.00  0.00    -0.039 C  
BRANCH  21  22
HETATM   22  S   UNL     1      -5.248   6.627  67.785  1.00  0.00    -0.005 SA 
BRANCH  22  23
HETATM   23  S   UNL     1      -6.762   5.718  66.723  1.00  0.00    -0.059 SA 
BRANCH  23  24
HETATM   24  C   UNL     1      -6.431   6.315  65.033  1.00  0.00    -0.038 C  
BRANCH  24  25
HETATM   25  C   UNL     1      -7.586   7.176  64.516  1.00  0.00    -0.107 C  
BRANCH  25  26
HETATM   26  N   UNL     1      -8.649   7.424  65.486  1.00  0.00    -0.276 N  
HETATM   27  H   UNL     1      -8.867   6.690  66.160  1.00  0.00     0.000 HD 
HETATM   28  C   UNL     1      -9.374   8.596  65.541  1.00  0.00    -0.035 C  
HETATM   29  O   UNL     1      -9.236   9.521  64.748  1.00  0.00    -0.237 OA 
BRANCH  28  30
HETATM   30  C   UNL     1     -10.345   8.678  66.697  1.00  0.00    -0.303 C  
BRANCH  30  31
HETATM   31  C   UNL     1     -10.641   7.277  67.224  1.00  0.00    -0.325 C  
BRANCH  31  32
HETATM   32  N   UNL     1     -11.282   7.307  68.526  1.00  0.00    -0.443 N  
HETATM   33  H   UNL     1     -12.260   7.589  68.586  1.00  0.00     0.000 HD 
HETATM   34  C   UNL     1     -10.617   6.968  69.681  1.00  0.00    -0.234 C  
HETATM   35  O   UNL     1      -9.419   6.705  69.721  1.00  0.00    -0.148 OA 
BRANCH  34  36
HETATM   36  C   UNL     1     -11.499   7.018  70.949  1.00  0.00    -0.308 C  
HETATM   37  O   UNL     1     -12.887   7.022  70.581  1.00  0.00    -0.587 OA 
HETATM   38  H   UNL     1     -13.429   7.053  71.361  1.00  0.00     0.000 HD 
BRANCH  36  39
HETATM   39  C   UNL     1     -11.187   8.230  71.871  1.00  0.00    -0.365 C  
HETATM   40  C   UNL     1     -12.445   9.087  72.121  1.00  0.00    -0.450 C  
HETATM   41  C   UNL     1     -10.711   7.700  73.244  1.00  0.00    -0.409 C  
BRANCH  39  42
HETATM   42  C   UNL     1     -10.068   9.097  71.244  1.00  0.00    -0.318 C  
HETATM   43  O   UNL     1     -10.569  10.339  70.760  1.00  0.00    -0.387 OA 
HETATM   44  H   UNL     1      -9.883  10.871  70.376  1.00  0.00     0.000 HD 
ENDBRANCH  39  42
ENDBRANCH  36  39
ENDBRANCH  34  36
ENDBRANCH  31  32
ENDBRANCH  30  31
ENDBRANCH  28  30
ENDBRANCH  25  26
ENDBRANCH  24  25
ENDBRANCH  23  24
ENDBRANCH  22  23
ENDBRANCH  21  22
ENDBRANCH  20  21
ENDBRANCH  18  20
ENDBRANCH  15  16
ENDBRANCH  14  15
ENDBRANCH  12  14
ENDBRANCH   7  10
ENDBRANCH   2   7
TORSDOF 19
ENDMDL
MODEL      186
REMARK 921   NORMALIZED FREE ENERGY PREDICTED BY IDOCK:   -4.26 KCAL/MOL
REMARK 922        TOTAL FREE ENERGY PREDICTED BY IDOCK:  -11.16 KCAL/MOL
REMARK 923 INTER-LIGAND FREE ENERGY PREDICTED BY IDOCK:   -9.14 KCAL/MOL
REMARK 924 INTRA-LIGAND FREE ENERGY PREDICTED BY IDOCK:   -2.02 KCAL/MOL
REMARK 927      BINDING AFFINITY PREDICTED BY RF-SCORE:    0.00 PKD
ROOT
HETATM    1  C   UNL     1      -9.972   4.605  69.842  1.00  0.00    -0.296 C  
HETATM    2  C   UNL     1      -9.125   3.925  70.934  1.00  0.00    -0.179 C  
HETATM    3  C   UNL     1      -9.729   2.539  71.271  1.00  0.00    -0.201 C  
ENDROOT
BRANCH   2   4
HETATM    4  C   UNL     1      -7.707   3.667  70.382  1.00  0.00    -0.047 C  
HETATM    5  O   UNL     1      -6.839   3.166  71.395  1.00  0.00    -0.030 OA 
HETATM    6  H   UNL     1      -5.966   3.008  71.056  1.00  0.00     0.000 HD 
ENDBRANCH   2   4
BRANCH   2   7
HETATM    7  C   UNL     1      -9.037   4.809  72.218  1.00  0.00    -0.126 C  
HETATM    8  O   UNL     1      -7.988   5.790  72.149  1.00  0.00    -0.105 OA 
HETATM    9  H   UNL     1      -7.935   6.327  72.930  1.00  0.00     0.000 HD 
BRANCH   7  10
HETATM   10  C   UNL     1     -10.341   5.549  72.591  1.00  0.00    -0.198 C  
HETATM   11  O   UNL     1     -11.355   5.006  73.019  1.00  0.00    -0.299 OA 
HETATM   12  N   UNL     1     -10.239   6.917  72.465  1.00  0.00    -0.179 N  
HETATM   13  H   UNL     1      -9.405   7.324  72.042  1.00  0.00     0.000 HD 
BRANCH  12  14
HETATM   14  C   UNL     1     -11.301   7.784  72.925  1.00  0.00    -0.349 C  
BRANCH  14  15
HETATM   15  C   UNL     1     -12.047   8.477  71.789  1.00  0.00    -0.391 C  
BRANCH  15  16
HETATM   16  C   UNL     1     -11.044   8.896  70.737  1.00  0.00    -0.261 C  
HETATM   17  O   UNL     1     -10.035   9.533  71.023  1.00  0.00    -0.278 OA 
HETATM   18  N   UNL     1     -11.353   8.479  69.463  1.00  0.00    -0.416 N  
HETATM   19  H   UNL     1     -12.193   7.913  69.346  1.00  0.00     0.000 HD 
BRANCH  18  20
HETATM   20  C   UNL     1     -10.573   8.782  68.261  1.00  0.00    -0.142 C  
BRANCH  20  21
HETATM   21  C   UNL     1      -9.872   7.609  67.568  1.00  0.00    -0.165 C  
BRANCH  21  22
HETATM   22  S   UNL     1      -8.059   7.522  67.827  1.00  0.00    -0.119 SA 
BRANCH  22  23
HETATM   23  S   UNL     1      -7.359   6.561  66.144  1.00  0.00    -0.081 SA 
BRANCH  23  24
HETATM   24  C   UNL     1      -7.899   7.697  64.825  1.00  0.00    -0.129 C  
BRANCH  24  25
HETATM   25  C   UNL     1      -7.574   9.150  65.180  1.00  0.00    -0.098 C  
BRANCH  25  26
HETATM   26  N   UNL     1      -8.111  10.143  64.254  1.00  0.00    -0.157 N  
HETATM   27  H   UNL     1      -7.486  10.530  63.546  1.00  0.00     0.000 HD 
HETATM   28  C   UNL     1      -9.417  10.587  64.284  1.00  0.00    -0.285 C  
HETATM   29  O   UNL     1     -10.238  10.234  65.123  1.00  0.00    -0.314 OA 
BRANCH  28  30
HETATM   30  C   UNL     1      -9.783  11.530  63.160  1.00  0.00    -0.412 C  
BRANCH  30  31
HETATM   31  C   UNL     1     -10.830  12.529  63.644  1.00  0.00    -0.441 C  
BRANCH  31  32
HETATM   32  N   UNL     1     -10.284  13.475  64.599  1.00  0.00    -0.592 N  
HETATM   33  H   UNL     1      -9.311  13.765  64.501  1.00  0.00     0.000 HD 
HETATM   34  C   UNL     1     -11.031  13.994  65.630  1.00  0.00    -0.300 C  
HETATM   35  O   UNL     1     -12.178  13.638  65.883  1.00  0.00    -0.408 OA 
BRANCH  34  36
HETATM   36  C   UNL     1     -10.271  15.022  66.498  1.00  0.00    -0.275 C  
HETATM   37  O   UNL     1      -8.914  15.142  66.042  1.00  0.00    -0.462 OA 
HETATM   38  H   UNL     1      -8.447  15.774  66.576  1.00  0.00     0.000 HD 
BRANCH  36  39
HETATM   39  C   UNL     1     -10.297  14.690  68.016  1.00  0.00    -0.235 C  
HETATM   40  C   UNL     1     -11.662  15.038  68.646  1.00  0.00    -0.363 C  
HETATM   41  C   UNL     1     -10.083  13.168  68.195  1.00  0.00    -0.237 C  
BRANCH  39  42
HETATM   42  C   UNL     1      -9.165  15.453  68.744  1.00  0.00    -0.206 C  
HETATM   43  O   UNL     1      -8.221  14.564  69.332  1.00  0.00    -0.362 OA 
HETATM   44  H   UNL     1      -7.525  15.032  69.779  1.00  0.00     0.000 HD 
ENDBRANCH  39  42
ENDBRANCH  36  39
ENDBRANCH  34  36
ENDBRANCH  31  32
ENDBRANCH  30  31
ENDBRANCH  28  30
ENDBRANCH  25  26
ENDBRANCH  24  25
ENDBRANCH  23  24
ENDBRANCH  22  23
ENDBRANCH  21  22
ENDBRANCH  20  21
ENDBRANCH  18  20
ENDBRANCH  15  16
ENDBRANCH  14  15
ENDBRANCH  12  14
ENDBRANCH   7  10
ENDBRANCH   2   7
TORSDOF 19
ENDMDL
MODEL      187
REMARK 921   NORMALIZED FREE ENERGY PREDICTED BY IDOCK:   -4.25 KCAL/MOL
REMARK 922        TOTAL FREE ENERGY PREDICTED BY IDOCK:  -11.15 KCAL/MOL
REMARK 923 INTER-LIGAND FREE ENERGY PREDICTED BY IDOCK:   -7.94 KCAL/MOL
REMARK 924 INTRA-LIGAND FREE ENERGY PREDICTED BY IDOCK:   -3.22 KCAL/MOL
REMARK 927      BINDING AFFINITY PREDICTED BY RF-SCORE:    0.00 PKD
ROOT
HETATM    1  C   UNL     1      -9.546  13.500  67.623  1.00  0.00    -0.222 C  
HETATM    2  C   UNL     1      -9.130  12.071  67.227  1.00  0.00    -0.178 C  
HETATM    3  C   UNL     1      -9.537  11.802  65.757  1.00  0.00    -0.253 C  
ENDROOT
BRANCH   2   4
HETATM    4  C   UNL     1      -7.591  11.961  67.286  1.00  0.00    -0.154 C  
HETATM    5  O   UNL     1      -7.163  10.608  67.146  1.00  0.00    -0.091 OA 
HETATM    6  H   UNL     1      -6.216  10.540  67.183  1.00  0.00     0.000 HD 
ENDBRANCH   2   4
BRANCH   2   7
HETATM    7  C   UNL     1      -9.771  11.009  68.174  1.00  0.00    -0.174 C  
HETATM    8  O   UNL     1      -8.998  10.785  69.365  1.00  0.00    -0.374 OA 
HETATM    9  H   UNL     1      -9.388  10.139  69.941  1.00  0.00     0.000 HD 
BRANCH   7  10
HETATM   10  C   UNL     1     -11.220  11.316  68.613  1.00  0.00    -0.250 C  
HETATM   11  O   UNL     1     -12.192  11.317  67.863  1.00  0.00    -0.570 OA 
HETATM   12  N   UNL     1     -11.341  11.523  69.969  1.00  0.00    -0.492 N  
HETATM   13  H   UNL     1     -10.502  11.580  70.547  1.00  0.00     0.000 HD 
BRANCH  12  14
HETATM   14  C   UNL     1     -12.642  11.660  70.585  1.00  0.00    -0.230 C  
BRANCH  14  15
HETATM   15  C   UNL     1     -12.866  10.691  71.741  1.00  0.00    -0.549 C  
BRANCH  15  16
HETATM   16  C   UNL     1     -11.987   9.479  71.533  1.00  0.00    -0.399 C  
HETATM   17  O   UNL     1     -10.768   9.533  71.664  1.00  0.00    -0.320 OA 
HETATM   18  N   UNL     1     -12.674   8.329  71.218  1.00  0.00    -0.459 N  
HETATM   19  H   UNL     1     -13.691   8.386  71.182  1.00  0.00     0.000 HD 
BRANCH  18  20
HETATM   20  C   UNL     1     -12.061   7.029  70.929  1.00  0.00    -0.357 C  
BRANCH  20  21
HETATM   21  C   UNL     1     -11.925   6.047  72.095  1.00  0.00    -0.202 C  
BRANCH  21  22
HETATM   22  S   UNL     1     -10.658   6.490  73.344  1.00  0.00    -0.283 SA 
BRANCH  22  23
HETATM   23  S   UNL     1     -10.076   4.678  74.133  1.00  0.00    -0.223 SA 
BRANCH  23  24
HETATM   24  C   UNL     1      -8.280   4.705  73.823  1.00  0.00    -0.105 C  
BRANCH  24  25
HETATM   25  C   UNL     1      -7.953   5.466  72.536  1.00  0.00    -0.103 C  
BRANCH  25  26
HETATM   26  N   UNL     1      -8.376   4.801  71.306  1.00  0.00    -0.104 N  
HETATM   27  H   UNL     1      -8.409   3.782  71.297  1.00  0.00     0.000 HD 
HETATM   28  C   UNL     1      -8.732   5.476  70.157  1.00  0.00    -0.129 C  
HETATM   29  O   UNL     1      -8.676   6.696  70.038  1.00  0.00    -0.139 OA 
BRANCH  28  30
HETATM   30  C   UNL     1      -9.245   4.591  69.045  1.00  0.00    -0.192 C  
BRANCH  30  31
HETATM   31  C   UNL     1      -8.193   4.479  67.946  1.00  0.00    -0.095 C  
BRANCH  31  32
HETATM   32  N   UNL     1      -7.942   5.753  67.297  1.00  0.00    -0.102 N  
HETATM   33  H   UNL     1      -7.299   6.410  67.739  1.00  0.00     0.000 HD 
HETATM   34  C   UNL     1      -8.538   6.105  66.109  1.00  0.00    -0.141 C  
HETATM   35  O   UNL     1      -9.392   5.422  65.551  1.00  0.00    -0.136 OA 
BRANCH  34  36
HETATM   36  C   UNL     1      -8.092   7.482  65.568  1.00  0.00    -0.131 C  
HETATM   37  O   UNL     1      -9.243   8.283  65.259  1.00  0.00    -0.405 OA 
HETATM   38  H   UNL     1      -8.968   9.130  64.926  1.00  0.00     0.000 HD 
BRANCH  36  39
HETATM   39  C   UNL     1      -7.158   7.386  64.330  1.00  0.00    -0.066 C  
HETATM   40  C   UNL     1      -6.391   6.047  64.304  1.00  0.00    -0.030 C  
HETATM   41  C   UNL     1      -8.023   7.446  63.049  1.00  0.00    -0.105 C  
BRANCH  39  42
HETATM   42  C   UNL     1      -6.161   8.570  64.327  1.00  0.00    -0.067 C  
HETATM   43  O   UNL     1      -6.832   9.826  64.340  1.00  0.00    -0.107 OA 
HETATM   44  H   UNL     1      -6.220  10.553  64.338  1.00  0.00     0.000 HD 
ENDBRANCH  39  42
ENDBRANCH  36  39
ENDBRANCH  34  36
ENDBRANCH  31  32
ENDBRANCH  30  31
ENDBRANCH  28  30
ENDBRANCH  25  26
ENDBRANCH  24  25
ENDBRANCH  23  24
ENDBRANCH  22  23
ENDBRANCH  21  22
ENDBRANCH  20  21
ENDBRANCH  18  20
ENDBRANCH  15  16
ENDBRANCH  14  15
ENDBRANCH  12  14
ENDBRANCH   7  10
ENDBRANCH   2   7
TORSDOF 19
ENDMDL
MODEL      188
REMARK 921   NORMALIZED FREE ENERGY PREDICTED BY IDOCK:   -4.24 KCAL/MOL
REMARK 922        TOTAL FREE ENERGY PREDICTED BY IDOCK:  -11.12 KCAL/MOL
REMARK 923 INTER-LIGAND FREE ENERGY PREDICTED BY IDOCK:   -9.15 KCAL/MOL
REMARK 924 INTRA-LIGAND FREE ENERGY PREDICTED BY IDOCK:   -1.97 KCAL/MOL
REMARK 927      BINDING AFFINITY PREDICTED BY RF-SCORE:    0.00 PKD
ROOT
HETATM    1  C   UNL     1     -10.377   9.312  71.370  1.00  0.00    -0.392 C  
HETATM    2  C   UNL     1     -10.445   9.366  69.832  1.00  0.00    -0.257 C  
HETATM    3  C   UNL     1      -9.256  10.197  69.290  1.00  0.00    -0.220 C  
ENDROOT
BRANCH   2   4
HETATM    4  C   UNL     1     -10.279   7.938  69.270  1.00  0.00    -0.216 C  
HETATM    5  O   UNL     1     -11.251   7.659  68.266  1.00  0.00    -0.386 OA 
HETATM    6  H   UNL     1     -11.149   6.780  67.920  1.00  0.00     0.000 HD 
ENDBRANCH   2   4
BRANCH   2   7
HETATM    7  C   UNL     1     -11.800   9.970  69.344  1.00  0.00     0.133 C  
HETATM    8  O   UNL     1     -12.878   9.739  70.266  1.00  0.00    -0.514 OA 
HETATM    9  H   UNL     1     -13.702  10.106  69.970  1.00  0.00     0.000 HD 
BRANCH   7  10
HETATM   10  C   UNL     1     -11.767  11.484  69.038  1.00  0.00    -0.335 C  
HETATM   11  O   UNL     1     -11.656  11.967  67.915  1.00  0.00    -0.308 OA 
HETATM   12  N   UNL     1     -11.952  12.264  70.157  1.00  0.00    -0.425 N  
HETATM   13  H   UNL     1     -11.973  11.827  71.079  1.00  0.00     0.000 HD 
BRANCH  12  14
HETATM   14  C   UNL     1     -12.115  13.697  70.043  1.00  0.00    -0.348 C  
BRANCH  14  15
HETATM   15  C   UNL     1     -10.823  14.424  69.686  1.00  0.00    -0.144 C  
BRANCH  15  16
HETATM   16  C   UNL     1     -11.088  15.324  68.500  1.00  0.00    -0.282 C  
HETATM   17  O   UNL     1     -11.731  14.942  67.528  1.00  0.00    -0.360 OA 
HETATM   18  N   UNL     1     -10.572  16.594  68.627  1.00  0.00    -0.315 N  
HETATM   19  H   UNL     1     -10.096  16.821  69.499  1.00  0.00     0.000 HD 
BRANCH  18  20
HETATM   20  C   UNL     1     -10.653  17.646  67.611  1.00  0.00    -0.362 C  
BRANCH  20  21
HETATM   21  C   UNL     1     -10.329  19.075  68.057  1.00  0.00    -0.394 C  
BRANCH  21  22
HETATM   22  S   UNL     1      -8.684  19.292  68.838  1.00  0.00    -0.217 SA 
BRANCH  22  23
HETATM   23  S   UNL     1      -7.511  20.060  67.327  1.00  0.00    -0.290 SA 
BRANCH  23  24
HETATM   24  C   UNL     1      -6.279  18.732  67.113  1.00  0.00    -0.178 C  
BRANCH  24  25
HETATM   25  C   UNL     1      -6.832  17.602  66.241  1.00  0.00    -0.287 C  
BRANCH  25  26
HETATM   26  N   UNL     1      -7.459  16.509  66.980  1.00  0.00    -0.180 N  
HETATM   27  H   UNL     1      -8.452  16.584  67.200  1.00  0.00     0.000 HD 
HETATM   28  C   UNL     1      -6.783  15.381  67.394  1.00  0.00    -0.144 C  
HETATM   29  O   UNL     1      -5.579  15.210  67.233  1.00  0.00    -0.324 OA 
BRANCH  28  30
HETATM   30  C   UNL     1      -7.656  14.329  68.040  1.00  0.00    -0.144 C  
BRANCH  30  31
HETATM   31  C   UNL     1      -7.420  12.978  67.372  1.00  0.00    -0.131 C  
BRANCH  31  32
HETATM   32  N   UNL     1      -8.627  12.452  66.763  1.00  0.00    -0.327 N  
HETATM   33  H   UNL     1      -9.475  13.018  66.784  1.00  0.00     0.000 HD 
HETATM   34  C   UNL     1      -8.669  11.217  66.159  1.00  0.00    -0.186 C  
HETATM   35  O   UNL     1      -7.728  10.428  66.163  1.00  0.00    -0.118 OA 
BRANCH  34  36
HETATM   36  C   UNL     1     -10.038  10.873  65.530  1.00  0.00    -0.267 C  
HETATM   37  O   UNL     1     -10.106   9.468  65.241  1.00  0.00    -0.387 OA 
HETATM   38  H   UNL     1     -10.947   9.256  64.854  1.00  0.00     0.000 HD 
BRANCH  36  39
HETATM   39  C   UNL     1     -10.355  11.698  64.251  1.00  0.00    -0.371 C  
HETATM   40  C   UNL     1      -9.216  11.595  63.216  1.00  0.00    -0.082 C  
HETATM   41  C   UNL     1     -11.630  11.121  63.592  1.00  0.00     0.323 C  
BRANCH  39  42
HETATM   42  C   UNL     1     -10.602  13.179  64.626  1.00  0.00    -0.392 C  
HETATM   43  O   UNL     1     -11.885  13.370  65.213  1.00  0.00    -0.321 OA 
HETATM   44  H   UNL     1     -12.037  14.279  65.443  1.00  0.00     0.000 HD 
ENDBRANCH  39  42
ENDBRANCH  36  39
ENDBRANCH  34  36
ENDBRANCH  31  32
ENDBRANCH  30  31
ENDBRANCH  28  30
ENDBRANCH  25  26
ENDBRANCH  24  25
ENDBRANCH  23  24
ENDBRANCH  22  23
ENDBRANCH  21  22
ENDBRANCH  20  21
ENDBRANCH  18  20
ENDBRANCH  15  16
ENDBRANCH  14  15
ENDBRANCH  12  14
ENDBRANCH   7  10
ENDBRANCH   2   7
TORSDOF 19
ENDMDL
MODEL      189
REMARK 921   NORMALIZED FREE ENERGY PREDICTED BY IDOCK:   -4.21 KCAL/MOL
REMARK 922        TOTAL FREE ENERGY PREDICTED BY IDOCK:  -11.08 KCAL/MOL
REMARK 923 INTER-LIGAND FREE ENERGY PREDICTED BY IDOCK:   -9.14 KCAL/MOL
REMARK 924 INTRA-LIGAND FREE ENERGY PREDICTED BY IDOCK:   -1.94 KCAL/MOL
REMARK 927      BINDING AFFINITY PREDICTED BY RF-SCORE:    0.00 PKD
ROOT
HETATM    1  C   UNL     1      -9.751   8.476  72.389  1.00  0.00    -0.357 C  
HETATM    2  C   UNL     1     -10.032   8.411  70.876  1.00  0.00    -0.230 C  
HETATM    3  C   UNL     1     -11.562   8.396  70.633  1.00  0.00    -0.205 C  
ENDROOT
BRANCH   2   4
HETATM    4  C   UNL     1      -9.491   9.693  70.208  1.00  0.00    -0.248 C  
HETATM    5  O   UNL     1     -10.000   9.843  68.885  1.00  0.00    -0.167 OA 
HETATM    6  H   UNL     1      -9.667  10.632  68.474  1.00  0.00     0.000 HD 
ENDBRANCH   2   4
BRANCH   2   7
HETATM    7  C   UNL     1      -9.366   7.157  70.227  1.00  0.00    -0.155 C  
HETATM    8  O   UNL     1      -8.900   6.207  71.200  1.00  0.00    -0.138 OA 
HETATM    9  H   UNL     1      -8.494   5.444  70.805  1.00  0.00     0.000 HD 
BRANCH   7  10
HETATM   10  C   UNL     1     -10.254   6.393  69.221  1.00  0.00    -0.192 C  
HETATM   11  O   UNL     1     -11.028   5.488  69.519  1.00  0.00    -0.288 OA 
HETATM   12  N   UNL     1     -10.153   6.877  67.935  1.00  0.00    -0.154 N  
HETATM   13  H   UNL     1      -9.450   7.584  67.717  1.00  0.00     0.000 HD 
BRANCH  12  14
HETATM   14  C   UNL     1     -11.030   6.396  66.891  1.00  0.00    -0.341 C  
BRANCH  14  15
HETATM   15  C   UNL     1     -10.566   5.081  66.274  1.00  0.00    -0.332 C  
BRANCH  15  16
HETATM   16  C   UNL     1      -9.108   5.213  65.892  1.00  0.00    -0.153 C  
HETATM   17  O   UNL     1      -8.215   4.713  66.568  1.00  0.00    -0.106 OA 
HETATM   18  N   UNL     1      -8.890   5.909  64.726  1.00  0.00    -0.366 N  
HETATM   19  H   UNL     1      -9.709   6.240  64.217  1.00  0.00     0.000 HD 
BRANCH  18  20
HETATM   20  C   UNL     1      -7.575   6.213  64.155  1.00  0.00    -0.096 C  
BRANCH  20  21
HETATM   21  C   UNL     1      -7.536   7.166  62.957  1.00  0.00    -0.108 C  
BRANCH  21  22
HETATM   22  S   UNL     1      -6.557   8.696  63.210  1.00  0.00    -0.089 SA 
BRANCH  22  23
HETATM   23  S   UNL     1      -7.421   9.576  64.860  1.00  0.00    -0.117 SA 
BRANCH  23  24
HETATM   24  C   UNL     1      -9.176   9.627  64.368  1.00  0.00    -0.200 C  
BRANCH  24  25
HETATM   25  C   UNL     1     -10.086   9.811  65.585  1.00  0.00    -0.212 C  
BRANCH  25  26
HETATM   26  N   UNL     1     -10.209  11.188  66.057  1.00  0.00    -0.242 N  
HETATM   27  H   UNL     1      -9.678  11.463  66.884  1.00  0.00     0.000 HD 
HETATM   28  C   UNL     1     -11.004  12.135  65.447  1.00  0.00    -0.302 C  
HETATM   29  O   UNL     1     -11.726  11.902  64.484  1.00  0.00    -0.314 OA 
BRANCH  28  30
HETATM   30  C   UNL     1     -10.890  13.522  66.038  1.00  0.00    -0.282 C  
BRANCH  30  31
HETATM   31  C   UNL     1     -10.351  14.489  64.988  1.00  0.00    -0.413 C  
BRANCH  31  32
HETATM   32  N   UNL     1     -10.392  15.867  65.441  1.00  0.00    -0.385 N  
HETATM   33  H   UNL     1     -11.233  16.417  65.267  1.00  0.00     0.000 HD 
HETATM   34  C   UNL     1      -9.337  16.458  66.096  1.00  0.00    -0.325 C  
HETATM   35  O   UNL     1      -8.253  15.908  66.270  1.00  0.00    -0.274 OA 
BRANCH  34  36
HETATM   36  C   UNL     1      -9.610  17.914  66.536  1.00  0.00    -0.313 C  
HETATM   37  O   UNL     1      -8.649  18.796  65.935  1.00  0.00    -0.478 OA 
HETATM   38  H   UNL     1      -8.816  19.691  66.206  1.00  0.00     0.000 HD 
BRANCH  36  39
HETATM   39  C   UNL     1      -9.617  18.102  68.079  1.00  0.00    -0.304 C  
HETATM   40  C   UNL     1     -10.271  16.901  68.791  1.00  0.00    -0.311 C  
HETATM   41  C   UNL     1      -8.154  18.191  68.576  1.00  0.00    -0.314 C  
BRANCH  39  42
HETATM   42  C   UNL     1     -10.360  19.409  68.448  1.00  0.00    -0.359 C  
HETATM   43  O   UNL     1     -11.068  19.947  67.337  1.00  0.00    -0.269 OA 
HETATM   44  H   UNL     1     -11.524  20.749  67.563  1.00  0.00     0.000 HD 
ENDBRANCH  39  42
ENDBRANCH  36  39
ENDBRANCH  34  36
ENDBRANCH  31  32
ENDBRANCH  30  31
ENDBRANCH  28  30
ENDBRANCH  25  26
ENDBRANCH  24  25
ENDBRANCH  23  24
ENDBRANCH  22  23
ENDBRANCH  21  22
ENDBRANCH  20  21
ENDBRANCH  18  20
ENDBRANCH  15  16
ENDBRANCH  14  15
ENDBRANCH  12  14
ENDBRANCH   7  10
ENDBRANCH   2   7
TORSDOF 19
ENDMDL
MODEL      190
REMARK 921   NORMALIZED FREE ENERGY PREDICTED BY IDOCK:   -4.21 KCAL/MOL
REMARK 922        TOTAL FREE ENERGY PREDICTED BY IDOCK:  -11.07 KCAL/MOL
REMARK 923 INTER-LIGAND FREE ENERGY PREDICTED BY IDOCK:   -9.10 KCAL/MOL
REMARK 924 INTRA-LIGAND FREE ENERGY PREDICTED BY IDOCK:   -1.97 KCAL/MOL
REMARK 927      BINDING AFFINITY PREDICTED BY RF-SCORE:    0.00 PKD
ROOT
HETATM    1  C   UNL     1      -9.588  11.914  65.898  1.00  0.00    -0.248 C  
HETATM    2  C   UNL     1      -9.722  10.537  66.574  1.00  0.00    -0.237 C  
HETATM    3  C   UNL     1     -10.937  10.547  67.535  1.00  0.00    -0.365 C  
ENDROOT
BRANCH   2   4
HETATM    4  C   UNL     1     -10.020   9.474  65.495  1.00  0.00    -0.139 C  
HETATM    5  O   UNL     1      -8.958   9.383  64.549  1.00  0.00    -0.250 OA 
HETATM    6  H   UNL     1      -9.142   8.729  63.885  1.00  0.00     0.000 HD 
ENDBRANCH   2   4
BRANCH   2   7
HETATM    7  C   UNL     1      -8.420  10.153  67.345  1.00  0.00    -0.122 C  
HETATM    8  O   UNL     1      -8.144   8.743  67.307  1.00  0.00    -0.100 OA 
HETATM    9  H   UNL     1      -7.352   8.509  67.776  1.00  0.00     0.000 HD 
BRANCH   7  10
HETATM   10  C   UNL     1      -7.144  10.888  66.878  1.00  0.00    -0.120 C  
HETATM   11  O   UNL     1      -6.529  10.632  65.847  1.00  0.00    -0.119 OA 
HETATM   12  N   UNL     1      -6.788  11.930  67.704  1.00  0.00    -0.101 N  
HETATM   13  H   UNL     1      -7.284  12.068  68.585  1.00  0.00     0.000 HD 
BRANCH  12  14
HETATM   14  C   UNL     1      -5.719  12.833  67.339  1.00  0.00    -0.075 C  
BRANCH  14  15
HETATM   15  C   UNL     1      -5.961  14.269  67.792  1.00  0.00    -0.112 C  
BRANCH  15  16
HETATM   16  C   UNL     1      -7.437  14.573  67.664  1.00  0.00    -0.177 C  
HETATM   17  O   UNL     1      -8.257  14.151  68.473  1.00  0.00    -0.144 OA 
HETATM   18  N   UNL     1      -7.759  15.374  66.593  1.00  0.00    -0.248 N  
HETATM   19  H   UNL     1      -6.992  15.709  66.012  1.00  0.00     0.000 HD 
BRANCH  18  20
HETATM   20  C   UNL     1      -9.115  15.785  66.221  1.00  0.00    -0.338 C  
BRANCH  20  21
HETATM   21  C   UNL     1      -9.607  17.135  66.751  1.00  0.00    -0.270 C  
BRANCH  21  22
HETATM   22  S   UNL     1     -10.057  17.156  68.529  1.00  0.00    -0.350 SA 
BRANCH  22  23
HETATM   23  S   UNL     1     -11.549  15.744  68.684  1.00  0.00    -0.347 SA 
BRANCH  23  24
HETATM   24  C   UNL     1     -11.623  15.490  70.488  1.00  0.00    -0.346 C  
BRANCH  24  25
HETATM   25  C   UNL     1     -13.060  15.241  70.952  1.00  0.00    -0.464 C  
BRANCH  25  26
HETATM   26  N   UNL     1     -13.273  13.967  71.634  1.00  0.00    -0.349 N  
HETATM   27  H   UNL     1     -13.718  13.981  72.552  1.00  0.00     0.000 HD 
HETATM   28  C   UNL     1     -12.906  12.748  71.105  1.00  0.00    -0.226 C  
HETATM   29  O   UNL     1     -12.316  12.617  70.038  1.00  0.00    -0.208 OA 
BRANCH  28  30
HETATM   30  C   UNL     1     -13.326  11.554  71.933  1.00  0.00    -0.408 C  
BRANCH  30  31
HETATM   31  C   UNL     1     -12.947  10.265  71.210  1.00  0.00    -0.420 C  
BRANCH  31  32
HETATM   32  N   UNL     1     -12.190   9.364  72.059  1.00  0.00    -0.352 N  
HETATM   33  H   UNL     1     -12.653   8.940  72.862  1.00  0.00     0.000 HD 
HETATM   34  C   UNL     1     -10.869   9.063  71.820  1.00  0.00    -0.367 C  
HETATM   35  O   UNL     1     -10.203   9.594  70.936  1.00  0.00    -0.295 OA 
BRANCH  34  36
HETATM   36  C   UNL     1     -10.269   8.045  72.815  1.00  0.00    -0.319 C  
HETATM   37  O   UNL     1      -8.942   8.448  73.189  1.00  0.00    -0.239 OA 
HETATM   38  H   UNL     1      -8.573   7.822  73.801  1.00  0.00     0.000 HD 
BRANCH  36  39
HETATM   39  C   UNL     1     -10.252   6.588  72.273  1.00  0.00    -0.203 C  
HETATM   40  C   UNL     1      -9.167   6.401  71.192  1.00  0.00    -0.159 C  
HETATM   41  C   UNL     1      -9.912   5.629  73.437  1.00  0.00    -0.186 C  
BRANCH  39  42
HETATM   42  C   UNL     1     -11.642   6.221  71.700  1.00  0.00    -0.297 C  
HETATM   43  O   UNL     1     -12.441   5.528  72.654  1.00  0.00    -0.401 OA 
HETATM   44  H   UNL     1     -13.294   5.302  72.303  1.00  0.00     0.000 HD 
ENDBRANCH  39  42
ENDBRANCH  36  39
ENDBRANCH  34  36
ENDBRANCH  31  32
ENDBRANCH  30  31
ENDBRANCH  28  30
ENDBRANCH  25  26
ENDBRANCH  24  25
ENDBRANCH  23  24
ENDBRANCH  22  23
ENDBRANCH  21  22
ENDBRANCH  20  21
ENDBRANCH  18  20
ENDBRANCH  15  16
ENDBRANCH  14  15
ENDBRANCH  12  14
ENDBRANCH   7  10
ENDBRANCH   2   7
TORSDOF 19
ENDMDL
MODEL      191
REMARK 921   NORMALIZED FREE ENERGY PREDICTED BY IDOCK:   -4.20 KCAL/MOL
REMARK 922        TOTAL FREE ENERGY PREDICTED BY IDOCK:  -11.05 KCAL/MOL
REMARK 923 INTER-LIGAND FREE ENERGY PREDICTED BY IDOCK:   -8.65 KCAL/MOL
REMARK 924 INTRA-LIGAND FREE ENERGY PREDICTED BY IDOCK:   -2.40 KCAL/MOL
REMARK 927      BINDING AFFINITY PREDICTED BY RF-SCORE:    0.00 PKD
ROOT
HETATM    1  C   UNL     1     -12.535   9.376  71.108  1.00  0.00    -0.370 C  
HETATM    2  C   UNL     1     -11.415   8.376  71.451  1.00  0.00    -0.328 C  
HETATM    3  C   UNL     1     -11.777   7.619  72.753  1.00  0.00    -0.276 C  
ENDROOT
BRANCH   2   4
HETATM    4  C   UNL     1     -11.329   7.314  70.334  1.00  0.00    -0.271 C  
HETATM    5  O   UNL     1     -12.494   6.494  70.306  1.00  0.00    -0.372 OA 
HETATM    6  H   UNL     1     -12.441   5.840  69.619  1.00  0.00     0.000 HD 
ENDBRANCH   2   4
BRANCH   2   7
HETATM    7  C   UNL     1     -10.038   9.094  71.602  1.00  0.00    -0.276 C  
HETATM    8  O   UNL     1      -9.092   8.330  72.370  1.00  0.00    -0.192 OA 
HETATM    9  H   UNL     1      -8.254   8.767  72.462  1.00  0.00     0.000 HD 
BRANCH   7  10
HETATM   10  C   UNL     1      -9.353   9.479  70.272  1.00  0.00    -0.259 C  
HETATM   11  O   UNL     1      -8.471   8.823  69.725  1.00  0.00    -0.121 OA 
HETATM   12  N   UNL     1      -9.882  10.615  69.702  1.00  0.00    -0.439 N  
HETATM   13  H   UNL     1     -10.565  11.168  70.220  1.00  0.00     0.000 HD 
BRANCH  12  14
HETATM   14  C   UNL     1      -9.481  11.035  68.378  1.00  0.00    -0.182 C  
BRANCH  14  15
HETATM   15  C   UNL     1      -9.720  12.519  68.118  1.00  0.00    -0.222 C  
BRANCH  15  16
HETATM   16  C   UNL     1     -11.073  12.684  67.465  1.00  0.00    -0.272 C  
HETATM   17  O   UNL     1     -12.011  11.934  67.720  1.00  0.00    -0.559 OA 
HETATM   18  N   UNL     1     -11.157  13.748  66.597  1.00  0.00    -0.307 N  
HETATM   19  H   UNL     1     -10.330  14.336  66.495  1.00  0.00     0.000 HD 
BRANCH  18  20
HETATM   20  C   UNL     1     -12.338  14.105  65.807  1.00  0.00    -0.461 C  
BRANCH  20  21
HETATM   21  C   UNL     1     -12.244  13.926  64.289  1.00  0.00    -0.408 C  
BRANCH  21  22
HETATM   22  S   UNL     1     -12.252  12.186  63.708  1.00  0.00    -0.533 SA 
BRANCH  22  23
HETATM   23  S   UNL     1     -10.264  11.762  63.372  1.00  0.00    -0.433 SA 
BRANCH  23  24
HETATM   24  C   UNL     1      -9.832  10.825  64.875  1.00  0.00    -0.292 C  
BRANCH  24  25
HETATM   25  C   UNL     1      -9.064   9.548  64.529  1.00  0.00    -0.197 C  
BRANCH  25  26
HETATM   26  N   UNL     1      -9.391   8.391  65.358  1.00  0.00    -0.411 N  
HETATM   27  H   UNL     1     -10.325   7.990  65.278  1.00  0.00     0.000 HD 
HETATM   28  C   UNL     1      -8.506   7.812  66.243  1.00  0.00    -0.141 C  
HETATM   29  O   UNL     1      -7.379   8.244  66.462  1.00  0.00    -0.079 OA 
BRANCH  28  30
HETATM   30  C   UNL     1      -9.020   6.557  66.911  1.00  0.00    -0.128 C  
BRANCH  30  31
HETATM   31  C   UNL     1      -8.082   5.391  66.613  1.00  0.00    -0.105 C  
BRANCH  31  32
HETATM   32  N   UNL     1      -7.604   4.749  67.823  1.00  0.00    -0.082 N  
HETATM   33  H   UNL     1      -6.726   5.066  68.233  1.00  0.00     0.000 HD 
HETATM   34  C   UNL     1      -8.293   3.730  68.438  1.00  0.00    -0.086 C  
HETATM   35  O   UNL     1      -9.308   3.220  67.971  1.00  0.00    -0.178 OA 
BRANCH  34  36
HETATM   36  C   UNL     1      -7.634   3.225  69.741  1.00  0.00    -0.044 C  
HETATM   37  O   UNL     1      -7.591   1.789  69.744  1.00  0.00    -0.042 OA 
HETATM   38  H   UNL     1      -7.186   1.479  70.546  1.00  0.00     0.000 HD 
BRANCH  36  39
HETATM   39  C   UNL     1      -8.335   3.742  71.028  1.00  0.00    -0.086 C  
HETATM   40  C   UNL     1      -9.837   3.995  70.790  1.00  0.00    -0.233 C  
HETATM   41  C   UNL     1      -8.219   2.658  72.126  1.00  0.00    -0.055 C  
BRANCH  39  42
HETATM   42  C   UNL     1      -7.648   5.039  71.519  1.00  0.00    -0.096 C  
HETATM   43  O   UNL     1      -8.079   6.178  70.781  1.00  0.00    -0.119 OA 
HETATM   44  H   UNL     1      -7.658   6.974  71.082  1.00  0.00     0.000 HD 
ENDBRANCH  39  42
ENDBRANCH  36  39
ENDBRANCH  34  36
ENDBRANCH  31  32
ENDBRANCH  30  31
ENDBRANCH  28  30
ENDBRANCH  25  26
ENDBRANCH  24  25
ENDBRANCH  23  24
ENDBRANCH  22  23
ENDBRANCH  21  22
ENDBRANCH  20  21
ENDBRANCH  18  20
ENDBRANCH  15  16
ENDBRANCH  14  15
ENDBRANCH  12  14
ENDBRANCH   7  10
ENDBRANCH   2   7
TORSDOF 19
ENDMDL
MODEL      192
REMARK 921   NORMALIZED FREE ENERGY PREDICTED BY IDOCK:   -4.20 KCAL/MOL
REMARK 922        TOTAL FREE ENERGY PREDICTED BY IDOCK:  -11.04 KCAL/MOL
REMARK 923 INTER-LIGAND FREE ENERGY PREDICTED BY IDOCK:   -9.41 KCAL/MOL
REMARK 924 INTRA-LIGAND FREE ENERGY PREDICTED BY IDOCK:   -1.63 KCAL/MOL
REMARK 927      BINDING AFFINITY PREDICTED BY RF-SCORE:    0.00 PKD
ROOT
HETATM    1  C   UNL     1     -11.777  12.194  67.726  1.00  0.00    -0.390 C  
HETATM    2  C   UNL     1     -11.336  13.532  68.348  1.00  0.00    -0.327 C  
HETATM    3  C   UNL     1     -11.737  13.566  69.844  1.00  0.00    -0.341 C  
ENDROOT
BRANCH   2   4
HETATM    4  C   UNL     1      -9.796  13.625  68.302  1.00  0.00    -0.232 C  
HETATM    5  O   UNL     1      -9.286  14.345  69.422  1.00  0.00    -0.396 OA 
HETATM    6  H   UNL     1      -8.338  14.402  69.393  1.00  0.00     0.000 HD 
ENDBRANCH   2   4
BRANCH   2   7
HETATM    7  C   UNL     1     -11.960  14.744  67.589  1.00  0.00    -0.213 C  
HETATM    8  O   UNL     1     -11.527  16.012  68.110  1.00  0.00    -0.338 OA 
HETATM    9  H   UNL     1     -11.907  16.750  67.648  1.00  0.00     0.000 HD 
BRANCH   7  10
HETATM   10  C   UNL     1     -11.708  14.760  66.065  1.00  0.00    -0.248 C  
HETATM   11  O   UNL     1     -10.773  15.337  65.517  1.00  0.00    -0.324 OA 
HETATM   12  N   UNL     1     -12.607  13.990  65.361  1.00  0.00    -0.560 N  
HETATM   13  H   UNL     1     -13.408  13.582  65.844  1.00  0.00     0.000 HD 
BRANCH  12  14
HETATM   14  C   UNL     1     -12.431  13.752  63.946  1.00  0.00    -0.202 C  
BRANCH  14  15
HETATM   15  C   UNL     1     -12.246  12.278  63.601  1.00  0.00    -0.665 C  
BRANCH  15  16
HETATM   16  C   UNL     1     -10.765  11.983  63.515  1.00  0.00    -0.455 C  
HETATM   17  O   UNL     1      -9.921  12.807  63.854  1.00  0.00    -0.317 OA 
HETATM   18  N   UNL     1     -10.465  10.721  63.056  1.00  0.00    -0.727 N  
HETATM   19  H   UNL     1     -11.246  10.100  62.848  1.00  0.00     0.000 HD 
BRANCH  18  20
HETATM   20  C   UNL     1      -9.113  10.198  62.842  1.00  0.00    -0.286 C  
BRANCH  20  21
HETATM   21  C   UNL     1      -8.654   9.057  63.753  1.00  0.00    -0.130 C  
BRANCH  21  22
HETATM   22  S   UNL     1      -7.511   9.548  65.101  1.00  0.00    -0.114 SA 
BRANCH  22  23
HETATM   23  S   UNL     1      -8.764  10.111  66.638  1.00  0.00    -0.126 SA 
BRANCH  23  24
HETATM   24  C   UNL     1      -7.808   9.584  68.098  1.00  0.00    -0.083 C  
BRANCH  24  25
HETATM   25  C   UNL     1      -8.377  10.195  69.381  1.00  0.00    -0.168 C  
BRANCH  25  26
HETATM   26  N   UNL     1      -9.775   9.865  69.650  1.00  0.00    -0.218 N  
HETATM   27  H   UNL     1     -10.457  10.016  68.907  1.00  0.00     0.000 HD 
HETATM   28  C   UNL     1     -10.221   9.361  70.853  1.00  0.00    -0.303 C  
HETATM   29  O   UNL     1      -9.501   9.193  71.831  1.00  0.00    -0.332 OA 
BRANCH  28  30
HETATM   30  C   UNL     1     -11.685   8.985  70.870  1.00  0.00    -0.327 C  
BRANCH  30  31
HETATM   31  C   UNL     1     -11.831   7.467  70.834  1.00  0.00    -0.267 C  
BRANCH  31  32
HETATM   32  N   UNL     1     -10.548   6.793  70.908  1.00  0.00    -0.217 N  
HETATM   33  H   UNL     1      -9.823   7.041  70.235  1.00  0.00     0.000 HD 
HETATM   34  C   UNL     1     -10.275   5.831  71.852  1.00  0.00    -0.200 C  
HETATM   35  O   UNL     1     -11.110   5.401  72.643  1.00  0.00    -0.253 OA 
BRANCH  34  36
HETATM   36  C   UNL     1      -8.834   5.279  71.786  1.00  0.00    -0.135 C  
HETATM   37  O   UNL     1      -8.859   3.843  71.769  1.00  0.00    -0.100 OA 
HETATM   38  H   UNL     1      -7.972   3.504  71.728  1.00  0.00     0.000 HD 
BRANCH  36  39
HETATM   39  C   UNL     1      -7.925   5.785  72.941  1.00  0.00    -0.108 C  
HETATM   40  C   UNL     1      -7.343   7.180  72.631  1.00  0.00    -0.076 C  
HETATM   41  C   UNL     1      -8.778   5.916  74.224  1.00  0.00    -0.122 C  
BRANCH  39  42
HETATM   42  C   UNL     1      -6.779   4.775  73.192  1.00  0.00    -0.066 C  
HETATM   43  O   UNL     1      -7.133   3.807  74.175  1.00  0.00    -0.050 OA 
HETATM   44  H   UNL     1      -6.430   3.187  74.329  1.00  0.00     0.000 HD 
ENDBRANCH  39  42
ENDBRANCH  36  39
ENDBRANCH  34  36
ENDBRANCH  31  32
ENDBRANCH  30  31
ENDBRANCH  28  30
ENDBRANCH  25  26
ENDBRANCH  24  25
ENDBRANCH  23  24
ENDBRANCH  22  23
ENDBRANCH  21  22
ENDBRANCH  20  21
ENDBRANCH  18  20
ENDBRANCH  15  16
ENDBRANCH  14  15
ENDBRANCH  12  14
ENDBRANCH   7  10
ENDBRANCH   2   7
TORSDOF 19
ENDMDL
MODEL      193
REMARK 921   NORMALIZED FREE ENERGY PREDICTED BY IDOCK:   -4.19 KCAL/MOL
REMARK 922        TOTAL FREE ENERGY PREDICTED BY IDOCK:  -11.03 KCAL/MOL
REMARK 923 INTER-LIGAND FREE ENERGY PREDICTED BY IDOCK:   -9.47 KCAL/MOL
REMARK 924 INTRA-LIGAND FREE ENERGY PREDICTED BY IDOCK:   -1.56 KCAL/MOL
REMARK 927      BINDING AFFINITY PREDICTED BY RF-SCORE:    0.00 PKD
ROOT
HETATM    1  C   UNL     1     -11.603  11.676  67.138  1.00  0.00    -0.291 C  
HETATM    2  C   UNL     1     -11.239  12.620  65.977  1.00  0.00    -0.345 C  
HETATM    3  C   UNL     1     -10.628  11.801  64.813  1.00  0.00    -0.351 C  
ENDROOT
BRANCH   2   4
HETATM    4  C   UNL     1     -12.531  13.266  65.431  1.00  0.00    -0.489 C  
HETATM    5  O   UNL     1     -13.046  12.537  64.320  1.00  0.00    -0.759 OA 
HETATM    6  H   UNL     1     -13.840  12.935  63.984  1.00  0.00     0.000 HD 
ENDBRANCH   2   4
BRANCH   2   7
HETATM    7  C   UNL     1     -10.248  13.734  66.439  1.00  0.00    -0.292 C  
HETATM    8  O   UNL     1      -9.391  14.193  65.380  1.00  0.00    -0.488 OA 
HETATM    9  H   UNL     1      -8.788  14.870  65.661  1.00  0.00     0.000 HD 
BRANCH   7  10
HETATM   10  C   UNL     1     -10.912  14.978  67.069  1.00  0.00    -0.318 C  
HETATM   11  O   UNL     1     -11.123  16.033  66.478  1.00  0.00    -0.156 OA 
HETATM   12  N   UNL     1     -11.324  14.771  68.367  1.00  0.00    -0.285 N  
HETATM   13  H   UNL     1     -11.071  13.905  68.844  1.00  0.00     0.000 HD 
BRANCH  12  14
HETATM   14  C   UNL     1     -12.111  15.765  69.063  1.00  0.00    -0.171 C  
BRANCH  14  15
HETATM   15  C   UNL     1     -11.985  15.679  70.580  1.00  0.00    -0.438 C  
BRANCH  15  16
HETATM   16  C   UNL     1     -13.016  14.701  71.096  1.00  0.00    -0.350 C  
HETATM   17  O   UNL     1     -14.200  15.005  71.202  1.00  0.00    -0.410 OA 
HETATM   18  N   UNL     1     -12.514  13.457  71.401  1.00  0.00    -0.284 N  
HETATM   19  H   UNL     1     -11.522  13.297  71.229  1.00  0.00     0.000 HD 
BRANCH  18  20
HETATM   20  C   UNL     1     -13.290  12.343  71.954  1.00  0.00    -0.349 C  
BRANCH  20  21
HETATM   21  C   UNL     1     -13.234  11.011  71.200  1.00  0.00    -0.085 C  
BRANCH  21  22
HETATM   22  S   UNL     1     -13.191   9.516  72.261  1.00  0.00    -0.374 SA 
BRANCH  22  23
HETATM   23  S   UNL     1     -11.310   8.735  71.949  1.00  0.00    -0.372 SA 
BRANCH  23  24
HETATM   24  C   UNL     1     -11.103   8.990  70.156  1.00  0.00    -0.207 C  
BRANCH  24  25
HETATM   25  C   UNL     1      -9.625   9.128  69.784  1.00  0.00    -0.181 C  
BRANCH  25  26
HETATM   26  N   UNL     1      -9.345   9.074  68.351  1.00  0.00    -0.139 N  
HETATM   27  H   UNL     1     -10.087   9.343  67.705  1.00  0.00     0.000 HD 
HETATM   28  C   UNL     1      -8.133   8.678  67.825  1.00  0.00    -0.107 C  
HETATM   29  O   UNL     1      -7.192   8.282  68.504  1.00  0.00    -0.084 OA 
BRANCH  28  30
HETATM   30  C   UNL     1      -8.030   8.809  66.323  1.00  0.00    -0.106 C  
BRANCH  30  31
HETATM   31  C   UNL     1      -8.712   7.620  65.653  1.00  0.00    -0.092 C  
BRANCH  31  32
HETATM   32  N   UNL     1      -8.473   6.379  66.365  1.00  0.00    -0.118 N  
HETATM   33  H   UNL     1      -7.511   6.104  66.563  1.00  0.00     0.000 HD 
HETATM   34  C   UNL     1      -9.496   5.560  66.782  1.00  0.00    -0.140 C  
HETATM   35  O   UNL     1     -10.676   5.759  66.511  1.00  0.00    -0.276 OA 
BRANCH  34  36
HETATM   36  C   UNL     1      -9.022   4.316  67.566  1.00  0.00    -0.117 C  
HETATM   37  O   UNL     1      -9.675   3.140  67.062  1.00  0.00    -0.401 OA 
HETATM   38  H   UNL     1      -9.384   2.375  67.544  1.00  0.00     0.000 HD 
BRANCH  36  39
HETATM   39  C   UNL     1      -9.240   4.432  69.101  1.00  0.00    -0.202 C  
HETATM   40  C   UNL     1      -9.332   3.043  69.764  1.00  0.00    -0.215 C  
HETATM   41  C   UNL     1      -8.025   5.160  69.722  1.00  0.00    -0.078 C  
BRANCH  39  42
HETATM   42  C   UNL     1     -10.524   5.247  69.391  1.00  0.00    -0.214 C  
HETATM   43  O   UNL     1     -10.814   5.297  70.784  1.00  0.00    -0.181 OA 
HETATM   44  H   UNL     1     -11.602   5.797  70.963  1.00  0.00     0.000 HD 
ENDBRANCH  39  42
ENDBRANCH  36  39
ENDBRANCH  34  36
ENDBRANCH  31  32
ENDBRANCH  30  31
ENDBRANCH  28  30
ENDBRANCH  25  26
ENDBRANCH  24  25
ENDBRANCH  23  24
ENDBRANCH  22  23
ENDBRANCH  21  22
ENDBRANCH  20  21
ENDBRANCH  18  20
ENDBRANCH  15  16
ENDBRANCH  14  15
ENDBRANCH  12  14
ENDBRANCH   7  10
ENDBRANCH   2   7
TORSDOF 19
ENDMDL
MODEL      194
REMARK 921   NORMALIZED FREE ENERGY PREDICTED BY IDOCK:   -4.19 KCAL/MOL
REMARK 922        TOTAL FREE ENERGY PREDICTED BY IDOCK:  -11.03 KCAL/MOL
REMARK 923 INTER-LIGAND FREE ENERGY PREDICTED BY IDOCK:   -8.53 KCAL/MOL
REMARK 924 INTRA-LIGAND FREE ENERGY PREDICTED BY IDOCK:   -2.49 KCAL/MOL
REMARK 927      BINDING AFFINITY PREDICTED BY RF-SCORE:    0.00 PKD
ROOT
HETATM    1  C   UNL     1     -10.050   9.153  71.264  1.00  0.00    -0.388 C  
HETATM    2  C   UNL     1     -11.129   8.139  71.687  1.00  0.00    -0.310 C  
HETATM    3  C   UNL     1     -10.782   7.565  73.084  1.00  0.00    -0.452 C  
ENDROOT
BRANCH   2   4
HETATM    4  C   UNL     1     -12.479   8.872  71.834  1.00  0.00    -0.378 C  
HETATM    5  O   UNL     1     -13.568   8.039  71.444  1.00  0.00    -0.470 OA 
HETATM    6  H   UNL     1     -14.398   8.491  71.534  1.00  0.00     0.000 HD 
ENDBRANCH   2   4
BRANCH   2   7
HETATM    7  C   UNL     1     -11.267   6.986  70.644  1.00  0.00    -0.288 C  
HETATM    8  O   UNL     1     -11.515   7.466  69.311  1.00  0.00    -0.444 OA 
HETATM    9  H   UNL     1     -11.599   6.765  68.677  1.00  0.00     0.000 HD 
BRANCH   7  10
HETATM   10  C   UNL     1     -10.061   6.023  70.572  1.00  0.00    -0.191 C  
HETATM   11  O   UNL     1      -8.947   6.327  70.156  1.00  0.00    -0.147 OA 
HETATM   12  N   UNL     1     -10.332   4.779  71.097  1.00  0.00    -0.165 N  
HETATM   13  H   UNL     1     -11.287   4.544  71.370  1.00  0.00     0.000 HD 
BRANCH  12  14
HETATM   14  C   UNL     1      -9.281   3.800  71.266  1.00  0.00    -0.128 C  
BRANCH  14  15
HETATM   15  C   UNL     1      -9.444   2.580  70.365  1.00  0.00    -0.178 C  
BRANCH  15  16
HETATM   16  C   UNL     1      -8.441   2.675  69.237  1.00  0.00    -0.062 C  
HETATM   17  O   UNL     1      -7.271   2.336  69.382  1.00  0.00    -0.043 OA 
HETATM   18  N   UNL     1      -8.965   3.140  68.053  1.00  0.00    -0.133 N  
HETATM   19  H   UNL     1      -9.963   3.346  68.031  1.00  0.00     0.000 HD 
BRANCH  18  20
HETATM   20  C   UNL     1      -8.203   3.363  66.821  1.00  0.00    -0.095 C  
BRANCH  20  21
HETATM   21  C   UNL     1      -8.497   4.647  66.040  1.00  0.00    -0.115 C  
BRANCH  21  22
HETATM   22  S   UNL     1      -9.930   5.618  66.649  1.00  0.00    -0.194 SA 
BRANCH  22  23
HETATM   23  S   UNL     1      -9.445   7.567  66.189  1.00  0.00     0.050 SA 
BRANCH  23  24
HETATM   24  C   UNL     1      -7.769   7.372  65.497  1.00  0.00    -0.107 C  
BRANCH  24  25
HETATM   25  C   UNL     1      -6.852   8.513  65.942  1.00  0.00    -0.064 C  
BRANCH  25  26
HETATM   26  N   UNL     1      -7.534   9.632  66.590  1.00  0.00    -0.094 N  
HETATM   27  H   UNL     1      -8.467   9.882  66.262  1.00  0.00     0.000 HD 
HETATM   28  C   UNL     1      -6.985  10.366  67.620  1.00  0.00    -0.083 C  
HETATM   29  O   UNL     1      -5.852  10.189  68.056  1.00  0.00    -0.039 OA 
BRANCH  28  30
HETATM   30  C   UNL     1      -7.913  11.401  68.214  1.00  0.00    -0.136 C  
BRANCH  30  31
HETATM   31  C   UNL     1      -9.328  11.192  67.685  1.00  0.00    -0.165 C  
BRANCH  31  32
HETATM   32  N   UNL     1      -9.762  12.285  66.835  1.00  0.00    -0.208 N  
HETATM   33  H   UNL     1      -9.971  13.187  67.262  1.00  0.00     0.000 HD 
HETATM   34  C   UNL     1      -9.901  12.148  65.474  1.00  0.00    -0.221 C  
HETATM   35  O   UNL     1      -9.762  11.081  64.882  1.00  0.00    -0.222 OA 
BRANCH  34  36
HETATM   36  C   UNL     1     -10.323  13.447  64.753  1.00  0.00    -0.379 C  
HETATM   37  O   UNL     1      -9.732  14.583  65.404  1.00  0.00    -0.509 OA 
HETATM   38  H   UNL     1      -9.992  15.383  64.961  1.00  0.00     0.000 HD 
BRANCH  36  39
HETATM   39  C   UNL     1     -11.864  13.628  64.657  1.00  0.00    -0.427 C  
HETATM   40  C   UNL     1     -12.239  15.066  64.241  1.00  0.00    -0.312 C  
HETATM   41  C   UNL     1     -12.409  12.676  63.566  1.00  0.00    -0.591 C  
BRANCH  39  42
HETATM   42  C   UNL     1     -12.523  13.278  66.013  1.00  0.00    -0.321 C  
HETATM   43  O   UNL     1     -12.256  14.268  67.002  1.00  0.00    -0.526 OA 
HETATM   44  H   UNL     1     -12.660  14.053  67.834  1.00  0.00     0.000 HD 
ENDBRANCH  39  42
ENDBRANCH  36  39
ENDBRANCH  34  36
ENDBRANCH  31  32
ENDBRANCH  30  31
ENDBRANCH  28  30
ENDBRANCH  25  26
ENDBRANCH  24  25
ENDBRANCH  23  24
ENDBRANCH  22  23
ENDBRANCH  21  22
ENDBRANCH  20  21
ENDBRANCH  18  20
ENDBRANCH  15  16
ENDBRANCH  14  15
ENDBRANCH  12  14
ENDBRANCH   7  10
ENDBRANCH   2   7
TORSDOF 19
ENDMDL
MODEL      195
REMARK 921   NORMALIZED FREE ENERGY PREDICTED BY IDOCK:   -4.19 KCAL/MOL
REMARK 922        TOTAL FREE ENERGY PREDICTED BY IDOCK:  -11.02 KCAL/MOL
REMARK 923 INTER-LIGAND FREE ENERGY PREDICTED BY IDOCK:   -9.00 KCAL/MOL
REMARK 924 INTRA-LIGAND FREE ENERGY PREDICTED BY IDOCK:   -2.03 KCAL/MOL
REMARK 927      BINDING AFFINITY PREDICTED BY RF-SCORE:    0.00 PKD
ROOT
HETATM    1  C   UNL     1      -9.874   8.025  71.668  1.00  0.00    -0.223 C  
HETATM    2  C   UNL     1      -8.446   8.044  72.245  1.00  0.00    -0.206 C  
HETATM    3  C   UNL     1      -8.513   8.111  73.791  1.00  0.00    -0.309 C  
ENDROOT
BRANCH   2   4
HETATM    4  C   UNL     1      -7.742   6.717  71.890  1.00  0.00    -0.096 C  
HETATM    5  O   UNL     1      -8.631   5.609  72.014  1.00  0.00    -0.129 OA 
HETATM    6  H   UNL     1      -8.197   4.793  71.796  1.00  0.00     0.000 HD 
ENDBRANCH   2   4
BRANCH   2   7
HETATM    7  C   UNL     1      -7.622   9.244  71.683  1.00  0.00     0.333 C  
HETATM    8  O   UNL     1      -6.234   9.191  72.054  1.00  0.00    -0.185 OA 
HETATM    9  H   UNL     1      -5.733   9.921  71.712  1.00  0.00     0.000 HD 
BRANCH   7  10
HETATM   10  C   UNL     1      -7.685   9.417  70.149  1.00  0.00    -0.136 C  
HETATM   11  O   UNL     1      -7.415   8.539  69.335  1.00  0.00    -0.083 OA 
HETATM   12  N   UNL     1      -8.151  10.655  69.764  1.00  0.00    -0.369 N  
HETATM   13  H   UNL     1      -8.300  11.379  70.467  1.00  0.00     0.000 HD 
BRANCH  12  14
HETATM   14  C   UNL     1      -8.433  10.941  68.375  1.00  0.00    -0.141 C  
BRANCH  14  15
HETATM   15  C   UNL     1      -7.288  11.654  67.662  1.00  0.00    -0.108 C  
BRANCH  15  16
HETATM   16  C   UNL     1      -7.234  13.085  68.148  1.00  0.00    -0.116 C  
HETATM   17  O   UNL     1      -8.134  13.574  68.823  1.00  0.00    -0.093 OA 
HETATM   18  N   UNL     1      -6.090  13.760  67.790  1.00  0.00    -0.149 N  
HETATM   19  H   UNL     1      -5.383  13.242  67.269  1.00  0.00     0.000 HD 
BRANCH  18  20
HETATM   20  C   UNL     1      -5.804  15.164  68.098  1.00  0.00    -0.133 C  
BRANCH  20  21
HETATM   21  C   UNL     1      -6.258  16.210  67.076  1.00  0.00    -0.005 C  
BRANCH  21  22
HETATM   22  S   UNL     1      -6.495  17.901  67.744  1.00  0.00    -0.191 SA 
BRANCH  22  23
HETATM   23  S   UNL     1      -8.529  18.039  68.048  1.00  0.00    -0.267 SA 
BRANCH  23  24
HETATM   24  C   UNL     1      -8.806  16.707  69.261  1.00  0.00    -0.032 C  
BRANCH  24  25
HETATM   25  C   UNL     1     -10.300  16.498  69.520  1.00  0.00    -0.266 C  
BRANCH  25  26
HETATM   26  N   UNL     1     -10.679  15.127  69.853  1.00  0.00    -0.325 N  
HETATM   27  H   UNL     1      -9.972  14.397  69.766  1.00  0.00     0.000 HD 
HETATM   28  C   UNL     1     -11.941  14.766  70.279  1.00  0.00    -0.310 C  
HETATM   29  O   UNL     1     -12.881  15.549  70.366  1.00  0.00    -0.410 OA 
BRANCH  28  30
HETATM   30  C   UNL     1     -12.076  13.314  70.676  1.00  0.00    -0.361 C  
BRANCH  30  31
HETATM   31  C   UNL     1     -11.773  12.419  69.478  1.00  0.00    -0.322 C  
BRANCH  31  32
HETATM   32  N   UNL     1     -12.075  13.071  68.218  1.00  0.00    -0.250 N  
HETATM   33  H   UNL     1     -12.423  14.030  68.232  1.00  0.00     0.000 HD 
HETATM   34  C   UNL     1     -11.911  12.444  67.005  1.00  0.00    -0.297 C  
HETATM   35  O   UNL     1     -11.586  11.265  66.891  1.00  0.00    -0.464 OA 
BRANCH  34  36
HETATM   36  C   UNL     1     -12.242  13.335  65.788  1.00  0.00    -0.456 C  
HETATM   37  O   UNL     1     -13.038  12.601  64.844  1.00  0.00    -0.850 OA 
HETATM   38  H   UNL     1     -13.242  13.150  64.096  1.00  0.00     0.000 HD 
BRANCH  36  39
HETATM   39  C   UNL     1     -10.983  13.918  65.087  1.00  0.00    -0.352 C  
HETATM   40  C   UNL     1      -9.867  14.234  66.104  1.00  0.00    -0.335 C  
HETATM   41  C   UNL     1     -10.426  12.859  64.106  1.00  0.00    -0.429 C  
BRANCH  39  42
HETATM   42  C   UNL     1     -11.361  15.194  64.298  1.00  0.00    -0.080 C  
HETATM   43  O   UNL     1     -12.538  15.007  63.519  1.00  0.00    -0.854 OA 
HETATM   44  H   UNL     1     -12.770  15.790  63.034  1.00  0.00     0.000 HD 
ENDBRANCH  39  42
ENDBRANCH  36  39
ENDBRANCH  34  36
ENDBRANCH  31  32
ENDBRANCH  30  31
ENDBRANCH  28  30
ENDBRANCH  25  26
ENDBRANCH  24  25
ENDBRANCH  23  24
ENDBRANCH  22  23
ENDBRANCH  21  22
ENDBRANCH  20  21
ENDBRANCH  18  20
ENDBRANCH  15  16
ENDBRANCH  14  15
ENDBRANCH  12  14
ENDBRANCH   7  10
ENDBRANCH   2   7
TORSDOF 19
ENDMDL
MODEL      196
REMARK 921   NORMALIZED FREE ENERGY PREDICTED BY IDOCK:   -4.18 KCAL/MOL
REMARK 922        TOTAL FREE ENERGY PREDICTED BY IDOCK:  -11.01 KCAL/MOL
REMARK 923 INTER-LIGAND FREE ENERGY PREDICTED BY IDOCK:   -9.39 KCAL/MOL
REMARK 924 INTRA-LIGAND FREE ENERGY PREDICTED BY IDOCK:   -1.61 KCAL/MOL
REMARK 927      BINDING AFFINITY PREDICTED BY RF-SCORE:    0.00 PKD
ROOT
HETATM    1  C   UNL     1      -6.816  13.080  69.307  1.00  0.00    -0.019 C  
HETATM    2  C   UNL     1      -6.527  14.587  69.425  1.00  0.00    -0.132 C  
HETATM    3  C   UNL     1      -7.861  15.373  69.430  1.00  0.00    -0.232 C  
ENDROOT
BRANCH   2   4
HETATM    4  C   UNL     1      -5.847  14.863  70.784  1.00  0.00    -0.098 C  
HETATM    5  O   UNL     1      -5.636  16.259  70.984  1.00  0.00    -0.011 OA 
HETATM    6  H   UNL     1      -5.217  16.429  71.820  1.00  0.00     0.000 HD 
ENDBRANCH   2   4
BRANCH   2   7
HETATM    7  C   UNL     1      -5.607  15.083  68.266  1.00  0.00    -0.118 C  
HETATM    8  O   UNL     1      -5.439  14.102  67.228  1.00  0.00    -0.295 OA 
HETATM    9  H   UNL     1      -4.880  14.403  66.523  1.00  0.00     0.000 HD 
BRANCH   7  10
HETATM   10  C   UNL     1      -6.056  16.398  67.592  1.00  0.00    -0.143 C  
HETATM   11  O   UNL     1      -6.840  16.468  66.650  1.00  0.00    -0.211 OA 
HETATM   12  N   UNL     1      -5.544  17.521  68.204  1.00  0.00    -0.144 N  
HETATM   13  H   UNL     1      -4.845  17.419  68.940  1.00  0.00     0.000 HD 
BRANCH  12  14
HETATM   14  C   UNL     1      -5.985  18.842  67.816  1.00  0.00    -0.200 C  
BRANCH  14  15
HETATM   15  C   UNL     1      -6.909  19.494  68.839  1.00  0.00    -0.376 C  
BRANCH  15  16
HETATM   16  C   UNL     1      -8.339  19.308  68.386  1.00  0.00    -0.348 C  
HETATM   17  O   UNL     1      -9.283  19.415  69.163  1.00  0.00    -0.323 OA 
HETATM   18  N   UNL     1      -8.477  19.041  67.043  1.00  0.00    -0.278 N  
HETATM   19  H   UNL     1      -7.628  19.022  66.480  1.00  0.00     0.000 HD 
BRANCH  18  20
HETATM   20  C   UNL     1      -9.746  18.781  66.358  1.00  0.00    -0.353 C  
BRANCH  20  21
HETATM   21  C   UNL     1     -10.393  17.411  66.580  1.00  0.00    -0.306 C  
BRANCH  21  22
HETATM   22  S   UNL     1     -10.680  16.429  65.058  1.00  0.00    -0.118 SA 
BRANCH  22  23
HETATM   23  S   UNL     1     -10.362  14.482  65.651  1.00  0.00    -0.371 SA 
BRANCH  23  24
HETATM   24  C   UNL     1     -11.533  14.328  67.039  1.00  0.00    -0.361 C  
BRANCH  24  25
HETATM   25  C   UNL     1     -10.794  14.164  68.369  1.00  0.00    -0.254 C  
BRANCH  25  26
HETATM   26  N   UNL     1     -10.969  12.864  69.013  1.00  0.00    -0.371 N  
HETATM   27  H   UNL     1     -11.532  12.819  69.862  1.00  0.00     0.000 HD 
HETATM   28  C   UNL     1     -10.414  11.695  68.534  1.00  0.00    -0.217 C  
HETATM   29  O   UNL     1      -9.676  11.641  67.557  1.00  0.00    -0.175 OA 
BRANCH  28  30
HETATM   30  C   UNL     1     -10.820  10.453  69.294  1.00  0.00    -0.280 C  
BRANCH  30  31
HETATM   31  C   UNL     1     -11.612  10.843  70.538  1.00  0.00    -0.300 C  
BRANCH  31  32
HETATM   32  N   UNL     1     -11.833   9.714  71.422  1.00  0.00    -0.379 N  
HETATM   33  H   UNL     1     -12.786   9.494  71.710  1.00  0.00     0.000 HD 
HETATM   34  C   UNL     1     -10.803   8.929  71.886  1.00  0.00    -0.363 C  
HETATM   35  O   UNL     1      -9.618   9.168  71.670  1.00  0.00    -0.277 OA 
BRANCH  34  36
HETATM   36  C   UNL     1     -11.264   7.750  72.772  1.00  0.00    -0.398 C  
HETATM   37  O   UNL     1     -10.204   7.360  73.659  1.00  0.00    -0.341 OA 
HETATM   38  H   UNL     1     -10.487   6.635  74.204  1.00  0.00     0.000 HD 
BRANCH  36  39
HETATM   39  C   UNL     1     -11.759   6.522  71.958  1.00  0.00    -0.367 C  
HETATM   40  C   UNL     1     -10.840   6.235  70.753  1.00  0.00    -0.339 C  
HETATM   41  C   UNL     1     -11.724   5.274  72.871  1.00  0.00    -0.228 C  
BRANCH  39  42
HETATM   42  C   UNL     1     -13.211   6.759  71.476  1.00  0.00    -0.146 C  
HETATM   43  O   UNL     1     -13.924   7.626  72.351  1.00  0.00    -0.522 OA 
HETATM   44  H   UNL     1     -14.815   7.771  72.055  1.00  0.00     0.000 HD 
ENDBRANCH  39  42
ENDBRANCH  36  39
ENDBRANCH  34  36
ENDBRANCH  31  32
ENDBRANCH  30  31
ENDBRANCH  28  30
ENDBRANCH  25  26
ENDBRANCH  24  25
ENDBRANCH  23  24
ENDBRANCH  22  23
ENDBRANCH  21  22
ENDBRANCH  20  21
ENDBRANCH  18  20
ENDBRANCH  15  16
ENDBRANCH  14  15
ENDBRANCH  12  14
ENDBRANCH   7  10
ENDBRANCH   2   7
TORSDOF 19
ENDMDL
MODEL      197
REMARK 921   NORMALIZED FREE ENERGY PREDICTED BY IDOCK:   -4.17 KCAL/MOL
REMARK 922        TOTAL FREE ENERGY PREDICTED BY IDOCK:  -10.99 KCAL/MOL
REMARK 923 INTER-LIGAND FREE ENERGY PREDICTED BY IDOCK:   -9.00 KCAL/MOL
REMARK 924 INTRA-LIGAND FREE ENERGY PREDICTED BY IDOCK:   -2.00 KCAL/MOL
REMARK 927      BINDING AFFINITY PREDICTED BY RF-SCORE:    0.00 PKD
ROOT
HETATM    1  C   UNL     1     -11.917   9.849  71.187  1.00  0.00    -0.473 C  
HETATM    2  C   UNL     1     -11.058   8.592  71.416  1.00  0.00    -0.343 C  
HETATM    3  C   UNL     1     -11.599   7.811  72.640  1.00  0.00    -0.398 C  
ENDROOT
BRANCH   2   4
HETATM    4  C   UNL     1     -11.200   7.657  70.197  1.00  0.00    -0.180 C  
HETATM    5  O   UNL     1     -12.391   6.878  70.276  1.00  0.00    -0.625 OA 
HETATM    6  H   UNL     1     -12.478   6.302  69.526  1.00  0.00     0.000 HD 
ENDBRANCH   2   4
BRANCH   2   7
HETATM    7  C   UNL     1      -9.556   8.961  71.626  1.00  0.00    -0.293 C  
HETATM    8  O   UNL     1      -8.807   7.911  72.262  1.00  0.00    -0.123 OA 
HETATM    9  H   UNL     1      -7.894   8.135  72.389  1.00  0.00     0.000 HD 
BRANCH   7  10
HETATM   10  C   UNL     1      -8.796   9.358  70.341  1.00  0.00    -0.249 C  
HETATM   11  O   UNL     1      -7.949   8.663  69.787  1.00  0.00    -0.091 OA 
HETATM   12  N   UNL     1      -9.215  10.560  69.816  1.00  0.00    -0.399 N  
HETATM   13  H   UNL     1      -9.872  11.138  70.341  1.00  0.00     0.000 HD 
BRANCH  12  14
HETATM   14  C   UNL     1      -8.736  11.015  68.530  1.00  0.00    -0.159 C  
BRANCH  14  15
HETATM   15  C   UNL     1      -9.034  12.486  68.261  1.00  0.00    -0.178 C  
BRANCH  15  16
HETATM   16  C   UNL     1     -10.481  12.618  67.843  1.00  0.00    -0.218 C  
HETATM   17  O   UNL     1     -11.293  11.717  68.032  1.00  0.00    -0.243 OA 
HETATM   18  N   UNL     1     -10.796  13.828  67.270  1.00  0.00    -0.283 N  
HETATM   19  H   UNL     1     -10.054  14.524  67.206  1.00  0.00     0.000 HD 
BRANCH  18  20
HETATM   20  C   UNL     1     -12.113  14.198  66.744  1.00  0.00    -0.442 C  
BRANCH  20  21
HETATM   21  C   UNL     1     -12.303  14.130  65.226  1.00  0.00    -0.460 C  
BRANCH  21  22
HETATM   22  S   UNL     1     -12.644  12.457  64.556  1.00  0.00    -0.278 SA 
BRANCH  22  23
HETATM   23  S   UNL     1     -10.954  12.000  63.468  1.00  0.00    -0.438 SA 
BRANCH  23  24
HETATM   24  C   UNL     1      -9.830  11.407  64.775  1.00  0.00    -0.259 C  
BRANCH  24  25
HETATM   25  C   UNL     1      -9.414   9.954  64.529  1.00  0.00    -0.264 C  
BRANCH  25  26
HETATM   26  N   UNL     1      -9.724   9.034  65.620  1.00  0.00    -0.462 N  
HETATM   27  H   UNL     1     -10.592   9.174  66.137  1.00  0.00     0.000 HD 
HETATM   28  C   UNL     1      -8.906   7.986  65.989  1.00  0.00    -0.162 C  
HETATM   29  O   UNL     1      -7.816   7.758  65.476  1.00  0.00    -0.097 OA 
BRANCH  28  30
HETATM   30  C   UNL     1      -9.479   7.096  67.069  1.00  0.00    -0.192 C  
BRANCH  30  31
HETATM   31  C   UNL     1     -10.670   6.318  66.519  1.00  0.00    -0.107 C  
BRANCH  31  32
HETATM   32  N   UNL     1     -10.259   5.199  65.692  1.00  0.00    -0.421 N  
HETATM   33  H   UNL     1     -10.355   5.276  64.679  1.00  0.00     0.000 HD 
HETATM   34  C   UNL     1      -9.743   4.040  66.223  1.00  0.00    -0.187 C  
HETATM   35  O   UNL     1      -9.674   3.819  67.428  1.00  0.00    -0.197 OA 
BRANCH  34  36
HETATM   36  C   UNL     1      -9.322   2.999  65.163  1.00  0.00    -0.133 C  
HETATM   37  O   UNL     1      -9.646   1.676  65.618  1.00  0.00    -0.332 OA 
HETATM   38  H   UNL     1      -9.387   1.035  64.966  1.00  0.00     0.000 HD 
BRANCH  36  39
HETATM   39  C   UNL     1      -7.817   3.079  64.782  1.00  0.00    -0.078 C  
HETATM   40  C   UNL     1      -6.988   2.014  65.530  1.00  0.00    -0.047 C  
HETATM   41  C   UNL     1      -7.671   2.795  63.268  1.00  0.00    -0.064 C  
BRANCH  39  42
HETATM   42  C   UNL     1      -7.269   4.493  65.089  1.00  0.00    -0.068 C  
HETATM   43  O   UNL     1      -7.436   5.377  63.986  1.00  0.00    -0.055 OA 
HETATM   44  H   UNL     1      -7.099   6.245  64.174  1.00  0.00     0.000 HD 
ENDBRANCH  39  42
ENDBRANCH  36  39
ENDBRANCH  34  36
ENDBRANCH  31  32
ENDBRANCH  30  31
ENDBRANCH  28  30
ENDBRANCH  25  26
ENDBRANCH  24  25
ENDBRANCH  23  24
ENDBRANCH  22  23
ENDBRANCH  21  22
ENDBRANCH  20  21
ENDBRANCH  18  20
ENDBRANCH  15  16
ENDBRANCH  14  15
ENDBRANCH  12  14
ENDBRANCH   7  10
ENDBRANCH   2   7
TORSDOF 19
ENDMDL
MODEL      198
REMARK 921   NORMALIZED FREE ENERGY PREDICTED BY IDOCK:   -4.16 KCAL/MOL
REMARK 922        TOTAL FREE ENERGY PREDICTED BY IDOCK:  -10.97 KCAL/MOL
REMARK 923 INTER-LIGAND FREE ENERGY PREDICTED BY IDOCK:   -9.58 KCAL/MOL
REMARK 924 INTRA-LIGAND FREE ENERGY PREDICTED BY IDOCK:   -1.39 KCAL/MOL
REMARK 927      BINDING AFFINITY PREDICTED BY RF-SCORE:    0.00 PKD
ROOT
HETATM    1  C   UNL     1      -8.372   5.843  68.017  1.00  0.00    -0.111 C  
HETATM    2  C   UNL     1      -9.600   5.151  67.396  1.00  0.00    -0.154 C  
HETATM    3  C   UNL     1     -10.868   5.993  67.681  1.00  0.00    -0.386 C  
ENDROOT
BRANCH   2   4
HETATM    4  C   UNL     1      -9.432   5.110  65.863  1.00  0.00    -0.156 C  
HETATM    5  O   UNL     1     -10.696   5.089  65.203  1.00  0.00    -0.418 OA 
HETATM    6  H   UNL     1     -10.592   5.063  64.259  1.00  0.00     0.000 HD 
ENDBRANCH   2   4
BRANCH   2   7
HETATM    7  C   UNL     1      -9.773   3.701  67.946  1.00  0.00    -0.046 C  
HETATM    8  O   UNL     1      -9.675   2.699  66.919  1.00  0.00    -0.401 OA 
HETATM    9  H   UNL     1      -9.780   1.817  67.253  1.00  0.00     0.000 HD 
BRANCH   7  10
HETATM   10  C   UNL     1      -8.792   3.307  69.072  1.00  0.00    -0.105 C  
HETATM   11  O   UNL     1      -7.637   2.933  68.893  1.00  0.00    -0.048 OA 
HETATM   12  N   UNL     1      -9.317   3.487  70.333  1.00  0.00    -0.154 N  
HETATM   13  H   UNL     1     -10.301   3.734  70.438  1.00  0.00     0.000 HD 
BRANCH  12  14
HETATM   14  C   UNL     1      -8.491   3.328  71.509  1.00  0.00    -0.065 C  
BRANCH  14  15
HETATM   15  C   UNL     1      -7.747   4.602  71.898  1.00  0.00    -0.097 C  
BRANCH  15  16
HETATM   16  C   UNL     1      -8.759   5.640  72.328  1.00  0.00    -0.132 C  
HETATM   17  O   UNL     1      -9.910   5.338  72.624  1.00  0.00    -0.157 OA 
HETATM   18  N   UNL     1      -8.265   6.923  72.380  1.00  0.00    -0.104 N  
HETATM   19  H   UNL     1      -7.278   7.055  72.160  1.00  0.00     0.000 HD 
BRANCH  18  20
HETATM   20  C   UNL     1      -9.043   8.116  72.727  1.00  0.00    -0.259 C  
BRANCH  20  21
HETATM   21  C   UNL     1      -9.515   9.002  71.571  1.00  0.00    -0.246 C  
BRANCH  21  22
HETATM   22  S   UNL     1     -11.082   8.476  70.776  1.00  0.00    -0.257 SA 
BRANCH  22  23
HETATM   23  S   UNL     1     -12.538   9.032  72.124  1.00  0.00    -0.384 SA 
BRANCH  23  24
HETATM   24  C   UNL     1     -13.157  10.574  71.375  1.00  0.00    -0.410 C  
BRANCH  24  25
HETATM   25  C   UNL     1     -12.220  11.067  70.270  1.00  0.00    -0.363 C  
BRANCH  25  26
HETATM   26  N   UNL     1     -11.767  12.447  70.421  1.00  0.00    -0.540 N  
HETATM   27  H   UNL     1     -11.448  12.752  71.340  1.00  0.00     0.000 HD 
HETATM   28  C   UNL     1     -11.746  13.361  69.387  1.00  0.00    -0.325 C  
HETATM   29  O   UNL     1     -12.157  13.121  68.257  1.00  0.00    -0.317 OA 
BRANCH  28  30
HETATM   30  C   UNL     1     -11.131  14.695  69.743  1.00  0.00    -0.268 C  
BRANCH  30  31
HETATM   31  C   UNL     1      -9.941  14.976  68.831  1.00  0.00    -0.236 C  
BRANCH  31  32
HETATM   32  N   UNL     1      -9.442  16.330  68.985  1.00  0.00    -0.250 N  
HETATM   33  H   UNL     1      -8.679  16.501  69.639  1.00  0.00     0.000 HD 
HETATM   34  C   UNL     1      -9.961  17.390  68.279  1.00  0.00    -0.320 C  
HETATM   35  O   UNL     1     -10.936  17.300  67.540  1.00  0.00    -0.256 OA 
BRANCH  34  36
HETATM   36  C   UNL     1      -9.250  18.734  68.555  1.00  0.00    -0.348 C  
HETATM   37  O   UNL     1     -10.168  19.659  69.160  1.00  0.00    -0.610 OA 
HETATM   38  H   UNL     1      -9.731  20.485  69.329  1.00  0.00     0.000 HD 
BRANCH  36  39
HETATM   39  C   UNL     1      -8.610  19.367  67.288  1.00  0.00    -0.329 C  
HETATM   40  C   UNL     1      -7.971  18.293  66.383  1.00  0.00    -0.290 C  
HETATM   41  C   UNL     1      -9.720  20.062  66.465  1.00  0.00    -0.564 C  
BRANCH  39  42
HETATM   42  C   UNL     1      -7.549  20.416  67.700  1.00  0.00    -0.288 C  
HETATM   43  O   UNL     1      -7.113  20.229  69.042  1.00  0.00    -0.181 OA 
HETATM   44  H   UNL     1      -6.462  20.872  69.295  1.00  0.00     0.000 HD 
ENDBRANCH  39  42
ENDBRANCH  36  39
ENDBRANCH  34  36
ENDBRANCH  31  32
ENDBRANCH  30  31
ENDBRANCH  28  30
ENDBRANCH  25  26
ENDBRANCH  24  25
ENDBRANCH  23  24
ENDBRANCH  22  23
ENDBRANCH  21  22
ENDBRANCH  20  21
ENDBRANCH  18  20
ENDBRANCH  15  16
ENDBRANCH  14  15
ENDBRANCH  12  14
ENDBRANCH   7  10
ENDBRANCH   2   7
TORSDOF 19
ENDMDL
MODEL      199
REMARK 921   NORMALIZED FREE ENERGY PREDICTED BY IDOCK:   -4.16 KCAL/MOL
REMARK 922        TOTAL FREE ENERGY PREDICTED BY IDOCK:  -10.96 KCAL/MOL
REMARK 923 INTER-LIGAND FREE ENERGY PREDICTED BY IDOCK:   -9.50 KCAL/MOL
REMARK 924 INTRA-LIGAND FREE ENERGY PREDICTED BY IDOCK:   -1.46 KCAL/MOL
REMARK 927      BINDING AFFINITY PREDICTED BY RF-SCORE:    0.00 PKD
ROOT
HETATM    1  C   UNL     1      -9.146   2.786  62.815  1.00  0.00    -0.087 C  
HETATM    2  C   UNL     1      -8.419   3.667  63.847  1.00  0.00    -0.091 C  
HETATM    3  C   UNL     1      -6.913   3.306  63.869  1.00  0.00    -0.048 C  
ENDROOT
BRANCH   2   4
HETATM    4  C   UNL     1      -8.512   5.143  63.404  1.00  0.00    -0.112 C  
HETATM    5  O   UNL     1      -7.779   5.995  64.280  1.00  0.00    -0.090 OA 
HETATM    6  H   UNL     1      -7.837   6.904  64.007  1.00  0.00     0.000 HD 
ENDBRANCH   2   4
BRANCH   2   7
HETATM    7  C   UNL     1      -9.039   3.505  65.271  1.00  0.00    -0.144 C  
HETATM    8  O   UNL     1      -8.069   3.657  66.322  1.00  0.00    -0.095 OA 
HETATM    9  H   UNL     1      -8.447   3.559  67.188  1.00  0.00     0.000 HD 
BRANCH   7  10
HETATM   10  C   UNL     1     -10.214   4.458  65.583  1.00  0.00    -0.238 C  
HETATM   11  O   UNL     1     -11.305   4.429  65.022  1.00  0.00    -0.237 OA 
HETATM   12  N   UNL     1      -9.948   5.320  66.624  1.00  0.00    -0.180 N  
HETATM   13  H   UNL     1      -9.008   5.359  67.018  1.00  0.00     0.000 HD 
BRANCH  12  14
HETATM   14  C   UNL     1     -10.984   6.171  67.165  1.00  0.00    -0.331 C  
BRANCH  14  15
HETATM   15  C   UNL     1     -11.123   6.062  68.680  1.00  0.00    -0.293 C  
BRANCH  15  16
HETATM   16  C   UNL     1     -10.641   7.352  69.303  1.00  0.00    -0.213 C  
HETATM   17  O   UNL     1     -11.123   7.789  70.343  1.00  0.00    -0.257 OA 
HETATM   18  N   UNL     1      -9.612   7.960  68.621  1.00  0.00    -0.153 N  
HETATM   19  H   UNL     1      -9.254   7.485  67.793  1.00  0.00     0.000 HD 
BRANCH  18  20
HETATM   20  C   UNL     1      -8.990   9.235  68.988  1.00  0.00    -0.140 C  
BRANCH  20  21
HETATM   21  C   UNL     1      -7.794   9.696  68.150  1.00  0.00    -0.086 C  
BRANCH  21  22
HETATM   22  S   UNL     1      -8.127  11.107  67.027  1.00  0.00    -0.154 SA 
BRANCH  22  23
HETATM   23  S   UNL     1      -8.194  10.251  65.154  1.00  0.00    -0.160 SA 
BRANCH  23  24
HETATM   24  C   UNL     1      -9.991  10.100  64.887  1.00  0.00    -0.288 C  
BRANCH  24  25
HETATM   25  C   UNL     1     -10.498  11.173  63.921  1.00  0.00    -0.381 C  
BRANCH  25  26
HETATM   26  N   UNL     1     -10.893  12.430  64.552  1.00  0.00    -0.302 N  
HETATM   27  H   UNL     1     -10.381  12.734  65.381  1.00  0.00     0.000 HD 
HETATM   28  C   UNL     1     -11.917  13.229  64.088  1.00  0.00    -0.447 C  
HETATM   29  O   UNL     1     -12.633  12.935  63.136  1.00  0.00    -0.636 OA 
BRANCH  28  30
HETATM   30  C   UNL     1     -12.075  14.538  64.828  1.00  0.00    -0.454 C  
BRANCH  30  31
HETATM   31  C   UNL     1     -10.748  15.291  64.835  1.00  0.00    -0.400 C  
BRANCH  31  32
HETATM   32  N   UNL     1     -10.575  16.084  66.038  1.00  0.00    -0.328 N  
HETATM   33  H   UNL     1     -10.384  15.605  66.918  1.00  0.00     0.000 HD 
HETATM   34  C   UNL     1     -10.660  17.456  66.034  1.00  0.00    -0.210 C  
HETATM   35  O   UNL     1     -10.976  18.113  65.045  1.00  0.00    -0.726 OA 
BRANCH  34  36
HETATM   36  C   UNL     1     -10.394  18.104  67.410  1.00  0.00    -0.389 C  
HETATM   37  O   UNL     1     -10.966  19.421  67.452  1.00  0.00    -0.490 OA 
HETATM   38  H   UNL     1     -10.802  19.819  68.299  1.00  0.00     0.000 HD 
BRANCH  36  39
HETATM   39  C   UNL     1      -8.886  18.165  67.784  1.00  0.00    -0.259 C  
HETATM   40  C   UNL     1      -7.996  18.237  66.526  1.00  0.00    -0.294 C  
HETATM   41  C   UNL     1      -8.628  19.450  68.605  1.00  0.00    -0.394 C  
BRANCH  39  42
HETATM   42  C   UNL     1      -8.503  16.931  68.636  1.00  0.00    -0.260 C  
HETATM   43  O   UNL     1      -8.107  15.829  67.825  1.00  0.00    -0.137 OA 
HETATM   44  H   UNL     1      -7.872  15.072  68.347  1.00  0.00     0.000 HD 
ENDBRANCH  39  42
ENDBRANCH  36  39
ENDBRANCH  34  36
ENDBRANCH  31  32
ENDBRANCH  30  31
ENDBRANCH  28  30
ENDBRANCH  25  26
ENDBRANCH  24  25
ENDBRANCH  23  24
ENDBRANCH  22  23
ENDBRANCH  21  22
ENDBRANCH  20  21
ENDBRANCH  18  20
ENDBRANCH  15  16
ENDBRANCH  14  15
ENDBRANCH  12  14
ENDBRANCH   7  10
ENDBRANCH   2   7
TORSDOF 19
ENDMDL
MODEL      200
REMARK 921   NORMALIZED FREE ENERGY PREDICTED BY IDOCK:   -4.16 KCAL/MOL
REMARK 922        TOTAL FREE ENERGY PREDICTED BY IDOCK:  -10.96 KCAL/MOL
REMARK 923 INTER-LIGAND FREE ENERGY PREDICTED BY IDOCK:   -8.54 KCAL/MOL
REMARK 924 INTRA-LIGAND FREE ENERGY PREDICTED BY IDOCK:   -2.41 KCAL/MOL
REMARK 927      BINDING AFFINITY PREDICTED BY RF-SCORE:    0.00 PKD
ROOT
HETATM    1  C   UNL     1      -9.503  10.166  69.372  1.00  0.00    -0.240 C  
HETATM    2  C   UNL     1      -9.324   8.784  70.027  1.00  0.00    -0.175 C  
HETATM    3  C   UNL     1      -9.595   8.893  71.549  1.00  0.00    -0.362 C  
ENDROOT
BRANCH   2   4
HETATM    4  C   UNL     1     -10.383   7.816  69.458  1.00  0.00    -0.219 C  
HETATM    5  O   UNL     1     -11.667   8.059  70.027  1.00  0.00    -0.467 OA 
HETATM    6  H   UNL     1     -12.318   7.463  69.677  1.00  0.00     0.000 HD 
ENDBRANCH   2   4
BRANCH   2   7
HETATM    7  C   UNL     1      -7.895   8.213  69.768  1.00  0.00    -0.105 C  
HETATM    8  O   UNL     1      -7.817   6.792  69.969  1.00  0.00    -0.106 OA 
HETATM    9  H   UNL     1      -6.947   6.444  69.811  1.00  0.00     0.000 HD 
BRANCH   7  10
HETATM   10  C   UNL     1      -7.315   8.515  68.368  1.00  0.00    -0.094 C  
HETATM   11  O   UNL     1      -7.659   7.952  67.333  1.00  0.00    -0.094 OA 
HETATM   12  N   UNL     1      -6.407   9.550  68.372  1.00  0.00    -0.052 N  
HETATM   13  H   UNL     1      -6.098   9.947  69.260  1.00  0.00     0.000 HD 
BRANCH  12  14
HETATM   14  C   UNL     1      -5.884  10.082  67.133  1.00  0.00    -0.050 C  
BRANCH  14  15
HETATM   15  C   UNL     1      -6.851  11.028  66.428  1.00  0.00    -0.118 C  
BRANCH  15  16
HETATM   16  C   UNL     1      -7.093  12.225  67.321  1.00  0.00    -0.138 C  
HETATM   17  O   UNL     1      -6.369  12.474  68.280  1.00  0.00    -0.054 OA 
HETATM   18  N   UNL     1      -8.162  13.005  66.945  1.00  0.00    -0.396 N  
HETATM   19  H   UNL     1      -8.667  12.733  66.102  1.00  0.00     0.000 HD 
BRANCH  18  20
HETATM   20  C   UNL     1      -8.634  14.195  67.657  1.00  0.00    -0.189 C  
BRANCH  20  21
HETATM   21  C   UNL     1     -10.050  14.145  68.239  1.00  0.00    -0.241 C  
BRANCH  21  22
HETATM   22  S   UNL     1     -11.363  14.826  67.155  1.00  0.00    -0.352 SA 
BRANCH  22  23
HETATM   23  S   UNL     1     -12.041  13.190  66.102  1.00  0.00    -0.391 SA 
BRANCH  23  24
HETATM   24  C   UNL     1     -11.243  13.444  64.482  1.00  0.00    -0.372 C  
BRANCH  24  25
HETATM   25  C   UNL     1     -11.674  12.371  63.480  1.00  0.00    -0.510 C  
BRANCH  25  26
HETATM   26  N   UNL     1     -10.580  11.587  62.911  1.00  0.00    -0.674 N  
HETATM   27  H   UNL     1     -10.305  11.772  61.947  1.00  0.00     0.000 HD 
HETATM   28  C   UNL     1      -9.898  10.611  63.608  1.00  0.00    -0.333 C  
HETATM   29  O   UNL     1     -10.179  10.268  64.751  1.00  0.00    -0.329 OA 
BRANCH  28  30
HETATM   30  C   UNL     1      -8.730  10.009  62.861  1.00  0.00    -0.211 C  
BRANCH  30  31
HETATM   31  C   UNL     1      -7.988   9.029  63.764  1.00  0.00    -0.147 C  
BRANCH  31  32
HETATM   32  N   UNL     1      -8.467   7.669  63.607  1.00  0.00    -0.365 N  
HETATM   33  H   UNL     1      -9.444   7.518  63.357  1.00  0.00     0.000 HD 
HETATM   34  C   UNL     1      -7.652   6.575  63.783  1.00  0.00    -0.096 C  
HETATM   35  O   UNL     1      -6.490   6.652  64.173  1.00  0.00    -0.036 OA 
BRANCH  34  36
HETATM   36  C   UNL     1      -8.351   5.223  63.517  1.00  0.00    -0.118 C  
HETATM   37  O   UNL     1      -9.445   5.408  62.606  1.00  0.00    -0.329 OA 
HETATM   38  H   UNL     1      -9.875   4.576  62.443  1.00  0.00     0.000 HD 
BRANCH  36  39
HETATM   39  C   UNL     1      -8.845   4.518  64.811  1.00  0.00    -0.149 C  
HETATM   40  C   UNL     1      -7.675   3.875  65.585  1.00  0.00    -0.089 C  
HETATM   41  C   UNL     1      -9.486   5.575  65.740  1.00  0.00    -0.071 C  
BRANCH  39  42
HETATM   42  C   UNL     1      -9.901   3.444  64.457  1.00  0.00    -0.164 C  
HETATM   43  O   UNL     1     -11.206   4.003  64.339  1.00  0.00    -0.708 OA 
HETATM   44  H   UNL     1     -11.854   3.344  64.122  1.00  0.00     0.000 HD 
ENDBRANCH  39  42
ENDBRANCH  36  39
ENDBRANCH  34  36
ENDBRANCH  31  32
ENDBRANCH  30  31
ENDBRANCH  28  30
ENDBRANCH  25  26
ENDBRANCH  24  25
ENDBRANCH  23  24
ENDBRANCH  22  23
ENDBRANCH  21  22
ENDBRANCH  20  21
ENDBRANCH  18  20
ENDBRANCH  15  16
ENDBRANCH  14  15
ENDBRANCH  12  14
ENDBRANCH   7  10
ENDBRANCH   2   7
TORSDOF 19
ENDMDL
MODEL      201
REMARK 921   NORMALIZED FREE ENERGY PREDICTED BY IDOCK:   -4.15 KCAL/MOL
REMARK 922        TOTAL FREE ENERGY PREDICTED BY IDOCK:  -10.94 KCAL/MOL
REMARK 923 INTER-LIGAND FREE ENERGY PREDICTED BY IDOCK:   -9.27 KCAL/MOL
REMARK 924 INTRA-LIGAND FREE ENERGY PREDICTED BY IDOCK:   -1.67 KCAL/MOL
REMARK 927      BINDING AFFINITY PREDICTED BY RF-SCORE:    0.00 PKD
ROOT
HETATM    1  C   UNL     1      -9.347   9.737  63.936  1.00  0.00    -0.195 C  
HETATM    2  C   UNL     1      -8.377   8.870  64.761  1.00  0.00    -0.184 C  
HETATM    3  C   UNL     1      -9.079   8.396  66.057  1.00  0.00    -0.235 C  
ENDROOT
BRANCH   2   4
HETATM    4  C   UNL     1      -8.031   7.600  63.956  1.00  0.00    -0.099 C  
HETATM    5  O   UNL     1      -8.641   6.443  64.524  1.00  0.00    -0.345 OA 
HETATM    6  H   UNL     1      -8.427   5.661  64.029  1.00  0.00     0.000 HD 
ENDBRANCH   2   4
BRANCH   2   7
HETATM    7  C   UNL     1      -7.069   9.650  65.103  1.00  0.00    -0.114 C  
HETATM    8  O   UNL     1      -7.306  11.039  65.387  1.00  0.00    -0.359 OA 
HETATM    9  H   UNL     1      -6.510  11.513  65.595  1.00  0.00     0.000 HD 
BRANCH   7  10
HETATM   10  C   UNL     1      -6.252   9.069  66.279  1.00  0.00    -0.064 C  
HETATM   11  O   UNL     1      -5.752   7.948  66.296  1.00  0.00    -0.035 OA 
HETATM   12  N   UNL     1      -6.067   9.970  67.304  1.00  0.00    -0.058 N  
HETATM   13  H   UNL     1      -6.554  10.866  67.282  1.00  0.00     0.000 HD 
BRANCH  12  14
HETATM   14  C   UNL     1      -5.191   9.661  68.412  1.00  0.00    -0.033 C  
BRANCH  14  15
HETATM   15  C   UNL     1      -5.920   9.052  69.605  1.00  0.00    -0.032 C  
BRANCH  15  16
HETATM   16  C   UNL     1      -7.260   9.737  69.753  1.00  0.00    -0.105 C  
HETATM   17  O   UNL     1      -7.419  10.917  69.459  1.00  0.00    -0.137 OA 
HETATM   18  N   UNL     1      -8.266   8.919  70.214  1.00  0.00    -0.115 N  
HETATM   19  H   UNL     1      -8.034   7.940  70.382  1.00  0.00     0.000 HD 
BRANCH  18  20
HETATM   20  C   UNL     1      -9.643   9.340  70.483  1.00  0.00    -0.262 C  
BRANCH  20  21
HETATM   21  C   UNL     1     -10.349   8.699  71.682  1.00  0.00    -0.296 C  
BRANCH  21  22
HETATM   22  S   UNL     1     -11.813   7.675  71.268  1.00  0.00    -0.298 SA 
BRANCH  22  23
HETATM   23  S   UNL     1     -13.416   8.861  71.790  1.00  0.00    -0.414 SA 
BRANCH  23  24
HETATM   24  C   UNL     1     -13.007  10.420  70.939  1.00  0.00    -0.387 C  
BRANCH  24  25
HETATM   25  C   UNL     1     -13.122  11.615  71.889  1.00  0.00    -0.385 C  
BRANCH  25  26
HETATM   26  N   UNL     1     -12.960  12.921  71.255  1.00  0.00    -0.286 N  
HETATM   27  H   UNL     1     -12.741  12.949  70.259  1.00  0.00     0.000 HD 
HETATM   28  C   UNL     1     -13.089  14.117  71.929  1.00  0.00    -0.375 C  
HETATM   29  O   UNL     1     -13.296  14.202  73.135  1.00  0.00    -0.634 OA 
BRANCH  28  30
HETATM   30  C   UNL     1     -12.994  15.344  71.050  1.00  0.00    -0.556 C  
BRANCH  30  31
HETATM   31  C   UNL     1     -11.587  15.928  71.129  1.00  0.00    -0.432 C  
BRANCH  31  32
HETATM   32  N   UNL     1     -10.661  15.245  70.245  1.00  0.00    -0.458 N  
HETATM   33  H   UNL     1      -9.999  14.581  70.645  1.00  0.00     0.000 HD 
HETATM   34  C   UNL     1     -10.644  15.461  68.887  1.00  0.00    -0.244 C  
HETATM   35  O   UNL     1     -11.337  16.305  68.326  1.00  0.00    -0.352 OA 
BRANCH  34  36
HETATM   36  C   UNL     1      -9.615  14.594  68.127  1.00  0.00    -0.213 C  
HETATM   37  O   UNL     1      -9.208  13.486  68.946  1.00  0.00    -0.392 OA 
HETATM   38  H   UNL     1      -8.576  12.953  68.478  1.00  0.00     0.000 HD 
BRANCH  36  39
HETATM   39  C   UNL     1      -8.370  15.390  67.647  1.00  0.00    -0.174 C  
HETATM   40  C   UNL     1      -7.169  14.457  67.388  1.00  0.00    -0.148 C  
HETATM   41  C   UNL     1      -8.710  16.085  66.307  1.00  0.00    -0.372 C  
BRANCH  39  42
HETATM   42  C   UNL     1      -7.993  16.465  68.695  1.00  0.00    -0.220 C  
HETATM   43  O   UNL     1      -8.456  17.757  68.318  1.00  0.00    -0.260 OA 
HETATM   44  H   UNL     1      -8.224  18.417  68.962  1.00  0.00     0.000 HD 
ENDBRANCH  39  42
ENDBRANCH  36  39
ENDBRANCH  34  36
ENDBRANCH  31  32
ENDBRANCH  30  31
ENDBRANCH  28  30
ENDBRANCH  25  26
ENDBRANCH  24  25
ENDBRANCH  23  24
ENDBRANCH  22  23
ENDBRANCH  21  22
ENDBRANCH  20  21
ENDBRANCH  18  20
ENDBRANCH  15  16
ENDBRANCH  14  15
ENDBRANCH  12  14
ENDBRANCH   7  10
ENDBRANCH   2   7
TORSDOF 19
ENDMDL
MODEL      202
REMARK 921   NORMALIZED FREE ENERGY PREDICTED BY IDOCK:   -4.14 KCAL/MOL
REMARK 922        TOTAL FREE ENERGY PREDICTED BY IDOCK:  -10.92 KCAL/MOL
REMARK 923 INTER-LIGAND FREE ENERGY PREDICTED BY IDOCK:   -9.03 KCAL/MOL
REMARK 924 INTRA-LIGAND FREE ENERGY PREDICTED BY IDOCK:   -1.90 KCAL/MOL
REMARK 927      BINDING AFFINITY PREDICTED BY RF-SCORE:    0.00 PKD
ROOT
HETATM    1  C   UNL     1     -12.095  13.781  69.105  1.00  0.00    -0.374 C  
HETATM    2  C   UNL     1     -11.136  14.986  69.094  1.00  0.00    -0.278 C  
HETATM    3  C   UNL     1     -11.350  15.832  70.374  1.00  0.00    -0.389 C  
ENDROOT
BRANCH   2   4
HETATM    4  C   UNL     1      -9.682  14.472  69.143  1.00  0.00    -0.055 C  
HETATM    5  O   UNL     1      -8.760  15.540  69.343  1.00  0.00    -0.246 OA 
HETATM    6  H   UNL     1      -7.865  15.224  69.373  1.00  0.00     0.000 HD 
ENDBRANCH   2   4
BRANCH   2   7
HETATM    7  C   UNL     1     -11.341  15.864  67.820  1.00  0.00    -0.199 C  
HETATM    8  O   UNL     1     -10.872  17.213  67.990  1.00  0.00    -0.378 OA 
HETATM    9  H   UNL     1     -10.997  17.747  67.215  1.00  0.00     0.000 HD 
BRANCH   7  10
HETATM   10  C   UNL     1     -10.694  15.308  66.532  1.00  0.00    -0.311 C  
HETATM   11  O   UNL     1      -9.531  15.504  66.194  1.00  0.00    -0.288 OA 
HETATM   12  N   UNL     1     -11.538  14.490  65.814  1.00  0.00    -0.350 N  
HETATM   13  H   UNL     1     -12.517  14.407  66.092  1.00  0.00     0.000 HD 
BRANCH  12  14
HETATM   14  C   UNL     1     -11.056  13.749  64.670  1.00  0.00    -0.388 C  
BRANCH  14  15
HETATM   15  C   UNL     1     -11.575  12.315  64.619  1.00  0.00    -0.404 C  
BRANCH  15  16
HETATM   16  C   UNL     1     -10.748  11.468  65.560  1.00  0.00    -0.272 C  
HETATM   17  O   UNL     1     -10.359  11.896  66.642  1.00  0.00    -0.205 OA 
HETATM   18  N   UNL     1     -10.505  10.192  65.107  1.00  0.00    -0.083 N  
HETATM   19  H   UNL     1     -10.917   9.926  64.213  1.00  0.00     0.000 HD 
BRANCH  18  20
HETATM   20  C   UNL     1      -9.701   9.185  65.804  1.00  0.00    -0.229 C  
BRANCH  20  21
HETATM   21  C   UNL     1     -10.361   8.454  66.977  1.00  0.00    -0.315 C  
BRANCH  21  22
HETATM   22  S   UNL     1     -10.490   6.634  66.786  1.00  0.00    -0.197 SA 
BRANCH  22  23
HETATM   23  S   UNL     1      -9.068   5.893  68.080  1.00  0.00    -0.117 SA 
BRANCH  23  24
HETATM   24  C   UNL     1     -10.084   4.854  69.181  1.00  0.00    -0.159 C  
BRANCH  24  25
HETATM   25  C   UNL     1      -9.228   3.805  69.895  1.00  0.00    -0.148 C  
BRANCH  25  26
HETATM   26  N   UNL     1      -8.134   4.348  70.696  1.00  0.00    -0.066 N  
HETATM   27  H   UNL     1      -7.386   4.847  70.215  1.00  0.00     0.000 HD 
HETATM   28  C   UNL     1      -8.057   4.223  72.068  1.00  0.00    -0.094 C  
HETATM   29  O   UNL     1      -8.868   3.597  72.742  1.00  0.00    -0.092 OA 
BRANCH  28  30
HETATM   30  C   UNL     1      -6.898   4.960  72.700  1.00  0.00    -0.070 C  
BRANCH  30  31
HETATM   31  C   UNL     1      -7.404   6.216  73.402  1.00  0.00    -0.088 C  
BRANCH  31  32
HETATM   32  N   UNL     1      -8.823   6.429  73.185  1.00  0.00    -0.129 N  
HETATM   33  H   UNL     1      -9.428   5.618  73.056  1.00  0.00     0.000 HD 
HETATM   34  C   UNL     1      -9.382   7.685  73.148  1.00  0.00    -0.233 C  
HETATM   35  O   UNL     1      -8.725   8.721  73.202  1.00  0.00    -0.341 OA 
BRANCH  34  36
HETATM   36  C   UNL     1     -10.915   7.684  72.958  1.00  0.00    -0.400 C  
HETATM   37  O   UNL     1     -11.439   6.370  73.208  1.00  0.00    -0.458 OA 
HETATM   38  H   UNL     1     -12.382   6.369  73.091  1.00  0.00     0.000 HD 
BRANCH  36  39
HETATM   39  C   UNL     1     -11.364   8.180  71.556  1.00  0.00    -0.308 C  
HETATM   40  C   UNL     1     -12.277   7.151  70.858  1.00  0.00    -0.354 C  
HETATM   41  C   UNL     1     -12.185   9.480  71.728  1.00  0.00    -0.465 C  
BRANCH  39  42
HETATM   42  C   UNL     1     -10.125   8.474  70.677  1.00  0.00    -0.192 C  
HETATM   43  O   UNL     1      -9.836   9.867  70.617  1.00  0.00    -0.353 OA 
HETATM   44  H   UNL     1      -9.075  10.047  70.078  1.00  0.00     0.000 HD 
ENDBRANCH  39  42
ENDBRANCH  36  39
ENDBRANCH  34  36
ENDBRANCH  31  32
ENDBRANCH  30  31
ENDBRANCH  28  30
ENDBRANCH  25  26
ENDBRANCH  24  25
ENDBRANCH  23  24
ENDBRANCH  22  23
ENDBRANCH  21  22
ENDBRANCH  20  21
ENDBRANCH  18  20
ENDBRANCH  15  16
ENDBRANCH  14  15
ENDBRANCH  12  14
ENDBRANCH   7  10
ENDBRANCH   2   7
TORSDOF 19
ENDMDL
MODEL      203
REMARK 921   NORMALIZED FREE ENERGY PREDICTED BY IDOCK:   -4.14 KCAL/MOL
REMARK 922        TOTAL FREE ENERGY PREDICTED BY IDOCK:  -10.91 KCAL/MOL
REMARK 923 INTER-LIGAND FREE ENERGY PREDICTED BY IDOCK:   -9.10 KCAL/MOL
REMARK 924 INTRA-LIGAND FREE ENERGY PREDICTED BY IDOCK:   -1.82 KCAL/MOL
REMARK 927      BINDING AFFINITY PREDICTED BY RF-SCORE:    0.00 PKD
ROOT
HETATM    1  C   UNL     1     -12.341  12.179  63.473  1.00  0.00    -0.682 C  
HETATM    2  C   UNL     1     -11.520  12.806  64.615  1.00  0.00    -0.367 C  
HETATM    3  C   UNL     1     -11.894  12.127  65.956  1.00  0.00    -0.328 C  
ENDROOT
BRANCH   2   4
HETATM    4  C   UNL     1     -10.023  12.517  64.376  1.00  0.00    -0.180 C  
HETATM    5  O   UNL     1      -9.824  11.768  63.179  1.00  0.00    -0.409 OA 
HETATM    6  H   UNL     1      -8.903  11.590  63.032  1.00  0.00     0.000 HD 
ENDBRANCH   2   4
BRANCH   2   7
HETATM    7  C   UNL     1     -11.751  14.348  64.701  1.00  0.00    -0.430 C  
HETATM    8  O   UNL     1     -13.102  14.690  65.056  1.00  0.00    -0.426 OA 
HETATM    9  H   UNL     1     -13.242  15.628  65.109  1.00  0.00     0.000 HD 
BRANCH   7  10
HETATM   10  C   UNL     1     -10.813  15.095  65.675  1.00  0.00    -0.360 C  
HETATM   11  O   UNL     1      -9.693  15.508  65.387  1.00  0.00    -0.300 OA 
HETATM   12  N   UNL     1     -11.385  15.326  66.906  1.00  0.00    -0.267 N  
HETATM   13  H   UNL     1     -12.289  14.908  67.128  1.00  0.00     0.000 HD 
BRANCH  12  14
HETATM   14  C   UNL     1     -10.721  16.153  67.888  1.00  0.00    -0.321 C  
BRANCH  14  15
HETATM   15  C   UNL     1     -10.385  15.408  69.176  1.00  0.00    -0.240 C  
BRANCH  15  16
HETATM   16  C   UNL     1     -11.483  14.405  69.454  1.00  0.00    -0.288 C  
HETATM   17  O   UNL     1     -12.650  14.750  69.613  1.00  0.00    -0.200 OA 
HETATM   18  N   UNL     1     -11.060  13.096  69.482  1.00  0.00    -0.461 N  
HETATM   19  H   UNL     1     -10.075  12.918  69.289  1.00  0.00     0.000 HD 
BRANCH  18  20
HETATM   20  C   UNL     1     -11.910  11.938  69.768  1.00  0.00    -0.340 C  
BRANCH  20  21
HETATM   21  C   UNL     1     -11.231  10.566  69.809  1.00  0.00    -0.298 C  
BRANCH  21  22
HETATM   22  S   UNL     1     -11.598   9.560  71.298  1.00  0.00    -0.400 SA 
BRANCH  22  23
HETATM   23  S   UNL     1     -10.394   7.900  71.090  1.00  0.00    -0.200 SA 
BRANCH  23  24
HETATM   24  C   UNL     1      -8.824   8.499  71.797  1.00  0.00    -0.211 C  
BRANCH  24  25
HETATM   25  C   UNL     1      -7.642   8.153  70.888  1.00  0.00    -0.076 C  
BRANCH  25  26
HETATM   26  N   UNL     1      -7.384   9.118  69.823  1.00  0.00    -0.060 N  
HETATM   27  H   UNL     1      -7.757   8.922  68.894  1.00  0.00     0.000 HD 
HETATM   28  C   UNL     1      -6.663  10.280  70.004  1.00  0.00    -0.137 C  
HETATM   29  O   UNL     1      -6.122  10.589  71.060  1.00  0.00    -0.305 OA 
BRANCH  28  30
HETATM   30  C   UNL     1      -6.618  11.184  68.793  1.00  0.00    -0.059 C  
BRANCH  30  31
HETATM   31  C   UNL     1      -5.754  12.406  69.091  1.00  0.00    -0.071 C  
BRANCH  31  32
HETATM   32  N   UNL     1      -6.170  13.569  68.330  1.00  0.00    -0.093 N  
HETATM   33  H   UNL     1      -6.014  13.577  67.322  1.00  0.00     0.000 HD 
HETATM   34  C   UNL     1      -6.765  14.660  68.918  1.00  0.00    -0.096 C  
HETATM   35  O   UNL     1      -6.910  14.781  70.131  1.00  0.00    -0.178 OA 
BRANCH  34  36
HETATM   36  C   UNL     1      -7.175  15.765  67.919  1.00  0.00    -0.139 C  
HETATM   37  O   UNL     1      -7.247  15.223  66.591  1.00  0.00    -0.255 OA 
HETATM   38  H   UNL     1      -7.498  15.903  65.976  1.00  0.00     0.000 HD 
BRANCH  36  39
HETATM   39  C   UNL     1      -6.231  17.000  67.942  1.00  0.00    -0.147 C  
HETATM   40  C   UNL     1      -5.278  16.958  69.154  1.00  0.00    -0.131 C  
HETATM   41  C   UNL     1      -5.356  16.981  66.667  1.00  0.00    -0.158 C  
BRANCH  39  42
HETATM   42  C   UNL     1      -7.067  18.303  67.967  1.00  0.00    -0.227 C  
HETATM   43  O   UNL     1      -7.234  18.799  69.291  1.00  0.00    -0.251 OA 
HETATM   44  H   UNL     1      -7.747  19.598  69.307  1.00  0.00     0.000 HD 
ENDBRANCH  39  42
ENDBRANCH  36  39
ENDBRANCH  34  36
ENDBRANCH  31  32
ENDBRANCH  30  31
ENDBRANCH  28  30
ENDBRANCH  25  26
ENDBRANCH  24  25
ENDBRANCH  23  24
ENDBRANCH  22  23
ENDBRANCH  21  22
ENDBRANCH  20  21
ENDBRANCH  18  20
ENDBRANCH  15  16
ENDBRANCH  14  15
ENDBRANCH  12  14
ENDBRANCH   7  10
ENDBRANCH   2   7
TORSDOF 19
ENDMDL
MODEL      204
REMARK 921   NORMALIZED FREE ENERGY PREDICTED BY IDOCK:   -4.12 KCAL/MOL
REMARK 922        TOTAL FREE ENERGY PREDICTED BY IDOCK:  -10.88 KCAL/MOL
REMARK 923 INTER-LIGAND FREE ENERGY PREDICTED BY IDOCK:   -9.12 KCAL/MOL
REMARK 924 INTRA-LIGAND FREE ENERGY PREDICTED BY IDOCK:   -1.76 KCAL/MOL
REMARK 927      BINDING AFFINITY PREDICTED BY RF-SCORE:    0.00 PKD
ROOT
HETATM    1  C   UNL     1      -9.268   2.624  65.041  1.00  0.00    -0.137 C  
HETATM    2  C   UNL     1      -9.098   3.899  65.888  1.00  0.00    -0.146 C  
HETATM    3  C   UNL     1      -7.605   4.309  65.916  1.00  0.00    -0.089 C  
ENDROOT
BRANCH   2   4
HETATM    4  C   UNL     1      -9.861   5.058  65.211  1.00  0.00     0.083 C  
HETATM    5  O   UNL     1     -11.198   5.153  65.696  1.00  0.00    -0.802 OA 
HETATM    6  H   UNL     1     -11.667   5.865  65.279  1.00  0.00     0.000 HD 
ENDBRANCH   2   4
BRANCH   2   7
HETATM    7  C   UNL     1      -9.634   3.693  67.339  1.00  0.00    -0.149 C  
HETATM    8  O   UNL     1      -9.728   2.307  67.708  1.00  0.00    -0.384 OA 
HETATM    9  H   UNL     1     -10.054   2.181  68.591  1.00  0.00     0.000 HD 
BRANCH   7  10
HETATM   10  C   UNL     1      -8.826   4.412  68.442  1.00  0.00    -0.105 C  
HETATM   11  O   UNL     1      -8.832   5.625  68.635  1.00  0.00    -0.109 OA 
HETATM   12  N   UNL     1      -8.135   3.544  69.258  1.00  0.00    -0.053 N  
HETATM   13  H   UNL     1      -8.101   2.552  69.024  1.00  0.00     0.000 HD 
BRANCH  12  14
HETATM   14  C   UNL     1      -7.457   4.022  70.442  1.00  0.00    -0.045 C  
BRANCH  14  15
HETATM   15  C   UNL     1      -7.674   3.131  71.661  1.00  0.00    -0.052 C  
BRANCH  15  16
HETATM   16  C   UNL     1      -9.140   3.168  72.031  1.00  0.00    -0.103 C  
HETATM   17  O   UNL     1      -9.965   2.448  71.478  1.00  0.00    -0.156 OA 
HETATM   18  N   UNL     1      -9.447   4.048  73.043  1.00  0.00    -0.116 N  
HETATM   19  H   UNL     1      -8.675   4.563  73.466  1.00  0.00     0.000 HD 
BRANCH  18  20
HETATM   20  C   UNL     1     -10.792   4.305  73.563  1.00  0.00    -0.267 C  
BRANCH  20  21
HETATM   21  C   UNL     1     -11.631   5.362  72.839  1.00  0.00    -0.228 C  
BRANCH  21  22
HETATM   22  S   UNL     1     -10.763   6.258  71.495  1.00  0.00    -0.254 SA 
BRANCH  22  23
HETATM   23  S   UNL     1     -10.418   8.130  72.283  1.00  0.00    -0.329 SA 
BRANCH  23  24
HETATM   24  C   UNL     1     -12.076   8.880  72.181  1.00  0.00    -0.359 C  
BRANCH  24  25
HETATM   25  C   UNL     1     -12.170   9.856  71.007  1.00  0.00    -0.353 C  
BRANCH  25  26
HETATM   26  N   UNL     1     -11.500   9.415  69.786  1.00  0.00    -0.440 N  
HETATM   27  H   UNL     1     -11.441   8.413  69.605  1.00  0.00     0.000 HD 
HETATM   28  C   UNL     1     -10.945  10.278  68.866  1.00  0.00    -0.238 C  
HETATM   29  O   UNL     1     -10.909  11.496  69.008  1.00  0.00    -0.207 OA 
BRANCH  28  30
HETATM   30  C   UNL     1     -10.405   9.607  67.623  1.00  0.00    -0.290 C  
BRANCH  30  31
HETATM   31  C   UNL     1      -9.283  10.449  67.026  1.00  0.00    -0.147 C  
BRANCH  31  32
HETATM   32  N   UNL     1      -9.743  11.270  65.921  1.00  0.00    -0.215 N  
HETATM   33  H   UNL     1     -10.090  10.810  65.079  1.00  0.00     0.000 HD 
HETATM   34  C   UNL     1      -9.728  12.644  65.968  1.00  0.00    -0.229 C  
HETATM   35  O   UNL     1      -9.246  13.285  66.897  1.00  0.00    -0.229 OA 
BRANCH  34  36
HETATM   36  C   UNL     1     -10.310  13.321  64.707  1.00  0.00    -0.363 C  
HETATM   37  O   UNL     1      -9.792  14.655  64.583  1.00  0.00    -0.508 OA 
HETATM   38  H   UNL     1     -10.150  15.071  63.807  1.00  0.00     0.000 HD 
BRANCH  36  39
HETATM   39  C   UNL     1     -11.864  13.345  64.679  1.00  0.00    -0.430 C  
HETATM   40  C   UNL     1     -12.396  14.664  64.083  1.00  0.00    -0.294 C  
HETATM   41  C   UNL     1     -12.363  12.195  63.773  1.00  0.00    -0.635 C  
BRANCH  39  42
HETATM   42  C   UNL     1     -12.421  13.144  66.109  1.00  0.00    -0.203 C  
HETATM   43  O   UNL     1     -12.646  14.386  66.768  1.00  0.00    -0.540 OA 
HETATM   44  H   UNL     1     -12.988  14.263  67.646  1.00  0.00     0.000 HD 
ENDBRANCH  39  42
ENDBRANCH  36  39
ENDBRANCH  34  36
ENDBRANCH  31  32
ENDBRANCH  30  31
ENDBRANCH  28  30
ENDBRANCH  25  26
ENDBRANCH  24  25
ENDBRANCH  23  24
ENDBRANCH  22  23
ENDBRANCH  21  22
ENDBRANCH  20  21
ENDBRANCH  18  20
ENDBRANCH  15  16
ENDBRANCH  14  15
ENDBRANCH  12  14
ENDBRANCH   7  10
ENDBRANCH   2   7
TORSDOF 19
ENDMDL
MODEL      205
REMARK 921   NORMALIZED FREE ENERGY PREDICTED BY IDOCK:   -4.10 KCAL/MOL
REMARK 922        TOTAL FREE ENERGY PREDICTED BY IDOCK:  -10.84 KCAL/MOL
REMARK 923 INTER-LIGAND FREE ENERGY PREDICTED BY IDOCK:   -9.28 KCAL/MOL
REMARK 924 INTRA-LIGAND FREE ENERGY PREDICTED BY IDOCK:   -1.56 KCAL/MOL
REMARK 927      BINDING AFFINITY PREDICTED BY RF-SCORE:    0.00 PKD
ROOT
HETATM    1  C   UNL     1     -10.217   4.906  68.192  1.00  0.00    -0.104 C  
HETATM    2  C   UNL     1      -8.970   4.007  68.282  1.00  0.00    -0.156 C  
HETATM    3  C   UNL     1      -9.307   2.597  67.736  1.00  0.00    -0.229 C  
ENDROOT
BRANCH   2   4
HETATM    4  C   UNL     1      -7.867   4.583  67.369  1.00  0.00    -0.089 C  
HETATM    5  O   UNL     1      -7.817   6.005  67.450  1.00  0.00    -0.100 OA 
HETATM    6  H   UNL     1      -7.138   6.359  66.887  1.00  0.00     0.000 HD 
ENDBRANCH   2   4
BRANCH   2   7
HETATM    7  C   UNL     1      -8.442   3.911  69.748  1.00  0.00    -0.060 C  
HETATM    8  O   UNL     1      -7.224   4.647  69.952  1.00  0.00    -0.051 OA 
HETATM    9  H   UNL     1      -6.903   4.589  70.844  1.00  0.00     0.000 HD 
BRANCH   7  10
HETATM   10  C   UNL     1      -9.444   4.363  70.833  1.00  0.00    -0.171 C  
HETATM   11  O   UNL     1     -10.223   3.617  71.420  1.00  0.00    -0.072 OA 
HETATM   12  N   UNL     1      -9.335   5.700  71.145  1.00  0.00    -0.152 N  
HETATM   13  H   UNL     1      -8.724   6.299  70.589  1.00  0.00     0.000 HD 
BRANCH  12  14
HETATM   14  C   UNL     1     -10.075   6.266  72.251  1.00  0.00    -0.177 C  
BRANCH  14  15
HETATM   15  C   UNL     1     -10.191   7.785  72.183  1.00  0.00    -0.269 C  
BRANCH  15  16
HETATM   16  C   UNL     1      -8.830   8.387  72.452  1.00  0.00    -0.224 C  
HETATM   17  O   UNL     1      -8.440   8.623  73.591  1.00  0.00    -0.353 OA 
HETATM   18  N   UNL     1      -8.078   8.612  71.321  1.00  0.00    -0.135 N  
HETATM   19  H   UNL     1      -8.482   8.333  70.427  1.00  0.00     0.000 HD 
BRANCH  18  20
HETATM   20  C   UNL     1      -6.745   9.220  71.299  1.00  0.00    -0.041 C  
BRANCH  20  21
HETATM   21  C   UNL     1      -6.365  10.022  70.051  1.00  0.00    -0.079 C  
BRANCH  21  22
HETATM   22  S   UNL     1      -5.519   9.063  68.736  1.00  0.00    -0.041 SA 
BRANCH  22  23
HETATM   23  S   UNL     1      -6.554   9.546  67.021  1.00  0.00    -0.068 SA 
BRANCH  23  24
HETATM   24  C   UNL     1      -8.064  10.302  67.707  1.00  0.00    -0.103 C  
BRANCH  24  25
HETATM   25  C   UNL     1      -8.327  11.675  67.083  1.00  0.00    -0.164 C  
BRANCH  25  26
HETATM   26  N   UNL     1      -8.839  11.639  65.715  1.00  0.00    -0.394 N  
HETATM   27  H   UNL     1      -8.172  11.739  64.949  1.00  0.00     0.000 HD 
HETATM   28  C   UNL     1     -10.172  11.476  65.403  1.00  0.00    -0.264 C  
HETATM   29  O   UNL     1     -11.064  11.402  66.241  1.00  0.00    -0.289 OA 
BRANCH  28  30
HETATM   30  C   UNL     1     -10.458  11.354  63.924  1.00  0.00    -0.444 C  
BRANCH  30  31
HETATM   31  C   UNL     1     -11.628  12.258  63.547  1.00  0.00    -0.486 C  
BRANCH  31  32
HETATM   32  N   UNL     1     -11.400  13.638  63.934  1.00  0.00    -0.591 N  
HETATM   33  H   UNL     1     -10.586  14.125  63.559  1.00  0.00     0.000 HD 
HETATM   34  C   UNL     1     -12.242  14.313  64.786  1.00  0.00    -0.443 C  
HETATM   35  O   UNL     1     -13.193  13.786  65.357  1.00  0.00    -0.722 OA 
BRANCH  34  36
HETATM   36  C   UNL     1     -11.844  15.786  65.024  1.00  0.00     0.217 C  
HETATM   37  O   UNL     1     -11.435  16.390  63.787  1.00  0.00    -1.590 OA 
HETATM   38  H   UNL     1     -11.190  17.296  63.933  1.00  0.00     0.000 HD 
BRANCH  36  39
HETATM   39  C   UNL     1     -10.733  15.960  66.097  1.00  0.00    -0.273 C  
HETATM   40  C   UNL     1      -9.471  15.147  65.739  1.00  0.00    -0.285 C  
HETATM   41  C   UNL     1     -10.321  17.450  66.148  1.00  0.00    -0.329 C  
BRANCH  39  42
HETATM   42  C   UNL     1     -11.266  15.532  67.485  1.00  0.00    -0.272 C  
HETATM   43  O   UNL     1     -11.268  14.116  67.637  1.00  0.00    -0.276 OA 
HETATM   44  H   UNL     1     -11.596  13.853  68.489  1.00  0.00     0.000 HD 
ENDBRANCH  39  42
ENDBRANCH  36  39
ENDBRANCH  34  36
ENDBRANCH  31  32
ENDBRANCH  30  31
ENDBRANCH  28  30
ENDBRANCH  25  26
ENDBRANCH  24  25
ENDBRANCH  23  24
ENDBRANCH  22  23
ENDBRANCH  21  22
ENDBRANCH  20  21
ENDBRANCH  18  20
ENDBRANCH  15  16
ENDBRANCH  14  15
ENDBRANCH  12  14
ENDBRANCH   7  10
ENDBRANCH   2   7
TORSDOF 19
ENDMDL
MODEL      206
REMARK 921   NORMALIZED FREE ENERGY PREDICTED BY IDOCK:   -4.10 KCAL/MOL
REMARK 922        TOTAL FREE ENERGY PREDICTED BY IDOCK:  -10.83 KCAL/MOL
REMARK 923 INTER-LIGAND FREE ENERGY PREDICTED BY IDOCK:   -9.64 KCAL/MOL
REMARK 924 INTRA-LIGAND FREE ENERGY PREDICTED BY IDOCK:   -1.19 KCAL/MOL
REMARK 927      BINDING AFFINITY PREDICTED BY RF-SCORE:    0.00 PKD
ROOT
HETATM    1  C   UNL     1     -12.915  12.177  63.581  1.00  0.00    -0.342 C  
HETATM    2  C   UNL     1     -11.913  12.964  64.445  1.00  0.00    -0.456 C  
HETATM    3  C   UNL     1     -11.858  12.349  65.866  1.00  0.00    -0.467 C  
ENDROOT
BRANCH   2   4
HETATM    4  C   UNL     1     -10.500  12.813  63.843  1.00  0.00    -0.372 C  
HETATM    5  O   UNL     1     -10.436  11.709  62.943  1.00  0.00    -0.653 OA 
HETATM    6  H   UNL     1      -9.566  11.616  62.572  1.00  0.00     0.000 HD 
ENDBRANCH   2   4
BRANCH   2   7
HETATM    7  C   UNL     1     -12.293  14.476  64.521  1.00  0.00    -0.414 C  
HETATM    8  O   UNL     1     -13.478  14.715  65.299  1.00  0.00    -0.258 OA 
HETATM    9  H   UNL     1     -13.710  15.635  65.346  1.00  0.00     0.000 HD 
BRANCH   7  10
HETATM   10  C   UNL     1     -11.184  15.402  65.070  1.00  0.00    -0.387 C  
HETATM   11  O   UNL     1     -10.572  16.230  64.402  1.00  0.00    -0.400 OA 
HETATM   12  N   UNL     1     -10.987  15.263  66.425  1.00  0.00    -0.318 N  
HETATM   13  H   UNL     1     -11.467  14.518  66.931  1.00  0.00     0.000 HD 
BRANCH  12  14
HETATM   14  C   UNL     1     -10.108  16.160  67.142  1.00  0.00    -0.269 C  
BRANCH  14  15
HETATM   15  C   UNL     1      -9.684  15.625  68.506  1.00  0.00    -0.202 C  
BRANCH  15  16
HETATM   16  C   UNL     1     -10.871  14.945  69.150  1.00  0.00    -0.250 C  
HETATM   17  O   UNL     1     -11.834  15.582  69.565  1.00  0.00    -0.334 OA 
HETATM   18  N   UNL     1     -10.781  13.573  69.196  1.00  0.00    -0.425 N  
HETATM   19  H   UNL     1      -9.957  13.143  68.777  1.00  0.00     0.000 HD 
BRANCH  18  20
HETATM   20  C   UNL     1     -11.774  12.680  69.800  1.00  0.00    -0.284 C  
BRANCH  20  21
HETATM   21  C   UNL     1     -11.851  11.251  69.254  1.00  0.00    -0.354 C  
BRANCH  21  22
HETATM   22  S   UNL     1     -10.586  10.097  69.912  1.00  0.00    -0.288 SA 
BRANCH  22  23
HETATM   23  S   UNL     1     -11.524   9.177  71.499  1.00  0.00    -0.391 SA 
BRANCH  23  24
HETATM   24  C   UNL     1     -10.419   7.759  71.803  1.00  0.00    -0.216 C  
BRANCH  24  25
HETATM   25  C   UNL     1     -11.043   6.455  71.303  1.00  0.00    -0.282 C  
BRANCH  25  26
HETATM   26  N   UNL     1     -11.447   6.467  69.899  1.00  0.00    -0.476 N  
HETATM   27  H   UNL     1     -12.435   6.602  69.683  1.00  0.00     0.000 HD 
HETATM   28  C   UNL     1     -10.566   6.305  68.850  1.00  0.00    -0.268 C  
HETATM   29  O   UNL     1      -9.369   6.081  68.993  1.00  0.00    -0.124 OA 
BRANCH  28  30
HETATM   30  C   UNL     1     -11.187   6.466  67.481  1.00  0.00    -0.278 C  
BRANCH  30  31
HETATM   31  C   UNL     1     -10.381   7.471  66.663  1.00  0.00    -0.182 C  
BRANCH  31  32
HETATM   32  N   UNL     1      -9.331   6.832  65.891  1.00  0.00    -0.389 N  
HETATM   33  H   UNL     1      -9.376   5.824  65.742  1.00  0.00     0.000 HD 
HETATM   34  C   UNL     1      -8.278   7.535  65.356  1.00  0.00    -0.135 C  
HETATM   35  O   UNL     1      -8.090   8.731  65.558  1.00  0.00    -0.104 OA 
BRANCH  34  36
HETATM   36  C   UNL     1      -7.302   6.669  64.528  1.00  0.00    -0.086 C  
HETATM   37  O   UNL     1      -8.032   5.672  63.796  1.00  0.00    -0.109 OA 
HETATM   38  H   UNL     1      -7.431   5.139  63.288  1.00  0.00     0.000 HD 
BRANCH  36  39
HETATM   39  C   UNL     1      -6.192   5.999  65.385  1.00  0.00    -0.037 C  
HETATM   40  C   UNL     1      -6.785   4.975  66.374  1.00  0.00    -0.054 C  
HETATM   41  C   UNL     1      -5.234   5.231  64.444  1.00  0.00    -0.010 C  
BRANCH  39  42
HETATM   42  C   UNL     1      -5.393   7.080  66.153  1.00  0.00    -0.023 C  
HETATM   43  O   UNL     1      -5.254   6.755  67.532  1.00  0.00    -0.007 OA 
HETATM   44  H   UNL     1      -4.764   7.418  68.004  1.00  0.00     0.000 HD 
ENDBRANCH  39  42
ENDBRANCH  36  39
ENDBRANCH  34  36
ENDBRANCH  31  32
ENDBRANCH  30  31
ENDBRANCH  28  30
ENDBRANCH  25  26
ENDBRANCH  24  25
ENDBRANCH  23  24
ENDBRANCH  22  23
ENDBRANCH  21  22
ENDBRANCH  20  21
ENDBRANCH  18  20
ENDBRANCH  15  16
ENDBRANCH  14  15
ENDBRANCH  12  14
ENDBRANCH   7  10
ENDBRANCH   2   7
TORSDOF 19
ENDMDL
MODEL      207
REMARK 921   NORMALIZED FREE ENERGY PREDICTED BY IDOCK:   -4.09 KCAL/MOL
REMARK 922        TOTAL FREE ENERGY PREDICTED BY IDOCK:  -10.81 KCAL/MOL
REMARK 923 INTER-LIGAND FREE ENERGY PREDICTED BY IDOCK:   -8.21 KCAL/MOL
REMARK 924 INTRA-LIGAND FREE ENERGY PREDICTED BY IDOCK:   -2.60 KCAL/MOL
REMARK 927      BINDING AFFINITY PREDICTED BY RF-SCORE:    0.00 PKD
ROOT
HETATM    1  C   UNL     1      -9.995   4.090  71.327  1.00  0.00    -0.202 C  
HETATM    2  C   UNL     1      -9.884   5.260  70.332  1.00  0.00    -0.281 C  
HETATM    3  C   UNL     1      -9.961   4.718  68.883  1.00  0.00    -0.197 C  
ENDROOT
BRANCH   2   4
HETATM    4  C   UNL     1     -11.096   6.196  70.519  1.00  0.00    -0.337 C  
HETATM    5  O   UNL     1     -11.538   6.728  69.272  1.00  0.00    -0.600 OA 
HETATM    6  H   UNL     1     -12.285   7.304  69.387  1.00  0.00     0.000 HD 
ENDBRANCH   2   4
BRANCH   2   7
HETATM    7  C   UNL     1      -8.562   6.062  70.544  1.00  0.00    -0.137 C  
HETATM    8  O   UNL     1      -8.308   6.364  71.927  1.00  0.00    -0.116 OA 
HETATM    9  H   UNL     1      -7.503   6.852  72.055  1.00  0.00     0.000 HD 
BRANCH   7  10
HETATM   10  C   UNL     1      -7.292   5.391  69.976  1.00  0.00    -0.068 C  
HETATM   11  O   UNL     1      -6.758   4.392  70.449  1.00  0.00    -0.034 OA 
HETATM   12  N   UNL     1      -6.840   5.983  68.817  1.00  0.00    -0.064 N  
HETATM   13  H   UNL     1      -7.271   6.850  68.494  1.00  0.00     0.000 HD 
BRANCH  12  14
HETATM   14  C   UNL     1      -5.764   5.393  68.054  1.00  0.00    -0.016 C  
BRANCH  14  15
HETATM   15  C   UNL     1      -5.129   6.360  67.061  1.00  0.00    -0.008 C  
BRANCH  15  16
HETATM   16  C   UNL     1      -6.205   7.274  66.520  1.00  0.00    -0.040 C  
HETATM   17  O   UNL     1      -6.410   8.386  66.998  1.00  0.00    -0.054 OA 
HETATM   18  N   UNL     1      -6.897   6.761  65.447  1.00  0.00    -0.050 N  
HETATM   19  H   UNL     1      -6.611   5.846  65.100  1.00  0.00     0.000 HD 
BRANCH  18  20
HETATM   20  C   UNL     1      -8.011   7.423  64.763  1.00  0.00    -0.127 C  
BRANCH  20  21
HETATM   21  C   UNL     1      -7.658   8.409  63.646  1.00  0.00    -0.132 C  
BRANCH  21  22
HETATM   22  S   UNL     1      -8.655   9.949  63.624  1.00  0.00    -0.220 SA 
BRANCH  22  23
HETATM   23  S   UNL     1      -8.652  10.575  65.587  1.00  0.00    -0.178 SA 
BRANCH  23  24
HETATM   24  C   UNL     1     -10.394  10.310  66.056  1.00  0.00    -0.178 C  
BRANCH  24  25
HETATM   25  C   UNL     1     -10.530   9.143  67.036  1.00  0.00    -0.240 C  
BRANCH  25  26
HETATM   26  N   UNL     1     -11.116   9.492  68.328  1.00  0.00    -0.497 N  
HETATM   27  H   UNL     1     -12.128   9.426  68.432  1.00  0.00     0.000 HD 
HETATM   28  C   UNL     1     -10.374   9.905  69.415  1.00  0.00    -0.222 C  
HETATM   29  O   UNL     1      -9.160  10.073  69.388  1.00  0.00    -0.189 OA 
BRANCH  28  30
HETATM   30  C   UNL     1     -11.176  10.103  70.681  1.00  0.00    -0.418 C  
BRANCH  30  31
HETATM   31  C   UNL     1     -12.348  11.041  70.410  1.00  0.00    -0.356 C  
BRANCH  31  32
HETATM   32  N   UNL     1     -11.924  12.422  70.280  1.00  0.00    -0.488 N  
HETATM   33  H   UNL     1     -11.656  12.935  71.121  1.00  0.00     0.000 HD 
HETATM   34  C   UNL     1     -11.871  13.066  69.066  1.00  0.00    -0.316 C  
HETATM   35  O   UNL     1     -12.259  12.563  68.016  1.00  0.00    -0.310 OA 
BRANCH  34  36
HETATM   36  C   UNL     1     -11.343  14.515  69.148  1.00  0.00    -0.277 C  
HETATM   37  O   UNL     1     -12.390  15.438  68.808  1.00  0.00    -0.593 OA 
HETATM   38  H   UNL     1     -12.065  16.330  68.858  1.00  0.00     0.000 HD 
BRANCH  36  39
HETATM   39  C   UNL     1     -10.095  14.770  68.257  1.00  0.00    -0.221 C  
HETATM   40  C   UNL     1      -9.157  15.820  68.887  1.00  0.00    -0.225 C  
HETATM   41  C   UNL     1      -9.295  13.453  68.134  1.00  0.00    -0.217 C  
BRANCH  39  42
HETATM   42  C   UNL     1     -10.538  15.231  66.847  1.00  0.00    -0.304 C  
HETATM   43  O   UNL     1     -10.460  16.645  66.703  1.00  0.00    -0.298 OA 
HETATM   44  H   UNL     1     -10.732  16.928  65.838  1.00  0.00     0.000 HD 
ENDBRANCH  39  42
ENDBRANCH  36  39
ENDBRANCH  34  36
ENDBRANCH  31  32
ENDBRANCH  30  31
ENDBRANCH  28  30
ENDBRANCH  25  26
ENDBRANCH  24  25
ENDBRANCH  23  24
ENDBRANCH  22  23
ENDBRANCH  21  22
ENDBRANCH  20  21
ENDBRANCH  18  20
ENDBRANCH  15  16
ENDBRANCH  14  15
ENDBRANCH  12  14
ENDBRANCH   7  10
ENDBRANCH   2   7
TORSDOF 19
ENDMDL
MODEL      208
REMARK 921   NORMALIZED FREE ENERGY PREDICTED BY IDOCK:   -4.09 KCAL/MOL
REMARK 922        TOTAL FREE ENERGY PREDICTED BY IDOCK:  -10.81 KCAL/MOL
REMARK 923 INTER-LIGAND FREE ENERGY PREDICTED BY IDOCK:  -10.85 KCAL/MOL
REMARK 924 INTRA-LIGAND FREE ENERGY PREDICTED BY IDOCK:    0.04 KCAL/MOL
REMARK 927      BINDING AFFINITY PREDICTED BY RF-SCORE:    0.00 PKD
ROOT
HETATM    1  C   UNL     1     -11.742  14.612  67.223  1.00  0.00    -0.406 C  
HETATM    2  C   UNL     1     -11.059  15.231  65.990  1.00  0.00    -0.278 C  
HETATM    3  C   UNL     1     -10.456  16.607  66.367  1.00  0.00    -0.266 C  
ENDROOT
BRANCH   2   4
HETATM    4  C   UNL     1      -9.878  14.333  65.565  1.00  0.00    -0.252 C  
HETATM    5  O   UNL     1      -8.674  14.711  66.227  1.00  0.00    -0.462 OA 
HETATM    6  H   UNL     1      -7.947  14.158  65.965  1.00  0.00     0.000 HD 
ENDBRANCH   2   4
BRANCH   2   7
HETATM    7  C   UNL     1     -12.060  15.382  64.801  1.00  0.00    -0.034 C  
HETATM    8  O   UNL     1     -11.745  16.493  63.944  1.00  0.00    -1.527 OA 
HETATM    9  H   UNL     1     -12.354  16.584  63.222  1.00  0.00     0.000 HD 
BRANCH   7  10
HETATM   10  C   UNL     1     -12.203  14.131  63.906  1.00  0.00    -0.247 C  
HETATM   11  O   UNL     1     -12.461  14.157  62.706  1.00  0.00    -0.143 OA 
HETATM   12  N   UNL     1     -11.938  12.956  64.573  1.00  0.00    -0.372 N  
HETATM   13  H   UNL     1     -11.794  12.972  65.583  1.00  0.00     0.000 HD 
BRANCH  12  14
HETATM   14  C   UNL     1     -11.861  11.700  63.861  1.00  0.00    -0.249 C  
BRANCH  14  15
HETATM   15  C   UNL     1     -10.443  11.338  63.429  1.00  0.00    -0.424 C  
BRANCH  15  16
HETATM   16  C   UNL     1      -9.749  10.647  64.582  1.00  0.00    -0.302 C  
HETATM   17  O   UNL     1     -10.379  10.105  65.485  1.00  0.00    -0.248 OA 
HETATM   18  N   UNL     1      -8.376  10.662  64.505  1.00  0.00    -0.335 N  
HETATM   19  H   UNL     1      -7.957  11.099  63.685  1.00  0.00     0.000 HD 
BRANCH  18  20
HETATM   20  C   UNL     1      -7.467  10.099  65.507  1.00  0.00    -0.146 C  
BRANCH  20  21
HETATM   21  C   UNL     1      -7.143  10.971  66.725  1.00  0.00    -0.135 C  
BRANCH  21  22
HETATM   22  S   UNL     1      -7.990  10.485  68.277  1.00  0.00    -0.118 SA 
BRANCH  22  23
HETATM   23  S   UNL     1      -9.443  11.924  68.526  1.00  0.00    -0.097 SA 
BRANCH  23  24
HETATM   24  C   UNL     1     -10.919  10.901  68.842  1.00  0.00    -0.229 C  
BRANCH  24  25
HETATM   25  C   UNL     1     -11.575  11.273  70.174  1.00  0.00    -0.305 C  
BRANCH  25  26
HETATM   26  N   UNL     1     -12.361  10.208  70.790  1.00  0.00    -0.321 N  
HETATM   27  H   UNL     1     -12.240   9.256  70.442  1.00  0.00     0.000 HD 
HETATM   28  C   UNL     1     -13.257  10.417  71.817  1.00  0.00    -0.424 C  
HETATM   29  O   UNL     1     -13.523  11.523  72.275  1.00  0.00    -0.368 OA 
BRANCH  28  30
HETATM   30  C   UNL     1     -13.874   9.155  72.377  1.00  0.00    -0.524 C  
BRANCH  30  31
HETATM   31  C   UNL     1     -13.420   7.950  71.559  1.00  0.00    -0.306 C  
BRANCH  31  32
HETATM   32  N   UNL     1     -12.739   6.961  72.373  1.00  0.00    -0.499 N  
HETATM   33  H   UNL     1     -13.033   6.835  73.341  1.00  0.00     0.000 HD 
HETATM   34  C   UNL     1     -11.711   6.189  71.886  1.00  0.00    -0.279 C  
HETATM   35  O   UNL     1     -11.227   6.332  70.767  1.00  0.00    -0.293 OA 
BRANCH  34  36
HETATM   36  C   UNL     1     -11.161   5.164  72.903  1.00  0.00    -0.294 C  
HETATM   37  O   UNL     1     -11.127   5.746  74.216  1.00  0.00    -0.327 OA 
HETATM   38  H   UNL     1     -10.789   5.116  74.841  1.00  0.00     0.000 HD 
BRANCH  36  39
HETATM   39  C   UNL     1      -9.758   4.611  72.527  1.00  0.00    -0.199 C  
HETATM   40  C   UNL     1      -8.811   5.739  72.068  1.00  0.00    -0.138 C  
HETATM   41  C   UNL     1      -9.127   3.962  73.781  1.00  0.00    -0.093 C  
BRANCH  39  42
HETATM   42  C   UNL     1      -9.893   3.544  71.414  1.00  0.00    -0.144 C  
HETATM   43  O   UNL     1      -8.698   3.423  70.649  1.00  0.00    -0.068 OA 
HETATM   44  H   UNL     1      -8.780   2.768  69.966  1.00  0.00     0.000 HD 
ENDBRANCH  39  42
ENDBRANCH  36  39
ENDBRANCH  34  36
ENDBRANCH  31  32
ENDBRANCH  30  31
ENDBRANCH  28  30
ENDBRANCH  25  26
ENDBRANCH  24  25
ENDBRANCH  23  24
ENDBRANCH  22  23
ENDBRANCH  21  22
ENDBRANCH  20  21
ENDBRANCH  18  20
ENDBRANCH  15  16
ENDBRANCH  14  15
ENDBRANCH  12  14
ENDBRANCH   7  10
ENDBRANCH   2   7
TORSDOF 19
ENDMDL
MODEL      209
REMARK 921   NORMALIZED FREE ENERGY PREDICTED BY IDOCK:   -4.08 KCAL/MOL
REMARK 922        TOTAL FREE ENERGY PREDICTED BY IDOCK:  -10.79 KCAL/MOL
REMARK 923 INTER-LIGAND FREE ENERGY PREDICTED BY IDOCK:   -9.09 KCAL/MOL
REMARK 924 INTRA-LIGAND FREE ENERGY PREDICTED BY IDOCK:   -1.70 KCAL/MOL
REMARK 927      BINDING AFFINITY PREDICTED BY RF-SCORE:    0.00 PKD
ROOT
HETATM    1  C   UNL     1      -8.639   2.777  64.944  1.00  0.00    -0.098 C  
HETATM    2  C   UNL     1      -9.499   4.054  64.983  1.00  0.00    -0.172 C  
HETATM    3  C   UNL     1      -8.677   5.249  64.441  1.00  0.00    -0.046 C  
ENDROOT
BRANCH   2   4
HETATM    4  C   UNL     1     -10.702   3.879  64.033  1.00  0.00    -0.208 C  
HETATM    5  O   UNL     1     -11.112   2.515  63.960  1.00  0.00    -0.535 OA 
HETATM    6  H   UNL     1     -11.852   2.407  63.375  1.00  0.00     0.000 HD 
ENDBRANCH   2   4
BRANCH   2   7
HETATM    7  C   UNL     1     -10.008   4.353  66.428  1.00  0.00    -0.232 C  
HETATM    8  O   UNL     1      -9.725   3.287  67.351  1.00  0.00    -0.329 OA 
HETATM    9  H   UNL     1     -10.034   3.469  68.230  1.00  0.00     0.000 HD 
BRANCH   7  10
HETATM   10  C   UNL     1      -9.471   5.660  67.052  1.00  0.00    -0.127 C  
HETATM   11  O   UNL     1     -10.044   6.744  67.003  1.00  0.00    -0.167 OA 
HETATM   12  N   UNL     1      -8.296   5.483  67.749  1.00  0.00    -0.100 N  
HETATM   13  H   UNL     1      -7.817   4.583  67.709  1.00  0.00     0.000 HD 
BRANCH  12  14
HETATM   14  C   UNL     1      -7.733   6.558  68.535  1.00  0.00    -0.105 C  
BRANCH  14  15
HETATM   15  C   UNL     1      -7.197   6.097  69.887  1.00  0.00    -0.074 C  
BRANCH  15  16
HETATM   16  C   UNL     1      -8.258   5.262  70.569  1.00  0.00    -0.108 C  
HETATM   17  O   UNL     1      -8.533   4.129  70.188  1.00  0.00    -0.064 OA 
HETATM   18  N   UNL     1      -8.851   5.874  71.649  1.00  0.00    -0.139 N  
HETATM   19  H   UNL     1      -8.511   6.799  71.908  1.00  0.00     0.000 HD 
BRANCH  18  20
HETATM   20  C   UNL     1      -9.931   5.302  72.458  1.00  0.00    -0.170 C  
BRANCH  20  21
HETATM   21  C   UNL     1     -11.321   5.926  72.309  1.00  0.00    -0.298 C  
BRANCH  21  22
HETATM   22  S   UNL     1     -11.588   6.872  70.761  1.00  0.00    -0.365 SA 
BRANCH  22  23
HETATM   23  S   UNL     1     -11.029   8.795  71.247  1.00  0.00    -0.302 SA 
BRANCH  23  24
HETATM   24  C   UNL     1     -12.563   9.443  71.989  1.00  0.00    -0.384 C  
BRANCH  24  25
HETATM   25  C   UNL     1     -13.159  10.566  71.136  1.00  0.00    -0.358 C  
BRANCH  25  26
HETATM   26  N   UNL     1     -12.574  10.701  69.804  1.00  0.00    -0.499 N  
HETATM   27  H   UNL     1     -12.618   9.899  69.175  1.00  0.00     0.000 HD 
HETATM   28  C   UNL     1     -11.965  11.852  69.352  1.00  0.00    -0.289 C  
HETATM   29  O   UNL     1     -11.806  12.855  70.039  1.00  0.00    -0.326 OA 
BRANCH  28  30
HETATM   30  C   UNL     1     -11.533  11.805  67.904  1.00  0.00    -0.387 C  
BRANCH  30  31
HETATM   31  C   UNL     1     -11.760  13.165  67.251  1.00  0.00    -0.374 C  
BRANCH  31  32
HETATM   32  N   UNL     1     -10.555  13.973  67.238  1.00  0.00    -0.271 N  
HETATM   33  H   UNL     1      -9.976  14.004  68.077  1.00  0.00     0.000 HD 
HETATM   34  C   UNL     1     -10.167  14.699  66.137  1.00  0.00    -0.301 C  
HETATM   35  O   UNL     1     -10.844  14.798  65.117  1.00  0.00    -0.350 OA 
BRANCH  34  36
HETATM   36  C   UNL     1      -8.828  15.448  66.320  1.00  0.00    -0.267 C  
HETATM   37  O   UNL     1      -7.864  14.584  66.942  1.00  0.00    -0.349 OA 
HETATM   38  H   UNL     1      -7.041  15.044  67.055  1.00  0.00     0.000 HD 
BRANCH  36  39
HETATM   39  C   UNL     1      -8.964  16.768  67.129  1.00  0.00    -0.218 C  
HETATM   40  C   UNL     1      -8.349  17.961  66.368  1.00  0.00    -0.273 C  
HETATM   41  C   UNL     1     -10.466  17.075  67.331  1.00  0.00    -0.322 C  
BRANCH  39  42
HETATM   42  C   UNL     1      -8.285  16.613  68.511  1.00  0.00    -0.231 C  
HETATM   43  O   UNL     1      -9.013  15.732  69.362  1.00  0.00    -0.255 OA 
HETATM   44  H   UNL     1      -8.597  15.637  70.210  1.00  0.00     0.000 HD 
ENDBRANCH  39  42
ENDBRANCH  36  39
ENDBRANCH  34  36
ENDBRANCH  31  32
ENDBRANCH  30  31
ENDBRANCH  28  30
ENDBRANCH  25  26
ENDBRANCH  24  25
ENDBRANCH  23  24
ENDBRANCH  22  23
ENDBRANCH  21  22
ENDBRANCH  20  21
ENDBRANCH  18  20
ENDBRANCH  15  16
ENDBRANCH  14  15
ENDBRANCH  12  14
ENDBRANCH   7  10
ENDBRANCH   2   7
TORSDOF 19
ENDMDL
MODEL      210
REMARK 921   NORMALIZED FREE ENERGY PREDICTED BY IDOCK:   -4.07 KCAL/MOL
REMARK 922        TOTAL FREE ENERGY PREDICTED BY IDOCK:  -10.78 KCAL/MOL
REMARK 923 INTER-LIGAND FREE ENERGY PREDICTED BY IDOCK:   -8.72 KCAL/MOL
REMARK 924 INTRA-LIGAND FREE ENERGY PREDICTED BY IDOCK:   -2.06 KCAL/MOL
REMARK 927      BINDING AFFINITY PREDICTED BY RF-SCORE:    0.00 PKD
ROOT
HETATM    1  C   UNL     1     -12.009  14.800  64.629  1.00  0.00    -0.448 C  
HETATM    2  C   UNL     1     -11.448  13.941  65.777  1.00  0.00    -0.324 C  
HETATM    3  C   UNL     1     -11.925  14.514  67.135  1.00  0.00    -0.373 C  
ENDROOT
BRANCH   2   4
HETATM    4  C   UNL     1     -12.030  12.516  65.670  1.00  0.00    -0.433 C  
HETATM    5  O   UNL     1     -13.135  12.473  64.770  1.00  0.00    -0.853 OA 
HETATM    6  H   UNL     1     -13.493  11.596  64.705  1.00  0.00     0.000 HD 
ENDBRANCH   2   4
BRANCH   2   7
HETATM    7  C   UNL     1      -9.889  13.878  65.730  1.00  0.00    -0.239 C  
HETATM    8  O   UNL     1      -9.273  15.166  65.897  1.00  0.00    -0.425 OA 
HETATM    9  H   UNL     1      -8.324  15.127  65.869  1.00  0.00     0.000 HD 
BRANCH   7  10
HETATM   10  C   UNL     1      -9.243  12.919  66.755  1.00  0.00    -0.230 C  
HETATM   11  O   UNL     1      -9.257  13.084  67.972  1.00  0.00    -0.198 OA 
HETATM   12  N   UNL     1      -8.699  11.795  66.175  1.00  0.00    -0.368 N  
HETATM   13  H   UNL     1      -8.647  11.728  65.158  1.00  0.00     0.000 HD 
BRANCH  12  14
HETATM   14  C   UNL     1      -8.198  10.710  66.988  1.00  0.00    -0.124 C  
BRANCH  14  15
HETATM   15  C   UNL     1      -6.968  10.030  66.395  1.00  0.00    -0.101 C  
BRANCH  15  16
HETATM   16  C   UNL     1      -7.413   9.122  65.270  1.00  0.00    -0.097 C  
HETATM   17  O   UNL     1      -7.747   9.564  64.175  1.00  0.00    -0.113 OA 
HETATM   18  N   UNL     1      -7.381   7.781  65.580  1.00  0.00    -0.071 N  
HETATM   19  H   UNL     1      -7.041   7.522  66.505  1.00  0.00     0.000 HD 
BRANCH  18  20
HETATM   20  C   UNL     1      -7.797   6.697  64.687  1.00  0.00    -0.116 C  
BRANCH  20  21
HETATM   21  C   UNL     1      -6.972   5.407  64.723  1.00  0.00    -0.049 C  
BRANCH  21  22
HETATM   22  S   UNL     1      -6.943   4.457  63.154  1.00  0.00    -0.040 SA 
BRANCH  22  23
HETATM   23  S   UNL     1      -8.155   2.833  63.530  1.00  0.00    -0.082 SA 
BRANCH  23  24
HETATM   24  C   UNL     1      -9.773   3.446  62.955  1.00  0.00    -0.102 C  
BRANCH  24  25
HETATM   25  C   UNL     1     -10.700   3.749  64.134  1.00  0.00    -0.225 C  
BRANCH  25  26
HETATM   26  N   UNL     1     -10.085   3.603  65.451  1.00  0.00    -0.406 N  
HETATM   27  H   UNL     1      -9.564   2.748  65.648  1.00  0.00     0.000 HD 
HETATM   28  C   UNL     1     -10.170   4.558  66.443  1.00  0.00    -0.217 C  
HETATM   29  O   UNL     1     -10.815   5.596  66.336  1.00  0.00    -0.253 OA 
BRANCH  28  30
HETATM   30  C   UNL     1      -9.363   4.246  67.682  1.00  0.00    -0.197 C  
BRANCH  30  31
HETATM   31  C   UNL     1      -8.692   5.516  68.196  1.00  0.00    -0.102 C  
BRANCH  31  32
HETATM   32  N   UNL     1      -9.595   6.330  68.989  1.00  0.00    -0.127 N  
HETATM   33  H   UNL     1     -10.253   6.944  68.509  1.00  0.00     0.000 HD 
HETATM   34  C   UNL     1      -9.596   6.303  70.364  1.00  0.00    -0.165 C  
HETATM   35  O   UNL     1      -8.783   5.668  71.029  1.00  0.00    -0.130 OA 
BRANCH  34  36
HETATM   36  C   UNL     1     -10.671   7.207  71.008  1.00  0.00    -0.232 C  
HETATM   37  O   UNL     1     -11.742   7.434  70.078  1.00  0.00    -0.500 OA 
HETATM   38  H   UNL     1     -12.403   7.990  70.474  1.00  0.00     0.000 HD 
BRANCH  36  39
HETATM   39  C   UNL     1     -10.111   8.563  71.521  1.00  0.00    -0.315 C  
HETATM   40  C   UNL     1      -8.862   8.995  70.725  1.00  0.00    -0.281 C  
HETATM   41  C   UNL     1     -11.188   9.655  71.316  1.00  0.00    -0.446 C  
BRANCH  39  42
HETATM   42  C   UNL     1      -9.773   8.459  73.027  1.00  0.00    -0.115 C  
HETATM   43  O   UNL     1      -9.882   7.122  73.503  1.00  0.00    -0.220 OA 
HETATM   44  H   UNL     1      -9.675   7.058  74.428  1.00  0.00     0.000 HD 
ENDBRANCH  39  42
ENDBRANCH  36  39
ENDBRANCH  34  36
ENDBRANCH  31  32
ENDBRANCH  30  31
ENDBRANCH  28  30
ENDBRANCH  25  26
ENDBRANCH  24  25
ENDBRANCH  23  24
ENDBRANCH  22  23
ENDBRANCH  21  22
ENDBRANCH  20  21
ENDBRANCH  18  20
ENDBRANCH  15  16
ENDBRANCH  14  15
ENDBRANCH  12  14
ENDBRANCH   7  10
ENDBRANCH   2   7
TORSDOF 19
ENDMDL
MODEL      211
REMARK 921   NORMALIZED FREE ENERGY PREDICTED BY IDOCK:   -4.07 KCAL/MOL
REMARK 922        TOTAL FREE ENERGY PREDICTED BY IDOCK:  -10.77 KCAL/MOL
REMARK 923 INTER-LIGAND FREE ENERGY PREDICTED BY IDOCK:   -8.72 KCAL/MOL
REMARK 924 INTRA-LIGAND FREE ENERGY PREDICTED BY IDOCK:   -2.04 KCAL/MOL
REMARK 927      BINDING AFFINITY PREDICTED BY RF-SCORE:    0.00 PKD
ROOT
HETATM    1  C   UNL     1      -7.149  18.484  67.983  1.00  0.00    -0.246 C  
HETATM    2  C   UNL     1      -7.616  19.702  67.164  1.00  0.00    -0.282 C  
HETATM    3  C   UNL     1      -7.071  21.000  67.809  1.00  0.00    -0.227 C  
ENDROOT
BRANCH   2   4
HETATM    4  C   UNL     1      -7.006  19.621  65.749  1.00  0.00    -0.293 C  
HETATM    5  O   UNL     1      -7.053  20.884  65.090  1.00  0.00    -0.520 OA 
HETATM    6  H   UNL     1      -6.677  20.834  64.219  1.00  0.00     0.000 HD 
ENDBRANCH   2   4
BRANCH   2   7
HETATM    7  C   UNL     1      -9.173  19.756  67.063  1.00  0.00    -0.352 C  
HETATM    8  O   UNL     1      -9.634  20.569  65.970  1.00  0.00    -0.654 OA 
HETATM    9  H   UNL     1     -10.580  20.602  65.909  1.00  0.00     0.000 HD 
BRANCH   7  10
HETATM   10  C   UNL     1      -9.868  18.381  66.943  1.00  0.00    -0.338 C  
HETATM   11  O   UNL     1      -9.887  17.695  65.925  1.00  0.00    -0.516 OA 
HETATM   12  N   UNL     1     -10.416  17.948  68.130  1.00  0.00    -0.383 N  
HETATM   13  H   UNL     1     -10.438  18.576  68.933  1.00  0.00     0.000 HD 
BRANCH  12  14
HETATM   14  C   UNL     1     -10.962  16.615  68.250  1.00  0.00    -0.341 C  
BRANCH  14  15
HETATM   15  C   UNL     1     -10.035  15.648  68.980  1.00  0.00    -0.233 C  
BRANCH  15  16
HETATM   16  C   UNL     1      -9.889  14.396  68.145  1.00  0.00    -0.223 C  
HETATM   17  O   UNL     1     -10.116  14.392  66.939  1.00  0.00    -0.252 OA 
HETATM   18  N   UNL     1      -9.460  13.294  68.849  1.00  0.00    -0.396 N  
HETATM   19  H   UNL     1      -9.254  13.422  69.839  1.00  0.00     0.000 HD 
BRANCH  18  20
HETATM   20  C   UNL     1      -9.274  11.953  68.289  1.00  0.00    -0.187 C  
BRANCH  20  21
HETATM   21  C   UNL     1     -10.532  11.107  68.070  1.00  0.00    -0.188 C  
BRANCH  21  22
HETATM   22  S   UNL     1     -10.773  10.498  66.357  1.00  0.00    -0.030 SA 
BRANCH  22  23
HETATM   23  S   UNL     1      -8.956  10.836  65.446  1.00  0.00    -0.191 SA 
BRANCH  23  24
HETATM   24  C   UNL     1      -9.356  10.500  63.700  1.00  0.00    -0.289 C  
BRANCH  24  25
HETATM   25  C   UNL     1      -8.273   9.643  63.040  1.00  0.00    -0.152 C  
BRANCH  25  26
HETATM   26  N   UNL     1      -8.395   8.207  63.280  1.00  0.00    -0.380 N  
HETATM   27  H   UNL     1      -9.162   7.707  62.830  1.00  0.00     0.000 HD 
HETATM   28  C   UNL     1      -7.530   7.492  64.082  1.00  0.00    -0.099 C  
HETATM   29  O   UNL     1      -6.610   7.999  64.714  1.00  0.00    -0.048 OA 
BRANCH  28  30
HETATM   30  C   UNL     1      -7.778   6.001  64.096  1.00  0.00    -0.108 C  
BRANCH  30  31
HETATM   31  C   UNL     1      -8.635   5.630  65.303  1.00  0.00    -0.141 C  
BRANCH  31  32
HETATM   32  N   UNL     1      -8.287   6.405  66.479  1.00  0.00    -0.112 N  
HETATM   33  H   UNL     1      -7.315   6.419  66.789  1.00  0.00     0.000 HD 
HETATM   34  C   UNL     1      -9.220   7.122  67.191  1.00  0.00    -0.134 C  
HETATM   35  O   UNL     1     -10.424   7.093  66.951  1.00  0.00    -0.281 OA 
BRANCH  34  36
HETATM   36  C   UNL     1      -8.629   7.916  68.376  1.00  0.00    -0.128 C  
HETATM   37  O   UNL     1      -7.197   7.959  68.273  1.00  0.00    -0.085 OA 
HETATM   38  H   UNL     1      -6.833   8.447  69.002  1.00  0.00     0.000 HD 
BRANCH  36  39
HETATM   39  C   UNL     1      -9.048   7.359  69.765  1.00  0.00    -0.141 C  
HETATM   40  C   UNL     1      -7.986   7.665  70.841  1.00  0.00    -0.094 C  
HETATM   41  C   UNL     1     -10.360   8.052  70.204  1.00  0.00    -0.215 C  
BRANCH  39  42
HETATM   42  C   UNL     1      -9.286   5.832  69.672  1.00  0.00    -0.139 C  
HETATM   43  O   UNL     1     -10.674   5.513  69.647  1.00  0.00    -0.322 OA 
HETATM   44  H   UNL     1     -10.820   4.576  69.590  1.00  0.00     0.000 HD 
ENDBRANCH  39  42
ENDBRANCH  36  39
ENDBRANCH  34  36
ENDBRANCH  31  32
ENDBRANCH  30  31
ENDBRANCH  28  30
ENDBRANCH  25  26
ENDBRANCH  24  25
ENDBRANCH  23  24
ENDBRANCH  22  23
ENDBRANCH  21  22
ENDBRANCH  20  21
ENDBRANCH  18  20
ENDBRANCH  15  16
ENDBRANCH  14  15
ENDBRANCH  12  14
ENDBRANCH   7  10
ENDBRANCH   2   7
TORSDOF 19
ENDMDL
MODEL      212
REMARK 921   NORMALIZED FREE ENERGY PREDICTED BY IDOCK:   -4.05 KCAL/MOL
REMARK 922        TOTAL FREE ENERGY PREDICTED BY IDOCK:  -10.73 KCAL/MOL
REMARK 923 INTER-LIGAND FREE ENERGY PREDICTED BY IDOCK:   -9.56 KCAL/MOL
REMARK 924 INTRA-LIGAND FREE ENERGY PREDICTED BY IDOCK:   -1.18 KCAL/MOL
REMARK 927      BINDING AFFINITY PREDICTED BY RF-SCORE:    0.00 PKD
ROOT
HETATM    1  C   UNL     1      -9.248   2.552  64.200  1.00  0.00    -0.122 C  
HETATM    2  C   UNL     1      -8.414   3.231  65.302  1.00  0.00    -0.100 C  
HETATM    3  C   UNL     1      -8.794   2.636  66.681  1.00  0.00    -0.140 C  
ENDROOT
BRANCH   2   4
HETATM    4  C   UNL     1      -6.922   2.906  65.076  1.00  0.00    -0.049 C  
HETATM    5  O   UNL     1      -6.132   4.092  65.046  1.00  0.00    -0.022 OA 
HETATM    6  H   UNL     1      -5.214   3.892  64.907  1.00  0.00     0.000 HD 
ENDBRANCH   2   4
BRANCH   2   7
HETATM    7  C   UNL     1      -8.622   4.778  65.301  1.00  0.00    -0.137 C  
HETATM    8  O   UNL     1      -8.691   5.330  63.975  1.00  0.00    -0.278 OA 
HETATM    9  H   UNL     1      -8.818   6.271  63.974  1.00  0.00     0.000 HD 
BRANCH   7  10
HETATM   10  C   UNL     1      -9.866   5.270  66.073  1.00  0.00    -0.132 C  
HETATM   11  O   UNL     1     -11.027   5.077  65.725  1.00  0.00    -0.178 OA 
HETATM   12  N   UNL     1      -9.552   5.900  67.257  1.00  0.00    -0.112 N  
HETATM   13  H   UNL     1      -8.576   6.101  67.478  1.00  0.00     0.000 HD 
BRANCH  12  14
HETATM   14  C   UNL     1     -10.587   6.281  68.191  1.00  0.00    -0.257 C  
BRANCH  14  15
HETATM   15  C   UNL     1     -10.626   5.403  69.438  1.00  0.00    -0.295 C  
BRANCH  15  16
HETATM   16  C   UNL     1     -11.187   6.216  70.584  1.00  0.00    -0.319 C  
HETATM   17  O   UNL     1     -11.166   5.805  71.740  1.00  0.00    -0.264 OA 
HETATM   18  N   UNL     1     -11.687   7.444  70.215  1.00  0.00    -0.503 N  
HETATM   19  H   UNL     1     -11.610   7.705  69.233  1.00  0.00     0.000 HD 
BRANCH  18  20
HETATM   20  C   UNL     1     -12.319   8.406  71.121  1.00  0.00    -0.200 C  
BRANCH  20  21
HETATM   21  C   UNL     1     -11.692   9.801  71.208  1.00  0.00    -0.394 C  
BRANCH  21  22
HETATM   22  S   UNL     1     -10.495  10.200  69.877  1.00  0.00    -0.266 SA 
BRANCH  22  23
HETATM   23  S   UNL     1     -11.443  11.658  68.772  1.00  0.00    -0.315 SA 
BRANCH  23  24
HETATM   24  C   UNL     1     -11.326  10.971  67.087  1.00  0.00    -0.136 C  
BRANCH  24  25
HETATM   25  C   UNL     1     -10.190  11.627  66.300  1.00  0.00    -0.227 C  
BRANCH  25  26
HETATM   26  N   UNL     1      -9.866  12.991  66.712  1.00  0.00    -0.237 N  
HETATM   27  H   UNL     1      -9.532  13.140  67.664  1.00  0.00     0.000 HD 
HETATM   28  C   UNL     1      -9.986  14.087  65.883  1.00  0.00    -0.307 C  
HETATM   29  O   UNL     1     -10.428  14.033  64.741  1.00  0.00    -0.413 OA 
BRANCH  28  30
HETATM   30  C   UNL     1      -9.487  15.382  66.482  1.00  0.00    -0.298 C  
BRANCH  30  31
HETATM   31  C   UNL     1     -10.336  16.546  65.980  1.00  0.00    -0.345 C  
BRANCH  31  32
HETATM   32  N   UNL     1      -9.687  17.826  66.187  1.00  0.00    -0.260 N  
HETATM   33  H   UNL     1      -9.207  18.267  65.403  1.00  0.00     0.000 HD 
HETATM   34  C   UNL     1      -9.695  18.468  67.404  1.00  0.00    -0.303 C  
HETATM   35  O   UNL     1     -10.166  17.976  68.426  1.00  0.00    -0.362 OA 
BRANCH  34  36
HETATM   36  C   UNL     1      -8.990  19.842  67.392  1.00  0.00    -0.337 C  
HETATM   37  O   UNL     1      -9.520  20.657  66.335  1.00  0.00    -0.636 OA 
HETATM   38  H   UNL     1      -9.086  21.502  66.328  1.00  0.00     0.000 HD 
BRANCH  36  39
HETATM   39  C   UNL     1      -7.444  19.743  67.268  1.00  0.00    -0.285 C  
HETATM   40  C   UNL     1      -6.742  20.871  68.051  1.00  0.00    -0.286 C  
HETATM   41  C   UNL     1      -6.981  18.400  67.881  1.00  0.00    -0.218 C  
BRANCH  39  42
HETATM   42  C   UNL     1      -7.030  19.792  65.778  1.00  0.00    -0.295 C  
HETATM   43  O   UNL     1      -6.940  18.489  65.210  1.00  0.00    -0.527 OA 
HETATM   44  H   UNL     1      -6.686  18.519  64.295  1.00  0.00     0.000 HD 
ENDBRANCH  39  42
ENDBRANCH  36  39
ENDBRANCH  34  36
ENDBRANCH  31  32
ENDBRANCH  30  31
ENDBRANCH  28  30
ENDBRANCH  25  26
ENDBRANCH  24  25
ENDBRANCH  23  24
ENDBRANCH  22  23
ENDBRANCH  21  22
ENDBRANCH  20  21
ENDBRANCH  18  20
ENDBRANCH  15  16
ENDBRANCH  14  15
ENDBRANCH  12  14
ENDBRANCH   7  10
ENDBRANCH   2   7
TORSDOF 19
ENDMDL
MODEL      213
REMARK 921   NORMALIZED FREE ENERGY PREDICTED BY IDOCK:   -4.04 KCAL/MOL
REMARK 922        TOTAL FREE ENERGY PREDICTED BY IDOCK:  -10.70 KCAL/MOL
REMARK 923 INTER-LIGAND FREE ENERGY PREDICTED BY IDOCK:  -10.36 KCAL/MOL
REMARK 924 INTRA-LIGAND FREE ENERGY PREDICTED BY IDOCK:   -0.34 KCAL/MOL
REMARK 927      BINDING AFFINITY PREDICTED BY RF-SCORE:    0.00 PKD
ROOT
HETATM    1  C   UNL     1     -10.404  15.740  68.798  1.00  0.00    -0.220 C  
HETATM    2  C   UNL     1      -9.439  16.097  67.653  1.00  0.00    -0.220 C  
HETATM    3  C   UNL     1      -8.202  16.831  68.226  1.00  0.00    -0.204 C  
ENDROOT
BRANCH   2   4
HETATM    4  C   UNL     1      -8.920  14.794  67.008  1.00  0.00    -0.238 C  
HETATM    5  O   UNL     1      -9.391  13.645  67.709  1.00  0.00    -0.201 OA 
HETATM    6  H   UNL     1      -9.071  12.843  67.312  1.00  0.00     0.000 HD 
ENDBRANCH   2   4
BRANCH   2   7
HETATM    7  C   UNL     1     -10.141  16.976  66.571  1.00  0.00    -0.314 C  
HETATM    8  O   UNL     1      -9.220  17.804  65.840  1.00  0.00    -0.519 OA 
HETATM    9  H   UNL     1      -9.647  18.338  65.182  1.00  0.00     0.000 HD 
BRANCH   7  10
HETATM   10  C   UNL     1     -10.981  16.193  65.537  1.00  0.00    -0.177 C  
HETATM   11  O   UNL     1     -11.081  16.489  64.350  1.00  0.00    -0.894 OA 
HETATM   12  N   UNL     1     -11.564  15.061  66.062  1.00  0.00    -0.230 N  
HETATM   13  H   UNL     1     -11.512  14.886  67.066  1.00  0.00     0.000 HD 
BRANCH  12  14
HETATM   14  C   UNL     1     -12.249  14.116  65.208  1.00  0.00    -0.434 C  
BRANCH  14  15
HETATM   15  C   UNL     1     -11.450  13.739  63.964  1.00  0.00    -0.244 C  
BRANCH  15  16
HETATM   16  C   UNL     1     -10.708  12.450  64.239  1.00  0.00    -0.357 C  
HETATM   17  O   UNL     1     -10.352  12.137  65.370  1.00  0.00    -0.253 OA 
HETATM   18  N   UNL     1     -10.502  11.668  63.126  1.00  0.00    -0.657 N  
HETATM   19  H   UNL     1     -10.883  12.002  62.241  1.00  0.00     0.000 HD 
BRANCH  18  20
HETATM   20  C   UNL     1      -9.779  10.394  63.109  1.00  0.00    -0.252 C  
BRANCH  20  21
HETATM   21  C   UNL     1      -8.356  10.391  63.675  1.00  0.00    -0.153 C  
BRANCH  21  22
HETATM   22  S   UNL     1      -7.817   8.805  64.422  1.00  0.00    -0.139 SA 
BRANCH  22  23
HETATM   23  S   UNL     1      -7.850   9.170  66.450  1.00  0.00    -0.100 SA 
BRANCH  23  24
HETATM   24  C   UNL     1      -9.443   8.425  66.928  1.00  0.00    -0.185 C  
BRANCH  24  25
HETATM   25  C   UNL     1     -10.544   9.484  67.019  1.00  0.00    -0.201 C  
BRANCH  25  26
HETATM   26  N   UNL     1     -11.070   9.709  68.363  1.00  0.00    -0.481 N  
HETATM   27  H   UNL     1     -12.012   9.378  68.573  1.00  0.00     0.000 HD 
HETATM   28  C   UNL     1     -10.364  10.344  69.362  1.00  0.00    -0.237 C  
HETATM   29  O   UNL     1      -9.249  10.831  69.206  1.00  0.00    -0.153 OA 
BRANCH  28  30
HETATM   30  C   UNL     1     -11.059  10.365  70.704  1.00  0.00    -0.283 C  
BRANCH  30  31
HETATM   31  C   UNL     1     -12.375   9.598  70.617  1.00  0.00    -0.128 C  
BRANCH  31  32
HETATM   32  N   UNL     1     -12.189   8.171  70.805  1.00  0.00    -0.496 N  
HETATM   33  H   UNL     1     -12.349   7.547  70.015  1.00  0.00     0.000 HD 
HETATM   34  C   UNL     1     -11.806   7.630  72.010  1.00  0.00    -0.301 C  
HETATM   35  O   UNL     1     -11.679   8.289  73.039  1.00  0.00    -0.265 OA 
BRANCH  34  36
HETATM   36  C   UNL     1     -11.617   6.097  71.977  1.00  0.00    -0.310 C  
HETATM   37  O   UNL     1     -11.891   5.542  73.273  1.00  0.00    -0.497 OA 
HETATM   38  H   UNL     1     -11.774   4.599  73.253  1.00  0.00     0.000 HD 
BRANCH  36  39
HETATM   39  C   UNL     1     -10.207   5.659  71.494  1.00  0.00    -0.263 C  
HETATM   40  C   UNL     1      -9.094   6.476  72.183  1.00  0.00    -0.139 C  
HETATM   41  C   UNL     1      -9.990   4.175  71.873  1.00  0.00    -0.253 C  
BRANCH  39  42
HETATM   42  C   UNL     1     -10.104   5.811  69.957  1.00  0.00    -0.216 C  
HETATM   43  O   UNL     1      -9.532   7.061  69.586  1.00  0.00    -0.149 OA 
HETATM   44  H   UNL     1      -9.468   7.155  68.643  1.00  0.00     0.000 HD 
ENDBRANCH  39  42
ENDBRANCH  36  39
ENDBRANCH  34  36
ENDBRANCH  31  32
ENDBRANCH  30  31
ENDBRANCH  28  30
ENDBRANCH  25  26
ENDBRANCH  24  25
ENDBRANCH  23  24
ENDBRANCH  22  23
ENDBRANCH  21  22
ENDBRANCH  20  21
ENDBRANCH  18  20
ENDBRANCH  15  16
ENDBRANCH  14  15
ENDBRANCH  12  14
ENDBRANCH   7  10
ENDBRANCH   2   7
TORSDOF 19
ENDMDL
MODEL      214
REMARK 921   NORMALIZED FREE ENERGY PREDICTED BY IDOCK:   -4.02 KCAL/MOL
REMARK 922        TOTAL FREE ENERGY PREDICTED BY IDOCK:  -10.66 KCAL/MOL
REMARK 923 INTER-LIGAND FREE ENERGY PREDICTED BY IDOCK:   -9.04 KCAL/MOL
REMARK 924 INTRA-LIGAND FREE ENERGY PREDICTED BY IDOCK:   -1.62 KCAL/MOL
REMARK 927      BINDING AFFINITY PREDICTED BY RF-SCORE:    0.00 PKD
ROOT
HETATM    1  C   UNL     1      -9.757   8.466  72.581  1.00  0.00    -0.332 C  
HETATM    2  C   UNL     1     -10.252   8.250  71.139  1.00  0.00    -0.244 C  
HETATM    3  C   UNL     1     -11.743   7.832  71.159  1.00  0.00    -0.304 C  
ENDROOT
BRANCH   2   4
HETATM    4  C   UNL     1     -10.179   9.589  70.376  1.00  0.00    -0.279 C  
HETATM    5  O   UNL     1     -11.075   9.605  69.267  1.00  0.00    -0.355 OA 
HETATM    6  H   UNL     1     -11.029  10.429  68.798  1.00  0.00     0.000 HD 
ENDBRANCH   2   4
BRANCH   2   7
HETATM    7  C   UNL     1      -9.395   7.175  70.399  1.00  0.00    -0.159 C  
HETATM    8  O   UNL     1      -8.713   6.287  71.301  1.00  0.00    -0.134 OA 
HETATM    9  H   UNL     1      -8.192   5.633  70.850  1.00  0.00     0.000 HD 
BRANCH   7  10
HETATM   10  C   UNL     1     -10.173   6.302  69.389  1.00  0.00    -0.193 C  
HETATM   11  O   UNL     1     -10.747   5.253  69.669  1.00  0.00    -0.273 OA 
HETATM   12  N   UNL     1     -10.230   6.855  68.129  1.00  0.00    -0.167 N  
HETATM   13  H   UNL     1      -9.685   7.692  67.921  1.00  0.00     0.000 HD 
BRANCH  12  14
HETATM   14  C   UNL     1     -11.053   6.264  67.097  1.00  0.00    -0.303 C  
BRANCH  14  15
HETATM   15  C   UNL     1     -10.366   5.116  66.364  1.00  0.00    -0.332 C  
BRANCH  15  16
HETATM   16  C   UNL     1      -8.973   5.556  65.975  1.00  0.00    -0.152 C  
HETATM   17  O   UNL     1      -8.022   5.445  66.742  1.00  0.00    -0.100 OA 
HETATM   18  N   UNL     1      -8.873   6.054  64.696  1.00  0.00    -0.355 N  
HETATM   19  H   UNL     1      -9.718   6.056  64.127  1.00  0.00     0.000 HD 
BRANCH  18  20
HETATM   20  C   UNL     1      -7.649   6.583  64.087  1.00  0.00    -0.100 C  
BRANCH  20  21
HETATM   21  C   UNL     1      -7.808   7.722  63.077  1.00  0.00    -0.136 C  
BRANCH  21  22
HETATM   22  S   UNL     1      -6.325   8.778  62.853  1.00  0.00    -0.090 SA 
BRANCH  22  23
HETATM   23  S   UNL     1      -6.398  10.086  64.444  1.00  0.00    -0.130 SA 
BRANCH  23  24
HETATM   24  C   UNL     1      -8.195  10.216  64.726  1.00  0.00    -0.161 C  
BRANCH  24  25
HETATM   25  C   UNL     1      -8.518  10.261  66.221  1.00  0.00    -0.135 C  
BRANCH  25  26
HETATM   26  N   UNL     1      -8.175  11.515  66.886  1.00  0.00    -0.162 N  
HETATM   27  H   UNL     1      -7.201  11.820  66.867  1.00  0.00     0.000 HD 
HETATM   28  C   UNL     1      -9.094  12.309  67.539  1.00  0.00    -0.182 C  
HETATM   29  O   UNL     1     -10.277  12.013  67.673  1.00  0.00    -0.195 OA 
BRANCH  28  30
HETATM   30  C   UNL     1      -8.538  13.616  68.056  1.00  0.00    -0.175 C  
BRANCH  30  31
HETATM   31  C   UNL     1      -9.682  14.553  68.431  1.00  0.00    -0.224 C  
BRANCH  31  32
HETATM   32  N   UNL     1      -9.315  15.950  68.286  1.00  0.00    -0.192 N  
HETATM   33  H   UNL     1      -8.435  16.181  67.826  1.00  0.00     0.000 HD 
HETATM   34  C   UNL     1     -10.111  16.972  68.747  1.00  0.00    -0.307 C  
HETATM   35  O   UNL     1     -11.140  16.791  69.393  1.00  0.00    -0.252 OA 
BRANCH  34  36
HETATM   36  C   UNL     1      -9.558  18.382  68.445  1.00  0.00    -0.345 C  
HETATM   37  O   UNL     1     -10.339  19.373  69.131  1.00  0.00    -0.573 OA 
HETATM   38  H   UNL     1      -9.998  20.240  68.945  1.00  0.00     0.000 HD 
BRANCH  36  39
HETATM   39  C   UNL     1      -9.494  18.709  66.927  1.00  0.00    -0.310 C  
HETATM   40  C   UNL     1      -8.056  18.587  66.383  1.00  0.00    -0.295 C  
HETATM   41  C   UNL     1     -10.364  17.684  66.161  1.00  0.00    -0.334 C  
BRANCH  39  42
HETATM   42  C   UNL     1     -10.041  20.134  66.669  1.00  0.00    -0.454 C  
HETATM   43  O   UNL     1      -9.124  21.137  67.092  1.00  0.00    -0.604 OA 
HETATM   44  H   UNL     1      -9.459  22.012  66.934  1.00  0.00     0.000 HD 
ENDBRANCH  39  42
ENDBRANCH  36  39
ENDBRANCH  34  36
ENDBRANCH  31  32
ENDBRANCH  30  31
ENDBRANCH  28  30
ENDBRANCH  25  26
ENDBRANCH  24  25
ENDBRANCH  23  24
ENDBRANCH  22  23
ENDBRANCH  21  22
ENDBRANCH  20  21
ENDBRANCH  18  20
ENDBRANCH  15  16
ENDBRANCH  14  15
ENDBRANCH  12  14
ENDBRANCH   7  10
ENDBRANCH   2   7
TORSDOF 19
ENDMDL
MODEL      215
REMARK 921   NORMALIZED FREE ENERGY PREDICTED BY IDOCK:   -4.01 KCAL/MOL
REMARK 922        TOTAL FREE ENERGY PREDICTED BY IDOCK:  -10.65 KCAL/MOL
REMARK 923 INTER-LIGAND FREE ENERGY PREDICTED BY IDOCK:   -7.95 KCAL/MOL
REMARK 924 INTRA-LIGAND FREE ENERGY PREDICTED BY IDOCK:   -2.70 KCAL/MOL
REMARK 927      BINDING AFFINITY PREDICTED BY RF-SCORE:    0.00 PKD
ROOT
HETATM    1  C   UNL     1      -9.473  11.146  65.811  1.00  0.00    -0.248 C  
HETATM    2  C   UNL     1      -8.924   9.710  65.725  1.00  0.00    -0.207 C  
HETATM    3  C   UNL     1      -9.993   8.714  66.239  1.00  0.00    -0.287 C  
ENDROOT
BRANCH   2   4
HETATM    4  C   UNL     1      -8.668   9.357  64.244  1.00  0.00    -0.197 C  
HETATM    5  O   UNL     1      -8.725   7.949  64.029  1.00  0.00    -0.355 OA 
HETATM    6  H   UNL     1      -8.567   7.732  63.117  1.00  0.00     0.000 HD 
ENDBRANCH   2   4
BRANCH   2   7
HETATM    7  C   UNL     1      -7.601   9.557  66.539  1.00  0.00    -0.094 C  
HETATM    8  O   UNL     1      -6.874   8.363  66.203  1.00  0.00    -0.063 OA 
HETATM    9  H   UNL     1      -6.069   8.271  66.698  1.00  0.00     0.000 HD 
BRANCH   7  10
HETATM   10  C   UNL     1      -6.621  10.746  66.420  1.00  0.00    -0.128 C  
HETATM   11  O   UNL     1      -5.900  10.962  65.450  1.00  0.00    -0.118 OA 
HETATM   12  N   UNL     1      -6.680  11.604  67.495  1.00  0.00    -0.086 N  
HETATM   13  H   UNL     1      -7.241  11.354  68.309  1.00  0.00     0.000 HD 
BRANCH  12  14
HETATM   14  C   UNL     1      -5.957  12.856  67.484  1.00  0.00    -0.128 C  
BRANCH  14  15
HETATM   15  C   UNL     1      -6.571  13.914  68.396  1.00  0.00    -0.103 C  
BRANCH  15  16
HETATM   16  C   UNL     1      -8.061  13.962  68.145  1.00  0.00    -0.150 C  
HETATM   17  O   UNL     1      -8.818  13.096  68.574  1.00  0.00    -0.145 OA 
HETATM   18  N   UNL     1      -8.480  15.061  67.430  1.00  0.00    -0.171 N  
HETATM   19  H   UNL     1      -7.772  15.744  67.164  1.00  0.00     0.000 HD 
BRANCH  18  20
HETATM   20  C   UNL     1      -9.861  15.327  67.020  1.00  0.00    -0.229 C  
BRANCH  20  21
HETATM   21  C   UNL     1     -10.621  16.412  67.790  1.00  0.00    -0.321 C  
BRANCH  21  22
HETATM   22  S   UNL     1     -10.872  16.070  69.574  1.00  0.00    -0.345 SA 
BRANCH  22  23
HETATM   23  S   UNL     1     -12.050  14.379  69.599  1.00  0.00    -0.321 SA 
BRANCH  23  24
HETATM   24  C   UNL     1     -12.236  14.091  71.389  1.00  0.00    -0.264 C  
BRANCH  24  25
HETATM   25  C   UNL     1     -13.627  13.546  71.720  1.00  0.00    -0.350 C  
BRANCH  25  26
HETATM   26  N   UNL     1     -13.636  12.227  72.346  1.00  0.00    -0.543 N  
HETATM   27  H   UNL     1     -13.980  12.150  73.304  1.00  0.00     0.000 HD 
HETATM   28  C   UNL     1     -13.206  11.079  71.714  1.00  0.00    -0.400 C  
HETATM   29  O   UNL     1     -12.723  11.062  70.587  1.00  0.00    -0.324 OA 
BRANCH  28  30
HETATM   30  C   UNL     1     -13.413   9.811  72.510  1.00  0.00    -0.245 C  
BRANCH  30  31
HETATM   31  C   UNL     1     -12.807   8.626  71.763  1.00  0.00    -0.359 C  
BRANCH  31  32
HETATM   32  N   UNL     1     -11.373   8.530  71.963  1.00  0.00    -0.330 N  
HETATM   33  H   UNL     1     -10.915   9.208  72.572  1.00  0.00     0.000 HD 
HETATM   34  C   UNL     1     -10.609   7.558  71.360  1.00  0.00    -0.210 C  
HETATM   35  O   UNL     1     -11.053   6.758  70.541  1.00  0.00    -0.260 OA 
BRANCH  34  36
HETATM   36  C   UNL     1      -9.114   7.606  71.748  1.00  0.00    -0.133 C  
HETATM   37  O   UNL     1      -8.954   8.287  73.002  1.00  0.00    -0.239 OA 
HETATM   38  H   UNL     1      -8.035   8.316  73.240  1.00  0.00     0.000 HD 
BRANCH  36  39
HETATM   39  C   UNL     1      -8.215   8.262  70.663  1.00  0.00    -0.112 C  
HETATM   40  C   UNL     1      -8.895   9.498  70.039  1.00  0.00    -0.246 C  
HETATM   41  C   UNL     1      -6.905   8.746  71.330  1.00  0.00    -0.082 C  
BRANCH  39  42
HETATM   42  C   UNL     1      -7.874   7.229  69.563  1.00  0.00    -0.118 C  
HETATM   43  O   UNL     1      -6.527   7.353  69.119  1.00  0.00    -0.037 OA 
HETATM   44  H   UNL     1      -6.318   6.719  68.443  1.00  0.00     0.000 HD 
ENDBRANCH  39  42
ENDBRANCH  36  39
ENDBRANCH  34  36
ENDBRANCH  31  32
ENDBRANCH  30  31
ENDBRANCH  28  30
ENDBRANCH  25  26
ENDBRANCH  24  25
ENDBRANCH  23  24
ENDBRANCH  22  23
ENDBRANCH  21  22
ENDBRANCH  20  21
ENDBRANCH  18  20
ENDBRANCH  15  16
ENDBRANCH  14  15
ENDBRANCH  12  14
ENDBRANCH   7  10
ENDBRANCH   2   7
TORSDOF 19
ENDMDL
MODEL      216
REMARK 921   NORMALIZED FREE ENERGY PREDICTED BY IDOCK:   -4.01 KCAL/MOL
REMARK 922        TOTAL FREE ENERGY PREDICTED BY IDOCK:  -10.64 KCAL/MOL
REMARK 923 INTER-LIGAND FREE ENERGY PREDICTED BY IDOCK:   -8.92 KCAL/MOL
REMARK 924 INTRA-LIGAND FREE ENERGY PREDICTED BY IDOCK:   -1.72 KCAL/MOL
REMARK 927      BINDING AFFINITY PREDICTED BY RF-SCORE:    0.00 PKD
ROOT
HETATM    1  C   UNL     1      -9.026   8.085  72.673  1.00  0.00    -0.280 C  
HETATM    2  C   UNL     1      -9.900   6.941  72.126  1.00  0.00    -0.159 C  
HETATM    3  C   UNL     1      -9.013   5.933  71.354  1.00  0.00    -0.144 C  
ENDROOT
BRANCH   2   4
HETATM    4  C   UNL     1     -10.517   6.168  73.311  1.00  0.00    -0.243 C  
HETATM    5  O   UNL     1     -10.506   6.951  74.503  1.00  0.00    -0.476 OA 
HETATM    6  H   UNL     1     -10.885   6.475  75.232  1.00  0.00     0.000 HD 
ENDBRANCH   2   4
BRANCH   2   7
HETATM    7  C   UNL     1     -11.036   7.484  71.203  1.00  0.00    -0.251 C  
HETATM    8  O   UNL     1     -11.578   8.734  71.663  1.00  0.00    -0.276 OA 
HETATM    9  H   UNL     1     -12.269   9.065  71.102  1.00  0.00     0.000 HD 
BRANCH   7  10
HETATM   10  C   UNL     1     -10.642   7.667  69.721  1.00  0.00    -0.244 C  
HETATM   11  O   UNL     1      -9.770   8.433  69.319  1.00  0.00    -0.172 OA 
HETATM   12  N   UNL     1     -11.321   6.821  68.873  1.00  0.00    -0.561 N  
HETATM   13  H   UNL     1     -12.084   6.249  69.237  1.00  0.00     0.000 HD 
BRANCH  12  14
HETATM   14  C   UNL     1     -10.968   6.733  67.474  1.00  0.00    -0.303 C  
BRANCH  14  15
HETATM   15  C   UNL     1     -10.351   5.392  67.091  1.00  0.00    -0.288 C  
BRANCH  15  16
HETATM   16  C   UNL     1      -8.884   5.604  66.790  1.00  0.00    -0.115 C  
HETATM   17  O   UNL     1      -8.057   5.763  67.681  1.00  0.00    -0.101 OA 
HETATM   18  N   UNL     1      -8.572   5.573  65.450  1.00  0.00    -0.149 N  
HETATM   19  H   UNL     1      -9.332   5.385  64.796  1.00  0.00     0.000 HD 
BRANCH  18  20
HETATM   20  C   UNL     1      -7.237   5.788  64.887  1.00  0.00    -0.066 C  
BRANCH  20  21
HETATM   21  C   UNL     1      -6.738   7.233  64.805  1.00  0.00    -0.050 C  
BRANCH  21  22
HETATM   22  S   UNL     1      -8.016   8.475  64.372  1.00  0.00    -0.152 SA 
BRANCH  22  23
HETATM   23  S   UNL     1      -8.474   9.370  66.171  1.00  0.00    -0.122 SA 
BRANCH  23  24
HETATM   24  C   UNL     1     -10.064  10.174  65.784  1.00  0.00    -0.254 C  
BRANCH  24  25
HETATM   25  C   UNL     1     -10.674  10.820  67.029  1.00  0.00    -0.265 C  
BRANCH  25  26
HETATM   26  N   UNL     1     -10.371  12.239  67.196  1.00  0.00    -0.217 N  
HETATM   27  H   UNL     1      -9.774  12.689  66.502  1.00  0.00     0.000 HD 
HETATM   28  C   UNL     1     -10.847  13.003  68.241  1.00  0.00    -0.246 C  
HETATM   29  O   UNL     1     -11.525  12.555  69.160  1.00  0.00    -0.270 OA 
BRANCH  28  30
HETATM   30  C   UNL     1     -10.501  14.472  68.151  1.00  0.00    -0.239 C  
BRANCH  30  31
HETATM   31  C   UNL     1      -9.540  14.706  66.989  1.00  0.00    -0.240 C  
BRANCH  31  32
HETATM   32  N   UNL     1      -9.098  16.086  66.915  1.00  0.00    -0.215 N  
HETATM   33  H   UNL     1      -8.345  16.395  67.530  1.00  0.00     0.000 HD 
HETATM   34  C   UNL     1      -9.658  16.993  66.046  1.00  0.00    -0.187 C  
HETATM   35  O   UNL     1     -10.626  16.741  65.334  1.00  0.00    -0.563 OA 
BRANCH  34  36
HETATM   36  C   UNL     1      -9.004  18.392  66.093  1.00  0.00    -0.099 C  
HETATM   37  O   UNL     1      -7.782  18.338  66.846  1.00  0.00    -0.212 OA 
HETATM   38  H   UNL     1      -7.381  19.199  66.875  1.00  0.00     0.000 HD 
BRANCH  36  39
HETATM   39  C   UNL     1      -9.939  19.492  66.671  1.00  0.00    -0.509 C  
HETATM   40  C   UNL     1      -9.133  20.693  67.207  1.00  0.00    -0.408 C  
HETATM   41  C   UNL     1     -10.848  20.018  65.535  1.00  0.00    -0.179 C  
BRANCH  39  42
HETATM   42  C   UNL     1     -10.821  18.898  67.795  1.00  0.00    -0.273 C  
HETATM   43  O   UNL     1     -10.041  18.444  68.896  1.00  0.00    -0.388 OA 
HETATM   44  H   UNL     1     -10.582  18.079  69.586  1.00  0.00     0.000 HD 
ENDBRANCH  39  42
ENDBRANCH  36  39
ENDBRANCH  34  36
ENDBRANCH  31  32
ENDBRANCH  30  31
ENDBRANCH  28  30
ENDBRANCH  25  26
ENDBRANCH  24  25
ENDBRANCH  23  24
ENDBRANCH  22  23
ENDBRANCH  21  22
ENDBRANCH  20  21
ENDBRANCH  18  20
ENDBRANCH  15  16
ENDBRANCH  14  15
ENDBRANCH  12  14
ENDBRANCH   7  10
ENDBRANCH   2   7
TORSDOF 19
ENDMDL
MODEL      217
REMARK 921   NORMALIZED FREE ENERGY PREDICTED BY IDOCK:   -4.00 KCAL/MOL
REMARK 922        TOTAL FREE ENERGY PREDICTED BY IDOCK:  -10.62 KCAL/MOL
REMARK 923 INTER-LIGAND FREE ENERGY PREDICTED BY IDOCK:   -8.26 KCAL/MOL
REMARK 924 INTRA-LIGAND FREE ENERGY PREDICTED BY IDOCK:   -2.36 KCAL/MOL
REMARK 927      BINDING AFFINITY PREDICTED BY RF-SCORE:    0.00 PKD
ROOT
HETATM    1  C   UNL     1      -9.316   8.334  72.961  1.00  0.00    -0.310 C  
HETATM    2  C   UNL     1      -9.827   8.082  71.531  1.00  0.00    -0.217 C  
HETATM    3  C   UNL     1     -11.372   7.977  71.543  1.00  0.00    -0.299 C  
ENDROOT
BRANCH   2   4
HETATM    4  C   UNL     1      -9.474   9.299  70.649  1.00  0.00    -0.272 C  
HETATM    5  O   UNL     1      -8.103   9.663  70.792  1.00  0.00    -0.279 OA 
HETATM    6  H   UNL     1      -7.886  10.412  70.249  1.00  0.00     0.000 HD 
ENDBRANCH   2   4
BRANCH   2   7
HETATM    7  C   UNL     1      -9.197   6.790  70.921  1.00  0.00    -0.157 C  
HETATM    8  O   UNL     1      -8.981   5.760  71.900  1.00  0.00    -0.138 OA 
HETATM    9  H   UNL     1      -8.598   4.974  71.529  1.00  0.00     0.000 HD 
BRANCH   7  10
HETATM   10  C   UNL     1      -9.995   6.163  69.756  1.00  0.00    -0.170 C  
HETATM   11  O   UNL     1     -10.786   5.231  69.873  1.00  0.00    -0.291 OA 
HETATM   12  N   UNL     1      -9.790   6.804  68.555  1.00  0.00    -0.139 N  
HETATM   13  H   UNL     1      -9.075   7.529  68.486  1.00  0.00     0.000 HD 
BRANCH  12  14
HETATM   14  C   UNL     1     -10.574   6.462  67.389  1.00  0.00    -0.295 C  
BRANCH  14  15
HETATM   15  C   UNL     1      -9.765   5.759  66.304  1.00  0.00    -0.148 C  
BRANCH  15  16
HETATM   16  C   UNL     1      -8.317   6.174  66.435  1.00  0.00    -0.120 C  
HETATM   17  O   UNL     1      -7.542   5.589  67.185  1.00  0.00    -0.090 OA 
HETATM   18  N   UNL     1      -7.956   7.229  65.629  1.00  0.00    -0.115 N  
HETATM   19  H   UNL     1      -8.669   7.610  65.008  1.00  0.00     0.000 HD 
BRANCH  18  20
HETATM   20  C   UNL     1      -6.629   7.850  65.592  1.00  0.00    -0.042 C  
BRANCH  20  21
HETATM   21  C   UNL     1      -6.520   9.226  64.928  1.00  0.00    -0.075 C  
BRANCH  21  22
HETATM   22  S   UNL     1      -6.019  10.591  66.045  1.00  0.00    -0.124 SA 
BRANCH  22  23
HETATM   23  S   UNL     1      -7.790  11.227  66.883  1.00  0.00    -0.160 SA 
BRANCH  23  24
HETATM   24  C   UNL     1      -8.968  10.914  65.527  1.00  0.00    -0.197 C  
BRANCH  24  25
HETATM   25  C   UNL     1     -10.075   9.953  65.968  1.00  0.00    -0.244 C  
BRANCH  25  26
HETATM   26  N   UNL     1     -10.608  10.203  67.305  1.00  0.00    -0.257 N  
HETATM   27  H   UNL     1     -10.278   9.617  68.072  1.00  0.00     0.000 HD 
HETATM   28  C   UNL     1     -11.532  11.187  67.586  1.00  0.00    -0.250 C  
HETATM   29  O   UNL     1     -12.038  11.911  66.735  1.00  0.00    -0.593 OA 
BRANCH  28  30
HETATM   30  C   UNL     1     -11.857  11.341  69.055  1.00  0.00    -0.421 C  
BRANCH  30  31
HETATM   31  C   UNL     1     -11.060  12.502  69.642  1.00  0.00     0.083 C  
BRANCH  31  32
HETATM   32  N   UNL     1     -10.801  13.539  68.661  1.00  0.00    -0.254 N  
HETATM   33  H   UNL     1     -10.141  13.348  67.907  1.00  0.00     0.000 HD 
HETATM   34  C   UNL     1     -11.413  14.770  68.711  1.00  0.00    -0.301 C  
HETATM   35  O   UNL     1     -12.149  15.124  69.627  1.00  0.00    -0.314 OA 
BRANCH  34  36
HETATM   36  C   UNL     1     -11.033  15.706  67.541  1.00  0.00    -0.309 C  
HETATM   37  O   UNL     1     -10.606  14.930  66.411  1.00  0.00    -0.293 OA 
HETATM   38  H   UNL     1     -10.373  15.506  65.692  1.00  0.00     0.000 HD 
BRANCH  36  39
HETATM   39  C   UNL     1      -9.946  16.751  67.914  1.00  0.00    -0.268 C  
HETATM   40  C   UNL     1     -10.401  17.645  69.087  1.00  0.00    -0.202 C  
HETATM   41  C   UNL     1      -8.672  16.002  68.373  1.00  0.00    -0.186 C  
BRANCH  39  42
HETATM   42  C   UNL     1      -9.607  17.624  66.681  1.00  0.00    -0.295 C  
HETATM   43  O   UNL     1      -8.683  16.976  65.813  1.00  0.00    -0.522 OA 
HETATM   44  H   UNL     1      -8.475  17.511  65.056  1.00  0.00     0.000 HD 
ENDBRANCH  39  42
ENDBRANCH  36  39
ENDBRANCH  34  36
ENDBRANCH  31  32
ENDBRANCH  30  31
ENDBRANCH  28  30
ENDBRANCH  25  26
ENDBRANCH  24  25
ENDBRANCH  23  24
ENDBRANCH  22  23
ENDBRANCH  21  22
ENDBRANCH  20  21
ENDBRANCH  18  20
ENDBRANCH  15  16
ENDBRANCH  14  15
ENDBRANCH  12  14
ENDBRANCH   7  10
ENDBRANCH   2   7
TORSDOF 19
ENDMDL
MODEL      218
REMARK 921   NORMALIZED FREE ENERGY PREDICTED BY IDOCK:   -4.00 KCAL/MOL
REMARK 922        TOTAL FREE ENERGY PREDICTED BY IDOCK:  -10.62 KCAL/MOL
REMARK 923 INTER-LIGAND FREE ENERGY PREDICTED BY IDOCK:   -8.70 KCAL/MOL
REMARK 924 INTRA-LIGAND FREE ENERGY PREDICTED BY IDOCK:   -1.92 KCAL/MOL
REMARK 927      BINDING AFFINITY PREDICTED BY RF-SCORE:    0.00 PKD
ROOT
HETATM    1  C   UNL     1     -11.980  11.803  64.794  1.00  0.00    -0.116 C  
HETATM    2  C   UNL     1     -11.271  12.705  65.821  1.00  0.00    -0.347 C  
HETATM    3  C   UNL     1     -11.227  11.991  67.195  1.00  0.00    -0.374 C  
ENDROOT
BRANCH   2   4
HETATM    4  C   UNL     1      -9.806  12.911  65.382  1.00  0.00    -0.118 C  
HETATM    5  O   UNL     1      -9.487  12.113  64.245  1.00  0.00    -0.477 OA 
HETATM    6  H   UNL     1      -8.585  12.240  63.976  1.00  0.00     0.000 HD 
ENDBRANCH   2   4
BRANCH   2   7
HETATM    7  C   UNL     1     -11.983  14.089  65.948  1.00  0.00    -0.408 C  
HETATM    8  O   UNL     1     -13.416  13.985  65.906  1.00  0.00    -0.562 OA 
HETATM    9  H   UNL     1     -13.849  14.827  65.984  1.00  0.00     0.000 HD 
BRANCH   7  10
HETATM   10  C   UNL     1     -11.614  14.898  67.211  1.00  0.00    -0.324 C  
HETATM   11  O   UNL     1     -10.749  15.769  67.255  1.00  0.00    -0.310 OA 
HETATM   12  N   UNL     1     -12.410  14.601  68.295  1.00  0.00    -0.593 N  
HETATM   13  H   UNL     1     -13.071  13.825  68.237  1.00  0.00     0.000 HD 
BRANCH  12  14
HETATM   14  C   UNL     1     -12.321  15.373  69.514  1.00  0.00    -0.174 C  
BRANCH  14  15
HETATM   15  C   UNL     1     -11.672  14.611  70.664  1.00  0.00    -0.339 C  
BRANCH  15  16
HETATM   16  C   UNL     1     -12.517  13.397  70.977  1.00  0.00    -0.353 C  
HETATM   17  O   UNL     1     -13.636  13.497  71.471  1.00  0.00    -0.295 OA 
HETATM   18  N   UNL     1     -11.933  12.198  70.636  1.00  0.00    -0.493 N  
HETATM   19  H   UNL     1     -11.019  12.234  70.186  1.00  0.00     0.000 HD 
BRANCH  18  20
HETATM   20  C   UNL     1     -12.519  10.875  70.867  1.00  0.00    -0.408 C  
BRANCH  20  21
HETATM   21  C   UNL     1     -11.699   9.661  70.424  1.00  0.00    -0.202 C  
BRANCH  21  22
HETATM   22  S   UNL     1     -12.101   8.092  71.285  1.00  0.00    -0.264 SA 
BRANCH  22  23
HETATM   23  S   UNL     1     -11.590   6.630  69.927  1.00  0.00    -0.260 SA 
BRANCH  23  24
HETATM   24  C   UNL     1     -10.209   5.804  70.784  1.00  0.00    -0.219 C  
BRANCH  24  25
HETATM   25  C   UNL     1      -9.116   5.387  69.796  1.00  0.00    -0.128 C  
BRANCH  25  26
HETATM   26  N   UNL     1      -8.749   6.410  68.820  1.00  0.00    -0.122 N  
HETATM   27  H   UNL     1      -9.181   6.371  67.896  1.00  0.00     0.000 HD 
HETATM   28  C   UNL     1      -7.852   7.425  69.078  1.00  0.00    -0.120 C  
HETATM   29  O   UNL     1      -7.233   7.536  70.131  1.00  0.00    -0.066 OA 
BRANCH  28  30
HETATM   30  C   UNL     1      -7.710   8.435  67.962  1.00  0.00    -0.103 C  
BRANCH  30  31
HETATM   31  C   UNL     1      -8.571   9.659  68.259  1.00  0.00    -0.119 C  
BRANCH  31  32
HETATM   32  N   UNL     1      -7.801  10.741  68.843  1.00  0.00    -0.127 N  
HETATM   33  H   UNL     1      -7.663  10.755  69.854  1.00  0.00     0.000 HD 
HETATM   34  C   UNL     1      -7.251  11.746  68.084  1.00  0.00    -0.086 C  
HETATM   35  O   UNL     1      -7.439  11.864  66.876  1.00  0.00    -0.139 OA 
BRANCH  34  36
HETATM   36  C   UNL     1      -6.428  12.768  68.899  1.00  0.00    -0.091 C  
HETATM   37  O   UNL     1      -6.281  12.312  70.253  1.00  0.00    -0.310 OA 
HETATM   38  H   UNL     1      -5.775  12.941  70.754  1.00  0.00     0.000 HD 
BRANCH  36  39
HETATM   39  C   UNL     1      -7.028  14.202  68.880  1.00  0.00    -0.109 C  
HETATM   40  C   UNL     1      -8.569  14.169  68.929  1.00  0.00     0.011 C  
HETATM   41  C   UNL     1      -6.544  14.960  70.138  1.00  0.00    -0.139 C  
BRANCH  39  42
HETATM   42  C   UNL     1      -6.552  14.957  67.616  1.00  0.00    -0.165 C  
HETATM   43  O   UNL     1      -7.638  15.290  66.758  1.00  0.00    -0.255 OA 
HETATM   44  H   UNL     1      -7.346  15.754  65.981  1.00  0.00     0.000 HD 
ENDBRANCH  39  42
ENDBRANCH  36  39
ENDBRANCH  34  36
ENDBRANCH  31  32
ENDBRANCH  30  31
ENDBRANCH  28  30
ENDBRANCH  25  26
ENDBRANCH  24  25
ENDBRANCH  23  24
ENDBRANCH  22  23
ENDBRANCH  21  22
ENDBRANCH  20  21
ENDBRANCH  18  20
ENDBRANCH  15  16
ENDBRANCH  14  15
ENDBRANCH  12  14
ENDBRANCH   7  10
ENDBRANCH   2   7
TORSDOF 19
ENDMDL
MODEL      219
REMARK 921   NORMALIZED FREE ENERGY PREDICTED BY IDOCK:   -4.00 KCAL/MOL
REMARK 922        TOTAL FREE ENERGY PREDICTED BY IDOCK:  -10.62 KCAL/MOL
REMARK 923 INTER-LIGAND FREE ENERGY PREDICTED BY IDOCK:   -9.23 KCAL/MOL
REMARK 924 INTRA-LIGAND FREE ENERGY PREDICTED BY IDOCK:   -1.39 KCAL/MOL
REMARK 927      BINDING AFFINITY PREDICTED BY RF-SCORE:    0.00 PKD
ROOT
HETATM    1  C   UNL     1     -10.844   3.649  63.892  1.00  0.00    -0.205 C  
HETATM    2  C   UNL     1      -9.341   3.373  64.080  1.00  0.00    -0.133 C  
HETATM    3  C   UNL     1      -9.145   2.291  65.171  1.00  0.00    -0.127 C  
ENDROOT
BRANCH   2   4
HETATM    4  C   UNL     1      -8.769   2.789  62.771  1.00  0.00    -0.081 C  
HETATM    5  O   UNL     1      -7.344   2.761  62.794  1.00  0.00    -0.045 OA 
HETATM    6  H   UNL     1      -6.992   2.402  61.988  1.00  0.00     0.000 HD 
ENDBRANCH   2   4
BRANCH   2   7
HETATM    7  C   UNL     1      -8.567   4.674  64.458  1.00  0.00    -0.141 C  
HETATM    8  O   UNL     1      -8.853   5.771  63.573  1.00  0.00    -0.331 OA 
HETATM    9  H   UNL     1      -8.382   6.563  63.804  1.00  0.00     0.000 HD 
BRANCH   7  10
HETATM   10  C   UNL     1      -8.795   5.173  65.903  1.00  0.00    -0.142 C  
HETATM   11  O   UNL     1      -9.769   5.823  66.272  1.00  0.00    -0.157 OA 
HETATM   12  N   UNL     1      -7.820   4.752  66.779  1.00  0.00    -0.098 N  
HETATM   13  H   UNL     1      -6.994   4.272  66.422  1.00  0.00     0.000 HD 
BRANCH  12  14
HETATM   14  C   UNL     1      -7.952   4.982  68.201  1.00  0.00    -0.087 C  
BRANCH  14  15
HETATM   15  C   UNL     1      -8.716   3.877  68.922  1.00  0.00    -0.132 C  
BRANCH  15  16
HETATM   16  C   UNL     1      -9.782   4.511  69.787  1.00  0.00    -0.215 C  
HETATM   17  O   UNL     1     -10.088   4.045  70.881  1.00  0.00    -0.149 OA 
HETATM   18  N   UNL     1     -10.340   5.650  69.254  1.00  0.00    -0.244 N  
HETATM   19  H   UNL     1      -9.976   5.975  68.360  1.00  0.00     0.000 HD 
BRANCH  18  20
HETATM   20  C   UNL     1     -11.416   6.432  69.868  1.00  0.00    -0.415 C  
BRANCH  20  21
HETATM   21  C   UNL     1     -11.075   7.855  70.320  1.00  0.00    -0.229 C  
BRANCH  21  22
HETATM   22  S   UNL     1      -9.306   8.315  70.176  1.00  0.00    -0.160 SA 
BRANCH  22  23
HETATM   23  S   UNL     1      -9.127   9.017  68.247  1.00  0.00    -0.132 SA 
BRANCH  23  24
HETATM   24  C   UNL     1      -9.892  10.666  68.388  1.00  0.00    -0.161 C  
BRANCH  24  25
HETATM   25  C   UNL     1     -11.062  10.818  67.414  1.00  0.00    -0.296 C  
BRANCH  25  26
HETATM   26  N   UNL     1     -11.590  12.175  67.295  1.00  0.00    -0.340 N  
HETATM   27  H   UNL     1     -11.723  12.717  68.149  1.00  0.00     0.000 HD 
HETATM   28  C   UNL     1     -11.918  12.763  66.091  1.00  0.00    -0.414 C  
HETATM   29  O   UNL     1     -11.853  12.186  65.011  1.00  0.00    -0.352 OA 
BRANCH  28  30
HETATM   30  C   UNL     1     -12.337  14.211  66.196  1.00  0.00    -0.463 C  
BRANCH  30  31
HETATM   31  C   UNL     1     -11.195  15.114  65.742  1.00  0.00    -0.287 C  
BRANCH  31  32
HETATM   32  N   UNL     1     -10.782  16.039  66.781  1.00  0.00    -0.298 N  
HETATM   33  H   UNL     1     -10.768  15.716  67.748  1.00  0.00     0.000 HD 
HETATM   34  C   UNL     1     -10.410  17.335  66.509  1.00  0.00    -0.308 C  
HETATM   35  O   UNL     1     -10.483  17.840  65.393  1.00  0.00    -0.641 OA 
BRANCH  34  36
HETATM   36  C   UNL     1      -9.958  18.131  67.753  1.00  0.00    -0.327 C  
HETATM   37  O   UNL     1     -10.821  19.262  67.952  1.00  0.00    -0.367 OA 
HETATM   38  H   UNL     1     -10.543  19.752  68.717  1.00  0.00     0.000 HD 
BRANCH  36  39
HETATM   39  C   UNL     1      -8.476  18.595  67.686  1.00  0.00    -0.284 C  
HETATM   40  C   UNL     1      -8.094  19.442  68.917  1.00  0.00    -0.344 C  
HETATM   41  C   UNL     1      -7.564  17.345  67.685  1.00  0.00    -0.199 C  
BRANCH  39  42
HETATM   42  C   UNL     1      -8.234  19.402  66.388  1.00  0.00    -0.325 C  
HETATM   43  O   UNL     1      -9.161  20.474  66.250  1.00  0.00    -0.602 OA 
HETATM   44  H   UNL     1      -9.013  20.970  65.454  1.00  0.00     0.000 HD 
ENDBRANCH  39  42
ENDBRANCH  36  39
ENDBRANCH  34  36
ENDBRANCH  31  32
ENDBRANCH  30  31
ENDBRANCH  28  30
ENDBRANCH  25  26
ENDBRANCH  24  25
ENDBRANCH  23  24
ENDBRANCH  22  23
ENDBRANCH  21  22
ENDBRANCH  20  21
ENDBRANCH  18  20
ENDBRANCH  15  16
ENDBRANCH  14  15
ENDBRANCH  12  14
ENDBRANCH   7  10
ENDBRANCH   2   7
TORSDOF 19
ENDMDL
MODEL      220
REMARK 921   NORMALIZED FREE ENERGY PREDICTED BY IDOCK:   -3.99 KCAL/MOL
REMARK 922        TOTAL FREE ENERGY PREDICTED BY IDOCK:  -10.60 KCAL/MOL
REMARK 923 INTER-LIGAND FREE ENERGY PREDICTED BY IDOCK:   -9.12 KCAL/MOL
REMARK 924 INTRA-LIGAND FREE ENERGY PREDICTED BY IDOCK:   -1.48 KCAL/MOL
REMARK 927      BINDING AFFINITY PREDICTED BY RF-SCORE:    0.00 PKD
ROOT
HETATM    1  C   UNL     1     -10.891   6.563  69.047  1.00  0.00    -0.357 C  
HETATM    2  C   UNL     1     -10.767   7.001  70.518  1.00  0.00    -0.262 C  
HETATM    3  C   UNL     1     -10.113   8.404  70.588  1.00  0.00    -0.220 C  
ENDROOT
BRANCH   2   4
HETATM    4  C   UNL     1     -12.180   7.142  71.122  1.00  0.00    -0.365 C  
HETATM    5  O   UNL     1     -12.164   6.942  72.534  1.00  0.00    -0.497 OA 
HETATM    6  H   UNL     1     -13.034   7.029  72.905  1.00  0.00     0.000 HD 
ENDBRANCH   2   4
BRANCH   2   7
HETATM    7  C   UNL     1      -9.939   5.972  71.350  1.00  0.00    -0.186 C  
HETATM    8  O   UNL     1     -10.577   4.687  71.442  1.00  0.00    -0.073 OA 
HETATM    9  H   UNL     1     -10.074   4.061  71.948  1.00  0.00     0.000 HD 
BRANCH   7  10
HETATM   10  C   UNL     1      -8.496   5.738  70.850  1.00  0.00    -0.126 C  
HETATM   11  O   UNL     1      -7.511   6.354  71.246  1.00  0.00    -0.086 OA 
HETATM   12  N   UNL     1      -8.399   4.701  69.949  1.00  0.00    -0.067 N  
HETATM   13  H   UNL     1      -9.248   4.260  69.594  1.00  0.00     0.000 HD 
BRANCH  12  14
HETATM   14  C   UNL     1      -7.108   4.230  69.498  1.00  0.00    -0.050 C  
BRANCH  14  15
HETATM   15  C   UNL     1      -6.519   5.074  68.372  1.00  0.00    -0.037 C  
BRANCH  15  16
HETATM   16  C   UNL     1      -7.618   5.401  67.387  1.00  0.00    -0.088 C  
HETATM   17  O   UNL     1      -8.397   4.546  66.979  1.00  0.00    -0.105 OA 
HETATM   18  N   UNL     1      -7.676   6.727  67.023  1.00  0.00    -0.098 N  
HETATM   19  H   UNL     1      -7.009   7.362  67.460  1.00  0.00     0.000 HD 
BRANCH  18  20
HETATM   20  C   UNL     1      -8.617   7.300  66.057  1.00  0.00    -0.151 C  
BRANCH  20  21
HETATM   21  C   UNL     1      -8.513   8.804  65.788  1.00  0.00    -0.148 C  
BRANCH  21  22
HETATM   22  S   UNL     1      -8.969   9.881  67.200  1.00  0.00    -0.138 SA 
BRANCH  22  23
HETATM   23  S   UNL     1     -10.345  11.193  66.406  1.00  0.00    -0.259 SA 
BRANCH  23  24
HETATM   24  C   UNL     1     -10.460  10.601  64.685  1.00  0.00    -0.205 C  
BRANCH  24  25
HETATM   25  C   UNL     1     -10.136  11.721  63.693  1.00  0.00    -0.418 C  
BRANCH  25  26
HETATM   26  N   UNL     1     -10.393  13.072  64.187  1.00  0.00    -0.531 N  
HETATM   27  H   UNL     1      -9.633  13.566  64.654  1.00  0.00     0.000 HD 
HETATM   28  C   UNL     1     -11.606  13.714  64.055  1.00  0.00    -0.317 C  
HETATM   29  O   UNL     1     -12.602  13.196  63.562  1.00  0.00    -0.722 OA 
BRANCH  28  30
HETATM   30  C   UNL     1     -11.610  15.147  64.537  1.00  0.00    -0.330 C  
BRANCH  30  31
HETATM   31  C   UNL     1     -10.699  15.288  65.752  1.00  0.00    -0.348 C  
BRANCH  31  32
HETATM   32  N   UNL     1      -9.963  16.538  65.741  1.00  0.00    -0.304 N  
HETATM   33  H   UNL     1     -10.387  17.355  65.302  1.00  0.00     0.000 HD 
HETATM   34  C   UNL     1      -8.713  16.662  66.303  1.00  0.00    -0.324 C  
HETATM   35  O   UNL     1      -8.085  15.718  66.772  1.00  0.00    -0.233 OA 
BRANCH  34  36
HETATM   36  C   UNL     1      -8.131  18.091  66.227  1.00  0.00    -0.224 C  
HETATM   37  O   UNL     1      -6.698  18.034  66.160  1.00  0.00    -0.217 OA 
HETATM   38  H   UNL     1      -6.340  18.913  66.114  1.00  0.00     0.000 HD 
BRANCH  36  39
HETATM   39  C   UNL     1      -8.576  19.003  67.405  1.00  0.00    -0.301 C  
HETATM   40  C   UNL     1      -7.889  20.383  67.341  1.00  0.00    -0.360 C  
HETATM   41  C   UNL     1     -10.101  19.243  67.300  1.00  0.00    -0.481 C  
BRANCH  39  42
HETATM   42  C   UNL     1      -8.261  18.314  68.755  1.00  0.00    -0.234 C  
HETATM   43  O   UNL     1      -6.862  18.274  69.014  1.00  0.00    -0.254 OA 
HETATM   44  H   UNL     1      -6.668  17.851  69.843  1.00  0.00     0.000 HD 
ENDBRANCH  39  42
ENDBRANCH  36  39
ENDBRANCH  34  36
ENDBRANCH  31  32
ENDBRANCH  30  31
ENDBRANCH  28  30
ENDBRANCH  25  26
ENDBRANCH  24  25
ENDBRANCH  23  24
ENDBRANCH  22  23
ENDBRANCH  21  22
ENDBRANCH  20  21
ENDBRANCH  18  20
ENDBRANCH  15  16
ENDBRANCH  14  15
ENDBRANCH  12  14
ENDBRANCH   7  10
ENDBRANCH   2   7
TORSDOF 19
ENDMDL
MODEL      221
REMARK 921   NORMALIZED FREE ENERGY PREDICTED BY IDOCK:   -3.98 KCAL/MOL
REMARK 922        TOTAL FREE ENERGY PREDICTED BY IDOCK:  -10.59 KCAL/MOL
REMARK 923 INTER-LIGAND FREE ENERGY PREDICTED BY IDOCK:   -8.96 KCAL/MOL
REMARK 924 INTRA-LIGAND FREE ENERGY PREDICTED BY IDOCK:   -1.62 KCAL/MOL
REMARK 927      BINDING AFFINITY PREDICTED BY RF-SCORE:    0.00 PKD
ROOT
HETATM    1  C   UNL     1      -8.465  17.400  68.679  1.00  0.00    -0.257 C  
HETATM    2  C   UNL     1      -9.069  18.529  67.822  1.00  0.00    -0.292 C  
HETATM    3  C   UNL     1      -9.376  19.754  68.719  1.00  0.00    -0.298 C  
ENDROOT
BRANCH   2   4
HETATM    4  C   UNL     1      -8.022  18.990  66.787  1.00  0.00    -0.259 C  
HETATM    5  O   UNL     1      -6.788  19.332  67.414  1.00  0.00    -0.202 OA 
HETATM    6  H   UNL     1      -6.143  19.617  66.777  1.00  0.00     0.000 HD 
ENDBRANCH   2   4
BRANCH   2   7
HETATM    7  C   UNL     1     -10.362  18.055  67.087  1.00  0.00    -0.374 C  
HETATM    8  O   UNL     1     -10.672  18.853  65.933  1.00  0.00    -0.448 OA 
HETATM    9  H   UNL     1     -11.458  18.564  65.485  1.00  0.00     0.000 HD 
BRANCH   7  10
HETATM   10  C   UNL     1     -10.353  16.576  66.640  1.00  0.00    -0.298 C  
HETATM   11  O   UNL     1      -9.589  16.104  65.803  1.00  0.00    -0.374 OA 
HETATM   12  N   UNL     1     -11.254  15.797  67.332  1.00  0.00    -0.240 N  
HETATM   13  H   UNL     1     -11.916  16.239  67.970  1.00  0.00     0.000 HD 
BRANCH  12  14
HETATM   14  C   UNL     1     -11.272  14.361  67.166  1.00  0.00    -0.328 C  
BRANCH  14  15
HETATM   15  C   UNL     1     -10.691  13.609  68.359  1.00  0.00    -0.272 C  
BRANCH  15  16
HETATM   16  C   UNL     1      -9.447  12.877  67.910  1.00  0.00    -0.208 C  
HETATM   17  O   UNL     1      -8.838  13.199  66.894  1.00  0.00    -0.217 OA 
HETATM   18  N   UNL     1      -9.058  11.856  68.746  1.00  0.00    -0.385 N  
HETATM   19  H   UNL     1      -9.610  11.705  69.590  1.00  0.00     0.000 HD 
BRANCH  18  20
HETATM   20  C   UNL     1      -7.914  10.968  68.523  1.00  0.00    -0.137 C  
BRANCH  20  21
HETATM   21  C   UNL     1      -7.989  10.021  67.322  1.00  0.00    -0.106 C  
BRANCH  21  22
HETATM   22  S   UNL     1      -7.944   8.235  67.734  1.00  0.00    -0.124 SA 
BRANCH  22  23
HETATM   23  S   UNL     1      -7.630   8.199  69.770  1.00  0.00    -0.092 SA 
BRANCH  23  24
HETATM   24  C   UNL     1      -5.902   7.624  69.861  1.00  0.00    -0.023 C  
BRANCH  24  25
HETATM   25  C   UNL     1      -5.808   6.266  70.561  1.00  0.00    -0.019 C  
BRANCH  25  26
HETATM   26  N   UNL     1      -6.821   5.295  70.155  1.00  0.00    -0.046 N  
HETATM   27  H   UNL     1      -6.797   4.945  69.197  1.00  0.00     0.000 HD 
HETATM   28  C   UNL     1      -7.808   4.825  70.996  1.00  0.00    -0.082 C  
HETATM   29  O   UNL     1      -7.966   5.216  72.147  1.00  0.00    -0.108 OA 
BRANCH  28  30
HETATM   30  C   UNL     1      -8.676   3.741  70.398  1.00  0.00    -0.129 C  
BRANCH  30  31
HETATM   31  C   UNL     1      -9.828   4.371  69.621  1.00  0.00    -0.202 C  
BRANCH  31  32
HETATM   32  N   UNL     1     -10.692   5.168  70.472  1.00  0.00    -0.148 N  
HETATM   33  H   UNL     1     -10.747   4.942  71.465  1.00  0.00     0.000 HD 
HETATM   34  C   UNL     1     -11.438   6.217  69.989  1.00  0.00    -0.390 C  
HETATM   35  O   UNL     1     -11.508   6.507  68.798  1.00  0.00    -0.241 OA 
BRANCH  34  36
HETATM   36  C   UNL     1     -12.247   6.963  71.073  1.00  0.00    -0.377 C  
HETATM   37  O   UNL     1     -13.574   7.235  70.595  1.00  0.00    -0.463 OA 
HETATM   38  H   UNL     1     -14.071   7.693  71.262  1.00  0.00     0.000 HD 
BRANCH  36  39
HETATM   39  C   UNL     1     -11.572   8.277  71.555  1.00  0.00    -0.326 C  
HETATM   40  C   UNL     1     -12.598   9.241  72.184  1.00  0.00    -0.443 C  
HETATM   41  C   UNL     1     -10.534   7.931  72.648  1.00  0.00    -0.384 C  
BRANCH  39  42
HETATM   42  C   UNL     1     -10.852   8.966  70.370  1.00  0.00    -0.236 C  
HETATM   43  O   UNL     1     -11.774   9.591  69.482  1.00  0.00    -0.434 OA 
HETATM   44  H   UNL     1     -11.333  10.014  68.755  1.00  0.00     0.000 HD 
ENDBRANCH  39  42
ENDBRANCH  36  39
ENDBRANCH  34  36
ENDBRANCH  31  32
ENDBRANCH  30  31
ENDBRANCH  28  30
ENDBRANCH  25  26
ENDBRANCH  24  25
ENDBRANCH  23  24
ENDBRANCH  22  23
ENDBRANCH  21  22
ENDBRANCH  20  21
ENDBRANCH  18  20
ENDBRANCH  15  16
ENDBRANCH  14  15
ENDBRANCH  12  14
ENDBRANCH   7  10
ENDBRANCH   2   7
TORSDOF 19
ENDMDL
MODEL      222
REMARK 921   NORMALIZED FREE ENERGY PREDICTED BY IDOCK:   -3.98 KCAL/MOL
REMARK 922        TOTAL FREE ENERGY PREDICTED BY IDOCK:  -10.58 KCAL/MOL
REMARK 923 INTER-LIGAND FREE ENERGY PREDICTED BY IDOCK:   -9.67 KCAL/MOL
REMARK 924 INTRA-LIGAND FREE ENERGY PREDICTED BY IDOCK:   -0.91 KCAL/MOL
REMARK 927      BINDING AFFINITY PREDICTED BY RF-SCORE:    0.00 PKD
ROOT
HETATM    1  C   UNL     1      -6.907   6.017  71.598  1.00  0.00    -0.068 C  
HETATM    2  C   UNL     1      -7.281   4.635  72.168  1.00  0.00    -0.071 C  
HETATM    3  C   UNL     1      -6.975   3.541  71.116  1.00  0.00    -0.032 C  
ENDROOT
BRANCH   2   4
HETATM    4  C   UNL     1      -6.386   4.336  73.389  1.00  0.00    -0.044 C  
HETATM    5  O   UNL     1      -5.461   3.288  73.110  1.00  0.00     0.000 OA 
HETATM    6  H   UNL     1      -4.911   3.103  73.862  1.00  0.00     0.000 HD 
ENDBRANCH   2   4
BRANCH   2   7
HETATM    7  C   UNL     1      -8.783   4.582  72.589  1.00  0.00    -0.113 C  
HETATM    8  O   UNL     1      -9.079   3.478  73.461  1.00  0.00    -0.093 OA 
HETATM    9  H   UNL     1      -9.992   3.446  73.718  1.00  0.00     0.000 HD 
BRANCH   7  10
HETATM   10  C   UNL     1      -9.316   5.864  73.267  1.00  0.00    -0.135 C  
HETATM   11  O   UNL     1      -8.822   6.385  74.263  1.00  0.00    -0.133 OA 
HETATM   12  N   UNL     1     -10.380   6.426  72.597  1.00  0.00    -0.190 N  
HETATM   13  H   UNL     1     -10.803   5.927  71.814  1.00  0.00     0.000 HD 
BRANCH  12  14
HETATM   14  C   UNL     1     -10.905   7.715  72.989  1.00  0.00    -0.400 C  
BRANCH  14  15
HETATM   15  C   UNL     1     -11.445   8.528  71.817  1.00  0.00    -0.378 C  
BRANCH  15  16
HETATM   16  C   UNL     1     -11.278   7.718  70.550  1.00  0.00    -0.257 C  
HETATM   17  O   UNL     1     -11.960   6.723  70.324  1.00  0.00    -0.352 OA 
HETATM   18  N   UNL     1     -10.329   8.211  69.684  1.00  0.00    -0.217 N  
HETATM   19  H   UNL     1      -9.855   9.073  69.950  1.00  0.00     0.000 HD 
BRANCH  18  20
HETATM   20  C   UNL     1      -9.946   7.596  68.410  1.00  0.00    -0.176 C  
BRANCH  20  21
HETATM   21  C   UNL     1     -10.464   8.260  67.131  1.00  0.00    -0.316 C  
BRANCH  21  22
HETATM   22  S   UNL     1     -10.307  10.087  67.082  1.00  0.00    -0.245 SA 
BRANCH  22  23
HETATM   23  S   UNL     1      -9.724  10.487  65.147  1.00  0.00    -0.308 SA 
BRANCH  23  24
HETATM   24  C   UNL     1     -11.130  11.477  64.541  1.00  0.00    -0.273 C  
BRANCH  24  25
HETATM   25  C   UNL     1     -11.639  12.433  65.622  1.00  0.00    -0.392 C  
BRANCH  25  26
HETATM   26  N   UNL     1     -11.060  13.774  65.579  1.00  0.00    -0.294 N  
HETATM   27  H   UNL     1     -10.195  13.942  66.092  1.00  0.00     0.000 HD 
HETATM   28  C   UNL     1     -11.618  14.824  64.880  1.00  0.00    -0.401 C  
HETATM   29  O   UNL     1     -12.682  14.751  64.275  1.00  0.00    -0.691 OA 
BRANCH  28  30
HETATM   30  C   UNL     1     -10.789  16.088  64.882  1.00  0.00    -0.391 C  
BRANCH  30  31
HETATM   31  C   UNL     1     -10.638  16.606  66.308  1.00  0.00    -0.205 C  
BRANCH  31  32
HETATM   32  N   UNL     1      -9.931  17.872  66.358  1.00  0.00    -0.348 N  
HETATM   33  H   UNL     1      -9.612  18.292  65.485  1.00  0.00     0.000 HD 
HETATM   34  C   UNL     1      -9.675  18.527  67.540  1.00  0.00    -0.300 C  
HETATM   35  O   UNL     1      -9.938  18.059  68.645  1.00  0.00    -0.357 OA 
BRANCH  34  36
HETATM   36  C   UNL     1      -8.956  19.883  67.363  1.00  0.00    -0.337 C  
HETATM   37  O   UNL     1      -9.221  20.411  66.054  1.00  0.00    -0.609 OA 
HETATM   38  H   UNL     1      -8.778  21.245  65.945  1.00  0.00     0.000 HD 
BRANCH  36  39
HETATM   39  C   UNL     1      -7.424  19.807  67.610  1.00  0.00    -0.314 C  
HETATM   40  C   UNL     1      -6.762  18.733  66.721  1.00  0.00    -0.208 C  
HETATM   41  C   UNL     1      -6.792  21.168  67.235  1.00  0.00    -0.408 C  
BRANCH  39  42
HETATM   42  C   UNL     1      -7.143  19.509  69.102  1.00  0.00    -0.357 C  
HETATM   43  O   UNL     1      -6.785  18.147  69.312  1.00  0.00    -0.256 OA 
HETATM   44  H   UNL     1      -6.613  17.965  70.229  1.00  0.00     0.000 HD 
ENDBRANCH  39  42
ENDBRANCH  36  39
ENDBRANCH  34  36
ENDBRANCH  31  32
ENDBRANCH  30  31
ENDBRANCH  28  30
ENDBRANCH  25  26
ENDBRANCH  24  25
ENDBRANCH  23  24
ENDBRANCH  22  23
ENDBRANCH  21  22
ENDBRANCH  20  21
ENDBRANCH  18  20
ENDBRANCH  15  16
ENDBRANCH  14  15
ENDBRANCH  12  14
ENDBRANCH   7  10
ENDBRANCH   2   7
TORSDOF 19
ENDMDL
MODEL      223
REMARK 921   NORMALIZED FREE ENERGY PREDICTED BY IDOCK:   -3.97 KCAL/MOL
REMARK 922        TOTAL FREE ENERGY PREDICTED BY IDOCK:  -10.56 KCAL/MOL
REMARK 923 INTER-LIGAND FREE ENERGY PREDICTED BY IDOCK:  -10.06 KCAL/MOL
REMARK 924 INTRA-LIGAND FREE ENERGY PREDICTED BY IDOCK:   -0.50 KCAL/MOL
REMARK 927      BINDING AFFINITY PREDICTED BY RF-SCORE:    0.00 PKD
ROOT
HETATM    1  C   UNL     1      -9.178   2.777  63.824  1.00  0.00    -0.101 C  
HETATM    2  C   UNL     1      -8.204   3.783  64.465  1.00  0.00    -0.093 C  
HETATM    3  C   UNL     1      -6.748   3.294  64.265  1.00  0.00    -0.036 C  
ENDROOT
BRANCH   2   4
HETATM    4  C   UNL     1      -8.321   5.135  63.730  1.00  0.00    -0.130 C  
HETATM    5  O   UNL     1      -8.334   6.225  64.647  1.00  0.00    -0.252 OA 
HETATM    6  H   UNL     1      -8.406   7.057  64.195  1.00  0.00     0.000 HD 
ENDBRANCH   2   4
BRANCH   2   7
HETATM    7  C   UNL     1      -8.508   3.981  65.983  1.00  0.00    -0.109 C  
HETATM    8  O   UNL     1      -7.420   4.594  66.695  1.00  0.00    -0.083 OA 
HETATM    9  H   UNL     1      -7.606   4.715  67.618  1.00  0.00     0.000 HD 
BRANCH   7  10
HETATM   10  C   UNL     1      -9.783   4.798  66.292  1.00  0.00    -0.196 C  
HETATM   11  O   UNL     1     -10.909   4.513  65.894  1.00  0.00    -0.208 OA 
HETATM   12  N   UNL     1      -9.551   5.862  67.135  1.00  0.00    -0.122 N  
HETATM   13  H   UNL     1      -8.593   6.104  67.389  1.00  0.00     0.000 HD 
BRANCH  12  14
HETATM   14  C   UNL     1     -10.648   6.640  67.665  1.00  0.00    -0.263 C  
BRANCH  14  15
HETATM   15  C   UNL     1     -11.159   6.124  69.007  1.00  0.00    -0.437 C  
BRANCH  15  16
HETATM   16  C   UNL     1     -10.438   6.860  70.114  1.00  0.00    -0.209 C  
HETATM   17  O   UNL     1     -10.414   6.435  71.264  1.00  0.00    -0.208 OA 
HETATM   18  N   UNL     1      -9.802   8.011  69.708  1.00  0.00    -0.181 N  
HETATM   19  H   UNL     1      -9.847   8.246  68.717  1.00  0.00     0.000 HD 
BRANCH  18  20
HETATM   20  C   UNL     1      -9.068   8.926  70.585  1.00  0.00    -0.207 C  
BRANCH  20  21
HETATM   21  C   UNL     1      -8.118   9.923  69.915  1.00  0.00    -0.188 C  
BRANCH  21  22
HETATM   22  S   UNL     1      -8.926  11.159  68.826  1.00  0.00    -0.086 SA 
BRANCH  22  23
HETATM   23  S   UNL     1      -8.473  10.518  66.921  1.00  0.00    -0.127 SA 
BRANCH  23  24
HETATM   24  C   UNL     1     -10.134  10.215  66.234  1.00  0.00    -0.238 C  
BRANCH  24  25
HETATM   25  C   UNL     1     -10.343  10.988  64.930  1.00  0.00    -0.313 C  
BRANCH  25  26
HETATM   26  N   UNL     1     -10.962  12.302  65.087  1.00  0.00    -0.294 N  
HETATM   27  H   UNL     1     -10.739  13.024  64.402  1.00  0.00     0.000 HD 
HETATM   28  C   UNL     1     -11.832  12.618  66.109  1.00  0.00    -0.418 C  
HETATM   29  O   UNL     1     -12.126  11.847  67.017  1.00  0.00    -0.600 OA 
BRANCH  28  30
HETATM   30  C   UNL     1     -12.439  13.999  66.010  1.00  0.00    -0.489 C  
BRANCH  30  31
HETATM   31  C   UNL     1     -11.819  14.914  67.060  1.00  0.00    -0.199 C  
BRANCH  31  32
HETATM   32  N   UNL     1     -11.954  14.379  68.402  1.00  0.00    -0.502 N  
HETATM   33  H   UNL     1     -12.280  13.419  68.517  1.00  0.00     0.000 HD 
HETATM   34  C   UNL     1     -11.659  15.118  69.523  1.00  0.00    -0.319 C  
HETATM   35  O   UNL     1     -11.349  16.305  69.490  1.00  0.00    -0.320 OA 
BRANCH  34  36
HETATM   36  C   UNL     1     -11.824  14.340  70.848  1.00  0.00    -0.255 C  
HETATM   37  O   UNL     1     -11.837  12.927  70.588  1.00  0.00    -0.522 OA 
HETATM   38  H   UNL     1     -11.938  12.449  71.403  1.00  0.00     0.000 HD 
BRANCH  36  39
HETATM   39  C   UNL     1     -13.090  14.748  71.651  1.00  0.00    -0.418 C  
HETATM   40  C   UNL     1     -14.242  15.166  70.714  1.00  0.00     0.067 C  
HETATM   41  C   UNL     1     -13.578  13.525  72.464  1.00  0.00    -0.674 C  
BRANCH  39  42
HETATM   42  C   UNL     1     -12.749  15.903  72.624  1.00  0.00    -0.463 C  
HETATM   43  O   UNL     1     -13.837  16.201  73.493  1.00  0.00    -0.868 OA 
HETATM   44  H   UNL     1     -13.628  16.910  74.090  1.00  0.00     0.000 HD 
ENDBRANCH  39  42
ENDBRANCH  36  39
ENDBRANCH  34  36
ENDBRANCH  31  32
ENDBRANCH  30  31
ENDBRANCH  28  30
ENDBRANCH  25  26
ENDBRANCH  24  25
ENDBRANCH  23  24
ENDBRANCH  22  23
ENDBRANCH  21  22
ENDBRANCH  20  21
ENDBRANCH  18  20
ENDBRANCH  15  16
ENDBRANCH  14  15
ENDBRANCH  12  14
ENDBRANCH   7  10
ENDBRANCH   2   7
TORSDOF 19
ENDMDL
MODEL      224
REMARK 921   NORMALIZED FREE ENERGY PREDICTED BY IDOCK:   -3.96 KCAL/MOL
REMARK 922        TOTAL FREE ENERGY PREDICTED BY IDOCK:  -10.54 KCAL/MOL
REMARK 923 INTER-LIGAND FREE ENERGY PREDICTED BY IDOCK:   -8.36 KCAL/MOL
REMARK 924 INTRA-LIGAND FREE ENERGY PREDICTED BY IDOCK:   -2.18 KCAL/MOL
REMARK 927      BINDING AFFINITY PREDICTED BY RF-SCORE:    0.00 PKD
ROOT
HETATM    1  C   UNL     1      -9.775   8.563  72.739  1.00  0.00    -0.229 C  
HETATM    2  C   UNL     1     -10.333   8.266  71.335  1.00  0.00    -0.270 C  
HETATM    3  C   UNL     1     -11.814   7.826  71.447  1.00  0.00    -0.324 C  
ENDROOT
BRANCH   2   4
HETATM    4  C   UNL     1     -10.321   9.567  70.504  1.00  0.00    -0.288 C  
HETATM    5  O   UNL     1     -11.470   9.657  69.664  1.00  0.00    -0.417 OA 
HETATM    6  H   UNL     1     -11.461  10.458  69.153  1.00  0.00     0.000 HD 
ENDBRANCH   2   4
BRANCH   2   7
HETATM    7  C   UNL     1      -9.493   7.169  70.609  1.00  0.00    -0.161 C  
HETATM    8  O   UNL     1      -8.978   6.173  71.509  1.00  0.00    -0.142 OA 
HETATM    9  H   UNL     1      -8.467   5.506  71.067  1.00  0.00     0.000 HD 
BRANCH   7  10
HETATM   10  C   UNL     1     -10.229   6.429  69.470  1.00  0.00    -0.189 C  
HETATM   11  O   UNL     1     -10.886   5.402  69.615  1.00  0.00    -0.289 OA 
HETATM   12  N   UNL     1     -10.142   7.079  68.259  1.00  0.00    -0.160 N  
HETATM   13  H   UNL     1      -9.532   7.891  68.166  1.00  0.00     0.000 HD 
BRANCH  12  14
HETATM   14  C   UNL     1     -10.904   6.623  67.118  1.00  0.00    -0.401 C  
BRANCH  14  15
HETATM   15  C   UNL     1     -10.094   5.756  66.160  1.00  0.00    -0.058 C  
BRANCH  15  16
HETATM   16  C   UNL     1      -8.628   6.082  66.335  1.00  0.00    -0.129 C  
HETATM   17  O   UNL     1      -7.901   5.419  67.068  1.00  0.00    -0.099 OA 
HETATM   18  N   UNL     1      -8.194   7.152  65.587  1.00  0.00    -0.132 N  
HETATM   19  H   UNL     1      -8.872   7.602  64.974  1.00  0.00     0.000 HD 
BRANCH  18  20
HETATM   20  C   UNL     1      -6.834   7.698  65.602  1.00  0.00    -0.049 C  
BRANCH  20  21
HETATM   21  C   UNL     1      -6.631   9.083  64.982  1.00  0.00    -0.069 C  
BRANCH  21  22
HETATM   22  S   UNL     1      -5.887  10.335  66.097  1.00  0.00    -0.088 SA 
BRANCH  22  23
HETATM   23  S   UNL     1      -7.511  11.320  66.897  1.00  0.00    -0.147 SA 
BRANCH  23  24
HETATM   24  C   UNL     1      -8.839  10.821  65.752  1.00  0.00    -0.188 C  
BRANCH  24  25
HETATM   25  C   UNL     1     -10.096  10.396  66.516  1.00  0.00    -0.228 C  
BRANCH  25  26
HETATM   26  N   UNL     1     -10.682  11.435  67.359  1.00  0.00    -0.218 N  
HETATM   27  H   UNL     1     -10.369  11.502  68.328  1.00  0.00     0.000 HD 
HETATM   28  C   UNL     1     -11.634  12.330  66.917  1.00  0.00    -0.361 C  
HETATM   29  O   UNL     1     -12.121  12.306  65.792  1.00  0.00    -0.587 OA 
BRANCH  28  30
HETATM   30  C   UNL     1     -12.014  13.389  67.927  1.00  0.00    -0.360 C  
BRANCH  30  31
HETATM   31  C   UNL     1     -11.777  14.775  67.337  1.00  0.00    -0.350 C  
BRANCH  31  32
HETATM   32  N   UNL     1     -10.572  15.393  67.859  1.00  0.00    -0.260 N  
HETATM   33  H   UNL     1     -10.642  15.975  68.695  1.00  0.00     0.000 HD 
HETATM   34  C   UNL     1      -9.342  15.224  67.269  1.00  0.00    -0.205 C  
HETATM   35  O   UNL     1      -9.174  14.621  66.214  1.00  0.00    -0.278 OA 
BRANCH  34  36
HETATM   36  C   UNL     1      -8.187  15.927  68.016  1.00  0.00    -0.148 C  
HETATM   37  O   UNL     1      -8.455  15.947  69.427  1.00  0.00    -0.255 OA 
HETATM   38  H   UNL     1      -7.744  16.379  69.886  1.00  0.00     0.000 HD 
BRANCH  36  39
HETATM   39  C   UNL     1      -7.907  17.368  67.505  1.00  0.00    -0.209 C  
HETATM   40  C   UNL     1      -6.744  17.391  66.492  1.00  0.00    -0.284 C  
HETATM   41  C   UNL     1      -9.166  17.890  66.773  1.00  0.00    -0.278 C  
BRANCH  39  42
HETATM   42  C   UNL     1      -7.590  18.300  68.700  1.00  0.00    -0.296 C  
HETATM   43  O   UNL     1      -6.214  18.244  69.064  1.00  0.00    -0.216 OA 
HETATM   44  H   UNL     1      -6.020  18.816  69.797  1.00  0.00     0.000 HD 
ENDBRANCH  39  42
ENDBRANCH  36  39
ENDBRANCH  34  36
ENDBRANCH  31  32
ENDBRANCH  30  31
ENDBRANCH  28  30
ENDBRANCH  25  26
ENDBRANCH  24  25
ENDBRANCH  23  24
ENDBRANCH  22  23
ENDBRANCH  21  22
ENDBRANCH  20  21
ENDBRANCH  18  20
ENDBRANCH  15  16
ENDBRANCH  14  15
ENDBRANCH  12  14
ENDBRANCH   7  10
ENDBRANCH   2   7
TORSDOF 19
ENDMDL
MODEL      225
REMARK 921   NORMALIZED FREE ENERGY PREDICTED BY IDOCK:   -3.96 KCAL/MOL
REMARK 922        TOTAL FREE ENERGY PREDICTED BY IDOCK:  -10.53 KCAL/MOL
REMARK 923 INTER-LIGAND FREE ENERGY PREDICTED BY IDOCK:   -8.86 KCAL/MOL
REMARK 924 INTRA-LIGAND FREE ENERGY PREDICTED BY IDOCK:   -1.67 KCAL/MOL
REMARK 927      BINDING AFFINITY PREDICTED BY RF-SCORE:    0.00 PKD
ROOT
HETATM    1  C   UNL     1     -12.250  13.958  66.711  1.00  0.00    -0.438 C  
HETATM    2  C   UNL     1     -11.527  13.381  65.480  1.00  0.00    -0.324 C  
HETATM    3  C   UNL     1     -12.572  12.856  64.464  1.00  0.00    -0.420 C  
ENDROOT
BRANCH   2   4
HETATM    4  C   UNL     1     -10.755  14.515  64.773  1.00  0.00    -0.393 C  
HETATM    5  O   UNL     1     -11.602  15.248  63.891  1.00  0.00    -0.723 OA 
HETATM    6  H   UNL     1     -11.126  15.945  63.455  1.00  0.00     0.000 HD 
ENDBRANCH   2   4
BRANCH   2   7
HETATM    7  C   UNL     1     -10.538  12.242  65.882  1.00  0.00    -0.256 C  
HETATM    8  O   UNL     1     -11.079  11.361  66.881  1.00  0.00    -0.285 OA 
HETATM    9  H   UNL     1     -10.478  10.668  67.126  1.00  0.00     0.000 HD 
BRANCH   7  10
HETATM   10  C   UNL     1     -10.041  11.366  64.712  1.00  0.00    -0.277 C  
HETATM   11  O   UNL     1      -9.980  11.732  63.542  1.00  0.00    -0.356 OA 
HETATM   12  N   UNL     1      -9.591  10.128  65.117  1.00  0.00    -0.269 N  
HETATM   13  H   UNL     1      -9.721   9.838  66.086  1.00  0.00     0.000 HD 
BRANCH  12  14
HETATM   14  C   UNL     1      -8.938   9.236  64.185  1.00  0.00    -0.081 C  
BRANCH  14  15
HETATM   15  C   UNL     1      -7.610   8.692  64.703  1.00  0.00    -0.111 C  
BRANCH  15  16
HETATM   16  C   UNL     1      -6.779   9.849  65.211  1.00  0.00    -0.106 C  
HETATM   17  O   UNL     1      -5.912  10.375  64.521  1.00  0.00    -0.137 OA 
HETATM   18  N   UNL     1      -7.103  10.263  66.483  1.00  0.00    -0.102 N  
HETATM   19  H   UNL     1      -7.874   9.786  66.948  1.00  0.00     0.000 HD 
BRANCH  18  20
HETATM   20  C   UNL     1      -6.428  11.333  67.222  1.00  0.00    -0.085 C  
BRANCH  20  21
HETATM   21  C   UNL     1      -6.541  11.306  68.749  1.00  0.00    -0.062 C  
BRANCH  21  22
HETATM   22  S   UNL     1      -6.079  12.868  69.592  1.00  0.00    -0.118 SA 
BRANCH  22  23
HETATM   23  S   UNL     1      -7.042  14.328  68.503  1.00  0.00    -0.115 SA 
BRANCH  23  24
HETATM   24  C   UNL     1      -7.878  15.273  69.820  1.00  0.00    -0.057 C  
BRANCH  24  25
HETATM   25  C   UNL     1      -9.143  15.954  69.293  1.00  0.00    -0.253 C  
BRANCH  25  26
HETATM   26  N   UNL     1     -10.355  15.143  69.373  1.00  0.00    -0.246 N  
HETATM   27  H   UNL     1     -10.439  14.340  68.750  1.00  0.00     0.000 HD 
HETATM   28  C   UNL     1     -11.391  15.404  70.245  1.00  0.00    -0.311 C  
HETATM   29  O   UNL     1     -11.422  16.371  70.998  1.00  0.00    -0.388 OA 
BRANCH  28  30
HETATM   30  C   UNL     1     -12.493  14.369  70.235  1.00  0.00    -0.413 C  
BRANCH  30  31
HETATM   31  C   UNL     1     -12.346  13.444  71.439  1.00  0.00    -0.118 C  
BRANCH  31  32
HETATM   32  N   UNL     1     -12.551  12.051  71.087  1.00  0.00    -0.336 N  
HETATM   33  H   UNL     1     -13.317  11.541  71.528  1.00  0.00     0.000 HD 
HETATM   34  C   UNL     1     -11.752  11.395  70.181  1.00  0.00    -0.328 C  
HETATM   35  O   UNL     1     -10.755  11.896  69.669  1.00  0.00     0.037 OA 
BRANCH  34  36
HETATM   36  C   UNL     1     -12.177   9.934  69.914  1.00  0.00     0.199 C  
HETATM   37  O   UNL     1     -13.460   9.680  70.507  1.00  0.00    -0.583 OA 
HETATM   38  H   UNL     1     -13.721   8.781  70.342  1.00  0.00     0.000 HD 
BRANCH  36  39
HETATM   39  C   UNL     1     -11.141   8.888  70.412  1.00  0.00    -0.270 C  
HETATM   40  C   UNL     1     -10.262   9.459  71.544  1.00  0.00    -0.223 C  
HETATM   41  C   UNL     1     -11.902   7.671  70.990  1.00  0.00    -0.306 C  
BRANCH  39  42
HETATM   42  C   UNL     1     -10.253   8.420  69.234  1.00  0.00    -0.208 C  
HETATM   43  O   UNL     1     -10.694   8.961  67.993  1.00  0.00    -0.399 OA 
HETATM   44  H   UNL     1     -10.149   8.674  67.269  1.00  0.00     0.000 HD 
ENDBRANCH  39  42
ENDBRANCH  36  39
ENDBRANCH  34  36
ENDBRANCH  31  32
ENDBRANCH  30  31
ENDBRANCH  28  30
ENDBRANCH  25  26
ENDBRANCH  24  25
ENDBRANCH  23  24
ENDBRANCH  22  23
ENDBRANCH  21  22
ENDBRANCH  20  21
ENDBRANCH  18  20
ENDBRANCH  15  16
ENDBRANCH  14  15
ENDBRANCH  12  14
ENDBRANCH   7  10
ENDBRANCH   2   7
TORSDOF 19
ENDMDL
MODEL      226
REMARK 921   NORMALIZED FREE ENERGY PREDICTED BY IDOCK:   -3.95 KCAL/MOL
REMARK 922        TOTAL FREE ENERGY PREDICTED BY IDOCK:  -10.52 KCAL/MOL
REMARK 923 INTER-LIGAND FREE ENERGY PREDICTED BY IDOCK:   -9.57 KCAL/MOL
REMARK 924 INTRA-LIGAND FREE ENERGY PREDICTED BY IDOCK:   -0.95 KCAL/MOL
REMARK 927      BINDING AFFINITY PREDICTED BY RF-SCORE:    0.00 PKD
ROOT
HETATM    1  C   UNL     1     -10.251   6.176  74.320  1.00  0.00    -0.326 C  
HETATM    2  C   UNL     1     -10.014   6.826  72.944  1.00  0.00    -0.193 C  
HETATM    3  C   UNL     1     -10.902   8.088  72.806  1.00  0.00    -0.438 C  
ENDROOT
BRANCH   2   4
HETATM    4  C   UNL     1      -8.549   7.305  72.859  1.00  0.00    -0.122 C  
HETATM    5  O   UNL     1      -8.402   8.620  73.390  1.00  0.00    -0.398 OA 
HETATM    6  H   UNL     1      -7.500   8.915  73.338  1.00  0.00     0.000 HD 
ENDBRANCH   2   4
BRANCH   2   7
HETATM    7  C   UNL     1     -10.308   5.824  71.784  1.00  0.00    -0.221 C  
HETATM    8  O   UNL     1     -11.149   4.731  72.190  1.00  0.00    -0.033 OA 
HETATM    9  H   UNL     1     -11.328   4.122  71.484  1.00  0.00     0.000 HD 
BRANCH   7  10
HETATM   10  C   UNL     1     -10.941   6.453  70.523  1.00  0.00    -0.306 C  
HETATM   11  O   UNL     1     -12.145   6.632  70.361  1.00  0.00    -0.374 OA 
HETATM   12  N   UNL     1     -10.007   6.872  69.601  1.00  0.00    -0.170 N  
HETATM   13  H   UNL     1      -9.023   6.644  69.742  1.00  0.00     0.000 HD 
BRANCH  12  14
HETATM   14  C   UNL     1     -10.405   7.631  68.436  1.00  0.00    -0.194 C  
BRANCH  14  15
HETATM   15  C   UNL     1     -10.567   6.773  67.185  1.00  0.00    -0.401 C  
BRANCH  15  16
HETATM   16  C   UNL     1      -9.193   6.445  66.644  1.00  0.00    -0.151 C  
HETATM   17  O   UNL     1      -8.407   5.734  67.261  1.00  0.00    -0.105 OA 
HETATM   18  N   UNL     1      -8.929   6.986  65.406  1.00  0.00    -0.369 N  
HETATM   19  H   UNL     1      -9.673   7.522  64.961  1.00  0.00     0.000 HD 
BRANCH  18  20
HETATM   20  C   UNL     1      -7.664   6.854  64.678  1.00  0.00    -0.116 C  
BRANCH  20  21
HETATM   21  C   UNL     1      -6.632   7.971  64.863  1.00  0.00    -0.051 C  
BRANCH  21  22
HETATM   22  S   UNL     1      -7.320   9.670  64.895  1.00  0.00    -0.124 SA 
BRANCH  22  23
HETATM   23  S   UNL     1      -6.723  10.417  66.720  1.00  0.00    -0.092 SA 
BRANCH  23  24
HETATM   24  C   UNL     1      -8.321  10.888  67.461  1.00  0.00    -0.117 C  
BRANCH  24  25
HETATM   25  C   UNL     1      -8.184  12.153  68.312  1.00  0.00    -0.168 C  
BRANCH  25  26
HETATM   26  N   UNL     1      -7.842  13.361  67.566  1.00  0.00    -0.169 N  
HETATM   27  H   UNL     1      -7.906  13.332  66.548  1.00  0.00     0.000 HD 
HETATM   28  C   UNL     1      -7.439  14.538  68.162  1.00  0.00    -0.126 C  
HETATM   29  O   UNL     1      -7.274  14.668  69.370  1.00  0.00    -0.148 OA 
BRANCH  28  30
HETATM   30  C   UNL     1      -7.247  15.691  67.203  1.00  0.00    -0.230 C  
BRANCH  30  31
HETATM   31  C   UNL     1      -8.563  16.444  67.031  1.00  0.00    -0.196 C  
BRANCH  31  32
HETATM   32  N   UNL     1      -9.290  16.012  65.852  1.00  0.00    -0.330 N  
HETATM   33  H   UNL     1      -9.035  16.404  64.946  1.00  0.00     0.000 HD 
HETATM   34  C   UNL     1     -10.312  15.093  65.913  1.00  0.00    -0.327 C  
HETATM   35  O   UNL     1     -10.750  14.636  66.965  1.00  0.00    -0.281 OA 
BRANCH  34  36
HETATM   36  C   UNL     1     -10.916  14.736  64.537  1.00  0.00    -0.210 C  
HETATM   37  O   UNL     1     -11.712  15.828  64.052  1.00  0.00    -0.924 OA 
HETATM   38  H   UNL     1     -12.083  15.608  63.206  1.00  0.00     0.000 HD 
BRANCH  36  39
HETATM   39  C   UNL     1     -11.755  13.427  64.551  1.00  0.00    -0.422 C  
HETATM   40  C   UNL     1     -11.037  12.305  65.329  1.00  0.00    -0.359 C  
HETATM   41  C   UNL     1     -13.095  13.704  65.272  1.00  0.00    -0.163 C  
BRANCH  39  42
HETATM   42  C   UNL     1     -12.043  12.969  63.101  1.00  0.00    -0.246 C  
HETATM   43  O   UNL     1     -12.404  11.593  63.043  1.00  0.00    -0.970 OA 
HETATM   44  H   UNL     1     -12.581  11.311  62.153  1.00  0.00     0.000 HD 
ENDBRANCH  39  42
ENDBRANCH  36  39
ENDBRANCH  34  36
ENDBRANCH  31  32
ENDBRANCH  30  31
ENDBRANCH  28  30
ENDBRANCH  25  26
ENDBRANCH  24  25
ENDBRANCH  23  24
ENDBRANCH  22  23
ENDBRANCH  21  22
ENDBRANCH  20  21
ENDBRANCH  18  20
ENDBRANCH  15  16
ENDBRANCH  14  15
ENDBRANCH  12  14
ENDBRANCH   7  10
ENDBRANCH   2   7
TORSDOF 19
ENDMDL
MODEL      227
REMARK 921   NORMALIZED FREE ENERGY PREDICTED BY IDOCK:   -3.95 KCAL/MOL
REMARK 922        TOTAL FREE ENERGY PREDICTED BY IDOCK:  -10.52 KCAL/MOL
REMARK 923 INTER-LIGAND FREE ENERGY PREDICTED BY IDOCK:   -8.77 KCAL/MOL
REMARK 924 INTRA-LIGAND FREE ENERGY PREDICTED BY IDOCK:   -1.75 KCAL/MOL
REMARK 927      BINDING AFFINITY PREDICTED BY RF-SCORE:    0.00 PKD
ROOT
HETATM    1  C   UNL     1      -7.628  17.488  68.316  1.00  0.00    -0.240 C  
HETATM    2  C   UNL     1      -7.903  18.537  67.222  1.00  0.00    -0.240 C  
HETATM    3  C   UNL     1      -7.436  19.931  67.712  1.00  0.00    -0.326 C  
ENDROOT
BRANCH   2   4
HETATM    4  C   UNL     1      -7.055  18.200  65.978  1.00  0.00    -0.283 C  
HETATM    5  O   UNL     1      -6.985  19.306  65.081  1.00  0.00    -0.445 OA 
HETATM    6  H   UNL     1      -6.464  19.098  64.315  1.00  0.00     0.000 HD 
ENDBRANCH   2   4
BRANCH   2   7
HETATM    7  C   UNL     1      -9.414  18.573  66.836  1.00  0.00    -0.298 C  
HETATM    8  O   UNL     1      -9.667  19.337  65.644  1.00  0.00    -0.352 OA 
HETATM    9  H   UNL     1     -10.587  19.359  65.409  1.00  0.00     0.000 HD 
BRANCH   7  10
HETATM   10  C   UNL     1     -10.073  17.189  66.647  1.00  0.00    -0.306 C  
HETATM   11  O   UNL     1     -10.029  16.529  65.613  1.00  0.00    -0.497 OA 
HETATM   12  N   UNL     1     -10.669  16.714  67.795  1.00  0.00    -0.340 N  
HETATM   13  H   UNL     1     -10.743  17.320  68.612  1.00  0.00     0.000 HD 
BRANCH  12  14
HETATM   14  C   UNL     1     -11.192  15.367  67.855  1.00  0.00    -0.329 C  
BRANCH  14  15
HETATM   15  C   UNL     1     -10.356  14.436  68.727  1.00  0.00    -0.241 C  
BRANCH  15  16
HETATM   16  C   UNL     1     -10.047  13.184  67.937  1.00  0.00    -0.232 C  
HETATM   17  O   UNL     1     -10.015  13.184  66.711  1.00  0.00    -0.239 OA 
HETATM   18  N   UNL     1      -9.783  12.077  68.712  1.00  0.00    -0.404 N  
HETATM   19  H   UNL     1      -9.789  12.201  69.724  1.00  0.00     0.000 HD 
BRANCH  18  20
HETATM   20  C   UNL     1      -9.493  10.735  68.199  1.00  0.00    -0.158 C  
BRANCH  20  21
HETATM   21  C   UNL     1     -10.688   9.879  67.770  1.00  0.00    -0.277 C  
BRANCH  21  22
HETATM   22  S   UNL     1     -10.259   8.340  66.868  1.00  0.00    -0.312 SA 
BRANCH  22  23
HETATM   23  S   UNL     1      -8.210   8.428  66.674  1.00  0.00    -0.107 SA 
BRANCH  23  24
HETATM   24  C   UNL     1      -7.918   7.216  65.344  1.00  0.00    -0.125 C  
BRANCH  24  25
HETATM   25  C   UNL     1      -7.107   6.022  65.853  1.00  0.00    -0.074 C  
BRANCH  25  26
HETATM   26  N   UNL     1      -7.883   5.015  66.572  1.00  0.00    -0.099 N  
HETATM   27  H   UNL     1      -8.599   4.502  66.059  1.00  0.00     0.000 HD 
HETATM   28  C   UNL     1      -7.700   4.721  67.907  1.00  0.00    -0.082 C  
HETATM   29  O   UNL     1      -6.909   5.312  68.634  1.00  0.00    -0.052 OA 
BRANCH  28  30
HETATM   30  C   UNL     1      -8.534   3.566  68.414  1.00  0.00    -0.107 C  
BRANCH  30  31
HETATM   31  C   UNL     1      -9.776   4.097  69.123  1.00  0.00    -0.135 C  
BRANCH  31  32
HETATM   32  N   UNL     1      -9.503   5.310  69.870  1.00  0.00    -0.146 N  
HETATM   33  H   UNL     1      -8.619   5.389  70.373  1.00  0.00     0.000 HD 
HETATM   34  C   UNL     1     -10.392   6.358  69.924  1.00  0.00    -0.196 C  
HETATM   35  O   UNL     1     -11.514   6.320  69.428  1.00  0.00    -0.427 OA 
BRANCH  34  36
HETATM   36  C   UNL     1      -9.881   7.572  70.731  1.00  0.00    -0.178 C  
HETATM   37  O   UNL     1      -8.454   7.679  70.607  1.00  0.00    -0.124 OA 
HETATM   38  H   UNL     1      -8.141   8.425  71.104  1.00  0.00     0.000 HD 
BRANCH  36  39
HETATM   39  C   UNL     1     -10.287   7.532  72.231  1.00  0.00    -0.263 C  
HETATM   40  C   UNL     1      -9.129   7.992  73.141  1.00  0.00    -0.341 C  
HETATM   41  C   UNL     1     -11.465   8.510  72.454  1.00  0.00    -0.419 C  
BRANCH  39  42
HETATM   42  C   UNL     1     -10.733   6.102  72.619  1.00  0.00    -0.229 C  
HETATM   43  O   UNL     1      -9.671   5.358  73.208  1.00  0.00    -0.148 OA 
HETATM   44  H   UNL     1      -9.945   4.480  73.447  1.00  0.00     0.000 HD 
ENDBRANCH  39  42
ENDBRANCH  36  39
ENDBRANCH  34  36
ENDBRANCH  31  32
ENDBRANCH  30  31
ENDBRANCH  28  30
ENDBRANCH  25  26
ENDBRANCH  24  25
ENDBRANCH  23  24
ENDBRANCH  22  23
ENDBRANCH  21  22
ENDBRANCH  20  21
ENDBRANCH  18  20
ENDBRANCH  15  16
ENDBRANCH  14  15
ENDBRANCH  12  14
ENDBRANCH   7  10
ENDBRANCH   2   7
TORSDOF 19
ENDMDL
MODEL      228
REMARK 921   NORMALIZED FREE ENERGY PREDICTED BY IDOCK:   -3.95 KCAL/MOL
REMARK 922        TOTAL FREE ENERGY PREDICTED BY IDOCK:  -10.52 KCAL/MOL
REMARK 923 INTER-LIGAND FREE ENERGY PREDICTED BY IDOCK:   -8.43 KCAL/MOL
REMARK 924 INTRA-LIGAND FREE ENERGY PREDICTED BY IDOCK:   -2.09 KCAL/MOL
REMARK 927      BINDING AFFINITY PREDICTED BY RF-SCORE:    0.00 PKD
ROOT
HETATM    1  C   UNL     1     -11.594  11.338  67.588  1.00  0.00    -0.290 C  
HETATM    2  C   UNL     1     -11.377  12.756  67.029  1.00  0.00    -0.364 C  
HETATM    3  C   UNL     1     -12.539  13.120  66.071  1.00  0.00    -0.192 C  
ENDROOT
BRANCH   2   4
HETATM    4  C   UNL     1     -11.431  13.769  68.192  1.00  0.00    -0.313 C  
HETATM    5  O   UNL     1     -11.279  15.107  67.722  1.00  0.00    -0.304 OA 
HETATM    6  H   UNL     1     -11.312  15.730  68.438  1.00  0.00     0.000 HD 
ENDBRANCH   2   4
BRANCH   2   7
HETATM    7  C   UNL     1     -10.006  12.873  66.292  1.00  0.00    -0.270 C  
HETATM    8  O   UNL     1      -8.908  13.105  67.190  1.00  0.00    -0.207 OA 
HETATM    9  H   UNL     1      -8.074  13.175  66.742  1.00  0.00     0.000 HD 
BRANCH   7  10
HETATM   10  C   UNL     1      -9.634  11.661  65.409  1.00  0.00    -0.205 C  
HETATM   11  O   UNL     1      -9.230  10.583  65.835  1.00  0.00    -0.166 OA 
HETATM   12  N   UNL     1      -9.872  11.876  64.069  1.00  0.00    -0.460 N  
HETATM   13  H   UNL     1     -10.144  12.806  63.749  1.00  0.00     0.000 HD 
BRANCH  12  14
HETATM   14  C   UNL     1      -9.740  10.801  63.111  1.00  0.00    -0.357 C  
BRANCH  14  15
HETATM   15  C   UNL     1      -8.336  10.682  62.529  1.00  0.00    -0.242 C  
BRANCH  15  16
HETATM   16  C   UNL     1      -7.749   9.353  62.949  1.00  0.00    -0.118 C  
HETATM   17  O   UNL     1      -6.701   8.928  62.472  1.00  0.00    -0.095 OA 
HETATM   18  N   UNL     1      -8.474   8.695  63.917  1.00  0.00    -0.362 N  
HETATM   19  H   UNL     1      -9.305   9.162  64.278  1.00  0.00     0.000 HD 
BRANCH  18  20
HETATM   20  C   UNL     1      -8.147   7.378  64.469  1.00  0.00    -0.079 C  
BRANCH  20  21
HETATM   21  C   UNL     1      -7.097   7.329  65.583  1.00  0.00    -0.065 C  
BRANCH  21  22
HETATM   22  S   UNL     1      -7.657   7.962  67.210  1.00  0.00    -0.102 SA 
BRANCH  22  23
HETATM   23  S   UNL     1      -6.258   9.395  67.697  1.00  0.00    -0.054 SA 
BRANCH  23  24
HETATM   24  C   UNL     1      -7.096  10.273  69.058  1.00  0.00    -0.072 C  
BRANCH  24  25
HETATM   25  C   UNL     1      -6.101  11.098  69.878  1.00  0.00    -0.121 C  
BRANCH  25  26
HETATM   26  N   UNL     1      -6.443  12.512  70.015  1.00  0.00    -0.360 N  
HETATM   27  H   UNL     1      -6.749  12.847  70.929  1.00  0.00     0.000 HD 
HETATM   28  C   UNL     1      -6.376  13.418  68.978  1.00  0.00    -0.097 C  
HETATM   29  O   UNL     1      -6.076  13.116  67.827  1.00  0.00    -0.127 OA 
BRANCH  28  30
HETATM   30  C   UNL     1      -6.665  14.847  69.375  1.00  0.00    -0.153 C  
BRANCH  30  31
HETATM   31  C   UNL     1      -8.148  15.004  69.700  1.00  0.00    -0.049 C  
BRANCH  31  32
HETATM   32  N   UNL     1      -8.711  16.208  69.118  1.00  0.00    -0.249 N  
HETATM   33  H   UNL     1      -9.206  16.861  69.724  1.00  0.00     0.000 HD 
HETATM   34  C   UNL     1      -8.601  16.500  67.779  1.00  0.00    -0.177 C  
HETATM   35  O   UNL     1      -8.105  15.734  66.957  1.00  0.00    -0.192 OA 
BRANCH  34  36
HETATM   36  C   UNL     1      -9.226  17.855  67.379  1.00  0.00    -0.253 C  
HETATM   37  O   UNL     1      -9.909  17.728  66.122  1.00  0.00    -0.428 OA 
HETATM   38  H   UNL     1     -10.294  18.562  65.876  1.00  0.00     0.000 HD 
BRANCH  36  39
HETATM   39  C   UNL     1      -8.196  19.016  67.314  1.00  0.00    -0.294 C  
HETATM   40  C   UNL     1      -7.248  18.998  68.531  1.00  0.00    -0.334 C  
HETATM   41  C   UNL     1      -7.324  18.837  66.048  1.00  0.00    -0.283 C  
BRANCH  39  42
HETATM   42  C   UNL     1      -8.934  20.374  67.234  1.00  0.00    -0.343 C  
HETATM   43  O   UNL     1      -9.716  20.483  66.049  1.00  0.00    -0.651 OA 
HETATM   44  H   UNL     1     -10.169  21.316  66.000  1.00  0.00     0.000 HD 
ENDBRANCH  39  42
ENDBRANCH  36  39
ENDBRANCH  34  36
ENDBRANCH  31  32
ENDBRANCH  30  31
ENDBRANCH  28  30
ENDBRANCH  25  26
ENDBRANCH  24  25
ENDBRANCH  23  24
ENDBRANCH  22  23
ENDBRANCH  21  22
ENDBRANCH  20  21
ENDBRANCH  18  20
ENDBRANCH  15  16
ENDBRANCH  14  15
ENDBRANCH  12  14
ENDBRANCH   7  10
ENDBRANCH   2   7
TORSDOF 19
ENDMDL
MODEL      229
REMARK 921   NORMALIZED FREE ENERGY PREDICTED BY IDOCK:   -3.92 KCAL/MOL
REMARK 922        TOTAL FREE ENERGY PREDICTED BY IDOCK:  -10.45 KCAL/MOL
REMARK 923 INTER-LIGAND FREE ENERGY PREDICTED BY IDOCK:   -8.91 KCAL/MOL
REMARK 924 INTRA-LIGAND FREE ENERGY PREDICTED BY IDOCK:   -1.54 KCAL/MOL
REMARK 927      BINDING AFFINITY PREDICTED BY RF-SCORE:    0.00 PKD
ROOT
HETATM    1  C   UNL     1     -10.403   8.533  72.118  1.00  0.00    -0.409 C  
HETATM    2  C   UNL     1     -11.568   8.475  71.112  1.00  0.00    -0.325 C  
HETATM    3  C   UNL     1     -12.874   8.940  71.803  1.00  0.00    -0.419 C  
ENDROOT
BRANCH   2   4
HETATM    4  C   UNL     1     -11.294   9.474  69.968  1.00  0.00    -0.166 C  
HETATM    5  O   UNL     1     -10.054  10.152  70.156  1.00  0.00    -0.360 OA 
HETATM    6  H   UNL     1      -9.885  10.767  69.452  1.00  0.00     0.000 HD 
ENDBRANCH   2   4
BRANCH   2   7
HETATM    7  C   UNL     1     -11.742   7.039  70.526  1.00  0.00    -0.312 C  
HETATM    8  O   UNL     1     -11.417   6.963  69.128  1.00  0.00    -0.539 OA 
HETATM    9  H   UNL     1     -11.523   6.089  68.772  1.00  0.00     0.000 HD 
BRANCH   7  10
HETATM   10  C   UNL     1     -10.938   5.937  71.250  1.00  0.00    -0.259 C  
HETATM   11  O   UNL     1     -11.178   5.524  72.381  1.00  0.00    -0.260 OA 
HETATM   12  N   UNL     1      -9.945   5.391  70.467  1.00  0.00    -0.205 N  
HETATM   13  H   UNL     1      -9.733   5.807  69.559  1.00  0.00     0.000 HD 
BRANCH  12  14
HETATM   14  C   UNL     1      -9.197   4.237  70.915  1.00  0.00    -0.137 C  
BRANCH  14  15
HETATM   15  C   UNL     1      -8.911   3.236  69.801  1.00  0.00    -0.154 C  
BRANCH  15  16
HETATM   16  C   UNL     1      -9.041   3.942  68.471  1.00  0.00    -0.138 C  
HETATM   17  O   UNL     1     -10.131   4.120  67.936  1.00  0.00    -0.019 OA 
HETATM   18  N   UNL     1      -7.848   4.381  67.944  1.00  0.00    -0.080 N  
HETATM   19  H   UNL     1      -7.006   4.222  68.496  1.00  0.00     0.000 HD 
BRANCH  18  20
HETATM   20  C   UNL     1      -7.690   5.057  66.654  1.00  0.00    -0.092 C  
BRANCH  20  21
HETATM   21  C   UNL     1      -7.308   6.540  66.685  1.00  0.00    -0.078 C  
BRANCH  21  22
HETATM   22  S   UNL     1      -8.097   7.575  65.392  1.00  0.00    -0.136 SA 
BRANCH  22  23
HETATM   23  S   UNL     1      -9.084   9.037  66.456  1.00  0.00    -0.175 SA 
BRANCH  23  24
HETATM   24  C   UNL     1      -9.719  10.097  65.115  1.00  0.00    -0.304 C  
BRANCH  24  25
HETATM   25  C   UNL     1      -9.718  11.571  65.529  1.00  0.00    -0.230 C  
BRANCH  25  26
HETATM   26  N   UNL     1      -8.550  11.992  66.298  1.00  0.00    -0.390 N  
HETATM   27  H   UNL     1      -7.627  11.859  65.884  1.00  0.00     0.000 HD 
HETATM   28  C   UNL     1      -8.626  12.560  67.552  1.00  0.00    -0.183 C  
HETATM   29  O   UNL     1      -9.676  12.716  68.167  1.00  0.00    -0.210 OA 
BRANCH  28  30
HETATM   30  C   UNL     1      -7.300  13.023  68.111  1.00  0.00    -0.118 C  
BRANCH  30  31
HETATM   31  C   UNL     1      -6.964  14.408  67.568  1.00  0.00    -0.159 C  
BRANCH  31  32
HETATM   32  N   UNL     1      -7.984  15.387  67.896  1.00  0.00    -0.129 N  
HETATM   33  H   UNL     1      -8.927  15.061  68.108  1.00  0.00     0.000 HD 
HETATM   34  C   UNL     1      -7.725  16.737  67.930  1.00  0.00    -0.171 C  
HETATM   35  O   UNL     1      -6.649  17.229  67.602  1.00  0.00    -0.146 OA 
BRANCH  34  36
HETATM   36  C   UNL     1      -8.937  17.597  68.351  1.00  0.00    -0.280 C  
HETATM   37  O   UNL     1      -9.900  16.784  69.041  1.00  0.00    -0.259 OA 
HETATM   38  H   UNL     1     -10.645  17.313  69.300  1.00  0.00     0.000 HD 
BRANCH  36  39
HETATM   39  C   UNL     1      -9.614  18.335  67.163  1.00  0.00    -0.281 C  
HETATM   40  C   UNL     1     -10.382  17.354  66.254  1.00  0.00    -0.330 C  
HETATM   41  C   UNL     1     -10.644  19.343  67.726  1.00  0.00    -0.538 C  
BRANCH  39  42
HETATM   42  C   UNL     1      -8.550  19.100  66.341  1.00  0.00    -0.328 C  
HETATM   43  O   UNL     1      -9.041  20.353  65.874  1.00  0.00    -0.595 OA 
HETATM   44  H   UNL     1      -8.388  20.822  65.369  1.00  0.00     0.000 HD 
ENDBRANCH  39  42
ENDBRANCH  36  39
ENDBRANCH  34  36
ENDBRANCH  31  32
ENDBRANCH  30  31
ENDBRANCH  28  30
ENDBRANCH  25  26
ENDBRANCH  24  25
ENDBRANCH  23  24
ENDBRANCH  22  23
ENDBRANCH  21  22
ENDBRANCH  20  21
ENDBRANCH  18  20
ENDBRANCH  15  16
ENDBRANCH  14  15
ENDBRANCH  12  14
ENDBRANCH   7  10
ENDBRANCH   2   7
TORSDOF 19
ENDMDL
MODEL      230
REMARK 921   NORMALIZED FREE ENERGY PREDICTED BY IDOCK:   -3.92 KCAL/MOL
REMARK 922        TOTAL FREE ENERGY PREDICTED BY IDOCK:  -10.45 KCAL/MOL
REMARK 923 INTER-LIGAND FREE ENERGY PREDICTED BY IDOCK:   -7.98 KCAL/MOL
REMARK 924 INTRA-LIGAND FREE ENERGY PREDICTED BY IDOCK:   -2.47 KCAL/MOL
REMARK 927      BINDING AFFINITY PREDICTED BY RF-SCORE:    0.00 PKD
ROOT
HETATM    1  C   UNL     1      -9.606  11.268  65.848  1.00  0.00    -0.249 C  
HETATM    2  C   UNL     1      -9.926  10.325  67.023  1.00  0.00    -0.249 C  
HETATM    3  C   UNL     1     -11.236  10.781  67.712  1.00  0.00    -0.385 C  
ENDROOT
BRANCH   2   4
HETATM    4  C   UNL     1     -10.186   8.907  66.473  1.00  0.00    -0.249 C  
HETATM    5  O   UNL     1      -9.155   8.500  65.577  1.00  0.00    -0.328 OA 
HETATM    6  H   UNL     1      -9.316   7.627  65.238  1.00  0.00     0.000 HD 
ENDBRANCH   2   4
BRANCH   2   7
HETATM    7  C   UNL     1      -8.754  10.283  68.053  1.00  0.00    -0.122 C  
HETATM    8  O   UNL     1      -8.470   8.954  68.522  1.00  0.00    -0.126 OA 
HETATM    9  H   UNL     1      -7.757   8.929  69.149  1.00  0.00     0.000 HD 
BRANCH   7  10
HETATM   10  C   UNL     1      -7.424  10.892  67.554  1.00  0.00    -0.097 C  
HETATM   11  O   UNL     1      -6.775  10.467  66.603  1.00  0.00    -0.086 OA 
HETATM   12  N   UNL     1      -7.058  12.027  68.243  1.00  0.00    -0.079 N  
HETATM   13  H   UNL     1      -7.587  12.308  69.069  1.00  0.00     0.000 HD 
BRANCH  12  14
HETATM   14  C   UNL     1      -5.932  12.825  67.811  1.00  0.00    -0.133 C  
BRANCH  14  15
HETATM   15  C   UNL     1      -6.262  14.307  67.672  1.00  0.00    -0.099 C  
BRANCH  15  16
HETATM   16  C   UNL     1      -7.761  14.480  67.777  1.00  0.00    -0.156 C  
HETATM   17  O   UNL     1      -8.349  14.388  68.850  1.00  0.00    -0.148 OA 
HETATM   18  N   UNL     1      -8.382  14.771  66.584  1.00  0.00    -0.401 N  
HETATM   19  H   UNL     1      -7.791  14.872  65.761  1.00  0.00     0.000 HD 
BRANCH  18  20
HETATM   20  C   UNL     1      -9.826  14.948  66.403  1.00  0.00    -0.274 C  
BRANCH  20  21
HETATM   21  C   UNL     1     -10.422  16.295  66.820  1.00  0.00    -0.287 C  
BRANCH  21  22
HETATM   22  S   UNL     1     -11.185  16.327  68.487  1.00  0.00    -0.316 SA 
BRANCH  22  23
HETATM   23  S   UNL     1     -11.784  14.380  68.801  1.00  0.00    -0.344 SA 
BRANCH  23  24
HETATM   24  C   UNL     1     -12.258  14.424  70.560  1.00  0.00    -0.341 C  
BRANCH  24  25
HETATM   25  C   UNL     1     -12.909  13.107  70.990  1.00  0.00    -0.214 C  
BRANCH  25  26
HETATM   26  N   UNL     1     -12.041  11.936  70.902  1.00  0.00    -0.404 N  
HETATM   27  H   UNL     1     -11.195  12.004  70.336  1.00  0.00     0.000 HD 
HETATM   28  C   UNL     1     -12.303  10.742  71.542  1.00  0.00    -0.276 C  
HETATM   29  O   UNL     1     -13.316  10.530  72.201  1.00  0.00    -0.437 OA 
BRANCH  28  30
HETATM   30  C   UNL     1     -11.213   9.705  71.403  1.00  0.00    -0.426 C  
BRANCH  30  31
HETATM   31  C   UNL     1     -11.733   8.510  70.611  1.00  0.00    -0.144 C  
BRANCH  31  32
HETATM   32  N   UNL     1     -11.269   7.248  71.157  1.00  0.00    -0.253 N  
HETATM   33  H   UNL     1     -11.464   7.034  72.135  1.00  0.00     0.000 HD 
HETATM   34  C   UNL     1     -10.576   6.330  70.404  1.00  0.00    -0.252 C  
HETATM   35  O   UNL     1     -10.215   6.535  69.248  1.00  0.00    -0.171 OA 
BRANCH  34  36
HETATM   36  C   UNL     1     -10.222   5.033  71.165  1.00  0.00    -0.211 C  
HETATM   37  O   UNL     1     -10.906   5.004  72.428  1.00  0.00    -0.213 OA 
HETATM   38  H   UNL     1     -10.688   4.206  72.896  1.00  0.00     0.000 HD 
BRANCH  36  39
HETATM   39  C   UNL     1      -8.695   4.839  71.380  1.00  0.00    -0.143 C  
HETATM   40  C   UNL     1      -7.984   6.187  71.626  1.00  0.00    -0.103 C  
HETATM   41  C   UNL     1      -8.476   3.968  72.639  1.00  0.00    -0.100 C  
BRANCH  39  42
HETATM   42  C   UNL     1      -8.075   4.127  70.154  1.00  0.00    -0.058 C  
HETATM   43  O   UNL     1      -9.036   3.342  69.456  1.00  0.00    -0.104 OA 
HETATM   44  H   UNL     1      -8.656   2.904  68.704  1.00  0.00     0.000 HD 
ENDBRANCH  39  42
ENDBRANCH  36  39
ENDBRANCH  34  36
ENDBRANCH  31  32
ENDBRANCH  30  31
ENDBRANCH  28  30
ENDBRANCH  25  26
ENDBRANCH  24  25
ENDBRANCH  23  24
ENDBRANCH  22  23
ENDBRANCH  21  22
ENDBRANCH  20  21
ENDBRANCH  18  20
ENDBRANCH  15  16
ENDBRANCH  14  15
ENDBRANCH  12  14
ENDBRANCH   7  10
ENDBRANCH   2   7
TORSDOF 19
ENDMDL
MODEL      231
REMARK 921   NORMALIZED FREE ENERGY PREDICTED BY IDOCK:   -3.90 KCAL/MOL
REMARK 922        TOTAL FREE ENERGY PREDICTED BY IDOCK:  -10.41 KCAL/MOL
REMARK 923 INTER-LIGAND FREE ENERGY PREDICTED BY IDOCK:   -8.92 KCAL/MOL
REMARK 924 INTRA-LIGAND FREE ENERGY PREDICTED BY IDOCK:   -1.49 KCAL/MOL
REMARK 927      BINDING AFFINITY PREDICTED BY RF-SCORE:    0.00 PKD
ROOT
HETATM    1  C   UNL     1      -7.996   5.741  73.657  1.00  0.00    -0.108 C  
HETATM    2  C   UNL     1      -9.115   6.509  72.930  1.00  0.00    -0.135 C  
HETATM    3  C   UNL     1     -10.195   6.943  73.952  1.00  0.00    -0.401 C  
ENDROOT
BRANCH   2   4
HETATM    4  C   UNL     1      -8.529   7.805  72.330  1.00  0.00    -0.127 C  
HETATM    5  O   UNL     1      -7.506   7.519  71.378  1.00  0.00    -0.077 OA 
HETATM    6  H   UNL     1      -7.145   8.317  71.010  1.00  0.00     0.000 HD 
ENDBRANCH   2   4
BRANCH   2   7
HETATM    7  C   UNL     1      -9.753   5.646  71.797  1.00  0.00    -0.158 C  
HETATM    8  O   UNL     1     -10.537   4.552  72.303  1.00  0.00    -0.182 OA 
HETATM    9  H   UNL     1     -10.925   4.027  71.613  1.00  0.00     0.000 HD 
BRANCH   7  10
HETATM   10  C   UNL     1     -10.639   6.428  70.801  1.00  0.00    -0.238 C  
HETATM   11  O   UNL     1     -11.742   6.896  71.065  1.00  0.00    -0.307 OA 
HETATM   12  N   UNL     1     -10.034   6.621  69.578  1.00  0.00    -0.162 N  
HETATM   13  H   UNL     1      -9.148   6.159  69.376  1.00  0.00     0.000 HD 
BRANCH  12  14
HETATM   14  C   UNL     1     -10.642   7.470  68.578  1.00  0.00    -0.136 C  
BRANCH  14  15
HETATM   15  C   UNL     1     -10.715   6.821  67.200  1.00  0.00    -0.441 C  
BRANCH  15  16
HETATM   16  C   UNL     1      -9.674   7.460  66.308  1.00  0.00    -0.013 C  
HETATM   17  O   UNL     1      -8.805   6.798  65.749  1.00  0.00    -0.145 OA 
HETATM   18  N   UNL     1      -9.812   8.822  66.166  1.00  0.00    -0.396 N  
HETATM   19  H   UNL     1     -10.600   9.265  66.637  1.00  0.00     0.000 HD 
BRANCH  18  20
HETATM   20  C   UNL     1      -8.917   9.686  65.391  1.00  0.00    -0.190 C  
BRANCH  20  21
HETATM   21  C   UNL     1      -7.548  10.000  66.001  1.00  0.00    -0.111 C  
BRANCH  21  22
HETATM   22  S   UNL     1      -7.595  10.806  67.648  1.00  0.00    -0.097 SA 
BRANCH  22  23
HETATM   23  S   UNL     1      -6.143  12.264  67.533  1.00  0.00    -0.152 SA 
BRANCH  23  24
HETATM   24  C   UNL     1      -6.625  13.366  68.903  1.00  0.00    -0.107 C  
BRANCH  24  25
HETATM   25  C   UNL     1      -6.259  14.820  68.597  1.00  0.00    -0.086 C  
BRANCH  25  26
HETATM   26  N   UNL     1      -6.999  15.419  67.489  1.00  0.00    -0.181 N  
HETATM   27  H   UNL     1      -7.370  14.800  66.767  1.00  0.00     0.000 HD 
HETATM   28  C   UNL     1      -7.224  16.774  67.365  1.00  0.00    -0.160 C  
HETATM   29  O   UNL     1      -6.779  17.613  68.141  1.00  0.00    -0.194 OA 
BRANCH  28  30
HETATM   30  C   UNL     1      -8.110  17.158  66.202  1.00  0.00    -0.283 C  
BRANCH  30  31
HETATM   31  C   UNL     1      -9.521  17.454  66.701  1.00  0.00    -0.274 C  
BRANCH  31  32
HETATM   32  N   UNL     1     -10.354  16.266  66.725  1.00  0.00    -0.292 N  
HETATM   33  H   UNL     1     -10.452  15.752  67.600  1.00  0.00     0.000 HD 
HETATM   34  C   UNL     1     -11.014  15.807  65.609  1.00  0.00    -0.243 C  
HETATM   35  O   UNL     1     -10.885  16.303  64.494  1.00  0.00    -0.668 OA 
BRANCH  34  36
HETATM   36  C   UNL     1     -11.886  14.558  65.866  1.00  0.00    -0.331 C  
HETATM   37  O   UNL     1     -12.401  14.587  67.206  1.00  0.00    -0.602 OA 
HETATM   38  H   UNL     1     -12.937  13.818  67.364  1.00  0.00     0.000 HD 
BRANCH  36  39
HETATM   39  C   UNL     1     -11.138  13.219  65.609  1.00  0.00    -0.299 C  
HETATM   40  C   UNL     1      -9.653  13.316  66.016  1.00  0.00    -0.174 C  
HETATM   41  C   UNL     1     -11.783  12.115  66.479  1.00  0.00    -0.392 C  
BRANCH  39  42
HETATM   42  C   UNL     1     -11.256  12.826  64.117  1.00  0.00    -0.387 C  
HETATM   43  O   UNL     1      -9.985  12.791  63.477  1.00  0.00    -0.673 OA 
HETATM   44  H   UNL     1     -10.057  12.550  62.561  1.00  0.00     0.000 HD 
ENDBRANCH  39  42
ENDBRANCH  36  39
ENDBRANCH  34  36
ENDBRANCH  31  32
ENDBRANCH  30  31
ENDBRANCH  28  30
ENDBRANCH  25  26
ENDBRANCH  24  25
ENDBRANCH  23  24
ENDBRANCH  22  23
ENDBRANCH  21  22
ENDBRANCH  20  21
ENDBRANCH  18  20
ENDBRANCH  15  16
ENDBRANCH  14  15
ENDBRANCH  12  14
ENDBRANCH   7  10
ENDBRANCH   2   7
TORSDOF 19
ENDMDL
MODEL      232
REMARK 921   NORMALIZED FREE ENERGY PREDICTED BY IDOCK:   -3.90 KCAL/MOL
REMARK 922        TOTAL FREE ENERGY PREDICTED BY IDOCK:  -10.41 KCAL/MOL
REMARK 923 INTER-LIGAND FREE ENERGY PREDICTED BY IDOCK:   -8.35 KCAL/MOL
REMARK 924 INTRA-LIGAND FREE ENERGY PREDICTED BY IDOCK:   -2.06 KCAL/MOL
REMARK 927      BINDING AFFINITY PREDICTED BY RF-SCORE:    0.00 PKD
ROOT
HETATM    1  C   UNL     1      -8.985   1.977  65.256  1.00  0.00    -0.126 C  
HETATM    2  C   UNL     1      -8.919   3.432  65.758  1.00  0.00    -0.143 C  
HETATM    3  C   UNL     1      -7.465   3.954  65.643  1.00  0.00    -0.081 C  
ENDROOT
BRANCH   2   4
HETATM    4  C   UNL     1      -9.781   4.321  64.837  1.00  0.00    -0.176 C  
HETATM    5  O   UNL     1     -10.945   3.629  64.390  1.00  0.00    -0.540 OA 
HETATM    6  H   UNL     1     -11.475   4.177  63.823  1.00  0.00     0.000 HD 
ENDBRANCH   2   4
BRANCH   2   7
HETATM    7  C   UNL     1      -9.425   3.549  67.229  1.00  0.00    -0.187 C  
HETATM    8  O   UNL     1      -9.540   2.274  67.883  1.00  0.00    -0.352 OA 
HETATM    9  H   UNL     1      -9.848   2.345  68.779  1.00  0.00     0.000 HD 
BRANCH   7  10
HETATM   10  C   UNL     1      -8.577   4.463  68.141  1.00  0.00    -0.095 C  
HETATM   11  O   UNL     1      -8.518   5.685  68.044  1.00  0.00    -0.103 OA 
HETATM   12  N   UNL     1      -7.932   3.776  69.145  1.00  0.00    -0.055 N  
HETATM   13  H   UNL     1      -7.952   2.755  69.150  1.00  0.00     0.000 HD 
BRANCH  12  14
HETATM   14  C   UNL     1      -7.226   4.481  70.191  1.00  0.00    -0.049 C  
BRANCH  14  15
HETATM   15  C   UNL     1      -7.696   4.107  71.593  1.00  0.00    -0.070 C  
BRANCH  15  16
HETATM   16  C   UNL     1      -9.182   4.370  71.690  1.00  0.00    -0.135 C  
HETATM   17  O   UNL     1     -10.008   3.474  71.548  1.00  0.00    -0.172 OA 
HETATM   18  N   UNL     1      -9.508   5.676  71.977  1.00  0.00    -0.150 N  
HETATM   19  H   UNL     1      -8.739   6.329  72.124  1.00  0.00     0.000 HD 
BRANCH  18  20
HETATM   20  C   UNL     1     -10.870   6.204  72.087  1.00  0.00    -0.247 C  
BRANCH  20  21
HETATM   21  C   UNL     1     -11.582   6.578  70.784  1.00  0.00    -0.377 C  
BRANCH  21  22
HETATM   22  S   UNL     1     -10.730   7.844  69.767  1.00  0.00    -0.202 SA 
BRANCH  22  23
HETATM   23  S   UNL     1     -10.723   9.523  70.961  1.00  0.00    -0.330 SA 
BRANCH  23  24
HETATM   24  C   UNL     1     -12.404  10.173  70.685  1.00  0.00    -0.293 C  
BRANCH  24  25
HETATM   25  C   UNL     1     -12.439  11.695  70.835  1.00  0.00    -0.341 C  
BRANCH  25  26
HETATM   26  N   UNL     1     -11.632  12.427  69.862  1.00  0.00    -0.499 N  
HETATM   27  H   UNL     1     -10.876  11.929  69.393  1.00  0.00     0.000 HD 
HETATM   28  C   UNL     1     -11.836  13.753  69.544  1.00  0.00    -0.339 C  
HETATM   29  O   UNL     1     -12.678  14.462  70.086  1.00  0.00    -0.334 OA 
BRANCH  28  30
HETATM   30  C   UNL     1     -10.957  14.272  68.430  1.00  0.00    -0.267 C  
BRANCH  30  31
HETATM   31  C   UNL     1     -11.507  13.816  67.082  1.00  0.00    -0.340 C  
BRANCH  31  32
HETATM   32  N   UNL     1     -10.582  12.946  66.380  1.00  0.00    -0.269 N  
HETATM   33  H   UNL     1      -9.885  13.365  65.764  1.00  0.00     0.000 HD 
HETATM   34  C   UNL     1     -10.612  11.578  66.514  1.00  0.00    -0.258 C  
HETATM   35  O   UNL     1     -11.468  10.979  67.157  1.00  0.00    -0.447 OA 
BRANCH  34  36
HETATM   36  C   UNL     1      -9.507  10.846  65.719  1.00  0.00    -0.211 C  
HETATM   37  O   UNL     1     -10.026   9.625  65.168  1.00  0.00    -0.416 OA 
HETATM   38  H   UNL     1      -9.346   9.176  64.680  1.00  0.00     0.000 HD 
BRANCH  36  39
HETATM   39  C   UNL     1      -8.232  10.555  66.558  1.00  0.00    -0.133 C  
HETATM   40  C   UNL     1      -7.839  11.768  67.428  1.00  0.00    -0.155 C  
HETATM   41  C   UNL     1      -8.525   9.377  67.517  1.00  0.00    -0.122 C  
BRANCH  39  42
HETATM   42  C   UNL     1      -7.060  10.170  65.623  1.00  0.00    -0.133 C  
HETATM   43  O   UNL     1      -7.419  10.289  64.250  1.00  0.00    -0.202 OA 
HETATM   44  H   UNL     1      -6.700  10.052  63.675  1.00  0.00     0.000 HD 
ENDBRANCH  39  42
ENDBRANCH  36  39
ENDBRANCH  34  36
ENDBRANCH  31  32
ENDBRANCH  30  31
ENDBRANCH  28  30
ENDBRANCH  25  26
ENDBRANCH  24  25
ENDBRANCH  23  24
ENDBRANCH  22  23
ENDBRANCH  21  22
ENDBRANCH  20  21
ENDBRANCH  18  20
ENDBRANCH  15  16
ENDBRANCH  14  15
ENDBRANCH  12  14
ENDBRANCH   7  10
ENDBRANCH   2   7
TORSDOF 19
ENDMDL
MODEL      233
REMARK 921   NORMALIZED FREE ENERGY PREDICTED BY IDOCK:   -3.89 KCAL/MOL
REMARK 922        TOTAL FREE ENERGY PREDICTED BY IDOCK:  -10.40 KCAL/MOL
REMARK 923 INTER-LIGAND FREE ENERGY PREDICTED BY IDOCK:   -7.85 KCAL/MOL
REMARK 924 INTRA-LIGAND FREE ENERGY PREDICTED BY IDOCK:   -2.54 KCAL/MOL
REMARK 927      BINDING AFFINITY PREDICTED BY RF-SCORE:    0.00 PKD
ROOT
HETATM    1  C   UNL     1      -8.981   8.273  72.152  1.00  0.00    -0.274 C  
HETATM    2  C   UNL     1      -7.566   7.974  72.681  1.00  0.00    -0.149 C  
HETATM    3  C   UNL     1      -7.540   8.142  74.220  1.00  0.00    -0.262 C  
ENDROOT
BRANCH   2   4
HETATM    4  C   UNL     1      -7.223   6.497  72.392  1.00  0.00    -0.082 C  
HETATM    5  O   UNL     1      -7.887   6.029  71.221  1.00  0.00    -0.107 OA 
HETATM    6  H   UNL     1      -7.676   5.120  71.044  1.00  0.00     0.000 HD 
ENDBRANCH   2   4
BRANCH   2   7
HETATM    7  C   UNL     1      -6.502   8.901  72.014  1.00  0.00    -0.024 C  
HETATM    8  O   UNL     1      -5.158   8.415  72.174  1.00  0.00    -0.034 OA 
HETATM    9  H   UNL     1      -4.511   8.979  71.768  1.00  0.00     0.000 HD 
BRANCH   7  10
HETATM   10  C   UNL     1      -6.721   9.169  70.508  1.00  0.00    -0.069 C  
HETATM   11  O   UNL     1      -6.709   8.305  69.636  1.00  0.00    -0.037 OA 
HETATM   12  N   UNL     1      -7.010  10.486  70.230  1.00  0.00    -0.227 N  
HETATM   13  H   UNL     1      -6.944  11.184  70.972  1.00  0.00     0.000 HD 
BRANCH  12  14
HETATM   14  C   UNL     1      -7.407  10.893  68.901  1.00  0.00    -0.111 C  
BRANCH  14  15
HETATM   15  C   UNL     1      -6.353  11.735  68.189  1.00  0.00    -0.051 C  
BRANCH  15  16
HETATM   16  C   UNL     1      -6.702  13.196  68.364  1.00  0.00    -0.095 C  
HETATM   17  O   UNL     1      -6.565  13.770  69.440  1.00  0.00    -0.109 OA 
HETATM   18  N   UNL     1      -7.153  13.811  67.218  1.00  0.00    -0.316 N  
HETATM   19  H   UNL     1      -7.182  13.252  66.367  1.00  0.00     0.000 HD 
BRANCH  18  20
HETATM   20  C   UNL     1      -7.593  15.205  67.124  1.00  0.00    -0.168 C  
BRANCH  20  21
HETATM   21  C   UNL     1      -9.087  15.452  66.892  1.00  0.00    -0.242 C  
BRANCH  21  22
HETATM   22  S   UNL     1      -9.840  16.735  67.964  1.00  0.00    -0.274 SA 
BRANCH  22  23
HETATM   23  S   UNL     1     -11.546  15.839  68.693  1.00  0.00    -0.347 SA 
BRANCH  23  24
HETATM   24  C   UNL     1     -10.931  15.084  70.234  1.00  0.00    -0.209 C  
BRANCH  24  25
HETATM   25  C   UNL     1     -12.049  14.340  70.969  1.00  0.00    -0.344 C  
BRANCH  25  26
HETATM   26  N   UNL     1     -12.136  12.913  70.670  1.00  0.00    -0.508 N  
HETATM   27  H   UNL     1     -11.598  12.553  69.881  1.00  0.00     0.000 HD 
HETATM   28  C   UNL     1     -12.904  12.027  71.395  1.00  0.00    -0.288 C  
HETATM   29  O   UNL     1     -13.632  12.358  72.325  1.00  0.00    -0.504 OA 
BRANCH  28  30
HETATM   30  C   UNL     1     -12.754  10.581  70.978  1.00  0.00    -0.504 C  
BRANCH  30  31
HETATM   31  C   UNL     1     -12.140  10.506  69.583  1.00  0.00    -0.170 C  
BRANCH  31  32
HETATM   32  N   UNL     1     -11.173   9.431  69.469  1.00  0.00    -0.429 N  
HETATM   33  H   UNL     1     -10.918   8.908  70.307  1.00  0.00     0.000 HD 
HETATM   34  C   UNL     1     -10.588   9.091  68.272  1.00  0.00    -0.163 C  
HETATM   35  O   UNL     1     -10.761   9.717  67.231  1.00  0.00    -0.264 OA 
BRANCH  34  36
HETATM   36  C   UNL     1      -9.627   7.885  68.365  1.00  0.00    -0.150 C  
HETATM   37  O   UNL     1      -8.588   8.008  67.380  1.00  0.00    -0.124 OA 
HETATM   38  H   UNL     1      -7.997   7.266  67.437  1.00  0.00     0.000 HD 
BRANCH  36  39
HETATM   39  C   UNL     1     -10.341   6.512  68.219  1.00  0.00    -0.223 C  
HETATM   40  C   UNL     1     -11.260   6.224  69.424  1.00  0.00    -0.489 C  
HETATM   41  C   UNL     1     -11.234   6.547  66.957  1.00  0.00    -0.280 C  
BRANCH  39  42
HETATM   42  C   UNL     1      -9.292   5.384  68.069  1.00  0.00    -0.113 C  
HETATM   43  O   UNL     1      -8.944   5.163  66.706  1.00  0.00    -0.114 OA 
HETATM   44  H   UNL     1      -8.300   4.470  66.614  1.00  0.00     0.000 HD 
ENDBRANCH  39  42
ENDBRANCH  36  39
ENDBRANCH  34  36
ENDBRANCH  31  32
ENDBRANCH  30  31
ENDBRANCH  28  30
ENDBRANCH  25  26
ENDBRANCH  24  25
ENDBRANCH  23  24
ENDBRANCH  22  23
ENDBRANCH  21  22
ENDBRANCH  20  21
ENDBRANCH  18  20
ENDBRANCH  15  16
ENDBRANCH  14  15
ENDBRANCH  12  14
ENDBRANCH   7  10
ENDBRANCH   2   7
TORSDOF 19
ENDMDL
MODEL      234
REMARK 921   NORMALIZED FREE ENERGY PREDICTED BY IDOCK:   -3.87 KCAL/MOL
REMARK 922        TOTAL FREE ENERGY PREDICTED BY IDOCK:  -10.34 KCAL/MOL
REMARK 923 INTER-LIGAND FREE ENERGY PREDICTED BY IDOCK:   -8.83 KCAL/MOL
REMARK 924 INTRA-LIGAND FREE ENERGY PREDICTED BY IDOCK:   -1.51 KCAL/MOL
REMARK 927      BINDING AFFINITY PREDICTED BY RF-SCORE:    0.00 PKD
ROOT
HETATM    1  C   UNL     1     -11.775  15.341  68.133  1.00  0.00    -0.297 C  
HETATM    2  C   UNL     1     -10.698  15.955  69.047  1.00  0.00    -0.251 C  
HETATM    3  C   UNL     1      -9.335  15.272  68.773  1.00  0.00    -0.210 C  
ENDROOT
BRANCH   2   4
HETATM    4  C   UNL     1     -10.525  17.446  68.688  1.00  0.00    -0.355 C  
HETATM    5  O   UNL     1     -10.323  17.623  67.288  1.00  0.00    -0.334 OA 
HETATM    6  H   UNL     1     -10.216  18.541  67.068  1.00  0.00     0.000 HD 
ENDBRANCH   2   4
BRANCH   2   7
HETATM    7  C   UNL     1     -11.085  15.818  70.553  1.00  0.00    -0.365 C  
HETATM    8  O   UNL     1     -11.591  17.041  71.113  1.00  0.00    -0.236 OA 
HETATM    9  H   UNL     1     -11.826  16.957  72.029  1.00  0.00     0.000 HD 
BRANCH   7  10
HETATM   10  C   UNL     1     -12.110  14.705  70.865  1.00  0.00    -0.328 C  
HETATM   11  O   UNL     1     -13.303  14.896  71.084  1.00  0.00    -0.378 OA 
HETATM   12  N   UNL     1     -11.570  13.440  70.803  1.00  0.00    -0.362 N  
HETATM   13  H   UNL     1     -10.562  13.327  70.685  1.00  0.00     0.000 HD 
BRANCH  12  14
HETATM   14  C   UNL     1     -12.412  12.269  70.903  1.00  0.00    -0.276 C  
BRANCH  14  15
HETATM   15  C   UNL     1     -12.009  11.153  69.944  1.00  0.00    -0.439 C  
BRANCH  15  16
HETATM   16  C   UNL     1     -11.864   9.869  70.730  1.00  0.00    -0.330 C  
HETATM   17  O   UNL     1     -10.765   9.398  71.004  1.00  0.00    -0.284 OA 
HETATM   18  N   UNL     1     -13.058   9.309  71.123  1.00  0.00    -0.513 N  
HETATM   19  H   UNL     1     -13.912   9.810  70.883  1.00  0.00     0.000 HD 
BRANCH  18  20
HETATM   20  C   UNL     1     -13.200   8.050  71.859  1.00  0.00    -0.301 C  
BRANCH  20  21
HETATM   21  C   UNL     1     -12.179   6.948  71.562  1.00  0.00    -0.371 C  
BRANCH  21  22
HETATM   22  S   UNL     1     -10.962   6.634  72.897  1.00  0.00    -0.234 SA 
BRANCH  22  23
HETATM   23  S   UNL     1     -10.535   4.626  72.724  1.00  0.00    -0.206 SA 
BRANCH  23  24
HETATM   24  C   UNL     1      -9.176   4.646  71.508  1.00  0.00    -0.139 C  
BRANCH  24  25
HETATM   25  C   UNL     1      -8.631   6.062  71.313  1.00  0.00    -0.129 C  
BRANCH  25  26
HETATM   26  N   UNL     1      -8.266   6.395  69.938  1.00  0.00    -0.124 N  
HETATM   27  H   UNL     1      -8.897   6.993  69.404  1.00  0.00     0.000 HD 
HETATM   28  C   UNL     1      -7.116   5.945  69.323  1.00  0.00    -0.066 C  
HETATM   29  O   UNL     1      -6.317   5.178  69.850  1.00  0.00    -0.025 OA 
BRANCH  28  30
HETATM   30  C   UNL     1      -6.886   6.506  67.939  1.00  0.00    -0.074 C  
BRANCH  30  31
HETATM   31  C   UNL     1      -6.097   7.808  68.033  1.00  0.00    -0.045 C  
BRANCH  31  32
HETATM   32  N   UNL     1      -6.874   8.952  67.593  1.00  0.00    -0.070 N  
HETATM   33  H   UNL     1      -6.800   9.252  66.621  1.00  0.00     0.000 HD 
HETATM   34  C   UNL     1      -7.706   9.646  68.440  1.00  0.00    -0.081 C  
HETATM   35  O   UNL     1      -7.792   9.419  69.643  1.00  0.00    -0.086 OA 
BRANCH  34  36
HETATM   36  C   UNL     1      -8.478  10.796  67.756  1.00  0.00    -0.120 C  
HETATM   37  O   UNL     1      -8.998  11.696  68.747  1.00  0.00    -0.327 OA 
HETATM   38  H   UNL     1      -9.473  12.403  68.326  1.00  0.00     0.000 HD 
BRANCH  36  39
HETATM   39  C   UNL     1      -9.623  10.305  66.826  1.00  0.00    -0.214 C  
HETATM   40  C   UNL     1     -10.730  11.371  66.683  1.00  0.00    -0.316 C  
HETATM   41  C   UNL     1      -9.043  10.051  65.415  1.00  0.00    -0.235 C  
BRANCH  39  42
HETATM   42  C   UNL     1     -10.221   8.987  67.375  1.00  0.00    -0.245 C  
HETATM   43  O   UNL     1     -10.324   7.991  66.363  1.00  0.00    -0.471 OA 
HETATM   44  H   UNL     1     -10.691   7.182  66.700  1.00  0.00     0.000 HD 
ENDBRANCH  39  42
ENDBRANCH  36  39
ENDBRANCH  34  36
ENDBRANCH  31  32
ENDBRANCH  30  31
ENDBRANCH  28  30
ENDBRANCH  25  26
ENDBRANCH  24  25
ENDBRANCH  23  24
ENDBRANCH  22  23
ENDBRANCH  21  22
ENDBRANCH  20  21
ENDBRANCH  18  20
ENDBRANCH  15  16
ENDBRANCH  14  15
ENDBRANCH  12  14
ENDBRANCH   7  10
ENDBRANCH   2   7
TORSDOF 19
ENDMDL
MODEL      235
REMARK 921   NORMALIZED FREE ENERGY PREDICTED BY IDOCK:   -3.86 KCAL/MOL
REMARK 922        TOTAL FREE ENERGY PREDICTED BY IDOCK:  -10.32 KCAL/MOL
REMARK 923 INTER-LIGAND FREE ENERGY PREDICTED BY IDOCK:   -8.92 KCAL/MOL
REMARK 924 INTRA-LIGAND FREE ENERGY PREDICTED BY IDOCK:   -1.40 KCAL/MOL
REMARK 927      BINDING AFFINITY PREDICTED BY RF-SCORE:    0.00 PKD
ROOT
HETATM    1  C   UNL     1      -8.926   8.274  72.829  1.00  0.00    -0.323 C  
HETATM    2  C   UNL     1      -9.723   7.244  72.007  1.00  0.00    -0.177 C  
HETATM    3  C   UNL     1      -8.769   6.505  71.037  1.00  0.00    -0.138 C  
ENDROOT
BRANCH   2   4
HETATM    4  C   UNL     1     -10.297   6.176  72.961  1.00  0.00    -0.206 C  
HETATM    5  O   UNL     1     -11.135   6.763  73.954  1.00  0.00    -0.414 OA 
HETATM    6  H   UNL     1     -11.488   6.105  74.541  1.00  0.00     0.000 HD 
ENDBRANCH   2   4
BRANCH   2   7
HETATM    7  C   UNL     1     -10.885   7.924  71.217  1.00  0.00    -0.235 C  
HETATM    8  O   UNL     1     -11.472   9.027  71.927  1.00  0.00    -0.348 OA 
HETATM    9  H   UNL     1     -12.179   9.441  71.446  1.00  0.00     0.000 HD 
BRANCH   7  10
HETATM   10  C   UNL     1     -10.506   8.430  69.807  1.00  0.00    -0.220 C  
HETATM   11  O   UNL     1      -9.734   9.357  69.581  1.00  0.00    -0.171 OA 
HETATM   12  N   UNL     1     -11.071   7.683  68.796  1.00  0.00    -0.412 N  
HETATM   13  H   UNL     1     -11.759   6.965  69.024  1.00  0.00     0.000 HD 
BRANCH  12  14
HETATM   14  C   UNL     1     -10.700   7.905  67.416  1.00  0.00    -0.208 C  
BRANCH  14  15
HETATM   15  C   UNL     1     -10.089   6.675  66.752  1.00  0.00    -0.240 C  
BRANCH  15  16
HETATM   16  C   UNL     1      -8.706   7.032  66.256  1.00  0.00    -0.146 C  
HETATM   17  O   UNL     1      -7.825   7.417  67.018  1.00  0.00    -0.111 OA 
HETATM   18  N   UNL     1      -8.528   6.859  64.902  1.00  0.00    -0.338 N  
HETATM   19  H   UNL     1      -9.315   6.487  64.370  1.00  0.00     0.000 HD 
BRANCH  18  20
HETATM   20  C   UNL     1      -7.301   7.166  64.164  1.00  0.00    -0.083 C  
BRANCH  20  21
HETATM   21  C   UNL     1      -7.091   8.620  63.733  1.00  0.00    -0.092 C  
BRANCH  21  22
HETATM   22  S   UNL     1      -8.625   9.551  63.355  1.00  0.00    -0.213 SA 
BRANCH  22  23
HETATM   23  S   UNL     1      -8.907  10.744  65.010  1.00  0.00    -0.142 SA 
BRANCH  23  24
HETATM   24  C   UNL     1     -10.705  11.042  64.943  1.00  0.00    -0.208 C  
BRANCH  24  25
HETATM   25  C   UNL     1     -11.176  11.856  66.150  1.00  0.00    -0.333 C  
BRANCH  25  26
HETATM   26  N   UNL     1     -10.664  13.223  66.206  1.00  0.00    -0.284 N  
HETATM   27  H   UNL     1      -9.715  13.396  65.875  1.00  0.00     0.000 HD 
HETATM   28  C   UNL     1     -11.394  14.292  66.683  1.00  0.00    -0.349 C  
HETATM   29  O   UNL     1     -12.521  14.191  67.156  1.00  0.00    -0.284 OA 
BRANCH  28  30
HETATM   30  C   UNL     1     -10.708  15.632  66.541  1.00  0.00    -0.293 C  
BRANCH  30  31
HETATM   31  C   UNL     1      -9.460  15.485  65.675  1.00  0.00    -0.236 C  
BRANCH  31  32
HETATM   32  N   UNL     1      -8.256  15.890  66.377  1.00  0.00    -0.284 N  
HETATM   33  H   UNL     1      -7.761  15.199  66.940  1.00  0.00     0.000 HD 
HETATM   34  C   UNL     1      -7.760  17.170  66.310  1.00  0.00    -0.315 C  
HETATM   35  O   UNL     1      -8.334  18.090  65.734  1.00  0.00    -0.508 OA 
BRANCH  34  36
HETATM   36  C   UNL     1      -6.442  17.373  67.090  1.00  0.00    -0.160 C  
HETATM   37  O   UNL     1      -5.568  16.254  66.875  1.00  0.00    -0.347 OA 
HETATM   38  H   UNL     1      -4.757  16.379  67.355  1.00  0.00     0.000 HD 
BRANCH  36  39
HETATM   39  C   UNL     1      -6.653  17.602  68.612  1.00  0.00    -0.209 C  
HETATM   40  C   UNL     1      -8.127  17.923  68.935  1.00  0.00    -0.161 C  
HETATM   41  C   UNL     1      -6.289  16.302  69.366  1.00  0.00    -0.184 C  
BRANCH  39  42
HETATM   42  C   UNL     1      -5.739  18.750  69.106  1.00  0.00    -0.216 C  
HETATM   43  O   UNL     1      -6.465  19.721  69.852  1.00  0.00    -0.333 OA 
HETATM   44  H   UNL     1      -5.904  20.425  70.155  1.00  0.00     0.000 HD 
ENDBRANCH  39  42
ENDBRANCH  36  39
ENDBRANCH  34  36
ENDBRANCH  31  32
ENDBRANCH  30  31
ENDBRANCH  28  30
ENDBRANCH  25  26
ENDBRANCH  24  25
ENDBRANCH  23  24
ENDBRANCH  22  23
ENDBRANCH  21  22
ENDBRANCH  20  21
ENDBRANCH  18  20
ENDBRANCH  15  16
ENDBRANCH  14  15
ENDBRANCH  12  14
ENDBRANCH   7  10
ENDBRANCH   2   7
TORSDOF 19
ENDMDL
MODEL      236
REMARK 921   NORMALIZED FREE ENERGY PREDICTED BY IDOCK:   -3.84 KCAL/MOL
REMARK 922        TOTAL FREE ENERGY PREDICTED BY IDOCK:  -10.29 KCAL/MOL
REMARK 923 INTER-LIGAND FREE ENERGY PREDICTED BY IDOCK:   -8.31 KCAL/MOL
REMARK 924 INTRA-LIGAND FREE ENERGY PREDICTED BY IDOCK:   -1.98 KCAL/MOL
REMARK 927      BINDING AFFINITY PREDICTED BY RF-SCORE:    0.00 PKD
ROOT
HETATM    1  C   UNL     1     -10.539   9.535  71.499  1.00  0.00    -0.219 C  
HETATM    2  C   UNL     1     -11.773   9.544  70.578  1.00  0.00    -0.285 C  
HETATM    3  C   UNL     1     -12.968  10.194  71.319  1.00  0.00    -0.510 C  
ENDROOT
BRANCH   2   4
HETATM    4  C   UNL     1     -11.479  10.433  69.351  1.00  0.00    -0.227 C  
HETATM    5  O   UNL     1     -11.890   9.800  68.142  1.00  0.00    -0.237 OA 
HETATM    6  H   UNL     1     -11.708  10.347  67.386  1.00  0.00     0.000 HD 
ENDBRANCH   2   4
BRANCH   2   7
HETATM    7  C   UNL     1     -12.142   8.102  70.108  1.00  0.00     0.565 C  
HETATM    8  O   UNL     1     -11.073   7.456  69.397  1.00  0.00    -0.415 OA 
HETATM    9  H   UNL     1     -11.297   6.579  69.111  1.00  0.00     0.000 HD 
BRANCH   7  10
HETATM   10  C   UNL     1     -12.596   7.145  71.233  1.00  0.00    -0.380 C  
HETATM   11  O   UNL     1     -13.764   6.853  71.472  1.00  0.00    -0.287 OA 
HETATM   12  N   UNL     1     -11.544   6.577  71.915  1.00  0.00    -0.297 N  
HETATM   13  H   UNL     1     -10.592   6.897  71.732  1.00  0.00     0.000 HD 
BRANCH  12  14
HETATM   14  C   UNL     1     -11.770   5.533  72.890  1.00  0.00    -0.151 C  
BRANCH  14  15
HETATM   15  C   UNL     1     -10.770   4.386  72.787  1.00  0.00    -0.235 C  
BRANCH  15  16
HETATM   16  C   UNL     1      -9.450   4.938  72.297  1.00  0.00    -0.139 C  
HETATM   17  O   UNL     1      -9.292   5.302  71.136  1.00  0.00    -0.144 OA 
HETATM   18  N   UNL     1      -8.475   5.016  73.265  1.00  0.00    -0.110 N  
HETATM   19  H   UNL     1      -8.730   4.731  74.210  1.00  0.00     0.000 HD 
BRANCH  18  20
HETATM   20  C   UNL     1      -7.101   5.476  73.047  1.00  0.00    -0.085 C  
BRANCH  20  21
HETATM   21  C   UNL     1      -6.857   6.988  73.081  1.00  0.00    -0.069 C  
BRANCH  21  22
HETATM   22  S   UNL     1      -5.755   7.629  71.762  1.00  0.00    -0.035 SA 
BRANCH  22  23
HETATM   23  S   UNL     1      -7.042   8.540  70.435  1.00  0.00    -0.042 SA 
BRANCH  23  24
HETATM   24  C   UNL     1      -6.112   8.400  68.873  1.00  0.00    -0.044 C  
BRANCH  24  25
HETATM   25  C   UNL     1      -5.683   9.777  68.360  1.00  0.00    -0.043 C  
BRANCH  25  26
HETATM   26  N   UNL     1      -6.597  10.867  68.692  1.00  0.00    -0.055 N  
HETATM   27  H   UNL     1      -6.711  11.118  69.674  1.00  0.00     0.000 HD 
HETATM   28  C   UNL     1      -7.314  11.575  67.750  1.00  0.00    -0.096 C  
HETATM   29  O   UNL     1      -7.297  11.324  66.550  1.00  0.00    -0.143 OA 
BRANCH  28  30
HETATM   30  C   UNL     1      -8.108  12.734  68.309  1.00  0.00    -0.154 C  
BRANCH  30  31
HETATM   31  C   UNL     1      -7.829  13.993  67.494  1.00  0.00    -0.184 C  
BRANCH  31  32
HETATM   32  N   UNL     1      -8.603  14.033  66.267  1.00  0.00    -0.244 N  
HETATM   33  H   UNL     1      -8.163  13.726  65.399  1.00  0.00     0.000 HD 
HETATM   34  C   UNL     1      -9.906  14.470  66.232  1.00  0.00    -0.304 C  
HETATM   35  O   UNL     1     -10.489  14.943  67.203  1.00  0.00    -0.264 OA 
BRANCH  34  36
HETATM   36  C   UNL     1     -10.559  14.383  64.834  1.00  0.00    -0.434 C  
HETATM   37  O   UNL     1     -11.148  15.646  64.488  1.00  0.00    -0.667 OA 
HETATM   38  H   UNL     1     -11.549  15.592  63.628  1.00  0.00     0.000 HD 
BRANCH  36  39
HETATM   39  C   UNL     1     -11.616  13.249  64.716  1.00  0.00    -0.364 C  
HETATM   40  C   UNL     1     -11.113  11.939  65.357  1.00  0.00    -0.360 C  
HETATM   41  C   UNL     1     -12.891  13.676  65.481  1.00  0.00    -0.443 C  
BRANCH  39  42
HETATM   42  C   UNL     1     -11.972  13.012  63.228  1.00  0.00    -0.421 C  
HETATM   43  O   UNL     1     -11.758  11.658  62.843  1.00  0.00    -0.791 OA 
HETATM   44  H   UNL     1     -11.976  11.512  61.930  1.00  0.00     0.000 HD 
ENDBRANCH  39  42
ENDBRANCH  36  39
ENDBRANCH  34  36
ENDBRANCH  31  32
ENDBRANCH  30  31
ENDBRANCH  28  30
ENDBRANCH  25  26
ENDBRANCH  24  25
ENDBRANCH  23  24
ENDBRANCH  22  23
ENDBRANCH  21  22
ENDBRANCH  20  21
ENDBRANCH  18  20
ENDBRANCH  15  16
ENDBRANCH  14  15
ENDBRANCH  12  14
ENDBRANCH   7  10
ENDBRANCH   2   7
TORSDOF 19
ENDMDL
MODEL      237
REMARK 921   NORMALIZED FREE ENERGY PREDICTED BY IDOCK:   -3.83 KCAL/MOL
REMARK 922        TOTAL FREE ENERGY PREDICTED BY IDOCK:  -10.26 KCAL/MOL
REMARK 923 INTER-LIGAND FREE ENERGY PREDICTED BY IDOCK:   -8.77 KCAL/MOL
REMARK 924 INTRA-LIGAND FREE ENERGY PREDICTED BY IDOCK:   -1.49 KCAL/MOL
REMARK 927      BINDING AFFINITY PREDICTED BY RF-SCORE:    0.00 PKD
ROOT
HETATM    1  C   UNL     1     -10.911  17.625  68.055  1.00  0.00    -0.240 C  
HETATM    2  C   UNL     1      -9.893  17.986  66.958  1.00  0.00    -0.318 C  
HETATM    3  C   UNL     1     -10.411  19.202  66.150  1.00  0.00    -0.561 C  
ENDROOT
BRANCH   2   4
HETATM    4  C   UNL     1      -8.572  18.428  67.622  1.00  0.00    -0.259 C  
HETATM    5  O   UNL     1      -8.137  17.479  68.593  1.00  0.00    -0.267 OA 
HETATM    6  H   UNL     1      -7.324  17.751  69.003  1.00  0.00     0.000 HD 
ENDBRANCH   2   4
BRANCH   2   7
HETATM    7  C   UNL     1      -9.626  16.775  66.009  1.00  0.00    -0.234 C  
HETATM    8  O   UNL     1      -9.088  15.634  66.699  1.00  0.00    -0.235 OA 
HETATM    9  H   UNL     1      -8.926  14.898  66.123  1.00  0.00     0.000 HD 
BRANCH   7  10
HETATM   10  C   UNL     1     -10.854  16.294  65.204  1.00  0.00    -0.318 C  
HETATM   11  O   UNL     1     -11.351  16.899  64.260  1.00  0.00    -1.202 OA 
HETATM   12  N   UNL     1     -11.310  15.057  65.604  1.00  0.00    -0.330 N  
HETATM   13  H   UNL     1     -10.913  14.618  66.435  1.00  0.00     0.000 HD 
BRANCH  12  14
HETATM   14  C   UNL     1     -12.344  14.373  64.860  1.00  0.00    -0.405 C  
BRANCH  14  15
HETATM   15  C   UNL     1     -12.422  12.882  65.169  1.00  0.00    -0.561 C  
BRANCH  15  16
HETATM   16  C   UNL     1     -11.110  12.239  64.778  1.00  0.00    -0.311 C  
HETATM   17  O   UNL     1     -10.340  12.771  63.984  1.00  0.00    -0.415 OA 
HETATM   18  N   UNL     1     -10.858  11.040  65.405  1.00  0.00    -0.158 N  
HETATM   19  H   UNL     1     -11.545  10.713  66.084  1.00  0.00     0.000 HD 
BRANCH  18  20
HETATM   20  C   UNL     1      -9.683  10.196  65.177  1.00  0.00    -0.304 C  
BRANCH  20  21
HETATM   21  C   UNL     1      -9.349   9.157  66.251  1.00  0.00    -0.216 C  
BRANCH  21  22
HETATM   22  S   UNL     1     -10.444   9.180  67.723  1.00  0.00    -0.231 SA 
BRANCH  22  23
HETATM   23  S   UNL     1      -9.140   9.308  69.314  1.00  0.00    -0.158 SA 
BRANCH  23  24
HETATM   24  C   UNL     1     -10.272   9.107  70.729  1.00  0.00    -0.260 C  
BRANCH  24  25
HETATM   25  C   UNL     1      -9.548   8.500  71.933  1.00  0.00    -0.283 C  
BRANCH  25  26
HETATM   26  N   UNL     1      -9.538   7.040  71.971  1.00  0.00    -0.140 N  
HETATM   27  H   UNL     1     -10.360   6.562  72.342  1.00  0.00     0.000 HD 
HETATM   28  C   UNL     1      -8.479   6.272  71.535  1.00  0.00    -0.130 C  
HETATM   29  O   UNL     1      -7.422   6.739  71.124  1.00  0.00    -0.084 OA 
BRANCH  28  30
HETATM   30  C   UNL     1      -8.732   4.782  71.562  1.00  0.00    -0.135 C  
BRANCH  30  31
HETATM   31  C   UNL     1      -9.416   4.349  70.269  1.00  0.00    -0.171 C  
BRANCH  31  32
HETATM   32  N   UNL     1      -8.528   4.438  69.125  1.00  0.00    -0.078 N  
HETATM   33  H   UNL     1      -7.537   4.236  69.255  1.00  0.00     0.000 HD 
HETATM   34  C   UNL     1      -8.974   4.784  67.871  1.00  0.00    -0.111 C  
HETATM   35  O   UNL     1     -10.128   5.132  67.634  1.00  0.00    -0.168 OA 
BRANCH  34  36
HETATM   36  C   UNL     1      -7.873   4.768  66.787  1.00  0.00    -0.099 C  
HETATM   37  O   UNL     1      -7.758   6.067  66.185  1.00  0.00    -0.098 OA 
HETATM   38  H   UNL     1      -7.081   6.057  65.519  1.00  0.00     0.000 HD 
BRANCH  36  39
HETATM   39  C   UNL     1      -8.100   3.689  65.691  1.00  0.00    -0.093 C  
HETATM   40  C   UNL     1      -9.312   2.794  66.023  1.00  0.00    -0.026 C  
HETATM   41  C   UNL     1      -8.404   4.398  64.351  1.00  0.00    -0.109 C  
BRANCH  39  42
HETATM   42  C   UNL     1      -6.827   2.823  65.532  1.00  0.00    -0.048 C  
HETATM   43  O   UNL     1      -5.642   3.575  65.770  1.00  0.00    -0.016 OA 
HETATM   44  H   UNL     1      -4.861   3.043  65.672  1.00  0.00     0.000 HD 
ENDBRANCH  39  42
ENDBRANCH  36  39
ENDBRANCH  34  36
ENDBRANCH  31  32
ENDBRANCH  30  31
ENDBRANCH  28  30
ENDBRANCH  25  26
ENDBRANCH  24  25
ENDBRANCH  23  24
ENDBRANCH  22  23
ENDBRANCH  21  22
ENDBRANCH  20  21
ENDBRANCH  18  20
ENDBRANCH  15  16
ENDBRANCH  14  15
ENDBRANCH  12  14
ENDBRANCH   7  10
ENDBRANCH   2   7
TORSDOF 19
ENDMDL
MODEL      238
REMARK 921   NORMALIZED FREE ENERGY PREDICTED BY IDOCK:   -3.81 KCAL/MOL
REMARK 922        TOTAL FREE ENERGY PREDICTED BY IDOCK:  -10.22 KCAL/MOL
REMARK 923 INTER-LIGAND FREE ENERGY PREDICTED BY IDOCK:   -9.90 KCAL/MOL
REMARK 924 INTRA-LIGAND FREE ENERGY PREDICTED BY IDOCK:   -0.32 KCAL/MOL
REMARK 927      BINDING AFFINITY PREDICTED BY RF-SCORE:    0.00 PKD
ROOT
HETATM    1  C   UNL     1     -11.837  14.539  67.291  1.00  0.00    -0.419 C  
HETATM    2  C   UNL     1     -11.092  15.205  66.119  1.00  0.00    -0.311 C  
HETATM    3  C   UNL     1     -10.517  16.568  66.578  1.00  0.00    -0.270 C  
ENDROOT
BRANCH   2   4
HETATM    4  C   UNL     1      -9.885  14.327  65.726  1.00  0.00    -0.287 C  
HETATM    5  O   UNL     1      -8.681  14.802  66.324  1.00  0.00    -0.464 OA 
HETATM    6  H   UNL     1      -7.938  14.262  66.082  1.00  0.00     0.000 HD 
ENDBRANCH   2   4
BRANCH   2   7
HETATM    7  C   UNL     1     -12.028  15.395  64.885  1.00  0.00    -0.017 C  
HETATM    8  O   UNL     1     -11.545  16.390  63.966  1.00  0.00    -1.447 OA 
HETATM    9  H   UNL     1     -12.114  16.505  63.215  1.00  0.00     0.000 HD 
BRANCH   7  10
HETATM   10  C   UNL     1     -12.308  14.111  64.073  1.00  0.00    -0.275 C  
HETATM   11  O   UNL     1     -12.565  14.085  62.873  1.00  0.00    -0.523 OA 
HETATM   12  N   UNL     1     -12.169  12.961  64.818  1.00  0.00    -0.418 N  
HETATM   13  H   UNL     1     -12.021  13.028  65.825  1.00  0.00     0.000 HD 
BRANCH  12  14
HETATM   14  C   UNL     1     -12.229  11.660  64.190  1.00  0.00    -0.060 C  
BRANCH  14  15
HETATM   15  C   UNL     1     -10.900  11.220  63.587  1.00  0.00    -0.410 C  
BRANCH  15  16
HETATM   16  C   UNL     1     -10.087  10.530  64.659  1.00  0.00    -0.338 C  
HETATM   17  O   UNL     1     -10.087  10.920  65.823  1.00  0.00    -0.233 OA 
HETATM   18  N   UNL     1      -9.385   9.431  64.219  1.00  0.00    -0.415 N  
HETATM   19  H   UNL     1      -9.495   9.166  63.240  1.00  0.00     0.000 HD 
BRANCH  18  20
HETATM   20  C   UNL     1      -8.493   8.611  65.042  1.00  0.00    -0.173 C  
BRANCH  20  21
HETATM   21  C   UNL     1      -7.060   9.116  65.235  1.00  0.00    -0.088 C  
BRANCH  21  22
HETATM   22  S   UNL     1      -6.127   8.310  66.593  1.00  0.00    -0.054 SA 
BRANCH  22  23
HETATM   23  S   UNL     1      -6.203   9.677  68.133  1.00  0.00    -0.056 SA 
BRANCH  23  24
HETATM   24  C   UNL     1      -7.990   9.720  68.494  1.00  0.00    -0.089 C  
BRANCH  24  25
HETATM   25  C   UNL     1      -8.247   9.837  69.998  1.00  0.00    -0.191 C  
BRANCH  25  26
HETATM   26  N   UNL     1      -9.439   9.140  70.473  1.00  0.00    -0.222 N  
HETATM   27  H   UNL     1     -10.194   8.969  69.809  1.00  0.00     0.000 HD 
HETATM   28  C   UNL     1      -9.599   8.699  71.770  1.00  0.00    -0.290 C  
HETATM   29  O   UNL     1      -8.782   8.897  72.663  1.00  0.00    -0.373 OA 
BRANCH  28  30
HETATM   30  C   UNL     1     -10.861   7.902  72.010  1.00  0.00    -0.312 C  
BRANCH  30  31
HETATM   31  C   UNL     1     -11.407   7.386  70.682  1.00  0.00    -0.281 C  
BRANCH  31  32
HETATM   32  N   UNL     1     -10.899   6.066  70.358  1.00  0.00    -0.295 N  
HETATM   33  H   UNL     1     -11.242   5.264  70.886  1.00  0.00     0.000 HD 
HETATM   34  C   UNL     1      -9.972   5.858  69.363  1.00  0.00    -0.178 C  
HETATM   35  O   UNL     1      -9.434   6.766  68.737  1.00  0.00    -0.132 OA 
BRANCH  34  36
HETATM   36  C   UNL     1      -9.606   4.372  69.149  1.00  0.00    -0.181 C  
HETATM   37  O   UNL     1      -8.595   3.975  70.089  1.00  0.00    -0.063 OA 
HETATM   38  H   UNL     1      -8.370   3.062  69.957  1.00  0.00     0.000 HD 
BRANCH  36  39
HETATM   39  C   UNL     1      -9.145   4.052  67.700  1.00  0.00    -0.172 C  
HETATM   40  C   UNL     1     -10.143   4.595  66.657  1.00  0.00    -0.263 C  
HETATM   41  C   UNL     1      -7.787   4.748  67.445  1.00  0.00    -0.094 C  
BRANCH  39  42
HETATM   42  C   UNL     1      -8.974   2.523  67.526  1.00  0.00    -0.161 C  
HETATM   43  O   UNL     1      -9.619   2.049  66.349  1.00  0.00    -0.349 OA 
HETATM   44  H   UNL     1      -9.514   1.111  66.242  1.00  0.00     0.000 HD 
ENDBRANCH  39  42
ENDBRANCH  36  39
ENDBRANCH  34  36
ENDBRANCH  31  32
ENDBRANCH  30  31
ENDBRANCH  28  30
ENDBRANCH  25  26
ENDBRANCH  24  25
ENDBRANCH  23  24
ENDBRANCH  22  23
ENDBRANCH  21  22
ENDBRANCH  20  21
ENDBRANCH  18  20
ENDBRANCH  15  16
ENDBRANCH  14  15
ENDBRANCH  12  14
ENDBRANCH   7  10
ENDBRANCH   2   7
TORSDOF 19
ENDMDL
MODEL      239
REMARK 921   NORMALIZED FREE ENERGY PREDICTED BY IDOCK:   -3.81 KCAL/MOL
REMARK 922        TOTAL FREE ENERGY PREDICTED BY IDOCK:  -10.22 KCAL/MOL
REMARK 923 INTER-LIGAND FREE ENERGY PREDICTED BY IDOCK:   -9.10 KCAL/MOL
REMARK 924 INTRA-LIGAND FREE ENERGY PREDICTED BY IDOCK:   -1.11 KCAL/MOL
REMARK 927      BINDING AFFINITY PREDICTED BY RF-SCORE:    0.00 PKD
ROOT
HETATM    1  C   UNL     1     -10.890   4.011  64.271  1.00  0.00    -0.149 C  
HETATM    2  C   UNL     1      -9.585   4.287  65.041  1.00  0.00    -0.179 C  
HETATM    3  C   UNL     1      -9.147   3.007  65.797  1.00  0.00    -0.145 C  
ENDROOT
BRANCH   2   4
HETATM    4  C   UNL     1      -8.463   4.609  64.031  1.00  0.00    -0.125 C  
HETATM    5  O   UNL     1      -8.606   5.923  63.499  1.00  0.00    -0.329 OA 
HETATM    6  H   UNL     1      -7.915   6.121  62.877  1.00  0.00     0.000 HD 
ENDBRANCH   2   4
BRANCH   2   7
HETATM    7  C   UNL     1      -9.754   5.477  66.037  1.00  0.00    -0.081 C  
HETATM    8  O   UNL     1     -11.100   5.610  66.524  1.00  0.00    -0.647 OA 
HETATM    9  H   UNL     1     -11.203   6.334  67.130  1.00  0.00     0.000 HD 
BRANCH   7  10
HETATM   10  C   UNL     1      -8.818   5.438  67.266  1.00  0.00    -0.105 C  
HETATM   11  O   UNL     1      -7.602   5.595  67.223  1.00  0.00    -0.087 OA 
HETATM   12  N   UNL     1      -9.495   5.278  68.455  1.00  0.00    -0.119 N  
HETATM   13  H   UNL     1     -10.496   5.083  68.442  1.00  0.00     0.000 HD 
BRANCH  12  14
HETATM   14  C   UNL     1      -8.804   5.382  69.720  1.00  0.00    -0.110 C  
BRANCH  14  15
HETATM   15  C   UNL     1      -9.568   6.199  70.758  1.00  0.00    -0.191 C  
BRANCH  15  16
HETATM   16  C   UNL     1     -10.459   7.184  70.036  1.00  0.00    -0.221 C  
HETATM   17  O   UNL     1     -11.627   6.923  69.766  1.00  0.00    -0.240 OA 
HETATM   18  N   UNL     1      -9.855   8.386  69.745  1.00  0.00    -0.184 N  
HETATM   19  H   UNL     1      -8.893   8.515  70.059  1.00  0.00     0.000 HD 
BRANCH  18  20
HETATM   20  C   UNL     1     -10.481   9.494  69.020  1.00  0.00    -0.213 C  
BRANCH  20  21
HETATM   21  C   UNL     1     -10.757   9.285  67.528  1.00  0.00    -0.203 C  
BRANCH  21  22
HETATM   22  S   UNL     1      -9.506  10.005  66.396  1.00  0.00    -0.197 SA 
BRANCH  22  23
HETATM   23  S   UNL     1      -8.015  10.669  67.654  1.00  0.00    -0.107 SA 
BRANCH  23  24
HETATM   24  C   UNL     1      -8.753  12.199  68.316  1.00  0.00    -0.178 C  
BRANCH  24  25
HETATM   25  C   UNL     1      -8.450  13.395  67.410  1.00  0.00    -0.196 C  
BRANCH  25  26
HETATM   26  N   UNL     1      -9.462  13.666  66.393  1.00  0.00    -0.387 N  
HETATM   27  H   UNL     1      -9.196  13.578  65.412  1.00  0.00     0.000 HD 
HETATM   28  C   UNL     1     -10.759  14.035  66.686  1.00  0.00    -0.281 C  
HETATM   29  O   UNL     1     -11.173  14.225  67.824  1.00  0.00    -0.271 OA 
BRANCH  28  30
HETATM   30  C   UNL     1     -11.663  14.154  65.481  1.00  0.00    -0.344 C  
BRANCH  30  31
HETATM   31  C   UNL     1     -11.162  15.266  64.565  1.00  0.00    -0.280 C  
BRANCH  31  32
HETATM   32  N   UNL     1     -11.256  16.573  65.189  1.00  0.00    -0.127 N  
HETATM   33  H   UNL     1     -12.166  17.031  65.235  1.00  0.00     0.000 HD 
HETATM   34  C   UNL     1     -10.162  17.215  65.720  1.00  0.00    -0.219 C  
HETATM   35  O   UNL     1      -9.015  16.787  65.630  1.00  0.00    -0.475 OA 
BRANCH  34  36
HETATM   36  C   UNL     1     -10.493  18.572  66.381  1.00  0.00    -0.406 C  
HETATM   37  O   UNL     1     -10.336  19.634  65.427  1.00  0.00    -0.384 OA 
HETATM   38  H   UNL     1     -10.539  20.468  65.834  1.00  0.00     0.000 HD 
BRANCH  36  39
HETATM   39  C   UNL     1      -9.645  18.864  67.650  1.00  0.00    -0.351 C  
HETATM   40  C   UNL     1     -10.288  19.966  68.517  1.00  0.00    -0.463 C  
HETATM   41  C   UNL     1      -9.580  17.580  68.511  1.00  0.00    -0.305 C  
BRANCH  39  42
HETATM   42  C   UNL     1      -8.209  19.277  67.244  1.00  0.00    -0.277 C  
HETATM   43  O   UNL     1      -8.167  20.603  66.727  1.00  0.00    -0.529 OA 
HETATM   44  H   UNL     1      -7.286  20.856  66.477  1.00  0.00     0.000 HD 
ENDBRANCH  39  42
ENDBRANCH  36  39
ENDBRANCH  34  36
ENDBRANCH  31  32
ENDBRANCH  30  31
ENDBRANCH  28  30
ENDBRANCH  25  26
ENDBRANCH  24  25
ENDBRANCH  23  24
ENDBRANCH  22  23
ENDBRANCH  21  22
ENDBRANCH  20  21
ENDBRANCH  18  20
ENDBRANCH  15  16
ENDBRANCH  14  15
ENDBRANCH  12  14
ENDBRANCH   7  10
ENDBRANCH   2   7
TORSDOF 19
ENDMDL
MODEL      240
REMARK 921   NORMALIZED FREE ENERGY PREDICTED BY IDOCK:   -3.80 KCAL/MOL
REMARK 922        TOTAL FREE ENERGY PREDICTED BY IDOCK:  -10.21 KCAL/MOL
REMARK 923 INTER-LIGAND FREE ENERGY PREDICTED BY IDOCK:   -8.43 KCAL/MOL
REMARK 924 INTRA-LIGAND FREE ENERGY PREDICTED BY IDOCK:   -1.77 KCAL/MOL
REMARK 927      BINDING AFFINITY PREDICTED BY RF-SCORE:    0.00 PKD
ROOT
HETATM    1  C   UNL     1     -10.113   1.662  63.673  1.00  0.00    -0.128 C  
HETATM    2  C   UNL     1      -9.349   2.839  64.308  1.00  0.00    -0.131 C  
HETATM    3  C   UNL     1      -8.835   2.428  65.710  1.00  0.00    -0.128 C  
ENDROOT
BRANCH   2   4
HETATM    4  C   UNL     1      -8.102   3.149  63.453  1.00  0.00    -0.084 C  
HETATM    5  O   UNL     1      -7.120   3.857  64.206  1.00  0.00    -0.049 OA 
HETATM    6  H   UNL     1      -6.352   4.048  63.680  1.00  0.00     0.000 HD 
ENDBRANCH   2   4
BRANCH   2   7
HETATM    7  C   UNL     1     -10.248   4.111  64.408  1.00  0.00    -0.137 C  
HETATM    8  O   UNL     1     -11.652   3.804  64.410  1.00  0.00    -0.398 OA 
HETATM    9  H   UNL     1     -12.198   4.578  64.472  1.00  0.00     0.000 HD 
BRANCH   7  10
HETATM   10  C   UNL     1      -9.968   5.013  65.631  1.00  0.00    -0.073 C  
HETATM   11  O   UNL     1     -10.492   4.877  66.733  1.00  0.00    -0.243 OA 
HETATM   12  N   UNL     1      -9.002   5.964  65.391  1.00  0.00    -0.337 N  
HETATM   13  H   UNL     1      -8.641   6.088  64.445  1.00  0.00     0.000 HD 
BRANCH  12  14
HETATM   14  C   UNL     1      -8.492   6.789  66.464  1.00  0.00    -0.124 C  
BRANCH  14  15
HETATM   15  C   UNL     1      -7.283   6.181  67.168  1.00  0.00    -0.075 C  
BRANCH  15  16
HETATM   16  C   UNL     1      -7.549   6.164  68.657  1.00  0.00    -0.092 C  
HETATM   17  O   UNL     1      -6.665   5.911  69.470  1.00  0.00    -0.054 OA 
HETATM   18  N   UNL     1      -8.843   6.479  69.004  1.00  0.00    -0.131 N  
HETATM   19  H   UNL     1      -9.485   6.719  68.249  1.00  0.00     0.000 HD 
BRANCH  18  20
HETATM   20  C   UNL     1      -9.373   6.496  70.370  1.00  0.00    -0.162 C  
BRANCH  20  21
HETATM   21  C   UNL     1     -10.655   5.700  70.632  1.00  0.00    -0.277 C  
BRANCH  21  22
HETATM   22  S   UNL     1     -11.245   5.724  72.368  1.00  0.00    -0.286 SA 
BRANCH  22  23
HETATM   23  S   UNL     1     -10.772   7.617  73.031  1.00  0.00    -0.383 SA 
BRANCH  23  24
HETATM   24  C   UNL     1     -12.239   8.564  72.507  1.00  0.00    -0.315 C  
BRANCH  24  25
HETATM   25  C   UNL     1     -11.857   9.680  71.533  1.00  0.00    -0.407 C  
BRANCH  25  26
HETATM   26  N   UNL     1     -11.726   9.261  70.139  1.00  0.00    -0.465 N  
HETATM   27  H   UNL     1     -12.468   8.688  69.737  1.00  0.00     0.000 HD 
HETATM   28  C   UNL     1     -10.654   9.596  69.339  1.00  0.00    -0.225 C  
HETATM   29  O   UNL     1      -9.681  10.231  69.733  1.00  0.00    -0.220 OA 
BRANCH  28  30
HETATM   30  C   UNL     1     -10.782   9.150  67.901  1.00  0.00    -0.224 C  
BRANCH  30  31
HETATM   31  C   UNL     1     -10.396  10.294  66.968  1.00  0.00    -0.243 C  
BRANCH  31  32
HETATM   32  N   UNL     1     -11.081  11.528  67.302  1.00  0.00    -0.277 N  
HETATM   33  H   UNL     1     -11.457  11.642  68.243  1.00  0.00     0.000 HD 
HETATM   34  C   UNL     1     -11.241  12.550  66.396  1.00  0.00    -0.306 C  
HETATM   35  O   UNL     1     -10.905  12.470  65.218  1.00  0.00    -0.274 OA 
BRANCH  34  36
HETATM   36  C   UNL     1     -11.954  13.793  66.973  1.00  0.00    -0.413 C  
HETATM   37  O   UNL     1     -11.752  14.921  66.107  1.00  0.00    -0.299 OA 
HETATM   38  H   UNL     1     -12.190  15.686  66.462  1.00  0.00     0.000 HD 
BRANCH  36  39
HETATM   39  C   UNL     1     -11.509  14.144  68.420  1.00  0.00    -0.334 C  
HETATM   40  C   UNL     1     -12.259  15.381  68.957  1.00  0.00    -0.167 C  
HETATM   41  C   UNL     1     -11.856  12.957  69.349  1.00  0.00    -0.371 C  
BRANCH  39  42
HETATM   42  C   UNL     1      -9.981  14.391  68.458  1.00  0.00    -0.237 C  
HETATM   43  O   UNL     1      -9.285  13.307  69.066  1.00  0.00    -0.365 OA 
HETATM   44  H   UNL     1      -8.348  13.458  69.089  1.00  0.00     0.000 HD 
ENDBRANCH  39  42
ENDBRANCH  36  39
ENDBRANCH  34  36
ENDBRANCH  31  32
ENDBRANCH  30  31
ENDBRANCH  28  30
ENDBRANCH  25  26
ENDBRANCH  24  25
ENDBRANCH  23  24
ENDBRANCH  22  23
ENDBRANCH  21  22
ENDBRANCH  20  21
ENDBRANCH  18  20
ENDBRANCH  15  16
ENDBRANCH  14  15
ENDBRANCH  12  14
ENDBRANCH   7  10
ENDBRANCH   2   7
TORSDOF 19
ENDMDL
MODEL      241
REMARK 921   NORMALIZED FREE ENERGY PREDICTED BY IDOCK:   -3.80 KCAL/MOL
REMARK 922        TOTAL FREE ENERGY PREDICTED BY IDOCK:  -10.20 KCAL/MOL
REMARK 923 INTER-LIGAND FREE ENERGY PREDICTED BY IDOCK:   -6.79 KCAL/MOL
REMARK 924 INTRA-LIGAND FREE ENERGY PREDICTED BY IDOCK:   -3.40 KCAL/MOL
REMARK 927      BINDING AFFINITY PREDICTED BY RF-SCORE:    0.00 PKD
ROOT
HETATM    1  C   UNL     1     -12.843  11.390  71.710  1.00  0.00    -0.449 C  
HETATM    2  C   UNL     1     -12.675   9.922  71.277  1.00  0.00    -0.482 C  
HETATM    3  C   UNL     1     -12.419   9.040  72.524  1.00  0.00    -0.309 C  
ENDROOT
BRANCH   2   4
HETATM    4  C   UNL     1     -13.995   9.428  70.650  1.00  0.00     0.503 C  
HETATM    5  O   UNL     1     -14.363   8.147  71.156  1.00  0.00    -0.647 OA 
HETATM    6  H   UNL     1     -15.176   7.843  70.770  1.00  0.00     0.000 HD 
ENDBRANCH   2   4
BRANCH   2   7
HETATM    7  C   UNL     1     -11.511   9.762  70.249  1.00  0.00    -0.255 C  
HETATM    8  O   UNL     1     -11.552   8.506  69.551  1.00  0.00    -0.283 OA 
HETATM    9  H   UNL     1     -10.844   8.408  68.926  1.00  0.00     0.000 HD 
BRANCH   7  10
HETATM   10  C   UNL     1     -11.421  10.880  69.186  1.00  0.00    -0.303 C  
HETATM   11  O   UNL     1     -12.349  11.237  68.467  1.00  0.00    -0.543 OA 
HETATM   12  N   UNL     1     -10.194  11.506  69.165  1.00  0.00    -0.413 N  
HETATM   13  H   UNL     1      -9.429  11.136  69.730  1.00  0.00     0.000 HD 
BRANCH  12  14
HETATM   14  C   UNL     1      -9.977  12.682  68.352  1.00  0.00    -0.210 C  
BRANCH  14  15
HETATM   15  C   UNL     1      -9.512  12.358  66.936  1.00  0.00    -0.219 C  
BRANCH  15  16
HETATM   16  C   UNL     1      -8.143  11.721  67.011  1.00  0.00    -0.169 C  
HETATM   17  O   UNL     1      -7.498  11.695  68.055  1.00  0.00    -0.089 OA 
HETATM   18  N   UNL     1      -7.714  11.161  65.830  1.00  0.00    -0.369 N  
HETATM   19  H   UNL     1      -8.352  11.198  65.035  1.00  0.00     0.000 HD 
BRANCH  18  20
HETATM   20  C   UNL     1      -6.414  10.518  65.621  1.00  0.00    -0.119 C  
BRANCH  20  21
HETATM   21  C   UNL     1      -6.414   9.151  64.929  1.00  0.00    -0.067 C  
BRANCH  21  22
HETATM   22  S   UNL     1      -8.074   8.477  64.538  1.00  0.00    -0.154 SA 
BRANCH  22  23
HETATM   23  S   UNL     1      -8.013   6.548  65.261  1.00  0.00    -0.122 SA 
BRANCH  23  24
HETATM   24  C   UNL     1      -8.956   6.710  66.813  1.00  0.00    -0.133 C  
BRANCH  24  25
HETATM   25  C   UNL     1      -9.058   8.175  67.246  1.00  0.00    -0.138 C  
BRANCH  25  26
HETATM   26  N   UNL     1      -8.549   8.455  68.587  1.00  0.00    -0.131 N  
HETATM   27  H   UNL     1      -9.207   8.785  69.293  1.00  0.00     0.000 HD 
HETATM   28  C   UNL     1      -7.228   8.297  68.950  1.00  0.00    -0.078 C  
HETATM   29  O   UNL     1      -6.342   7.960  68.171  1.00  0.00    -0.047 OA 
BRANCH  28  30
HETATM   30  C   UNL     1      -6.949   8.535  70.416  1.00  0.00    -0.038 C  
BRANCH  30  31
HETATM   31  C   UNL     1      -8.246   8.880  71.140  1.00  0.00    -0.173 C  
BRANCH  31  32
HETATM   32  N   UNL     1      -8.633   7.852  72.089  1.00  0.00    -0.129 N  
HETATM   33  H   UNL     1      -8.274   7.903  73.042  1.00  0.00     0.000 HD 
HETATM   34  C   UNL     1      -9.466   6.812  71.748  1.00  0.00    -0.150 C  
HETATM   35  O   UNL     1      -9.872   6.615  70.607  1.00  0.00    -0.182 OA 
BRANCH  34  36
HETATM   36  C   UNL     1      -9.790   5.860  72.921  1.00  0.00    -0.167 C  
HETATM   37  O   UNL     1      -9.795   6.589  74.158  1.00  0.00    -0.232 OA 
HETATM   38  H   UNL     1      -9.995   6.003  74.879  1.00  0.00     0.000 HD 
BRANCH  36  39
HETATM   39  C   UNL     1      -8.823   4.647  73.019  1.00  0.00    -0.112 C  
HETATM   40  C   UNL     1      -7.717   4.720  71.945  1.00  0.00    -0.098 C  
HETATM   41  C   UNL     1      -8.126   4.677  74.400  1.00  0.00    -0.099 C  
BRANCH  39  42
HETATM   42  C   UNL     1      -9.616   3.326  72.876  1.00  0.00    -0.112 C  
HETATM   43  O   UNL     1      -9.089   2.501  71.842  1.00  0.00    -0.077 OA 
HETATM   44  H   UNL     1      -9.576   1.690  71.755  1.00  0.00     0.000 HD 
ENDBRANCH  39  42
ENDBRANCH  36  39
ENDBRANCH  34  36
ENDBRANCH  31  32
ENDBRANCH  30  31
ENDBRANCH  28  30
ENDBRANCH  25  26
ENDBRANCH  24  25
ENDBRANCH  23  24
ENDBRANCH  22  23
ENDBRANCH  21  22
ENDBRANCH  20  21
ENDBRANCH  18  20
ENDBRANCH  15  16
ENDBRANCH  14  15
ENDBRANCH  12  14
ENDBRANCH   7  10
ENDBRANCH   2   7
TORSDOF 19
ENDMDL
MODEL      242
REMARK 921   NORMALIZED FREE ENERGY PREDICTED BY IDOCK:   -3.79 KCAL/MOL
REMARK 922        TOTAL FREE ENERGY PREDICTED BY IDOCK:  -10.17 KCAL/MOL
REMARK 923 INTER-LIGAND FREE ENERGY PREDICTED BY IDOCK:   -8.07 KCAL/MOL
REMARK 924 INTRA-LIGAND FREE ENERGY PREDICTED BY IDOCK:   -2.10 KCAL/MOL
REMARK 927      BINDING AFFINITY PREDICTED BY RF-SCORE:    0.00 PKD
ROOT
HETATM    1  C   UNL     1      -9.452   3.088  68.569  1.00  0.00    -0.204 C  
HETATM    2  C   UNL     1      -8.165   3.895  68.819  1.00  0.00    -0.083 C  
HETATM    3  C   UNL     1      -7.248   3.121  69.798  1.00  0.00    -0.041 C  
ENDROOT
BRANCH   2   4
HETATM    4  C   UNL     1      -7.386   4.024  67.493  1.00  0.00    -0.068 C  
HETATM    5  O   UNL     1      -8.257   3.931  66.368  1.00  0.00    -0.103 OA 
HETATM    6  H   UNL     1      -7.777   4.009  65.552  1.00  0.00     0.000 HD 
ENDBRANCH   2   4
BRANCH   2   7
HETATM    7  C   UNL     1      -8.485   5.316  69.380  1.00  0.00    -0.094 C  
HETATM    8  O   UNL     1      -8.828   6.259  68.351  1.00  0.00    -0.116 OA 
HETATM    9  H   UNL     1      -9.023   7.123  68.692  1.00  0.00     0.000 HD 
BRANCH   7  10
HETATM   10  C   UNL     1      -9.607   5.361  70.441  1.00  0.00    -0.175 C  
HETATM   11  O   UNL     1      -9.617   4.701  71.477  1.00  0.00    -0.147 OA 
HETATM   12  N   UNL     1     -10.588   6.283  70.151  1.00  0.00    -0.227 N  
HETATM   13  H   UNL     1     -10.579   6.762  69.250  1.00  0.00     0.000 HD 
BRANCH  12  14
HETATM   14  C   UNL     1     -11.630   6.582  71.108  1.00  0.00    -0.335 C  
BRANCH  14  15
HETATM   15  C   UNL     1     -11.159   7.471  72.254  1.00  0.00    -0.319 C  
BRANCH  15  16
HETATM   16  C   UNL     1     -10.893   8.858  71.712  1.00  0.00    -0.365 C  
HETATM   17  O   UNL     1      -9.755   9.255  71.480  1.00  0.00    -0.274 OA 
HETATM   18  N   UNL     1     -12.027   9.603  71.483  1.00  0.00    -0.384 N  
HETATM   19  H   UNL     1     -12.925   9.158  71.666  1.00  0.00     0.000 HD 
BRANCH  18  20
HETATM   20  C   UNL     1     -12.047  10.986  70.999  1.00  0.00    -0.301 C  
BRANCH  20  21
HETATM   21  C   UNL     1     -13.239  11.854  71.414  1.00  0.00    -0.085 C  
BRANCH  21  22
HETATM   22  S   UNL     1     -12.803  13.419  72.265  1.00  0.00    -0.119 SA 
BRANCH  22  23
HETATM   23  S   UNL     1     -13.265  14.882  70.889  1.00  0.00    -0.339 SA 
BRANCH  23  24
HETATM   24  C   UNL     1     -11.642  15.175  70.111  1.00  0.00    -0.292 C  
BRANCH  24  25
HETATM   25  C   UNL     1     -11.799  15.593  68.647  1.00  0.00    -0.291 C  
BRANCH  25  26
HETATM   26  N   UNL     1     -12.269  14.537  67.754  1.00  0.00    -0.623 N  
HETATM   27  H   UNL     1     -13.089  13.999  68.034  1.00  0.00     0.000 HD 
HETATM   28  C   UNL     1     -11.665  14.227  66.554  1.00  0.00    -0.394 C  
HETATM   29  O   UNL     1     -10.643  14.769  66.145  1.00  0.00    -0.294 OA 
BRANCH  28  30
HETATM   30  C   UNL     1     -12.388  13.178  65.741  1.00  0.00    -0.496 C  
BRANCH  30  31
HETATM   31  C   UNL     1     -11.436  12.031  65.414  1.00  0.00    -0.305 C  
BRANCH  31  32
HETATM   32  N   UNL     1     -10.453  11.821  66.459  1.00  0.00    -0.223 N  
HETATM   33  H   UNL     1      -9.855  12.599  66.735  1.00  0.00     0.000 HD 
HETATM   34  C   UNL     1     -10.297  10.609  67.092  1.00  0.00    -0.228 C  
HETATM   35  O   UNL     1     -10.904   9.593  66.767  1.00  0.00    -0.123 OA 
BRANCH  34  36
HETATM   36  C   UNL     1      -9.230  10.618  68.208  1.00  0.00    -0.153 C  
HETATM   37  O   UNL     1      -9.328  11.830  68.972  1.00  0.00    -0.406 OA 
HETATM   38  H   UNL     1      -8.671  11.835  69.659  1.00  0.00     0.000 HD 
BRANCH  36  39
HETATM   39  C   UNL     1      -7.780  10.436  67.679  1.00  0.00    -0.093 C  
HETATM   40  C   UNL     1      -7.137  11.791  67.318  1.00  0.00    -0.140 C  
HETATM   41  C   UNL     1      -6.919   9.800  68.795  1.00  0.00    -0.066 C  
BRANCH  39  42
HETATM   42  C   UNL     1      -7.781   9.502  66.444  1.00  0.00    -0.097 C  
HETATM   43  O   UNL     1      -6.705   8.571  66.483  1.00  0.00    -0.065 OA 
HETATM   44  H   UNL     1      -6.706   7.998  65.725  1.00  0.00     0.000 HD 
ENDBRANCH  39  42
ENDBRANCH  36  39
ENDBRANCH  34  36
ENDBRANCH  31  32
ENDBRANCH  30  31
ENDBRANCH  28  30
ENDBRANCH  25  26
ENDBRANCH  24  25
ENDBRANCH  23  24
ENDBRANCH  22  23
ENDBRANCH  21  22
ENDBRANCH  20  21
ENDBRANCH  18  20
ENDBRANCH  15  16
ENDBRANCH  14  15
ENDBRANCH  12  14
ENDBRANCH   7  10
ENDBRANCH   2   7
TORSDOF 19
ENDMDL
MODEL      243
REMARK 921   NORMALIZED FREE ENERGY PREDICTED BY IDOCK:   -3.79 KCAL/MOL
REMARK 922        TOTAL FREE ENERGY PREDICTED BY IDOCK:  -10.17 KCAL/MOL
REMARK 923 INTER-LIGAND FREE ENERGY PREDICTED BY IDOCK:   -8.51 KCAL/MOL
REMARK 924 INTRA-LIGAND FREE ENERGY PREDICTED BY IDOCK:   -1.67 KCAL/MOL
REMARK 927      BINDING AFFINITY PREDICTED BY RF-SCORE:    0.00 PKD
ROOT
HETATM    1  C   UNL     1     -11.182  16.048  66.834  1.00  0.00     0.065 C  
HETATM    2  C   UNL     1     -10.998  14.554  66.510  1.00  0.00    -0.321 C  
HETATM    3  C   UNL     1     -12.386  13.880  66.369  1.00  0.00    -0.468 C  
ENDROOT
BRANCH   2   4
HETATM    4  C   UNL     1     -10.301  14.419  65.139  1.00  0.00    -0.421 C  
HETATM    5  O   UNL     1     -11.238  14.121  64.107  1.00  0.00    -0.594 OA 
HETATM    6  H   UNL     1     -10.808  14.038  63.264  1.00  0.00     0.000 HD 
ENDBRANCH   2   4
BRANCH   2   7
HETATM    7  C   UNL     1     -10.151  13.834  67.605  1.00  0.00    -0.242 C  
HETATM    8  O   UNL     1      -9.055  14.635  68.079  1.00  0.00    -0.179 OA 
HETATM    9  H   UNL     1      -8.540  14.197  68.745  1.00  0.00     0.000 HD 
BRANCH   7  10
HETATM   10  C   UNL     1     -10.948  13.361  68.841  1.00  0.00    -0.248 C  
HETATM   11  O   UNL     1     -11.691  14.074  69.508  1.00  0.00    -0.273 OA 
HETATM   12  N   UNL     1     -10.804  12.014  69.093  1.00  0.00    -0.383 N  
HETATM   13  H   UNL     1     -10.126  11.471  68.558  1.00  0.00     0.000 HD 
BRANCH  12  14
HETATM   14  C   UNL     1     -11.601  11.361  70.106  1.00  0.00    -0.280 C  
BRANCH  14  15
HETATM   15  C   UNL     1     -11.358   9.857  70.188  1.00  0.00    -0.335 C  
BRANCH  15  16
HETATM   16  C   UNL     1      -9.963   9.622  70.722  1.00  0.00    -0.189 C  
HETATM   17  O   UNL     1      -8.986  10.203  70.259  1.00  0.00    -0.024 OA 
HETATM   18  N   UNL     1      -9.901   8.736  71.773  1.00  0.00    -0.298 N  
HETATM   19  H   UNL     1     -10.781   8.348  72.110  1.00  0.00     0.000 HD 
BRANCH  18  20
HETATM   20  C   UNL     1      -8.673   8.305  72.445  1.00  0.00    -0.213 C  
BRANCH  20  21
HETATM   21  C   UNL     1      -7.574   7.696  71.569  1.00  0.00    -0.081 C  
BRANCH  21  22
HETATM   22  S   UNL     1      -7.128   5.963  71.970  1.00  0.00    -0.089 SA 
BRANCH  22  23
HETATM   23  S   UNL     1      -8.656   5.325  73.197  1.00  0.00    -0.116 SA 
BRANCH  23  24
HETATM   24  C   UNL     1     -10.016   5.108  72.001  1.00  0.00    -0.187 C  
BRANCH  24  25
HETATM   25  C   UNL     1      -9.523   4.427  70.722  1.00  0.00    -0.173 C  
BRANCH  25  26
HETATM   26  N   UNL     1      -9.975   5.053  69.481  1.00  0.00    -0.215 N  
HETATM   27  H   UNL     1      -9.562   4.735  68.604  1.00  0.00     0.000 HD 
HETATM   28  C   UNL     1     -10.928   6.048  69.431  1.00  0.00    -0.385 C  
HETATM   29  O   UNL     1     -11.449   6.544  70.425  1.00  0.00    -0.352 OA 
BRANCH  28  30
HETATM   30  C   UNL     1     -11.323   6.467  68.034  1.00  0.00    -0.102 C  
BRANCH  30  31
HETATM   31  C   UNL     1     -10.419   5.783  67.013  1.00  0.00    -0.280 C  
BRANCH  31  32
HETATM   32  N   UNL     1      -9.790   6.733  66.115  1.00  0.00    -0.406 N  
HETATM   33  H   UNL     1      -9.992   6.674  65.117  1.00  0.00     0.000 HD 
HETATM   34  C   UNL     1      -8.930   7.710  66.561  1.00  0.00    -0.158 C  
HETATM   35  O   UNL     1      -8.555   7.802  67.726  1.00  0.00    -0.121 OA 
BRANCH  34  36
HETATM   36  C   UNL     1      -8.414   8.646  65.446  1.00  0.00    -0.172 C  
HETATM   37  O   UNL     1      -6.987   8.783  65.542  1.00  0.00    -0.074 OA 
HETATM   38  H   UNL     1      -6.670   9.359  64.856  1.00  0.00     0.000 HD 
BRANCH  36  39
HETATM   39  C   UNL     1      -9.087  10.047  65.454  1.00  0.00    -0.235 C  
HETATM   40  C   UNL     1     -10.474  10.002  66.130  1.00  0.00    -0.156 C  
HETATM   41  C   UNL     1      -8.206  11.018  66.275  1.00  0.00    -0.164 C  
BRANCH  39  42
HETATM   42  C   UNL     1      -9.218  10.579  64.007  1.00  0.00    -0.253 C  
HETATM   43  O   UNL     1     -10.521  11.090  63.746  1.00  0.00    -0.386 OA 
HETATM   44  H   UNL     1     -10.601  11.416  62.857  1.00  0.00     0.000 HD 
ENDBRANCH  39  42
ENDBRANCH  36  39
ENDBRANCH  34  36
ENDBRANCH  31  32
ENDBRANCH  30  31
ENDBRANCH  28  30
ENDBRANCH  25  26
ENDBRANCH  24  25
ENDBRANCH  23  24
ENDBRANCH  22  23
ENDBRANCH  21  22
ENDBRANCH  20  21
ENDBRANCH  18  20
ENDBRANCH  15  16
ENDBRANCH  14  15
ENDBRANCH  12  14
ENDBRANCH   7  10
ENDBRANCH   2   7
TORSDOF 19
ENDMDL
MODEL      244
REMARK 921   NORMALIZED FREE ENERGY PREDICTED BY IDOCK:   -3.79 KCAL/MOL
REMARK 922        TOTAL FREE ENERGY PREDICTED BY IDOCK:  -10.17 KCAL/MOL
REMARK 923 INTER-LIGAND FREE ENERGY PREDICTED BY IDOCK:   -8.42 KCAL/MOL
REMARK 924 INTRA-LIGAND FREE ENERGY PREDICTED BY IDOCK:   -1.75 KCAL/MOL
REMARK 927      BINDING AFFINITY PREDICTED BY RF-SCORE:    0.00 PKD
ROOT
HETATM    1  C   UNL     1      -9.840  15.563  68.875  1.00  0.00    -0.219 C  
HETATM    2  C   UNL     1      -9.334  16.368  67.663  1.00  0.00    -0.212 C  
HETATM    3  C   UNL     1      -8.321  17.439  68.139  1.00  0.00    -0.240 C  
ENDROOT
BRANCH   2   4
HETATM    4  C   UNL     1      -8.564  15.421  66.718  1.00  0.00    -0.273 C  
HETATM    5  O   UNL     1      -8.352  14.146  67.319  1.00  0.00    -0.188 OA 
HETATM    6  H   UNL     1      -7.879  13.564  66.737  1.00  0.00     0.000 HD 
ENDBRANCH   2   4
BRANCH   2   7
HETATM    7  C   UNL     1     -10.514  17.038  66.892  1.00  0.00    -0.268 C  
HETATM    8  O   UNL     1     -10.229  18.393  66.505  1.00  0.00    -0.358 OA 
HETATM    9  H   UNL     1     -10.947  18.800  66.036  1.00  0.00     0.000 HD 
BRANCH   7  10
HETATM   10  C   UNL     1     -10.979  16.283  65.627  1.00  0.00    -0.106 C  
HETATM   11  O   UNL     1     -10.949  16.741  64.489  1.00  0.00    -0.921 OA 
HETATM   12  N   UNL     1     -11.374  14.989  65.886  1.00  0.00    -0.314 N  
HETATM   13  H   UNL     1     -11.449  14.668  66.851  1.00  0.00     0.000 HD 
BRANCH  12  14
HETATM   14  C   UNL     1     -11.685  14.079  64.805  1.00  0.00    -0.394 C  
BRANCH  14  15
HETATM   15  C   UNL     1     -10.464  13.335  64.275  1.00  0.00    -0.372 C  
BRANCH  15  16
HETATM   16  C   UNL     1     -10.125  12.217  65.235  1.00  0.00    -0.265 C  
HETATM   17  O   UNL     1     -10.633  12.145  66.350  1.00  0.00    -0.231 OA 
HETATM   18  N   UNL     1      -9.234  11.294  64.738  1.00  0.00    -0.369 N  
HETATM   19  H   UNL     1      -8.911  11.424  63.779  1.00  0.00     0.000 HD 
BRANCH  18  20
HETATM   20  C   UNL     1      -8.711  10.140  65.474  1.00  0.00    -0.158 C  
BRANCH  20  21
HETATM   21  C   UNL     1      -7.419  10.347  66.270  1.00  0.00    -0.127 C  
BRANCH  21  22
HETATM   22  S   UNL     1      -7.357   9.489  67.890  1.00  0.00    -0.083 SA 
BRANCH  22  23
HETATM   23  S   UNL     1      -8.215  10.829  69.199  1.00  0.00    -0.075 SA 
BRANCH  23  24
HETATM   24  C   UNL     1      -9.983  10.418  69.034  1.00  0.00    -0.214 C  
BRANCH  24  25
HETATM   25  C   UNL     1     -10.632  10.210  70.405  1.00  0.00    -0.224 C  
BRANCH  25  26
HETATM   26  N   UNL     1     -11.100   8.850  70.662  1.00  0.00    -0.255 N  
HETATM   27  H   UNL     1     -11.714   8.414  69.973  1.00  0.00     0.000 HD 
HETATM   28  C   UNL     1     -10.759   8.125  71.784  1.00  0.00    -0.251 C  
HETATM   29  O   UNL     1     -10.075   8.568  72.700  1.00  0.00    -0.282 OA 
BRANCH  28  30
HETATM   30  C   UNL     1     -11.264   6.700  71.786  1.00  0.00    -0.299 C  
BRANCH  30  31
HETATM   31  C   UNL     1     -11.841   6.354  70.417  1.00  0.00    -0.234 C  
BRANCH  31  32
HETATM   32  N   UNL     1     -10.870   5.692  69.566  1.00  0.00    -0.321 N  
HETATM   33  H   UNL     1     -10.478   4.800  69.869  1.00  0.00     0.000 HD 
HETATM   34  C   UNL     1     -10.460   6.223  68.366  1.00  0.00    -0.227 C  
HETATM   35  O   UNL     1     -10.804   7.330  67.961  1.00  0.00    -0.178 OA 
BRANCH  34  36
HETATM   36  C   UNL     1      -9.460   5.332  67.595  1.00  0.00    -0.123 C  
HETATM   37  O   UNL     1     -10.110   4.127  67.162  1.00  0.00    -0.198 OA 
HETATM   38  H   UNL     1      -9.495   3.579  66.688  1.00  0.00     0.000 HD 
BRANCH  36  39
HETATM   39  C   UNL     1      -8.183   4.988  68.411  1.00  0.00    -0.085 C  
HETATM   40  C   UNL     1      -8.358   3.678  69.207  1.00  0.00    -0.086 C  
HETATM   41  C   UNL     1      -7.007   4.776  67.428  1.00  0.00    -0.061 C  
BRANCH  39  42
HETATM   42  C   UNL     1      -7.839   6.152  69.372  1.00  0.00    -0.100 C  
HETATM   43  O   UNL     1      -7.917   5.752  70.736  1.00  0.00    -0.108 OA 
HETATM   44  H   UNL     1      -7.707   6.467  71.326  1.00  0.00     0.000 HD 
ENDBRANCH  39  42
ENDBRANCH  36  39
ENDBRANCH  34  36
ENDBRANCH  31  32
ENDBRANCH  30  31
ENDBRANCH  28  30
ENDBRANCH  25  26
ENDBRANCH  24  25
ENDBRANCH  23  24
ENDBRANCH  22  23
ENDBRANCH  21  22
ENDBRANCH  20  21
ENDBRANCH  18  20
ENDBRANCH  15  16
ENDBRANCH  14  15
ENDBRANCH  12  14
ENDBRANCH   7  10
ENDBRANCH   2   7
TORSDOF 19
ENDMDL
MODEL      245
REMARK 921   NORMALIZED FREE ENERGY PREDICTED BY IDOCK:   -3.77 KCAL/MOL
REMARK 922        TOTAL FREE ENERGY PREDICTED BY IDOCK:  -10.15 KCAL/MOL
REMARK 923 INTER-LIGAND FREE ENERGY PREDICTED BY IDOCK:   -7.89 KCAL/MOL
REMARK 924 INTRA-LIGAND FREE ENERGY PREDICTED BY IDOCK:   -2.25 KCAL/MOL
REMARK 927      BINDING AFFINITY PREDICTED BY RF-SCORE:    0.00 PKD
ROOT
HETATM    1  C   UNL     1     -11.446   9.890  70.747  1.00  0.00    -0.433 C  
HETATM    2  C   UNL     1     -10.460   9.524  69.622  1.00  0.00    -0.239 C  
HETATM    3  C   UNL     1      -9.008   9.609  70.157  1.00  0.00    -0.273 C  
ENDROOT
BRANCH   2   4
HETATM    4  C   UNL     1     -10.692   8.055  69.208  1.00  0.00    -0.129 C  
HETATM    5  O   UNL     1     -11.228   7.967  67.890  1.00  0.00    -0.375 OA 
HETATM    6  H   UNL     1     -11.371   7.063  67.635  1.00  0.00     0.000 HD 
ENDBRANCH   2   4
BRANCH   2   7
HETATM    7  C   UNL     1     -10.640  10.455  68.383  1.00  0.00    -0.208 C  
HETATM    8  O   UNL     1     -11.954  11.033  68.306  1.00  0.00    -0.668 OA 
HETATM    9  H   UNL     1     -12.064  11.600  67.552  1.00  0.00     0.000 HD 
BRANCH   7  10
HETATM   10  C   UNL     1      -9.619  11.610  68.281  1.00  0.00    -0.198 C  
HETATM   11  O   UNL     1      -8.519  11.525  67.742  1.00  0.00    -0.129 OA 
HETATM   12  N   UNL     1     -10.092  12.796  68.796  1.00  0.00    -0.421 N  
HETATM   13  H   UNL     1     -10.983  12.810  69.294  1.00  0.00     0.000 HD 
BRANCH  12  14
HETATM   14  C   UNL     1      -9.343  14.023  68.640  1.00  0.00    -0.130 C  
BRANCH  14  15
HETATM   15  C   UNL     1     -10.227  15.240  68.386  1.00  0.00    -0.223 C  
BRANCH  15  16
HETATM   16  C   UNL     1     -11.177  14.919  67.254  1.00  0.00    -0.345 C  
HETATM   17  O   UNL     1     -12.217  14.294  67.440  1.00  0.00    -0.378 OA 
HETATM   18  N   UNL     1     -10.785  15.410  66.030  1.00  0.00    -0.315 N  
HETATM   19  H   UNL     1      -9.927  15.958  65.998  1.00  0.00     0.000 HD 
BRANCH  18  20
HETATM   20  C   UNL     1     -11.503  15.208  64.768  1.00  0.00    -0.383 C  
BRANCH  20  21
HETATM   21  C   UNL     1     -12.466  14.019  64.695  1.00  0.00    -0.335 C  
BRANCH  21  22
HETATM   22  S   UNL     1     -12.021  12.731  63.467  1.00  0.00    -0.543 SA 
BRANCH  22  23
HETATM   23  S   UNL     1     -11.115  11.261  64.591  1.00  0.00    -0.067 SA 
BRANCH  23  24
HETATM   24  C   UNL     1      -9.354  11.558  64.227  1.00  0.00    -0.001 C  
BRANCH  24  25
HETATM   25  C   UNL     1      -8.607  10.241  64.000  1.00  0.00    -0.190 C  
BRANCH  25  26
HETATM   26  N   UNL     1      -7.756   9.820  65.110  1.00  0.00    -0.118 N  
HETATM   27  H   UNL     1      -6.842  10.263  65.212  1.00  0.00     0.000 HD 
HETATM   28  C   UNL     1      -8.120   8.857  66.028  1.00  0.00    -0.111 C  
HETATM   29  O   UNL     1      -9.168   8.222  65.970  1.00  0.00    -0.192 OA 
BRANCH  28  30
HETATM   30  C   UNL     1      -7.133   8.663  67.157  1.00  0.00    -0.075 C  
BRANCH  30  31
HETATM   31  C   UNL     1      -6.626   7.224  67.159  1.00  0.00    -0.063 C  
BRANCH  31  32
HETATM   32  N   UNL     1      -7.185   6.445  66.070  1.00  0.00    -0.073 N  
HETATM   33  H   UNL     1      -7.579   6.935  65.267  1.00  0.00     0.000 HD 
HETATM   34  C   UNL     1      -7.204   5.070  66.081  1.00  0.00    -0.077 C  
HETATM   35  O   UNL     1      -6.840   4.396  67.040  1.00  0.00    -0.050 OA 
BRANCH  34  36
HETATM   36  C   UNL     1      -7.798   4.441  64.801  1.00  0.00    -0.089 C  
HETATM   37  O   UNL     1      -8.098   5.468  63.843  1.00  0.00    -0.114 OA 
HETATM   38  H   UNL     1      -8.463   5.080  63.056  1.00  0.00     0.000 HD 
BRANCH  36  39
HETATM   39  C   UNL     1      -9.060   3.573  65.067  1.00  0.00    -0.140 C  
HETATM   40  C   UNL     1      -9.965   4.208  66.143  1.00  0.00    -0.188 C  
HETATM   41  C   UNL     1      -9.887   3.485  63.763  1.00  0.00    -0.166 C  
BRANCH  39  42
HETATM   42  C   UNL     1      -8.639   2.147  65.500  1.00  0.00    -0.112 C  
HETATM   43  O   UNL     1      -9.526   1.607  66.473  1.00  0.00    -0.342 OA 
HETATM   44  H   UNL     1      -9.268   0.732  66.739  1.00  0.00     0.000 HD 
ENDBRANCH  39  42
ENDBRANCH  36  39
ENDBRANCH  34  36
ENDBRANCH  31  32
ENDBRANCH  30  31
ENDBRANCH  28  30
ENDBRANCH  25  26
ENDBRANCH  24  25
ENDBRANCH  23  24
ENDBRANCH  22  23
ENDBRANCH  21  22
ENDBRANCH  20  21
ENDBRANCH  18  20
ENDBRANCH  15  16
ENDBRANCH  14  15
ENDBRANCH  12  14
ENDBRANCH   7  10
ENDBRANCH   2   7
TORSDOF 19
ENDMDL
MODEL      246
REMARK 921   NORMALIZED FREE ENERGY PREDICTED BY IDOCK:   -3.76 KCAL/MOL
REMARK 922        TOTAL FREE ENERGY PREDICTED BY IDOCK:  -10.12 KCAL/MOL
REMARK 923 INTER-LIGAND FREE ENERGY PREDICTED BY IDOCK:   -7.41 KCAL/MOL
REMARK 924 INTRA-LIGAND FREE ENERGY PREDICTED BY IDOCK:   -2.70 KCAL/MOL
REMARK 927      BINDING AFFINITY PREDICTED BY RF-SCORE:    0.00 PKD
ROOT
HETATM    1  C   UNL     1      -9.795  12.886  65.723  1.00  0.00    -0.216 C  
HETATM    2  C   UNL     1     -11.066  13.654  66.133  1.00  0.00    -0.299 C  
HETATM    3  C   UNL     1     -10.925  15.143  65.730  1.00  0.00    -0.350 C  
ENDROOT
BRANCH   2   4
HETATM    4  C   UNL     1     -12.268  13.095  65.342  1.00  0.00    -0.461 C  
HETATM    5  O   UNL     1     -13.339  14.034  65.294  1.00  0.00    -0.741 OA 
HETATM    6  H   UNL     1     -14.079  13.689  64.808  1.00  0.00     0.000 HD 
ENDBRANCH   2   4
BRANCH   2   7
HETATM    7  C   UNL     1     -11.338  13.526  67.664  1.00  0.00    -0.296 C  
HETATM    8  O   UNL     1     -12.558  14.169  68.070  1.00  0.00    -0.442 OA 
HETATM    9  H   UNL     1     -12.724  14.091  69.001  1.00  0.00     0.000 HD 
BRANCH   7  10
HETATM   10  C   UNL     1     -11.375  12.078  68.202  1.00  0.00    -0.291 C  
HETATM   11  O   UNL     1     -12.147  11.207  67.811  1.00  0.00    -0.606 OA 
HETATM   12  N   UNL     1     -10.394  11.823  69.134  1.00  0.00    -0.418 N  
HETATM   13  H   UNL     1      -9.817  12.590  69.482  1.00  0.00     0.000 HD 
BRANCH  12  14
HETATM   14  C   UNL     1     -10.170  10.482  69.626  1.00  0.00    -0.168 C  
BRANCH  14  15
HETATM   15  C   UNL     1      -8.695  10.094  69.667  1.00  0.00    -0.176 C  
BRANCH  15  16
HETATM   16  C   UNL     1      -8.595   8.599  69.873  1.00  0.00    -0.131 C  
HETATM   17  O   UNL     1      -7.702   7.934  69.357  1.00  0.00    -0.100 OA 
HETATM   18  N   UNL     1      -9.562   8.076  70.699  1.00  0.00    -0.166 N  
HETATM   19  H   UNL     1     -10.227   8.728  71.114  1.00  0.00     0.000 HD 
BRANCH  18  20
HETATM   20  C   UNL     1      -9.714   6.657  71.032  1.00  0.00    -0.175 C  
BRANCH  20  21
HETATM   21  C   UNL     1      -8.982   6.149  72.277  1.00  0.00    -0.137 C  
BRANCH  21  22
HETATM   22  S   UNL     1      -7.355   5.365  71.959  1.00  0.00    -0.091 SA 
BRANCH  22  23
HETATM   23  S   UNL     1      -7.581   3.440  72.658  1.00  0.00    -0.052 SA 
BRANCH  23  24
HETATM   24  C   UNL     1      -9.365   3.167  72.400  1.00  0.00    -0.107 C  
BRANCH  24  25
HETATM   25  C   UNL     1      -9.630   2.471  71.063  1.00  0.00    -0.136 C  
BRANCH  25  26
HETATM   26  N   UNL     1      -9.768   3.370  69.920  1.00  0.00    -0.116 N  
HETATM   27  H   UNL     1     -10.616   3.932  69.849  1.00  0.00     0.000 HD 
HETATM   28  C   UNL     1      -8.813   3.502  68.933  1.00  0.00    -0.110 C  
HETATM   29  O   UNL     1      -7.783   2.838  68.889  1.00  0.00    -0.047 OA 
BRANCH  28  30
HETATM   30  C   UNL     1      -9.115   4.573  67.910  1.00  0.00    -0.147 C  
BRANCH  30  31
HETATM   31  C   UNL     1      -7.819   5.041  67.254  1.00  0.00    -0.096 C  
BRANCH  31  32
HETATM   32  N   UNL     1      -8.064   5.909  66.117  1.00  0.00    -0.106 N  
HETATM   33  H   UNL     1      -8.882   5.734  65.533  1.00  0.00     0.000 HD 
HETATM   34  C   UNL     1      -7.234   6.958  65.799  1.00  0.00    -0.073 C  
HETATM   35  O   UNL     1      -6.180   7.190  66.385  1.00  0.00    -0.037 OA 
BRANCH  34  36
HETATM   36  C   UNL     1      -7.706   7.784  64.582  1.00  0.00    -0.121 C  
HETATM   37  O   UNL     1      -6.662   7.848  63.598  1.00  0.00    -0.062 OA 
HETATM   38  H   UNL     1      -6.953   8.357  62.849  1.00  0.00     0.000 HD 
BRANCH  36  39
HETATM   39  C   UNL     1      -8.181   9.216  64.954  1.00  0.00    -0.154 C  
HETATM   40  C   UNL     1      -6.987  10.175  65.140  1.00  0.00    -0.137 C  
HETATM   41  C   UNL     1      -9.041   9.772  63.794  1.00  0.00    -0.270 C  
BRANCH  39  42
HETATM   42  C   UNL     1      -9.034   9.172  66.244  1.00  0.00    -0.158 C  
HETATM   43  O   UNL     1     -10.385   9.547  65.999  1.00  0.00    -0.220 OA 
HETATM   44  H   UNL     1     -10.909   9.520  66.791  1.00  0.00     0.000 HD 
ENDBRANCH  39  42
ENDBRANCH  36  39
ENDBRANCH  34  36
ENDBRANCH  31  32
ENDBRANCH  30  31
ENDBRANCH  28  30
ENDBRANCH  25  26
ENDBRANCH  24  25
ENDBRANCH  23  24
ENDBRANCH  22  23
ENDBRANCH  21  22
ENDBRANCH  20  21
ENDBRANCH  18  20
ENDBRANCH  15  16
ENDBRANCH  14  15
ENDBRANCH  12  14
ENDBRANCH   7  10
ENDBRANCH   2   7
TORSDOF 19
ENDMDL
MODEL      247
REMARK 921   NORMALIZED FREE ENERGY PREDICTED BY IDOCK:   -3.76 KCAL/MOL
REMARK 922        TOTAL FREE ENERGY PREDICTED BY IDOCK:  -10.11 KCAL/MOL
REMARK 923 INTER-LIGAND FREE ENERGY PREDICTED BY IDOCK:   -7.52 KCAL/MOL
REMARK 924 INTRA-LIGAND FREE ENERGY PREDICTED BY IDOCK:   -2.59 KCAL/MOL
REMARK 927      BINDING AFFINITY PREDICTED BY RF-SCORE:    0.00 PKD
ROOT
HETATM    1  C   UNL     1      -7.667   6.575  70.894  1.00  0.00    -0.101 C  
HETATM    2  C   UNL     1      -7.098   7.186  72.188  1.00  0.00    -0.068 C  
HETATM    3  C   UNL     1      -8.003   6.801  73.385  1.00  0.00    -0.105 C  
ENDROOT
BRANCH   2   4
HETATM    4  C   UNL     1      -5.711   6.570  72.468  1.00  0.00    -0.038 C  
HETATM    5  O   UNL     1      -5.137   6.023  71.283  1.00  0.00    -0.012 OA 
HETATM    6  H   UNL     1      -4.283   5.644  71.455  1.00  0.00     0.000 HD 
ENDBRANCH   2   4
BRANCH   2   7
HETATM    7  C   UNL     1      -6.972   8.738  72.077  1.00  0.00    -0.016 C  
HETATM    8  O   UNL     1      -6.142   9.306  73.105  1.00  0.00    -0.305 OA 
HETATM    9  H   UNL     1      -6.065  10.249  73.037  1.00  0.00     0.000 HD 
BRANCH   7  10
HETATM   10  C   UNL     1      -6.446   9.255  70.719  1.00  0.00    -0.079 C  
HETATM   11  O   UNL     1      -5.410   8.875  70.181  1.00  0.00    -0.028 OA 
HETATM   12  N   UNL     1      -7.300  10.150  70.115  1.00  0.00    -0.166 N  
HETATM   13  H   UNL     1      -8.116  10.491  70.625  1.00  0.00     0.000 HD 
BRANCH  12  14
HETATM   14  C   UNL     1      -7.055  10.614  68.768  1.00  0.00    -0.076 C  
BRANCH  14  15
HETATM   15  C   UNL     1      -7.411  12.083  68.562  1.00  0.00    -0.117 C  
BRANCH  15  16
HETATM   16  C   UNL     1      -8.815  12.167  68.006  1.00  0.00    -0.181 C  
HETATM   17  O   UNL     1      -9.757  11.586  68.537  1.00  0.00    -0.190 OA 
HETATM   18  N   UNL     1      -8.935  12.962  66.890  1.00  0.00    -0.245 N  
HETATM   19  H   UNL     1      -8.095  13.437  66.561  1.00  0.00     0.000 HD 
BRANCH  18  20
HETATM   20  C   UNL     1     -10.172  13.181  66.136  1.00  0.00    -0.290 C  
BRANCH  20  21
HETATM   21  C   UNL     1     -10.288  12.497  64.771  1.00  0.00    -0.307 C  
BRANCH  21  22
HETATM   22  S   UNL     1     -10.160  10.668  64.802  1.00  0.00    -0.332 SA 
BRANCH  22  23
HETATM   23  S   UNL     1      -8.339  10.279  63.920  1.00  0.00    -0.149 SA 
BRANCH  23  24
HETATM   24  C   UNL     1      -7.560   9.190  65.157  1.00  0.00    -0.098 C  
BRANCH  24  25
HETATM   25  C   UNL     1      -7.872   7.719  64.873  1.00  0.00    -0.123 C  
BRANCH  25  26
HETATM   26  N   UNL     1      -9.122   7.234  65.452  1.00  0.00    -0.361 N  
HETATM   27  H   UNL     1      -9.999   7.596  65.077  1.00  0.00     0.000 HD 
HETATM   28  C   UNL     1      -9.182   6.314  66.478  1.00  0.00    -0.154 C  
HETATM   29  O   UNL     1      -8.193   5.856  67.041  1.00  0.00    -0.105 OA 
BRANCH  28  30
HETATM   30  C   UNL     1     -10.581   5.872  66.842  1.00  0.00    -0.384 C  
BRANCH  30  31
HETATM   31  C   UNL     1     -10.689   5.685  68.352  1.00  0.00    -0.156 C  
BRANCH  31  32
HETATM   32  N   UNL     1     -11.522   6.700  68.970  1.00  0.00    -0.615 N  
HETATM   33  H   UNL     1     -12.530   6.550  69.010  1.00  0.00     0.000 HD 
HETATM   34  C   UNL     1     -11.001   7.855  69.504  1.00  0.00    -0.071 C  
HETATM   35  O   UNL     1      -9.816   8.165  69.423  1.00  0.00    -0.176 OA 
BRANCH  34  36
HETATM   36  C   UNL     1     -12.057   8.774  70.158  1.00  0.00     0.498 C  
HETATM   37  O   UNL     1     -11.603  10.137  70.135  1.00  0.00    -0.258 OA 
HETATM   38  H   UNL     1     -12.252  10.702  70.538  1.00  0.00     0.000 HD 
BRANCH  36  39
HETATM   39  C   UNL     1     -12.425   8.357  71.610  1.00  0.00    -0.363 C  
HETATM   40  C   UNL     1     -12.752   6.852  71.699  1.00  0.00    -0.396 C  
HETATM   41  C   UNL     1     -11.207   8.619  72.526  1.00  0.00    -0.244 C  
BRANCH  39  42
HETATM   42  C   UNL     1     -13.627   9.193  72.110  1.00  0.00    -0.474 C  
HETATM   43  O   UNL     1     -13.990   8.852  73.444  1.00  0.00    -1.236 OA 
HETATM   44  H   UNL     1     -14.728   9.365  73.752  1.00  0.00     0.000 HD 
ENDBRANCH  39  42
ENDBRANCH  36  39
ENDBRANCH  34  36
ENDBRANCH  31  32
ENDBRANCH  30  31
ENDBRANCH  28  30
ENDBRANCH  25  26
ENDBRANCH  24  25
ENDBRANCH  23  24
ENDBRANCH  22  23
ENDBRANCH  21  22
ENDBRANCH  20  21
ENDBRANCH  18  20
ENDBRANCH  15  16
ENDBRANCH  14  15
ENDBRANCH  12  14
ENDBRANCH   7  10
ENDBRANCH   2   7
TORSDOF 19
ENDMDL
MODEL      248
REMARK 921   NORMALIZED FREE ENERGY PREDICTED BY IDOCK:   -3.76 KCAL/MOL
REMARK 922        TOTAL FREE ENERGY PREDICTED BY IDOCK:  -10.11 KCAL/MOL
REMARK 923 INTER-LIGAND FREE ENERGY PREDICTED BY IDOCK:   -8.76 KCAL/MOL
REMARK 924 INTRA-LIGAND FREE ENERGY PREDICTED BY IDOCK:   -1.35 KCAL/MOL
REMARK 927      BINDING AFFINITY PREDICTED BY RF-SCORE:    0.00 PKD
ROOT
HETATM    1  C   UNL     1      -6.429  20.537  65.229  1.00  0.00    -0.301 C  
HETATM    2  C   UNL     1      -6.665  19.750  66.532  1.00  0.00    -0.212 C  
HETATM    3  C   UNL     1      -6.265  18.268  66.323  1.00  0.00    -0.234 C  
ENDROOT
BRANCH   2   4
HETATM    4  C   UNL     1      -5.736  20.307  67.631  1.00  0.00    -0.190 C  
HETATM    5  O   UNL     1      -6.475  20.696  68.787  1.00  0.00    -0.283 OA 
HETATM    6  H   UNL     1      -5.903  21.039  69.463  1.00  0.00     0.000 HD 
ENDBRANCH   2   4
BRANCH   2   7
HETATM    7  C   UNL     1      -8.152  19.852  66.996  1.00  0.00    -0.309 C  
HETATM    8  O   UNL     1      -8.988  20.534  66.046  1.00  0.00    -0.575 OA 
HETATM    9  H   UNL     1      -9.892  20.596  66.328  1.00  0.00     0.000 HD 
BRANCH   7  10
HETATM   10  C   UNL     1      -8.828  18.503  67.324  1.00  0.00    -0.270 C  
HETATM   11  O   UNL     1      -8.684  17.886  68.375  1.00  0.00    -0.280 OA 
HETATM   12  N   UNL     1      -9.687  18.075  66.336  1.00  0.00    -0.326 N  
HETATM   13  H   UNL     1      -9.727  18.580  65.450  1.00  0.00     0.000 HD 
BRANCH  12  14
HETATM   14  C   UNL     1     -10.531  16.919  66.537  1.00  0.00    -0.253 C  
BRANCH  14  15
HETATM   15  C   UNL     1     -10.155  15.736  65.651  1.00  0.00    -0.401 C  
BRANCH  15  16
HETATM   16  C   UNL     1     -10.320  14.462  66.449  1.00  0.00    -0.287 C  
HETATM   17  O   UNL     1     -11.246  14.310  67.240  1.00  0.00    -0.296 OA 
HETATM   18  N   UNL     1      -9.370  13.503  66.187  1.00  0.00    -0.477 N  
HETATM   19  H   UNL     1      -8.673  13.716  65.475  1.00  0.00     0.000 HD 
BRANCH  18  20
HETATM   20  C   UNL     1      -9.279  12.199  66.849  1.00  0.00    -0.203 C  
BRANCH  20  21
HETATM   21  C   UNL     1     -10.199  11.088  66.334  1.00  0.00    -0.236 C  
BRANCH  21  22
HETATM   22  S   UNL     1      -9.618  10.235  64.819  1.00  0.00    -0.327 SA 
BRANCH  22  23
HETATM   23  S   UNL     1      -7.577  10.102  65.071  1.00  0.00    -0.128 SA 
BRANCH  23  24
HETATM   24  C   UNL     1      -7.395   8.391  65.673  1.00  0.00    -0.076 C  
BRANCH  24  25
HETATM   25  C   UNL     1      -7.940   7.386  64.656  1.00  0.00    -0.127 C  
BRANCH  25  26
HETATM   26  N   UNL     1      -8.821   6.364  65.215  1.00  0.00    -0.364 N  
HETATM   27  H   UNL     1      -9.829   6.502  65.138  1.00  0.00     0.000 HD 
HETATM   28  C   UNL     1      -8.365   5.223  65.841  1.00  0.00    -0.120 C  
HETATM   29  O   UNL     1      -7.179   4.981  66.039  1.00  0.00    -0.073 OA 
BRANCH  28  30
HETATM   30  C   UNL     1      -9.452   4.251  66.240  1.00  0.00    -0.186 C  
BRANCH  30  31
HETATM   31  C   UNL     1      -9.662   4.301  67.751  1.00  0.00    -0.123 C  
BRANCH  31  32
HETATM   32  N   UNL     1      -9.211   5.555  68.324  1.00  0.00    -0.108 N  
HETATM   33  H   UNL     1      -8.226   5.658  68.567  1.00  0.00     0.000 HD 
HETATM   34  C   UNL     1     -10.063   6.610  68.552  1.00  0.00    -0.161 C  
HETATM   35  O   UNL     1     -11.277   6.550  68.378  1.00  0.00    -0.283 OA 
BRANCH  34  36
HETATM   36  C   UNL     1      -9.367   7.867  69.120  1.00  0.00    -0.154 C  
HETATM   37  O   UNL     1      -7.942   7.732  69.007  1.00  0.00    -0.118 OA 
HETATM   38  H   UNL     1      -7.514   8.504  69.357  1.00  0.00     0.000 HD 
BRANCH  36  39
HETATM   39  C   UNL     1      -9.759   8.179  70.592  1.00  0.00    -0.184 C  
HETATM   40  C   UNL     1     -10.996   9.099  70.663  1.00  0.00    -0.319 C  
HETATM   41  C   UNL     1     -10.130   6.854  71.299  1.00  0.00    -0.203 C  
BRANCH  39  42
HETATM   42  C   UNL     1      -8.566   8.833  71.329  1.00  0.00    -0.203 C  
HETATM   43  O   UNL     1      -8.192  10.071  70.736  1.00  0.00    -0.371 OA 
HETATM   44  H   UNL     1      -7.459  10.473  71.188  1.00  0.00     0.000 HD 
ENDBRANCH  39  42
ENDBRANCH  36  39
ENDBRANCH  34  36
ENDBRANCH  31  32
ENDBRANCH  30  31
ENDBRANCH  28  30
ENDBRANCH  25  26
ENDBRANCH  24  25
ENDBRANCH  23  24
ENDBRANCH  22  23
ENDBRANCH  21  22
ENDBRANCH  20  21
ENDBRANCH  18  20
ENDBRANCH  15  16
ENDBRANCH  14  15
ENDBRANCH  12  14
ENDBRANCH   7  10
ENDBRANCH   2   7
TORSDOF 19
ENDMDL
MODEL      249
REMARK 921   NORMALIZED FREE ENERGY PREDICTED BY IDOCK:   -3.75 KCAL/MOL
REMARK 922        TOTAL FREE ENERGY PREDICTED BY IDOCK:  -10.10 KCAL/MOL
REMARK 923 INTER-LIGAND FREE ENERGY PREDICTED BY IDOCK:   -8.40 KCAL/MOL
REMARK 924 INTRA-LIGAND FREE ENERGY PREDICTED BY IDOCK:   -1.71 KCAL/MOL
REMARK 927      BINDING AFFINITY PREDICTED BY RF-SCORE:    0.00 PKD
ROOT
HETATM    1  C   UNL     1      -8.227  11.143  65.488  1.00  0.00     0.102 C  
HETATM    2  C   UNL     1      -9.391  10.561  64.664  1.00  0.00    -0.294 C  
HETATM    3  C   UNL     1     -10.514  10.083  65.618  1.00  0.00    -0.048 C  
ENDROOT
BRANCH   2   4
HETATM    4  C   UNL     1      -9.999  11.680  63.792  1.00  0.00    -0.349 C  
HETATM    5  O   UNL     1     -10.540  11.158  62.581  1.00  0.00    -0.691 OA 
HETATM    6  H   UNL     1     -10.914  11.847  62.044  1.00  0.00     0.000 HD 
ENDBRANCH   2   4
BRANCH   2   7
HETATM    7  C   UNL     1      -8.911   9.387  63.754  1.00  0.00    -0.115 C  
HETATM    8  O   UNL     1      -8.209   9.838  62.584  1.00  0.00    -0.125 OA 
HETATM    9  H   UNL     1      -7.917   9.124  62.031  1.00  0.00     0.000 HD 
BRANCH   7  10
HETATM   10  C   UNL     1      -8.017   8.340  64.456  1.00  0.00    -0.146 C  
HETATM   11  O   UNL     1      -6.821   8.180  64.232  1.00  0.00    -0.064 OA 
HETATM   12  N   UNL     1      -8.681   7.633  65.434  1.00  0.00    -0.342 N  
HETATM   13  H   UNL     1      -9.689   7.748  65.544  1.00  0.00     0.000 HD 
BRANCH  12  14
HETATM   14  C   UNL     1      -7.967   6.728  66.308  1.00  0.00    -0.108 C  
BRANCH  14  15
HETATM   15  C   UNL     1      -7.221   7.439  67.432  1.00  0.00    -0.093 C  
BRANCH  15  16
HETATM   16  C   UNL     1      -8.222   7.863  68.484  1.00  0.00    -0.127 C  
HETATM   17  O   UNL     1      -8.640   9.014  68.553  1.00  0.00    -0.127 OA 
HETATM   18  N   UNL     1      -8.630   6.847  69.317  1.00  0.00    -0.132 N  
HETATM   19  H   UNL     1      -8.256   5.916  69.139  1.00  0.00     0.000 HD 
BRANCH  18  20
HETATM   20  C   UNL     1      -9.560   6.995  70.440  1.00  0.00    -0.169 C  
BRANCH  20  21
HETATM   21  C   UNL     1     -10.824   6.131  70.419  1.00  0.00    -0.310 C  
BRANCH  21  22
HETATM   22  S   UNL     1     -12.307   6.902  71.176  1.00  0.00    -0.323 SA 
BRANCH  22  23
HETATM   23  S   UNL     1     -11.537   8.343  72.430  1.00  0.00    -0.353 SA 
BRANCH  23  24
HETATM   24  C   UNL     1     -12.848   9.608  72.380  1.00  0.00    -0.236 C  
BRANCH  24  25
HETATM   25  C   UNL     1     -13.127  10.059  70.944  1.00  0.00    -0.308 C  
BRANCH  25  26
HETATM   26  N   UNL     1     -12.343  11.208  70.498  1.00  0.00    -0.352 N  
HETATM   27  H   UNL     1     -12.020  11.873  71.201  1.00  0.00     0.000 HD 
HETATM   28  C   UNL     1     -12.014  11.442  69.179  1.00  0.00    -0.328 C  
HETATM   29  O   UNL     1     -12.394  10.741  68.247  1.00  0.00    -0.296 OA 
BRANCH  28  30
HETATM   30  C   UNL     1     -11.101  12.627  68.963  1.00  0.00    -0.291 C  
BRANCH  30  31
HETATM   31  C   UNL     1     -11.444  13.733  69.956  1.00  0.00    -0.118 C  
BRANCH  31  32
HETATM   32  N   UNL     1     -10.646  14.926  69.743  1.00  0.00    -0.401 N  
HETATM   33  H   UNL     1      -9.768  15.027  70.251  1.00  0.00     0.000 HD 
HETATM   34  C   UNL     1     -11.033  15.926  68.881  1.00  0.00    -0.290 C  
HETATM   35  O   UNL     1     -12.112  15.938  68.298  1.00  0.00    -0.074 OA 
BRANCH  34  36
HETATM   36  C   UNL     1     -10.013  17.082  68.765  1.00  0.00    -0.293 C  
HETATM   37  O   UNL     1     -10.699  18.344  68.775  1.00  0.00    -0.315 OA 
HETATM   38  H   UNL     1     -10.072  19.054  68.704  1.00  0.00     0.000 HD 
BRANCH  36  39
HETATM   39  C   UNL     1      -9.102  16.978  67.511  1.00  0.00    -0.223 C  
HETATM   40  C   UNL     1      -7.614  17.157  67.879  1.00  0.00    -0.180 C  
HETATM   41  C   UNL     1      -9.258  15.566  66.898  1.00  0.00    -0.257 C  
BRANCH  39  42
HETATM   42  C   UNL     1      -9.522  18.037  66.463  1.00  0.00    -0.301 C  
HETATM   43  O   UNL     1     -10.784  17.732  65.879  1.00  0.00    -0.321 OA 
HETATM   44  H   UNL     1     -11.042  18.382  65.236  1.00  0.00     0.000 HD 
ENDBRANCH  39  42
ENDBRANCH  36  39
ENDBRANCH  34  36
ENDBRANCH  31  32
ENDBRANCH  30  31
ENDBRANCH  28  30
ENDBRANCH  25  26
ENDBRANCH  24  25
ENDBRANCH  23  24
ENDBRANCH  22  23
ENDBRANCH  21  22
ENDBRANCH  20  21
ENDBRANCH  18  20
ENDBRANCH  15  16
ENDBRANCH  14  15
ENDBRANCH  12  14
ENDBRANCH   7  10
ENDBRANCH   2   7
TORSDOF 19
ENDMDL
MODEL      250
REMARK 921   NORMALIZED FREE ENERGY PREDICTED BY IDOCK:   -3.74 KCAL/MOL
REMARK 922        TOTAL FREE ENERGY PREDICTED BY IDOCK:  -10.06 KCAL/MOL
REMARK 923 INTER-LIGAND FREE ENERGY PREDICTED BY IDOCK:   -7.06 KCAL/MOL
REMARK 924 INTRA-LIGAND FREE ENERGY PREDICTED BY IDOCK:   -3.00 KCAL/MOL
REMARK 927      BINDING AFFINITY PREDICTED BY RF-SCORE:    0.00 PKD
ROOT
HETATM    1  C   UNL     1     -10.689  17.104  68.306  1.00  0.00    -0.363 C  
HETATM    2  C   UNL     1     -10.083  15.896  67.567  1.00  0.00    -0.247 C  
HETATM    3  C   UNL     1     -10.047  16.184  66.045  1.00  0.00    -0.372 C  
ENDROOT
BRANCH   2   4
HETATM    4  C   UNL     1      -8.618  15.714  68.017  1.00  0.00    -0.155 C  
HETATM    5  O   UNL     1      -7.732  16.510  67.234  1.00  0.00    -0.142 OA 
HETATM    6  H   UNL     1      -6.830  16.398  67.511  1.00  0.00     0.000 HD 
ENDBRANCH   2   4
BRANCH   2   7
HETATM    7  C   UNL     1     -10.889  14.590  67.856  1.00  0.00    -0.256 C  
HETATM    8  O   UNL     1     -12.311  14.800  67.854  1.00  0.00    -0.582 OA 
HETATM    9  H   UNL     1     -12.801  14.006  68.029  1.00  0.00     0.000 HD 
BRANCH   7  10
HETATM   10  C   UNL     1     -10.592  13.415  66.897  1.00  0.00    -0.273 C  
HETATM   11  O   UNL     1      -9.628  12.662  66.993  1.00  0.00    -0.207 OA 
HETATM   12  N   UNL     1     -11.570  13.237  65.944  1.00  0.00    -0.333 N  
HETATM   13  H   UNL     1     -12.319  13.923  65.856  1.00  0.00     0.000 HD 
BRANCH  12  14
HETATM   14  C   UNL     1     -11.547  12.089  65.065  1.00  0.00    -0.263 C  
BRANCH  14  15
HETATM   15  C   UNL     1     -10.877  12.370  63.724  1.00  0.00    -0.500 C  
BRANCH  15  16
HETATM   16  C   UNL     1      -9.847  11.293  63.463  1.00  0.00    -0.359 C  
HETATM   17  O   UNL     1      -9.422  11.065  62.336  1.00  0.00    -0.250 OA 
HETATM   18  N   UNL     1      -9.424  10.630  64.592  1.00  0.00    -0.235 N  
HETATM   19  H   UNL     1      -9.808  10.934  65.486  1.00  0.00     0.000 HD 
BRANCH  18  20
HETATM   20  C   UNL     1      -8.465   9.523  64.613  1.00  0.00    -0.166 C  
BRANCH  20  21
HETATM   21  C   UNL     1      -6.985   9.883  64.775  1.00  0.00    -0.132 C  
BRANCH  21  22
HETATM   22  S   UNL     1      -5.896   8.495  65.275  1.00  0.00    -0.048 SA 
BRANCH  22  23
HETATM   23  S   UNL     1      -5.359   8.953  67.211  1.00  0.00    -0.034 SA 
BRANCH  23  24
HETATM   24  C   UNL     1      -6.218  10.541  67.461  1.00  0.00    -0.056 C  
BRANCH  24  25
HETATM   25  C   UNL     1      -7.233  10.447  68.603  1.00  0.00    -0.082 C  
BRANCH  25  26
HETATM   26  N   UNL     1      -8.547   9.941  68.216  1.00  0.00    -0.114 N  
HETATM   27  H   UNL     1      -9.165  10.558  67.689  1.00  0.00     0.000 HD 
HETATM   28  C   UNL     1      -8.999   8.675  68.524  1.00  0.00    -0.139 C  
HETATM   29  O   UNL     1      -8.365   7.871  69.200  1.00  0.00    -0.129 OA 
BRANCH  28  30
HETATM   30  C   UNL     1     -10.342   8.326  67.926  1.00  0.00    -0.278 C  
BRANCH  30  31
HETATM   31  C   UNL     1     -10.833   6.998  68.494  1.00  0.00    -0.138 C  
BRANCH  31  32
HETATM   32  N   UNL     1      -9.920   5.909  68.205  1.00  0.00    -0.137 N  
HETATM   33  H   UNL     1      -9.120   5.762  68.821  1.00  0.00     0.000 HD 
HETATM   34  C   UNL     1     -10.092   5.067  67.131  1.00  0.00    -0.199 C  
HETATM   35  O   UNL     1     -10.968   5.220  66.285  1.00  0.00    -0.237 OA 
BRANCH  34  36
HETATM   36  C   UNL     1      -9.035   3.945  67.038  1.00  0.00    -0.138 C  
HETATM   37  O   UNL     1      -8.568   3.601  68.352  1.00  0.00    -0.089 OA 
HETATM   38  H   UNL     1      -7.917   2.911  68.294  1.00  0.00     0.000 HD 
BRANCH  36  39
HETATM   39  C   UNL     1      -7.834   4.302  66.119  1.00  0.00    -0.095 C  
HETATM   40  C   UNL     1      -7.498   3.145  65.155  1.00  0.00    -0.072 C  
HETATM   41  C   UNL     1      -8.216   5.526  65.254  1.00  0.00    -0.136 C  
BRANCH  39  42
HETATM   42  C   UNL     1      -6.596   4.652  66.980  1.00  0.00    -0.050 C  
HETATM   43  O   UNL     1      -6.776   5.872  67.692  1.00  0.00    -0.054 OA 
HETATM   44  H   UNL     1      -6.016   6.087  68.221  1.00  0.00     0.000 HD 
ENDBRANCH  39  42
ENDBRANCH  36  39
ENDBRANCH  34  36
ENDBRANCH  31  32
ENDBRANCH  30  31
ENDBRANCH  28  30
ENDBRANCH  25  26
ENDBRANCH  24  25
ENDBRANCH  23  24
ENDBRANCH  22  23
ENDBRANCH  21  22
ENDBRANCH  20  21
ENDBRANCH  18  20
ENDBRANCH  15  16
ENDBRANCH  14  15
ENDBRANCH  12  14
ENDBRANCH   7  10
ENDBRANCH   2   7
TORSDOF 19
ENDMDL
MODEL      251
REMARK 921   NORMALIZED FREE ENERGY PREDICTED BY IDOCK:   -3.72 KCAL/MOL
REMARK 922        TOTAL FREE ENERGY PREDICTED BY IDOCK:  -10.03 KCAL/MOL
REMARK 923 INTER-LIGAND FREE ENERGY PREDICTED BY IDOCK:   -8.83 KCAL/MOL
REMARK 924 INTRA-LIGAND FREE ENERGY PREDICTED BY IDOCK:   -1.20 KCAL/MOL
REMARK 927      BINDING AFFINITY PREDICTED BY RF-SCORE:    0.00 PKD
ROOT
HETATM    1  C   UNL     1      -8.268   9.575  64.721  1.00  0.00    -0.143 C  
HETATM    2  C   UNL     1      -7.984   8.231  65.418  1.00  0.00    -0.127 C  
HETATM    3  C   UNL     1      -9.255   7.755  66.164  1.00  0.00    -0.182 C  
ENDROOT
BRANCH   2   4
HETATM    4  C   UNL     1      -7.676   7.164  64.346  1.00  0.00    -0.117 C  
HETATM    5  O   UNL     1      -8.503   6.014  64.506  1.00  0.00    -0.287 OA 
HETATM    6  H   UNL     1      -8.313   5.357  63.846  1.00  0.00     0.000 HD 
ENDBRANCH   2   4
BRANCH   2   7
HETATM    7  C   UNL     1      -6.782   8.346  66.407  1.00  0.00    -0.066 C  
HETATM    8  O   UNL     1      -6.950   9.402  67.368  1.00  0.00    -0.082 OA 
HETATM    9  H   UNL     1      -6.219   9.472  67.970  1.00  0.00     0.000 HD 
BRANCH   7  10
HETATM   10  C   UNL     1      -6.454   7.055  67.189  1.00  0.00    -0.053 C  
HETATM   11  O   UNL     1      -6.355   5.940  66.686  1.00  0.00    -0.038 OA 
HETATM   12  N   UNL     1      -6.205   7.282  68.525  1.00  0.00    -0.034 N  
HETATM   13  H   UNL     1      -6.364   8.210  68.916  1.00  0.00     0.000 HD 
BRANCH  12  14
HETATM   14  C   UNL     1      -5.722   6.220  69.379  1.00  0.00    -0.017 C  
BRANCH  14  15
HETATM   15  C   UNL     1      -6.535   6.061  70.660  1.00  0.00    -0.040 C  
BRANCH  15  16
HETATM   16  C   UNL     1      -7.188   7.385  70.985  1.00  0.00    -0.068 C  
HETATM   17  O   UNL     1      -6.533   8.413  71.128  1.00  0.00    -0.038 OA 
HETATM   18  N   UNL     1      -8.560   7.332  71.076  1.00  0.00    -0.128 N  
HETATM   19  H   UNL     1      -9.007   6.435  70.891  1.00  0.00     0.000 HD 
BRANCH  18  20
HETATM   20  C   UNL     1      -9.430   8.461  71.416  1.00  0.00    -0.192 C  
BRANCH  20  21
HETATM   21  C   UNL     1     -10.574   8.190  72.398  1.00  0.00    -0.323 C  
BRANCH  21  22
HETATM   22  S   UNL     1     -11.975   7.224  71.715  1.00  0.00    -0.323 SA 
BRANCH  22  23
HETATM   23  S   UNL     1     -13.645   8.267  72.323  1.00  0.00    -0.158 SA 
BRANCH  23  24
HETATM   24  C   UNL     1     -13.575   9.731  71.239  1.00  0.00    -0.216 C  
BRANCH  24  25
HETATM   25  C   UNL     1     -13.362  11.010  72.052  1.00  0.00    -0.288 C  
BRANCH  25  26
HETATM   26  N   UNL     1     -13.130  12.212  71.254  1.00  0.00    -0.216 N  
HETATM   27  H   UNL     1     -12.977  12.103  70.252  1.00  0.00     0.000 HD 
HETATM   28  C   UNL     1     -13.108  13.486  71.783  1.00  0.00    -0.387 C  
HETATM   29  O   UNL     1     -13.225  13.729  72.979  1.00  0.00    -0.534 OA 
BRANCH  28  30
HETATM   30  C   UNL     1     -12.966  14.587  70.757  1.00  0.00    -0.403 C  
BRANCH  30  31
HETATM   31  C   UNL     1     -11.676  14.394  69.967  1.00  0.00    -0.298 C  
BRANCH  31  32
HETATM   32  N   UNL     1     -11.891  13.649  68.740  1.00  0.00    -0.344 N  
HETATM   33  H   UNL     1     -12.066  12.646  68.799  1.00  0.00     0.000 HD 
HETATM   34  C   UNL     1     -11.869  14.247  67.502  1.00  0.00    -0.395 C  
HETATM   35  O   UNL     1     -11.578  15.427  67.324  1.00  0.00    -0.243 OA 
BRANCH  34  36
HETATM   36  C   UNL     1     -12.173  13.282  66.335  1.00  0.00    -0.356 C  
HETATM   37  O   UNL     1     -11.996  11.923  66.763  1.00  0.00    -0.613 OA 
HETATM   38  H   UNL     1     -12.183  11.329  66.045  1.00  0.00     0.000 HD 
BRANCH  36  39
HETATM   39  C   UNL     1     -11.320  13.559  65.066  1.00  0.00    -0.334 C  
HETATM   40  C   UNL     1      -9.829  13.743  65.417  1.00  0.00    -0.171 C  
HETATM   41  C   UNL     1     -11.423  12.338  64.121  1.00  0.00    -0.453 C  
BRANCH  39  42
HETATM   42  C   UNL     1     -11.852  14.814  64.334  1.00  0.00    -0.380 C  
HETATM   43  O   UNL     1     -10.996  15.937  64.518  1.00  0.00    -0.786 OA 
HETATM   44  H   UNL     1     -11.323  16.708  64.069  1.00  0.00     0.000 HD 
ENDBRANCH  39  42
ENDBRANCH  36  39
ENDBRANCH  34  36
ENDBRANCH  31  32
ENDBRANCH  30  31
ENDBRANCH  28  30
ENDBRANCH  25  26
ENDBRANCH  24  25
ENDBRANCH  23  24
ENDBRANCH  22  23
ENDBRANCH  21  22
ENDBRANCH  20  21
ENDBRANCH  18  20
ENDBRANCH  15  16
ENDBRANCH  14  15
ENDBRANCH  12  14
ENDBRANCH   7  10
ENDBRANCH   2   7
TORSDOF 19
ENDMDL
MODEL      252
REMARK 921   NORMALIZED FREE ENERGY PREDICTED BY IDOCK:   -3.71 KCAL/MOL
REMARK 922        TOTAL FREE ENERGY PREDICTED BY IDOCK:  -10.00 KCAL/MOL
REMARK 923 INTER-LIGAND FREE ENERGY PREDICTED BY IDOCK:   -8.82 KCAL/MOL
REMARK 924 INTRA-LIGAND FREE ENERGY PREDICTED BY IDOCK:   -1.18 KCAL/MOL
REMARK 927      BINDING AFFINITY PREDICTED BY RF-SCORE:    0.00 PKD
ROOT
HETATM    1  C   UNL     1      -9.388   7.931  73.314  1.00  0.00    -0.351 C  
HETATM    2  C   UNL     1      -9.800   6.520  72.853  1.00  0.00    -0.174 C  
HETATM    3  C   UNL     1      -9.524   5.503  73.989  1.00  0.00    -0.137 C  
ENDROOT
BRANCH   2   4
HETATM    4  C   UNL     1     -11.322   6.498  72.601  1.00  0.00    -0.222 C  
HETATM    5  O   UNL     1     -11.929   7.731  72.978  1.00  0.00    -0.610 OA 
HETATM    6  H   UNL     1     -12.866   7.717  72.822  1.00  0.00     0.000 HD 
ENDBRANCH   2   4
BRANCH   2   7
HETATM    7  C   UNL     1      -9.044   6.103  71.553  1.00  0.00    -0.143 C  
HETATM    8  O   UNL     1      -8.046   5.095  71.786  1.00  0.00    -0.111 OA 
HETATM    9  H   UNL     1      -7.587   4.841  70.995  1.00  0.00     0.000 HD 
BRANCH   7  10
HETATM   10  C   UNL     1      -9.948   5.604  70.404  1.00  0.00    -0.206 C  
HETATM   11  O   UNL     1     -10.332   4.446  70.270  1.00  0.00    -0.094 OA 
HETATM   12  N   UNL     1     -10.356   6.613  69.560  1.00  0.00    -0.192 N  
HETATM   13  H   UNL     1      -9.961   7.548  69.665  1.00  0.00     0.000 HD 
BRANCH  12  14
HETATM   14  C   UNL     1     -11.336   6.364  68.527  1.00  0.00    -0.086 C  
BRANCH  14  15
HETATM   15  C   UNL     1     -10.715   6.082  67.163  1.00  0.00    -0.409 C  
BRANCH  15  16
HETATM   16  C   UNL     1     -10.028   7.339  66.676  1.00  0.00    -0.176 C  
HETATM   17  O   UNL     1     -10.354   8.451  67.077  1.00  0.00    -0.277 OA 
HETATM   18  N   UNL     1      -9.007   7.115  65.780  1.00  0.00    -0.351 N  
HETATM   19  H   UNL     1      -8.788   6.146  65.552  1.00  0.00     0.000 HD 
BRANCH  18  20
HETATM   20  C   UNL     1      -8.210   8.157  65.128  1.00  0.00    -0.154 C  
BRANCH  20  21
HETATM   21  C   UNL     1      -7.053   8.756  65.933  1.00  0.00    -0.084 C  
BRANCH  21  22
HETATM   22  S   UNL     1      -6.177   7.580  67.034  1.00  0.00    -0.053 SA 
BRANCH  22  23
HETATM   23  S   UNL     1      -7.087   7.837  68.865  1.00  0.00    -0.077 SA 
BRANCH  23  24
HETATM   24  C   UNL     1      -6.792   9.610  69.172  1.00  0.00    -0.050 C  
BRANCH  24  25
HETATM   25  C   UNL     1      -8.110  10.383  69.257  1.00  0.00    -0.157 C  
BRANCH  25  26
HETATM   26  N   UNL     1      -7.979  11.834  69.156  1.00  0.00    -0.351 N  
HETATM   27  H   UNL     1      -7.916  12.373  70.020  1.00  0.00     0.000 HD 
HETATM   28  C   UNL     1      -7.934  12.515  67.957  1.00  0.00    -0.153 C  
HETATM   29  O   UNL     1      -8.055  11.976  66.862  1.00  0.00    -0.166 OA 
BRANCH  28  30
HETATM   30  C   UNL     1      -7.679  13.999  68.089  1.00  0.00    -0.143 C  
BRANCH  30  31
HETATM   31  C   UNL     1      -9.001  14.735  68.283  1.00  0.00    -0.181 C  
BRANCH  31  32
HETATM   32  N   UNL     1      -8.820  16.172  68.369  1.00  0.00    -0.182 N  
HETATM   33  H   UNL     1      -7.874  16.552  68.323  1.00  0.00     0.000 HD 
HETATM   34  C   UNL     1      -9.876  17.041  68.510  1.00  0.00    -0.290 C  
HETATM   35  O   UNL     1     -11.038  16.676  68.666  1.00  0.00    -0.341 OA 
BRANCH  34  36
HETATM   36  C   UNL     1      -9.465  18.530  68.529  1.00  0.00    -0.347 C  
HETATM   37  O   UNL     1     -10.422  19.294  69.280  1.00  0.00    -0.474 OA 
HETATM   38  H   UNL     1     -10.168  20.210  69.291  1.00  0.00     0.000 HD 
BRANCH  36  39
HETATM   39  C   UNL     1      -9.288  19.141  67.110  1.00  0.00    -0.358 C  
HETATM   40  C   UNL     1      -7.913  18.781  66.509  1.00  0.00    -0.294 C  
HETATM   41  C   UNL     1     -10.369  18.549  66.176  1.00  0.00    -0.457 C  
BRANCH  39  42
HETATM   42  C   UNL     1      -9.455  20.678  67.172  1.00  0.00    -0.365 C  
HETATM   43  O   UNL     1      -8.200  21.349  67.131  1.00  0.00    -0.607 OA 
HETATM   44  H   UNL     1      -8.302  22.293  67.169  1.00  0.00     0.000 HD 
ENDBRANCH  39  42
ENDBRANCH  36  39
ENDBRANCH  34  36
ENDBRANCH  31  32
ENDBRANCH  30  31
ENDBRANCH  28  30
ENDBRANCH  25  26
ENDBRANCH  24  25
ENDBRANCH  23  24
ENDBRANCH  22  23
ENDBRANCH  21  22
ENDBRANCH  20  21
ENDBRANCH  18  20
ENDBRANCH  15  16
ENDBRANCH  14  15
ENDBRANCH  12  14
ENDBRANCH   7  10
ENDBRANCH   2   7
TORSDOF 19
ENDMDL
MODEL      253
REMARK 921   NORMALIZED FREE ENERGY PREDICTED BY IDOCK:   -3.70 KCAL/MOL
REMARK 922        TOTAL FREE ENERGY PREDICTED BY IDOCK:  -10.00 KCAL/MOL
REMARK 923 INTER-LIGAND FREE ENERGY PREDICTED BY IDOCK:   -7.61 KCAL/MOL
REMARK 924 INTRA-LIGAND FREE ENERGY PREDICTED BY IDOCK:   -2.39 KCAL/MOL
REMARK 927      BINDING AFFINITY PREDICTED BY RF-SCORE:    0.00 PKD
ROOT
HETATM    1  C   UNL     1      -9.001  10.293  69.357  1.00  0.00    -0.190 C  
HETATM    2  C   UNL     1      -8.441   8.951  68.852  1.00  0.00    -0.131 C  
HETATM    3  C   UNL     1      -8.889   7.812  69.801  1.00  0.00    -0.139 C  
ENDROOT
BRANCH   2   4
HETATM    4  C   UNL     1      -9.051   8.639  67.469  1.00  0.00    -0.134 C  
HETATM    5  O   UNL     1      -9.336   9.834  66.747  1.00  0.00    -0.145 OA 
HETATM    6  H   UNL     1      -9.712   9.642  65.895  1.00  0.00     0.000 HD 
ENDBRANCH   2   4
BRANCH   2   7
HETATM    7  C   UNL     1      -6.884   8.989  68.745  1.00  0.00    -0.061 C  
HETATM    8  O   UNL     1      -6.332   7.777  68.202  1.00  0.00    -0.046 OA 
HETATM    9  H   UNL     1      -5.386   7.801  68.136  1.00  0.00     0.000 HD 
BRANCH   7  10
HETATM   10  C   UNL     1      -6.315  10.166  67.922  1.00  0.00    -0.061 C  
HETATM   11  O   UNL     1      -6.299  10.218  66.695  1.00  0.00    -0.067 OA 
HETATM   12  N   UNL     1      -5.882  11.213  68.705  1.00  0.00    -0.043 N  
HETATM   13  H   UNL     1      -5.849  11.103  69.719  1.00  0.00     0.000 HD 
BRANCH  12  14
HETATM   14  C   UNL     1      -5.471  12.464  68.109  1.00  0.00    -0.064 C  
BRANCH  14  15
HETATM   15  C   UNL     1      -6.638  13.286  67.571  1.00  0.00    -0.153 C  
BRANCH  15  16
HETATM   16  C   UNL     1      -7.040  14.299  68.620  1.00  0.00    -0.111 C  
HETATM   17  O   UNL     1      -6.314  14.567  69.572  1.00  0.00    -0.109 OA 
HETATM   18  N   UNL     1      -8.259  14.895  68.393  1.00  0.00    -0.144 N  
HETATM   19  H   UNL     1      -8.758  14.633  67.544  1.00  0.00     0.000 HD 
BRANCH  18  20
HETATM   20  C   UNL     1      -8.897  15.878  69.273  1.00  0.00    -0.249 C  
BRANCH  20  21
HETATM   21  C   UNL     1     -10.137  15.421  70.048  1.00  0.00    -0.207 C  
BRANCH  21  22
HETATM   22  S   UNL     1     -11.679  15.320  69.060  1.00  0.00    -0.339 SA 
BRANCH  22  23
HETATM   23  S   UNL     1     -11.889  13.309  68.664  1.00  0.00    -0.322 SA 
BRANCH  23  24
HETATM   24  C   UNL     1     -10.691  13.078  67.309  1.00  0.00    -0.250 C  
BRANCH  24  25
HETATM   25  C   UNL     1     -11.335  13.360  65.949  1.00  0.00    -0.309 C  
BRANCH  25  26
HETATM   26  N   UNL     1     -11.499  14.775  65.629  1.00  0.00    -0.346 N  
HETATM   27  H   UNL     1     -12.443  15.125  65.463  1.00  0.00     0.000 HD 
HETATM   28  C   UNL     1     -10.449  15.665  65.540  1.00  0.00    -0.404 C  
HETATM   29  O   UNL     1      -9.272  15.344  65.665  1.00  0.00    -0.250 OA 
BRANCH  28  30
HETATM   30  C   UNL     1     -10.862  17.101  65.310  1.00  0.00    -0.043 C  
BRANCH  30  31
HETATM   31  C   UNL     1     -10.486  17.947  66.522  1.00  0.00    -0.313 C  
BRANCH  31  32
HETATM   32  N   UNL     1      -9.141  18.481  66.421  1.00  0.00    -0.294 N  
HETATM   33  H   UNL     1      -8.381  17.852  66.162  1.00  0.00     0.000 HD 
HETATM   34  C   UNL     1      -8.854  19.805  66.661  1.00  0.00    -0.359 C  
HETATM   35  O   UNL     1      -9.682  20.615  67.065  1.00  0.00    -0.439 OA 
BRANCH  34  36
HETATM   36  C   UNL     1      -7.368  20.172  66.446  1.00  0.00    -0.281 C  
HETATM   37  O   UNL     1      -6.912  19.657  65.185  1.00  0.00    -0.378 OA 
HETATM   38  H   UNL     1      -5.999  19.883  65.054  1.00  0.00     0.000 HD 
BRANCH  36  39
HETATM   39  C   UNL     1      -6.439  19.683  67.592  1.00  0.00    -0.239 C  
HETATM   40  C   UNL     1      -5.415  20.766  67.989  1.00  0.00    -0.304 C  
HETATM   41  C   UNL     1      -7.302  19.385  68.840  1.00  0.00    -0.402 C  
BRANCH  39  42
HETATM   42  C   UNL     1      -5.705  18.390  67.161  1.00  0.00    -0.138 C  
HETATM   43  O   UNL     1      -6.571  17.259  67.178  1.00  0.00    -0.145 OA 
HETATM   44  H   UNL     1      -6.121  16.466  66.914  1.00  0.00     0.000 HD 
ENDBRANCH  39  42
ENDBRANCH  36  39
ENDBRANCH  34  36
ENDBRANCH  31  32
ENDBRANCH  30  31
ENDBRANCH  28  30
ENDBRANCH  25  26
ENDBRANCH  24  25
ENDBRANCH  23  24
ENDBRANCH  22  23
ENDBRANCH  21  22
ENDBRANCH  20  21
ENDBRANCH  18  20
ENDBRANCH  15  16
ENDBRANCH  14  15
ENDBRANCH  12  14
ENDBRANCH   7  10
ENDBRANCH   2   7
TORSDOF 19
ENDMDL
MODEL      254
REMARK 921   NORMALIZED FREE ENERGY PREDICTED BY IDOCK:   -3.70 KCAL/MOL
REMARK 922        TOTAL FREE ENERGY PREDICTED BY IDOCK:   -9.99 KCAL/MOL
REMARK 923 INTER-LIGAND FREE ENERGY PREDICTED BY IDOCK:   -8.31 KCAL/MOL
REMARK 924 INTRA-LIGAND FREE ENERGY PREDICTED BY IDOCK:   -1.68 KCAL/MOL
REMARK 927      BINDING AFFINITY PREDICTED BY RF-SCORE:    0.00 PKD
ROOT
HETATM    1  C   UNL     1      -9.528   1.491  63.213  1.00  0.00    -0.094 C  
HETATM    2  C   UNL     1      -9.185   2.947  63.576  1.00  0.00    -0.096 C  
HETATM    3  C   UNL     1      -7.704   3.234  63.226  1.00  0.00    -0.067 C  
ENDROOT
BRANCH   2   4
HETATM    4  C   UNL     1     -10.036   3.896  62.706  1.00  0.00    -0.173 C  
HETATM    5  O   UNL     1      -9.440   5.188  62.611  1.00  0.00    -0.354 OA 
HETATM    6  H   UNL     1      -9.965   5.772  62.076  1.00  0.00     0.000 HD 
ENDBRANCH   2   4
BRANCH   2   7
HETATM    7  C   UNL     1      -9.454   3.235  65.086  1.00  0.00    -0.139 C  
HETATM    8  O   UNL     1      -9.602   2.035  65.865  1.00  0.00    -0.343 OA 
HETATM    9  H   UNL     1      -9.766   2.210  66.784  1.00  0.00     0.000 HD 
BRANCH   7  10
HETATM   10  C   UNL     1      -8.389   4.111  65.784  1.00  0.00    -0.109 C  
HETATM   11  O   UNL     1      -8.328   5.334  65.701  1.00  0.00    -0.117 OA 
HETATM   12  N   UNL     1      -7.535   3.387  66.585  1.00  0.00    -0.075 N  
HETATM   13  H   UNL     1      -7.576   2.368  66.574  1.00  0.00     0.000 HD 
BRANCH  12  14
HETATM   14  C   UNL     1      -6.581   4.053  67.443  1.00  0.00    -0.046 C  
BRANCH  14  15
HETATM   15  C   UNL     1      -6.657   3.599  68.897  1.00  0.00    -0.040 C  
BRANCH  15  16
HETATM   16  C   UNL     1      -8.073   3.795  69.391  1.00  0.00    -0.054 C  
HETATM   17  O   UNL     1      -8.974   3.014  69.101  1.00  0.00    -0.093 OA 
HETATM   18  N   UNL     1      -8.242   4.895  70.201  1.00  0.00    -0.073 N  
HETATM   19  H   UNL     1      -7.415   5.449  70.417  1.00  0.00     0.000 HD 
BRANCH  18  20
HETATM   20  C   UNL     1      -9.516   5.332  70.778  1.00  0.00    -0.168 C  
BRANCH  20  21
HETATM   21  C   UNL     1     -10.299   6.402  70.012  1.00  0.00    -0.198 C  
BRANCH  21  22
HETATM   22  S   UNL     1      -9.765   8.129  70.321  1.00  0.00    -0.175 SA 
BRANCH  22  23
HETATM   23  S   UNL     1     -10.778   8.668  72.032  1.00  0.00    -0.353 SA 
BRANCH  23  24
HETATM   24  C   UNL     1     -12.484   8.830  71.410  1.00  0.00    -0.303 C  
BRANCH  24  25
HETATM   25  C   UNL     1     -13.079  10.191  71.779  1.00  0.00    -0.463 C  
BRANCH  25  26
HETATM   26  N   UNL     1     -12.417  11.338  71.162  1.00  0.00    -0.385 N  
HETATM   27  H   UNL     1     -11.650  11.160  70.514  1.00  0.00     0.000 HD 
HETATM   28  C   UNL     1     -12.774  12.648  71.408  1.00  0.00    -0.247 C  
HETATM   29  O   UNL     1     -13.642  12.979  72.208  1.00  0.00    -0.549 OA 
BRANCH  28  30
HETATM   30  C   UNL     1     -12.030  13.666  70.575  1.00  0.00    -0.353 C  
BRANCH  30  31
HETATM   31  C   UNL     1     -12.339  13.450  69.096  1.00  0.00    -0.009 C  
BRANCH  31  32
HETATM   32  N   UNL     1     -11.145  13.162  68.324  1.00  0.00    -0.253 N  
HETATM   33  H   UNL     1     -10.235  13.240  68.778  1.00  0.00     0.000 HD 
HETATM   34  C   UNL     1     -11.196  12.786  67.002  1.00  0.00    -0.292 C  
HETATM   35  O   UNL     1     -12.233  12.753  66.347  1.00  0.00    -0.507 OA 
BRANCH  34  36
HETATM   36  C   UNL     1      -9.814  12.477  66.385  1.00  0.00    -0.253 C  
HETATM   37  O   UNL     1      -9.610  13.279  65.211  1.00  0.00    -0.503 OA 
HETATM   38  H   UNL     1      -8.760  13.088  64.832  1.00  0.00     0.000 HD 
BRANCH  36  39
HETATM   39  C   UNL     1      -9.610  10.973  66.048  1.00  0.00    -0.249 C  
HETATM   40  C   UNL     1     -10.418  10.067  66.999  1.00  0.00    -0.302 C  
HETATM   41  C   UNL     1     -10.125  10.711  64.613  1.00  0.00    -0.417 C  
BRANCH  39  42
HETATM   42  C   UNL     1      -8.106  10.614  66.122  1.00  0.00    -0.154 C  
HETATM   43  O   UNL     1      -7.406  11.021  64.950  1.00  0.00    -0.304 OA 
HETATM   44  H   UNL     1      -6.483  10.801  64.996  1.00  0.00     0.000 HD 
ENDBRANCH  39  42
ENDBRANCH  36  39
ENDBRANCH  34  36
ENDBRANCH  31  32
ENDBRANCH  30  31
ENDBRANCH  28  30
ENDBRANCH  25  26
ENDBRANCH  24  25
ENDBRANCH  23  24
ENDBRANCH  22  23
ENDBRANCH  21  22
ENDBRANCH  20  21
ENDBRANCH  18  20
ENDBRANCH  15  16
ENDBRANCH  14  15
ENDBRANCH  12  14
ENDBRANCH   7  10
ENDBRANCH   2   7
TORSDOF 19
ENDMDL
MODEL      255
REMARK 921   NORMALIZED FREE ENERGY PREDICTED BY IDOCK:   -3.70 KCAL/MOL
REMARK 922        TOTAL FREE ENERGY PREDICTED BY IDOCK:   -9.99 KCAL/MOL
REMARK 923 INTER-LIGAND FREE ENERGY PREDICTED BY IDOCK:   -7.58 KCAL/MOL
REMARK 924 INTRA-LIGAND FREE ENERGY PREDICTED BY IDOCK:   -2.41 KCAL/MOL
REMARK 927      BINDING AFFINITY PREDICTED BY RF-SCORE:    0.00 PKD
ROOT
HETATM    1  C   UNL     1     -11.771  15.922  68.608  1.00  0.00    -0.328 C  
HETATM    2  C   UNL     1     -10.373  16.039  67.973  1.00  0.00    -0.266 C  
HETATM    3  C   UNL     1     -10.416  15.503  66.521  1.00  0.00    -0.301 C  
ENDROOT
BRANCH   2   4
HETATM    4  C   UNL     1      -9.986  17.531  67.882  1.00  0.00    -0.312 C  
HETATM    5  O   UNL     1     -10.714  18.194  66.851  1.00  0.00    -0.337 OA 
HETATM    6  H   UNL     1     -10.476  19.111  66.795  1.00  0.00     0.000 HD 
ENDBRANCH   2   4
BRANCH   2   7
HETATM    7  C   UNL     1      -9.303  15.268  68.808  1.00  0.00    -0.210 C  
HETATM    8  O   UNL     1      -9.844  14.120  69.484  1.00  0.00    -0.388 OA 
HETATM    9  H   UNL     1      -9.193  13.651  69.992  1.00  0.00     0.000 HD 
BRANCH   7  10
HETATM   10  C   UNL     1      -8.068  14.796  68.009  1.00  0.00    -0.139 C  
HETATM   11  O   UNL     1      -7.323  15.535  67.373  1.00  0.00    -0.173 OA 
HETATM   12  N   UNL     1      -7.827  13.446  68.135  1.00  0.00    -0.133 N  
HETATM   13  H   UNL     1      -8.507  12.855  68.616  1.00  0.00     0.000 HD 
BRANCH  12  14
HETATM   14  C   UNL     1      -6.624  12.854  67.594  1.00  0.00    -0.155 C  
BRANCH  14  15
HETATM   15  C   UNL     1      -5.456  12.860  68.575  1.00  0.00    -0.061 C  
BRANCH  15  16
HETATM   16  C   UNL     1      -5.738  11.855  69.669  1.00  0.00    -0.093 C  
HETATM   17  O   UNL     1      -6.048  12.203  70.804  1.00  0.00    -0.286 OA 
HETATM   18  N   UNL     1      -5.642  10.542  69.269  1.00  0.00    -0.037 N  
HETATM   19  H   UNL     1      -5.424  10.366  68.288  1.00  0.00     0.000 HD 
BRANCH  18  20
HETATM   20  C   UNL     1      -5.826   9.377  70.138  1.00  0.00    -0.033 C  
BRANCH  20  21
HETATM   21  C   UNL     1      -5.181   8.062  69.690  1.00  0.00    -0.023 C  
BRANCH  21  22
HETATM   22  S   UNL     1      -5.322   6.678  70.886  1.00  0.00    -0.023 SA 
BRANCH  22  23
HETATM   23  S   UNL     1      -5.848   7.597  72.654  1.00  0.00    -0.040 SA 
BRANCH  23  24
HETATM   24  C   UNL     1      -7.581   7.063  72.839  1.00  0.00    -0.084 C  
BRANCH  24  25
HETATM   25  C   UNL     1      -8.512   8.263  73.026  1.00  0.00    -0.195 C  
BRANCH  25  26
HETATM   26  N   UNL     1      -9.695   8.262  72.168  1.00  0.00    -0.245 N  
HETATM   27  H   UNL     1      -9.629   8.713  71.256  1.00  0.00     0.000 HD 
HETATM   28  C   UNL     1     -10.895   7.684  72.525  1.00  0.00    -0.314 C  
HETATM   29  O   UNL     1     -11.104   7.164  73.616  1.00  0.00    -0.191 OA 
BRANCH  28  30
HETATM   30  C   UNL     1     -11.946   7.701  71.438  1.00  0.00    -0.336 C  
BRANCH  30  31
HETATM   31  C   UNL     1     -11.628   6.635  70.394  1.00  0.00    -0.398 C  
BRANCH  31  32
HETATM   32  N   UNL     1     -11.565   7.185  69.053  1.00  0.00    -0.276 N  
HETATM   33  H   UNL     1     -12.416   7.213  68.492  1.00  0.00     0.000 HD 
HETATM   34  C   UNL     1     -10.397   7.668  68.510  1.00  0.00    -0.198 C  
HETATM   35  O   UNL     1      -9.308   7.593  69.070  1.00  0.00    -0.147 OA 
BRANCH  34  36
HETATM   36  C   UNL     1     -10.562   8.254  67.090  1.00  0.00    -0.270 C  
HETATM   37  O   UNL     1     -10.065   7.324  66.115  1.00  0.00    -0.445 OA 
HETATM   38  H   UNL     1     -10.167   7.685  65.241  1.00  0.00     0.000 HD 
BRANCH  36  39
HETATM   39  C   UNL     1      -9.877   9.637  66.908  1.00  0.00    -0.257 C  
HETATM   40  C   UNL     1      -8.355   9.548  67.148  1.00  0.00    -0.131 C  
HETATM   41  C   UNL     1     -10.087  10.108  65.450  1.00  0.00    -0.342 C  
BRANCH  39  42
HETATM   42  C   UNL     1     -10.508  10.670  67.873  1.00  0.00    -0.208 C  
HETATM   43  O   UNL     1     -10.300  12.006  67.427  1.00  0.00    -0.204 OA 
HETATM   44  H   UNL     1     -10.687  12.641  68.019  1.00  0.00     0.000 HD 
ENDBRANCH  39  42
ENDBRANCH  36  39
ENDBRANCH  34  36
ENDBRANCH  31  32
ENDBRANCH  30  31
ENDBRANCH  28  30
ENDBRANCH  25  26
ENDBRANCH  24  25
ENDBRANCH  23  24
ENDBRANCH  22  23
ENDBRANCH  21  22
ENDBRANCH  20  21
ENDBRANCH  18  20
ENDBRANCH  15  16
ENDBRANCH  14  15
ENDBRANCH  12  14
ENDBRANCH   7  10
ENDBRANCH   2   7
TORSDOF 19
ENDMDL
MODEL      256
REMARK 921   NORMALIZED FREE ENERGY PREDICTED BY IDOCK:   -3.70 KCAL/MOL
REMARK 922        TOTAL FREE ENERGY PREDICTED BY IDOCK:   -9.99 KCAL/MOL
REMARK 923 INTER-LIGAND FREE ENERGY PREDICTED BY IDOCK:   -8.71 KCAL/MOL
REMARK 924 INTRA-LIGAND FREE ENERGY PREDICTED BY IDOCK:   -1.28 KCAL/MOL
REMARK 927      BINDING AFFINITY PREDICTED BY RF-SCORE:    0.00 PKD
ROOT
HETATM    1  C   UNL     1      -6.159  20.399  65.518  1.00  0.00    -0.254 C  
HETATM    2  C   UNL     1      -6.517  19.320  66.557  1.00  0.00    -0.199 C  
HETATM    3  C   UNL     1      -6.345  17.916  65.927  1.00  0.00    -0.287 C  
ENDROOT
BRANCH   2   4
HETATM    4  C   UNL     1      -5.520  19.402  67.732  1.00  0.00    -0.179 C  
HETATM    5  O   UNL     1      -5.885  20.429  68.652  1.00  0.00    -0.261 OA 
HETATM    6  H   UNL     1      -5.271  20.480  69.375  1.00  0.00     0.000 HD 
ENDBRANCH   2   4
BRANCH   2   7
HETATM    7  C   UNL     1      -7.974  19.504  67.089  1.00  0.00    -0.268 C  
HETATM    8  O   UNL     1      -8.816  20.221  66.170  1.00  0.00    -0.560 OA 
HETATM    9  H   UNL     1      -9.702  20.332  66.494  1.00  0.00     0.000 HD 
BRANCH   7  10
HETATM   10  C   UNL     1      -8.703  18.194  67.461  1.00  0.00    -0.249 C  
HETATM   11  O   UNL     1      -8.541  17.578  68.511  1.00  0.00    -0.268 OA 
HETATM   12  N   UNL     1      -9.629  17.805  66.519  1.00  0.00    -0.300 N  
HETATM   13  H   UNL     1      -9.685  18.305  65.631  1.00  0.00     0.000 HD 
BRANCH  12  14
HETATM   14  C   UNL     1     -10.522  16.697  66.772  1.00  0.00    -0.261 C  
BRANCH  14  15
HETATM   15  C   UNL     1     -10.350  15.547  65.784  1.00  0.00    -0.384 C  
BRANCH  15  16
HETATM   16  C   UNL     1     -10.408  14.242  66.547  1.00  0.00    -0.278 C  
HETATM   17  O   UNL     1     -11.341  13.972  67.296  1.00  0.00    -0.303 OA 
HETATM   18  N   UNL     1      -9.351  13.396  66.302  1.00  0.00    -0.450 N  
HETATM   19  H   UNL     1      -8.654  13.701  65.624  1.00  0.00     0.000 HD 
BRANCH  18  20
HETATM   20  C   UNL     1      -9.145  12.093  66.939  1.00  0.00    -0.203 C  
BRANCH  20  21
HETATM   21  C   UNL     1     -10.011  10.930  66.445  1.00  0.00    -0.221 C  
BRANCH  21  22
HETATM   22  S   UNL     1      -9.199   9.813  65.238  1.00  0.00    -0.256 SA 
BRANCH  22  23
HETATM   23  S   UNL     1      -7.186  10.069  65.595  1.00  0.00    -0.125 SA 
BRANCH  23  24
HETATM   24  C   UNL     1      -6.985   9.199  67.184  1.00  0.00    -0.081 C  
BRANCH  24  25
HETATM   25  C   UNL     1      -6.679   7.715  66.968  1.00  0.00    -0.067 C  
BRANCH  25  26
HETATM   26  N   UNL     1      -7.257   6.818  67.964  1.00  0.00    -0.089 N  
HETATM   27  H   UNL     1      -8.067   6.258  67.697  1.00  0.00     0.000 HD 
HETATM   28  C   UNL     1      -6.768   6.685  69.247  1.00  0.00    -0.056 C  
HETATM   29  O   UNL     1      -5.837   7.346  69.694  1.00  0.00    -0.023 OA 
BRANCH  28  30
HETATM   30  C   UNL     1      -7.451   5.616  70.070  1.00  0.00    -0.070 C  
BRANCH  30  31
HETATM   31  C   UNL     1      -7.481   6.032  71.537  1.00  0.00    -0.094 C  
BRANCH  31  32
HETATM   32  N   UNL     1      -8.433   7.099  71.783  1.00  0.00    -0.113 N  
HETATM   33  H   UNL     1      -8.154   8.061  71.588  1.00  0.00     0.000 HD 
HETATM   34  C   UNL     1      -9.697   6.861  72.271  1.00  0.00    -0.146 C  
HETATM   35  O   UNL     1     -10.090   5.752  72.621  1.00  0.00    -0.175 OA 
BRANCH  34  36
HETATM   36  C   UNL     1     -10.564   8.132  72.410  1.00  0.00    -0.323 C  
HETATM   37  O   UNL     1     -11.592   7.919  73.391  1.00  0.00    -0.566 OA 
HETATM   38  H   UNL     1     -12.126   8.700  73.476  1.00  0.00     0.000 HD 
BRANCH  36  39
HETATM   39  C   UNL     1     -11.193   8.602  71.069  1.00  0.00    -0.321 C  
HETATM   40  C   UNL     1     -10.411   9.786  70.464  1.00  0.00    -0.366 C  
HETATM   41  C   UNL     1     -11.125   7.437  70.053  1.00  0.00    -0.238 C  
BRANCH  39  42
HETATM   42  C   UNL     1     -12.673   8.998  71.290  1.00  0.00    -0.262 C  
HETATM   43  O   UNL     1     -12.791  10.236  71.983  1.00  0.00    -0.417 OA 
HETATM   44  H   UNL     1     -13.700  10.480  72.118  1.00  0.00     0.000 HD 
ENDBRANCH  39  42
ENDBRANCH  36  39
ENDBRANCH  34  36
ENDBRANCH  31  32
ENDBRANCH  30  31
ENDBRANCH  28  30
ENDBRANCH  25  26
ENDBRANCH  24  25
ENDBRANCH  23  24
ENDBRANCH  22  23
ENDBRANCH  21  22
ENDBRANCH  20  21
ENDBRANCH  18  20
ENDBRANCH  15  16
ENDBRANCH  14  15
ENDBRANCH  12  14
ENDBRANCH   7  10
ENDBRANCH   2   7
TORSDOF 19
ENDMDL
MODEL      257
REMARK 921   NORMALIZED FREE ENERGY PREDICTED BY IDOCK:   -3.70 KCAL/MOL
REMARK 922        TOTAL FREE ENERGY PREDICTED BY IDOCK:   -9.98 KCAL/MOL
REMARK 923 INTER-LIGAND FREE ENERGY PREDICTED BY IDOCK:   -7.95 KCAL/MOL
REMARK 924 INTRA-LIGAND FREE ENERGY PREDICTED BY IDOCK:   -2.03 KCAL/MOL
REMARK 927      BINDING AFFINITY PREDICTED BY RF-SCORE:    0.00 PKD
ROOT
HETATM    1  C   UNL     1      -9.807   6.434  66.607  1.00  0.00    -0.203 C  
HETATM    2  C   UNL     1      -9.099   5.075  66.760  1.00  0.00    -0.118 C  
HETATM    3  C   UNL     1      -8.914   4.426  65.366  1.00  0.00    -0.137 C  
ENDROOT
BRANCH   2   4
HETATM    4  C   UNL     1      -7.684   5.306  67.331  1.00  0.00    -0.096 C  
HETATM    5  O   UNL     1      -6.966   4.081  67.452  1.00  0.00    -0.054 OA 
HETATM    6  H   UNL     1      -6.096   4.224  67.804  1.00  0.00     0.000 HD 
ENDBRANCH   2   4
BRANCH   2   7
HETATM    7  C   UNL     1      -9.898   4.121  67.703  1.00  0.00    -0.065 C  
HETATM    8  O   UNL     1      -9.544   2.738  67.528  1.00  0.00    -0.370 OA 
HETATM    9  H   UNL     1     -10.030   2.158  68.101  1.00  0.00     0.000 HD 
BRANCH   7  10
HETATM   10  C   UNL     1      -9.778   4.442  69.210  1.00  0.00    -0.182 C  
HETATM   11  O   UNL     1      -8.985   3.906  69.978  1.00  0.00    -0.082 OA 
HETATM   12  N   UNL     1     -10.613   5.461  69.612  1.00  0.00    -0.298 N  
HETATM   13  H   UNL     1     -11.303   5.834  68.960  1.00  0.00     0.000 HD 
BRANCH  12  14
HETATM   14  C   UNL     1     -10.522   6.010  70.947  1.00  0.00    -0.236 C  
BRANCH  14  15
HETATM   15  C   UNL     1      -9.503   7.138  71.067  1.00  0.00    -0.159 C  
BRANCH  15  16
HETATM   16  C   UNL     1      -9.807   8.178  70.012  1.00  0.00    -0.182 C  
HETATM   17  O   UNL     1     -10.956   8.532  69.764  1.00  0.00    -0.219 OA 
HETATM   18  N   UNL     1      -8.694   8.697  69.391  1.00  0.00    -0.137 N  
HETATM   19  H   UNL     1      -7.783   8.366  69.709  1.00  0.00     0.000 HD 
BRANCH  18  20
HETATM   20  C   UNL     1      -8.711   9.687  68.311  1.00  0.00    -0.120 C  
BRANCH  20  21
HETATM   21  C   UNL     1      -7.358  10.134  67.751  1.00  0.00    -0.088 C  
BRANCH  21  22
HETATM   22  S   UNL     1      -7.365  10.605  65.979  1.00  0.00    -0.109 SA 
BRANCH  22  23
HETATM   23  S   UNL     1      -8.626   9.232  65.101  1.00  0.00    -0.182 SA 
BRANCH  23  24
HETATM   24  C   UNL     1     -10.225  10.106  65.178  1.00  0.00    -0.162 C  
BRANCH  24  25
HETATM   25  C   UNL     1     -10.022  11.619  65.286  1.00  0.00    -0.255 C  
BRANCH  25  26
HETATM   26  N   UNL     1     -10.873  12.284  66.270  1.00  0.00    -0.268 N  
HETATM   27  H   UNL     1     -11.881  12.130  66.217  1.00  0.00     0.000 HD 
HETATM   28  C   UNL     1     -10.390  13.106  67.266  1.00  0.00    -0.243 C  
HETATM   29  O   UNL     1      -9.207  13.405  67.389  1.00  0.00    -0.196 OA 
BRANCH  28  30
HETATM   30  C   UNL     1     -11.438  13.593  68.240  1.00  0.00    -0.348 C  
BRANCH  30  31
HETATM   31  C   UNL     1     -11.962  14.956  67.797  1.00  0.00    -0.162 C  
BRANCH  31  32
HETATM   32  N   UNL     1     -10.889  15.872  67.461  1.00  0.00    -0.318 N  
HETATM   33  H   UNL     1     -10.577  15.929  66.492  1.00  0.00     0.000 HD 
HETATM   34  C   UNL     1     -10.277  16.666  68.402  1.00  0.00    -0.284 C  
HETATM   35  O   UNL     1     -10.519  16.602  69.604  1.00  0.00    -0.296 OA 
BRANCH  34  36
HETATM   36  C   UNL     1      -9.195  17.604  67.822  1.00  0.00    -0.251 C  
HETATM   37  O   UNL     1      -7.955  17.415  68.522  1.00  0.00    -0.249 OA 
HETATM   38  H   UNL     1      -7.290  17.992  68.166  1.00  0.00     0.000 HD 
BRANCH  36  39
HETATM   39  C   UNL     1      -9.599  19.105  67.848  1.00  0.00    -0.390 C  
HETATM   40  C   UNL     1     -10.902  19.351  67.059  1.00  0.00    -0.540 C  
HETATM   41  C   UNL     1      -9.862  19.524  69.313  1.00  0.00    -0.347 C  
BRANCH  39  42
HETATM   42  C   UNL     1      -8.455  19.971  67.268  1.00  0.00    -0.334 C  
HETATM   43  O   UNL     1      -7.414  20.177  68.217  1.00  0.00    -0.276 OA 
HETATM   44  H   UNL     1      -6.712  20.709  67.861  1.00  0.00     0.000 HD 
ENDBRANCH  39  42
ENDBRANCH  36  39
ENDBRANCH  34  36
ENDBRANCH  31  32
ENDBRANCH  30  31
ENDBRANCH  28  30
ENDBRANCH  25  26
ENDBRANCH  24  25
ENDBRANCH  23  24
ENDBRANCH  22  23
ENDBRANCH  21  22
ENDBRANCH  20  21
ENDBRANCH  18  20
ENDBRANCH  15  16
ENDBRANCH  14  15
ENDBRANCH  12  14
ENDBRANCH   7  10
ENDBRANCH   2   7
TORSDOF 19
ENDMDL
MODEL      258
REMARK 921   NORMALIZED FREE ENERGY PREDICTED BY IDOCK:   -3.66 KCAL/MOL
REMARK 922        TOTAL FREE ENERGY PREDICTED BY IDOCK:   -9.91 KCAL/MOL
REMARK 923 INTER-LIGAND FREE ENERGY PREDICTED BY IDOCK:   -8.97 KCAL/MOL
REMARK 924 INTRA-LIGAND FREE ENERGY PREDICTED BY IDOCK:   -0.94 KCAL/MOL
REMARK 927      BINDING AFFINITY PREDICTED BY RF-SCORE:    0.00 PKD
ROOT
HETATM    1  C   UNL     1     -11.537   7.831  73.135  1.00  0.00     0.011 C  
HETATM    2  C   UNL     1     -11.775   7.986  71.622  1.00  0.00    -0.325 C  
HETATM    3  C   UNL     1     -13.158   7.395  71.251  1.00  0.00    -0.349 C  
ENDROOT
BRANCH   2   4
HETATM    4  C   UNL     1     -11.829   9.488  71.272  1.00  0.00    -0.373 C  
HETATM    5  O   UNL     1     -13.092   9.847  70.718  1.00  0.00    -0.540 OA 
HETATM    6  H   UNL     1     -13.124  10.772  70.503  1.00  0.00     0.000 HD 
ENDBRANCH   2   4
BRANCH   2   7
HETATM    7  C   UNL     1     -10.647   7.293  70.795  1.00  0.00    -0.223 C  
HETATM    8  O   UNL     1     -10.636   5.864  70.954  1.00  0.00    -0.230 OA 
HETATM    9  H   UNL     1      -9.950   5.442  70.450  1.00  0.00     0.000 HD 
BRANCH   7  10
HETATM   10  C   UNL     1     -10.672   7.591  69.279  1.00  0.00    -0.176 C  
HETATM   11  O   UNL     1     -10.338   8.657  68.771  1.00  0.00    -0.208 OA 
HETATM   12  N   UNL     1     -11.042   6.502  68.521  1.00  0.00    -0.500 N  
HETATM   13  H   UNL     1     -11.376   5.656  68.984  1.00  0.00     0.000 HD 
BRANCH  12  14
HETATM   14  C   UNL     1     -10.964   6.543  67.078  1.00  0.00    -0.396 C  
BRANCH  14  15
HETATM   15  C   UNL     1      -9.567   6.247  66.542  1.00  0.00    -0.183 C  
BRANCH  15  16
HETATM   16  C   UNL     1      -9.078   4.953  67.154  1.00  0.00    -0.119 C  
HETATM   17  O   UNL     1      -9.111   3.893  66.537  1.00  0.00    -0.130 OA 
HETATM   18  N   UNL     1      -8.579   5.084  68.430  1.00  0.00    -0.098 N  
HETATM   19  H   UNL     1      -8.555   6.021  68.830  1.00  0.00     0.000 HD 
BRANCH  18  20
HETATM   20  C   UNL     1      -8.080   3.984  69.259  1.00  0.00    -0.058 C  
BRANCH  20  21
HETATM   21  C   UNL     1      -6.802   4.240  70.063  1.00  0.00    -0.038 C  
BRANCH  21  22
HETATM   22  S   UNL     1      -5.277   4.432  69.061  1.00  0.00    -0.008 SA 
BRANCH  22  23
HETATM   23  S   UNL     1      -5.554   6.215  68.066  1.00  0.00    -0.009 SA 
BRANCH  23  24
HETATM   24  C   UNL     1      -5.783   7.375  69.454  1.00  0.00    -0.023 C  
BRANCH  24  25
HETATM   25  C   UNL     1      -5.141   8.731  69.153  1.00  0.00    -0.036 C  
BRANCH  25  26
HETATM   26  N   UNL     1      -5.982   9.654  68.396  1.00  0.00    -0.043 N  
HETATM   27  H   UNL     1      -6.043   9.532  67.385  1.00  0.00     0.000 HD 
HETATM   28  C   UNL     1      -6.698  10.682  68.974  1.00  0.00    -0.066 C  
HETATM   29  O   UNL     1      -6.656  10.955  70.168  1.00  0.00    -0.154 OA 
BRANCH  28  30
HETATM   30  C   UNL     1      -7.589  11.440  68.016  1.00  0.00    -0.110 C  
BRANCH  30  31
HETATM   31  C   UNL     1      -7.857  10.590  66.777  1.00  0.00    -0.121 C  
BRANCH  31  32
HETATM   32  N   UNL     1      -8.640  11.303  65.785  1.00  0.00    -0.342 N  
HETATM   33  H   UNL     1      -8.463  12.297  65.639  1.00  0.00     0.000 HD 
HETATM   34  C   UNL     1      -9.613  10.687  65.033  1.00  0.00    -0.265 C  
HETATM   35  O   UNL     1      -9.961   9.521  65.199  1.00  0.00    -0.196 OA 
BRANCH  34  36
HETATM   36  C   UNL     1     -10.290  11.616  64.000  1.00  0.00    -0.357 C  
HETATM   37  O   UNL     1      -9.296  12.211  63.151  1.00  0.00    -0.652 OA 
HETATM   38  H   UNL     1      -9.712  12.782  62.516  1.00  0.00     0.000 HD 
BRANCH  36  39
HETATM   39  C   UNL     1     -11.172  12.720  64.647  1.00  0.00    -0.356 C  
HETATM   40  C   UNL     1     -11.652  12.307  66.053  1.00  0.00    -0.451 C  
HETATM   41  C   UNL     1     -10.323  14.003  64.809  1.00  0.00    -0.407 C  
BRANCH  39  42
HETATM   42  C   UNL     1     -12.387  13.025  63.738  1.00  0.00    -0.397 C  
HETATM   43  O   UNL     1     -12.560  14.424  63.538  1.00  0.00    -1.043 OA 
HETATM   44  H   UNL     1     -13.306  14.611  62.980  1.00  0.00     0.000 HD 
ENDBRANCH  39  42
ENDBRANCH  36  39
ENDBRANCH  34  36
ENDBRANCH  31  32
ENDBRANCH  30  31
ENDBRANCH  28  30
ENDBRANCH  25  26
ENDBRANCH  24  25
ENDBRANCH  23  24
ENDBRANCH  22  23
ENDBRANCH  21  22
ENDBRANCH  20  21
ENDBRANCH  18  20
ENDBRANCH  15  16
ENDBRANCH  14  15
ENDBRANCH  12  14
ENDBRANCH   7  10
ENDBRANCH   2   7
TORSDOF 19
ENDMDL
MODEL      259
REMARK 921   NORMALIZED FREE ENERGY PREDICTED BY IDOCK:   -3.66 KCAL/MOL
REMARK 922        TOTAL FREE ENERGY PREDICTED BY IDOCK:   -9.91 KCAL/MOL
REMARK 923 INTER-LIGAND FREE ENERGY PREDICTED BY IDOCK:   -8.68 KCAL/MOL
REMARK 924 INTRA-LIGAND FREE ENERGY PREDICTED BY IDOCK:   -1.22 KCAL/MOL
REMARK 927      BINDING AFFINITY PREDICTED BY RF-SCORE:    0.00 PKD
ROOT
HETATM    1  C   UNL     1      -8.120   4.590  71.483  1.00  0.00    -0.100 C  
HETATM    2  C   UNL     1      -9.578   4.251  71.120  1.00  0.00    -0.249 C  
HETATM    3  C   UNL     1      -9.707   4.092  69.585  1.00  0.00    -0.269 C  
ENDROOT
BRANCH   2   4
HETATM    4  C   UNL     1      -9.945   2.885  71.738  1.00  0.00    -0.117 C  
HETATM    5  O   UNL     1      -9.615   2.836  73.124  1.00  0.00    -0.091 OA 
HETATM    6  H   UNL     1      -9.841   1.995  73.504  1.00  0.00     0.000 HD 
ENDBRANCH   2   4
BRANCH   2   7
HETATM    7  C   UNL     1     -10.562   5.345  71.640  1.00  0.00    -0.218 C  
HETATM    8  O   UNL     1     -10.707   5.332  73.071  1.00  0.00    -0.215 OA 
HETATM    9  H   UNL     1     -11.305   5.997  73.387  1.00  0.00     0.000 HD 
BRANCH   7  10
HETATM   10  C   UNL     1     -10.211   6.790  71.223  1.00  0.00    -0.202 C  
HETATM   11  O   UNL     1      -9.495   7.549  71.870  1.00  0.00    -0.143 OA 
HETATM   12  N   UNL     1     -10.726   7.138  69.995  1.00  0.00    -0.242 N  
HETATM   13  H   UNL     1     -11.371   6.505  69.521  1.00  0.00     0.000 HD 
BRANCH  12  14
HETATM   14  C   UNL     1     -10.366   8.390  69.367  1.00  0.00    -0.215 C  
BRANCH  14  15
HETATM   15  C   UNL     1     -10.499   8.363  67.848  1.00  0.00    -0.255 C  
BRANCH  15  16
HETATM   16  C   UNL     1      -9.245   7.752  67.264  1.00  0.00    -0.139 C  
HETATM   17  O   UNL     1      -8.417   7.179  67.965  1.00  0.00    -0.121 OA 
HETATM   18  N   UNL     1      -9.140   7.875  65.897  1.00  0.00    -0.339 N  
HETATM   19  H   UNL     1      -9.910   8.328  65.407  1.00  0.00     0.000 HD 
BRANCH  18  20
HETATM   20  C   UNL     1      -8.010   7.406  65.091  1.00  0.00    -0.128 C  
BRANCH  20  21
HETATM   21  C   UNL     1      -6.863   8.394  64.854  1.00  0.00    -0.071 C  
BRANCH  21  22
HETATM   22  S   UNL     1      -7.358  10.158  64.779  1.00  0.00    -0.107 SA 
BRANCH  22  23
HETATM   23  S   UNL     1      -8.087  10.392  62.865  1.00  0.00    -0.138 SA 
BRANCH  23  24
HETATM   24  C   UNL     1      -9.843  10.763  63.187  1.00  0.00    -0.334 C  
BRANCH  24  25
HETATM   25  C   UNL     1     -10.028  12.217  63.628  1.00  0.00    -0.264 C  
BRANCH  25  26
HETATM   26  N   UNL     1     -11.035  12.420  64.666  1.00  0.00    -0.292 N  
HETATM   27  H   UNL     1     -11.065  11.761  65.444  1.00  0.00     0.000 HD 
HETATM   28  C   UNL     1     -11.948  13.454  64.652  1.00  0.00    -0.399 C  
HETATM   29  O   UNL     1     -12.040  14.270  63.742  1.00  0.00    -0.442 OA 
BRANCH  28  30
HETATM   30  C   UNL     1     -12.820  13.535  65.884  1.00  0.00    -0.253 C  
BRANCH  30  31
HETATM   31  C   UNL     1     -12.066  14.240  67.007  1.00  0.00    -0.390 C  
BRANCH  31  32
HETATM   32  N   UNL     1     -11.057  15.151  66.500  1.00  0.00    -0.327 N  
HETATM   33  H   UNL     1     -10.864  15.163  65.498  1.00  0.00     0.000 HD 
HETATM   34  C   UNL     1     -10.351  15.999  67.321  1.00  0.00    -0.295 C  
HETATM   35  O   UNL     1     -10.446  15.993  68.544  1.00  0.00    -0.239 OA 
BRANCH  34  36
HETATM   36  C   UNL     1      -9.363  16.920  66.570  1.00  0.00    -0.270 C  
HETATM   37  O   UNL     1      -8.036  16.375  66.638  1.00  0.00    -0.228 OA 
HETATM   38  H   UNL     1      -7.428  16.941  66.177  1.00  0.00     0.000 HD 
BRANCH  36  39
HETATM   39  C   UNL     1      -9.367  18.385  67.088  1.00  0.00    -0.271 C  
HETATM   40  C   UNL     1      -8.651  19.333  66.105  1.00  0.00    -0.267 C  
HETATM   41  C   UNL     1     -10.832  18.866  67.207  1.00  0.00    -0.448 C  
BRANCH  39  42
HETATM   42  C   UNL     1      -8.694  18.455  68.480  1.00  0.00    -0.315 C  
HETATM   43  O   UNL     1      -9.320  19.417  69.323  1.00  0.00    -0.288 OA 
HETATM   44  H   UNL     1      -8.907  19.460  70.177  1.00  0.00     0.000 HD 
ENDBRANCH  39  42
ENDBRANCH  36  39
ENDBRANCH  34  36
ENDBRANCH  31  32
ENDBRANCH  30  31
ENDBRANCH  28  30
ENDBRANCH  25  26
ENDBRANCH  24  25
ENDBRANCH  23  24
ENDBRANCH  22  23
ENDBRANCH  21  22
ENDBRANCH  20  21
ENDBRANCH  18  20
ENDBRANCH  15  16
ENDBRANCH  14  15
ENDBRANCH  12  14
ENDBRANCH   7  10
ENDBRANCH   2   7
TORSDOF 19
ENDMDL
MODEL      260
REMARK 921   NORMALIZED FREE ENERGY PREDICTED BY IDOCK:   -3.64 KCAL/MOL
REMARK 922        TOTAL FREE ENERGY PREDICTED BY IDOCK:   -9.86 KCAL/MOL
REMARK 923 INTER-LIGAND FREE ENERGY PREDICTED BY IDOCK:   -8.24 KCAL/MOL
REMARK 924 INTRA-LIGAND FREE ENERGY PREDICTED BY IDOCK:   -1.62 KCAL/MOL
REMARK 927      BINDING AFFINITY PREDICTED BY RF-SCORE:    0.00 PKD
ROOT
HETATM    1  C   UNL     1      -9.857  13.075  67.441  1.00  0.00    -0.215 C  
HETATM    2  C   UNL     1      -9.140  11.714  67.386  1.00  0.00    -0.169 C  
HETATM    3  C   UNL     1      -9.186  11.161  65.939  1.00  0.00    -0.225 C  
ENDROOT
BRANCH   2   4
HETATM    4  C   UNL     1      -7.650  11.916  67.733  1.00  0.00    -0.130 C  
HETATM    5  O   UNL     1      -6.971  12.636  66.707  1.00  0.00    -0.359 OA 
HETATM    6  H   UNL     1      -6.053  12.760  66.921  1.00  0.00     0.000 HD 
ENDBRANCH   2   4
BRANCH   2   7
HETATM    7  C   UNL     1      -9.779  10.693  68.379  1.00  0.00    -0.166 C  
HETATM    8  O   UNL     1      -8.983  10.491  69.560  1.00  0.00    -0.349 OA 
HETATM    9  H   UNL     1      -9.372   9.871  70.164  1.00  0.00     0.000 HD 
BRANCH   7  10
HETATM   10  C   UNL     1     -11.212  11.041  68.840  1.00  0.00    -0.265 C  
HETATM   11  O   UNL     1     -12.207  10.990  68.124  1.00  0.00    -0.578 OA 
HETATM   12  N   UNL     1     -11.287  11.351  70.180  1.00  0.00    -0.499 N  
HETATM   13  H   UNL     1     -10.430  11.448  70.724  1.00  0.00     0.000 HD 
BRANCH  12  14
HETATM   14  C   UNL     1     -12.567  11.542  70.825  1.00  0.00    -0.298 C  
BRANCH  14  15
HETATM   15  C   UNL     1     -12.947  10.398  71.759  1.00  0.00    -0.580 C  
BRANCH  15  16
HETATM   16  C   UNL     1     -11.994   9.247  71.527  1.00  0.00    -0.368 C  
HETATM   17  O   UNL     1     -10.822   9.295  71.888  1.00  0.00    -0.351 OA 
HETATM   18  N   UNL     1     -12.563   8.156  70.911  1.00  0.00    -0.505 N  
HETATM   19  H   UNL     1     -13.559   8.206  70.698  1.00  0.00     0.000 HD 
BRANCH  18  20
HETATM   20  C   UNL     1     -11.854   6.930  70.537  1.00  0.00    -0.333 C  
BRANCH  20  21
HETATM   21  C   UNL     1     -11.216   6.119  71.669  1.00  0.00    -0.286 C  
BRANCH  21  22
HETATM   22  S   UNL     1      -9.386   6.012  71.615  1.00  0.00    -0.147 SA 
BRANCH  22  23
HETATM   23  S   UNL     1      -8.978   4.091  72.240  1.00  0.00    -0.112 SA 
BRANCH  23  24
HETATM   24  C   UNL     1      -7.164   4.033  72.075  1.00  0.00    -0.055 C  
BRANCH  24  25
HETATM   25  C   UNL     1      -6.660   5.115  71.117  1.00  0.00    -0.039 C  
BRANCH  25  26
HETATM   26  N   UNL     1      -6.029   4.611  69.900  1.00  0.00    -0.017 N  
HETATM   27  H   UNL     1      -5.015   4.498  69.894  1.00  0.00     0.000 HD 
HETATM   28  C   UNL     1      -6.729   4.280  68.758  1.00  0.00    -0.046 C  
HETATM   29  O   UNL     1      -7.940   4.428  68.633  1.00  0.00    -0.077 OA 
BRANCH  28  30
HETATM   30  C   UNL     1      -5.885   3.672  67.661  1.00  0.00    -0.023 C  
BRANCH  30  31
HETATM   31  C   UNL     1      -5.738   4.664  66.511  1.00  0.00    -0.022 C  
BRANCH  31  32
HETATM   32  N   UNL     1      -6.970   4.819  65.761  1.00  0.00    -0.062 N  
HETATM   33  H   UNL     1      -7.687   5.451  66.119  1.00  0.00     0.000 HD 
HETATM   34  C   UNL     1      -7.208   4.144  64.587  1.00  0.00    -0.066 C  
HETATM   35  O   UNL     1      -6.448   3.296  64.127  1.00  0.00    -0.029 OA 
BRANCH  34  36
HETATM   36  C   UNL     1      -8.560   4.494  63.926  1.00  0.00    -0.126 C  
HETATM   37  O   UNL     1      -8.817   5.901  64.050  1.00  0.00    -0.343 OA 
HETATM   38  H   UNL     1      -9.649   6.116  63.643  1.00  0.00     0.000 HD 
BRANCH  36  39
HETATM   39  C   UNL     1      -9.755   3.679  64.495  1.00  0.00    -0.178 C  
HETATM   40  C   UNL     1      -9.281   2.366  65.151  1.00  0.00    -0.110 C  
HETATM   41  C   UNL     1     -10.450   4.518  65.593  1.00  0.00    -0.261 C  
BRANCH  39  42
HETATM   42  C   UNL     1     -10.771   3.374  63.368  1.00  0.00    -0.240 C  
HETATM   43  O   UNL     1     -11.503   2.180  63.624  1.00  0.00    -0.610 OA 
HETATM   44  H   UNL     1     -12.126   1.992  62.932  1.00  0.00     0.000 HD 
ENDBRANCH  39  42
ENDBRANCH  36  39
ENDBRANCH  34  36
ENDBRANCH  31  32
ENDBRANCH  30  31
ENDBRANCH  28  30
ENDBRANCH  25  26
ENDBRANCH  24  25
ENDBRANCH  23  24
ENDBRANCH  22  23
ENDBRANCH  21  22
ENDBRANCH  20  21
ENDBRANCH  18  20
ENDBRANCH  15  16
ENDBRANCH  14  15
ENDBRANCH  12  14
ENDBRANCH   7  10
ENDBRANCH   2   7
TORSDOF 19
ENDMDL
MODEL      261
REMARK 921   NORMALIZED FREE ENERGY PREDICTED BY IDOCK:   -3.63 KCAL/MOL
REMARK 922        TOTAL FREE ENERGY PREDICTED BY IDOCK:   -9.84 KCAL/MOL
REMARK 923 INTER-LIGAND FREE ENERGY PREDICTED BY IDOCK:   -7.84 KCAL/MOL
REMARK 924 INTRA-LIGAND FREE ENERGY PREDICTED BY IDOCK:   -2.00 KCAL/MOL
REMARK 927      BINDING AFFINITY PREDICTED BY RF-SCORE:    0.00 PKD
ROOT
HETATM    1  C   UNL     1     -12.408  14.383  69.607  1.00  0.00    -0.300 C  
HETATM    2  C   UNL     1     -11.449  14.320  68.403  1.00  0.00    -0.331 C  
HETATM    3  C   UNL     1     -12.248  13.985  67.120  1.00  0.00    -0.356 C  
ENDROOT
BRANCH   2   4
HETATM    4  C   UNL     1     -10.825  15.715  68.184  1.00  0.00    -0.301 C  
HETATM    5  O   UNL     1     -10.358  15.870  66.846  1.00  0.00    -0.279 OA 
HETATM    6  H   UNL     1      -9.974  16.728  66.711  1.00  0.00     0.000 HD 
ENDBRANCH   2   4
BRANCH   2   7
HETATM    7  C   UNL     1     -10.318  13.268  68.632  1.00  0.00    -0.196 C  
HETATM    8  O   UNL     1     -10.709  12.216  69.530  1.00  0.00    -0.445 OA 
HETATM    9  H   UNL     1     -10.022  11.575  69.669  1.00  0.00     0.000 HD 
BRANCH   7  10
HETATM   10  C   UNL     1      -9.776  12.603  67.347  1.00  0.00    -0.199 C  
HETATM   11  O   UNL     1      -9.384  13.214  66.357  1.00  0.00    -0.246 OA 
HETATM   12  N   UNL     1      -9.702  11.231  67.439  1.00  0.00    -0.173 N  
HETATM   13  H   UNL     1     -10.099  10.758  68.251  1.00  0.00     0.000 HD 
BRANCH  12  14
HETATM   14  C   UNL     1      -9.067  10.452  66.400  1.00  0.00    -0.157 C  
BRANCH  14  15
HETATM   15  C   UNL     1      -7.547  10.411  66.521  1.00  0.00    -0.118 C  
BRANCH  15  16
HETATM   16  C   UNL     1      -7.186   9.967  67.921  1.00  0.00    -0.087 C  
HETATM   17  O   UNL     1      -7.281  10.722  68.884  1.00  0.00    -0.072 OA 
HETATM   18  N   UNL     1      -6.777   8.656  68.012  1.00  0.00    -0.068 N  
HETATM   19  H   UNL     1      -6.782   8.104  67.155  1.00  0.00     0.000 HD 
BRANCH  18  20
HETATM   20  C   UNL     1      -6.336   7.990  69.240  1.00  0.00    -0.035 C  
BRANCH  20  21
HETATM   21  C   UNL     1      -5.895   6.528  69.122  1.00  0.00    -0.021 C  
BRANCH  21  22
HETATM   22  S   UNL     1      -5.855   5.597  70.702  1.00  0.00    -0.025 SA 
BRANCH  22  23
HETATM   23  S   UNL     1      -5.836   7.065  72.148  1.00  0.00    -0.037 SA 
BRANCH  23  24
HETATM   24  C   UNL     1      -7.549   6.988  72.766  1.00  0.00    -0.084 C  
BRANCH  24  25
HETATM   25  C   UNL     1      -8.267   8.326  72.572  1.00  0.00    -0.164 C  
BRANCH  25  26
HETATM   26  N   UNL     1      -9.526   8.245  71.835  1.00  0.00    -0.196 N  
HETATM   27  H   UNL     1      -9.529   8.528  70.854  1.00  0.00     0.000 HD 
HETATM   28  C   UNL     1     -10.709   7.807  72.391  1.00  0.00    -0.290 C  
HETATM   29  O   UNL     1     -10.833   7.495  73.571  1.00  0.00    -0.369 OA 
BRANCH  28  30
HETATM   30  C   UNL     1     -11.858   7.697  71.415  1.00  0.00    -0.320 C  
BRANCH  30  31
HETATM   31  C   UNL     1     -11.847   6.322  70.755  1.00  0.00    -0.135 C  
BRANCH  31  32
HETATM   32  N   UNL     1     -11.545   6.398  69.337  1.00  0.00    -0.618 N  
HETATM   33  H   UNL     1     -12.316   6.477  68.675  1.00  0.00     0.000 HD 
HETATM   34  C   UNL     1     -10.257   6.366  68.856  1.00  0.00    -0.184 C  
HETATM   35  O   UNL     1      -9.273   6.180  69.566  1.00  0.00    -0.137 OA 
BRANCH  34  36
HETATM   36  C   UNL     1     -10.158   6.511  67.321  1.00  0.00    -0.164 C  
HETATM   37  O   UNL     1     -11.465   6.724  66.763  1.00  0.00    -0.733 OA 
HETATM   38  H   UNL     1     -11.404   6.813  65.819  1.00  0.00     0.000 HD 
BRANCH  36  39
HETATM   39  C   UNL     1      -9.472   5.301  66.629  1.00  0.00    -0.148 C  
HETATM   40  C   UNL     1      -9.097   4.205  67.648  1.00  0.00    -0.164 C  
HETATM   41  C   UNL     1     -10.466   4.674  65.623  1.00  0.00    -0.260 C  
BRANCH  39  42
HETATM   42  C   UNL     1      -8.209   5.774  65.869  1.00  0.00    -0.121 C  
HETATM   43  O   UNL     1      -8.529   6.296  64.583  1.00  0.00    -0.307 OA 
HETATM   44  H   UNL     1      -7.754   6.586  64.117  1.00  0.00     0.000 HD 
ENDBRANCH  39  42
ENDBRANCH  36  39
ENDBRANCH  34  36
ENDBRANCH  31  32
ENDBRANCH  30  31
ENDBRANCH  28  30
ENDBRANCH  25  26
ENDBRANCH  24  25
ENDBRANCH  23  24
ENDBRANCH  22  23
ENDBRANCH  21  22
ENDBRANCH  20  21
ENDBRANCH  18  20
ENDBRANCH  15  16
ENDBRANCH  14  15
ENDBRANCH  12  14
ENDBRANCH   7  10
ENDBRANCH   2   7
TORSDOF 19
ENDMDL
MODEL      262
REMARK 921   NORMALIZED FREE ENERGY PREDICTED BY IDOCK:   -3.63 KCAL/MOL
REMARK 922        TOTAL FREE ENERGY PREDICTED BY IDOCK:   -9.84 KCAL/MOL
REMARK 923 INTER-LIGAND FREE ENERGY PREDICTED BY IDOCK:   -8.24 KCAL/MOL
REMARK 924 INTRA-LIGAND FREE ENERGY PREDICTED BY IDOCK:   -1.60 KCAL/MOL
REMARK 927      BINDING AFFINITY PREDICTED BY RF-SCORE:    0.00 PKD
ROOT
HETATM    1  C   UNL     1      -9.383  10.036  63.442  1.00  0.00    -0.300 C  
HETATM    2  C   UNL     1      -8.620   9.478  64.658  1.00  0.00    -0.207 C  
HETATM    3  C   UNL     1      -9.626   9.113  65.778  1.00  0.00    -0.323 C  
ENDROOT
BRANCH   2   4
HETATM    4  C   UNL     1      -7.917   8.165  64.251  1.00  0.00    -0.144 C  
HETATM    5  O   UNL     1      -8.698   7.027  64.607  1.00  0.00    -0.348 OA 
HETATM    6  H   UNL     1      -8.265   6.219  64.357  1.00  0.00     0.000 HD 
ENDBRANCH   2   4
BRANCH   2   7
HETATM    7  C   UNL     1      -7.564  10.499  65.185  1.00  0.00    -0.046 C  
HETATM    8  O   UNL     1      -8.159  11.709  65.685  1.00  0.00    -0.320 OA 
HETATM    9  H   UNL     1      -7.516  12.330  66.006  1.00  0.00     0.000 HD 
BRANCH   7  10
HETATM   10  C   UNL     1      -6.623   9.957  66.284  1.00  0.00    -0.078 C  
HETATM   11  O   UNL     1      -6.023   8.888  66.225  1.00  0.00    -0.056 OA 
HETATM   12  N   UNL     1      -6.455  10.835  67.331  1.00  0.00    -0.061 N  
HETATM   13  H   UNL     1      -7.022  11.682  67.375  1.00  0.00     0.000 HD 
BRANCH  12  14
HETATM   14  C   UNL     1      -5.484  10.571  68.371  1.00  0.00    -0.037 C  
BRANCH  14  15
HETATM   15  C   UNL     1      -6.114  10.366  69.744  1.00  0.00    -0.059 C  
BRANCH  15  16
HETATM   16  C   UNL     1      -7.612  10.533  69.620  1.00  0.00    -0.127 C  
HETATM   17  O   UNL     1      -8.109  11.362  68.864  1.00  0.00    -0.137 OA 
HETATM   18  N   UNL     1      -8.345   9.667  70.398  1.00  0.00    -0.208 N  
HETATM   19  H   UNL     1      -7.829   8.985  70.953  1.00  0.00     0.000 HD 
BRANCH  18  20
HETATM   20  C   UNL     1      -9.807   9.645  70.492  1.00  0.00    -0.231 C  
BRANCH  20  21
HETATM   21  C   UNL     1     -10.417   8.948  71.711  1.00  0.00    -0.360 C  
BRANCH  21  22
HETATM   22  S   UNL     1     -11.802   7.803  71.342  1.00  0.00    -0.305 SA 
BRANCH  22  23
HETATM   23  S   UNL     1     -13.480   8.993  71.458  1.00  0.00    -0.312 SA 
BRANCH  23  24
HETATM   24  C   UNL     1     -12.802  10.623  71.002  1.00  0.00    -0.402 C  
BRANCH  24  25
HETATM   25  C   UNL     1     -13.122  11.672  72.069  1.00  0.00    -0.328 C  
BRANCH  25  26
HETATM   26  N   UNL     1     -13.612  12.947  71.550  1.00  0.00    -0.053 N  
HETATM   27  H   UNL     1     -14.574  12.992  71.214  1.00  0.00     0.000 HD 
HETATM   28  C   UNL     1     -12.844  14.091  71.489  1.00  0.00    -0.362 C  
HETATM   29  O   UNL     1     -11.662  14.137  71.812  1.00  0.00     0.042 OA 
BRANCH  28  30
HETATM   30  C   UNL     1     -13.590  15.320  71.022  1.00  0.00    -0.486 C  
BRANCH  30  31
HETATM   31  C   UNL     1     -13.013  15.803  69.695  1.00  0.00     0.719 C  
BRANCH  31  32
HETATM   32  N   UNL     1     -12.484  14.711  68.899  1.00  0.00    -0.574 N  
HETATM   33  H   UNL     1     -12.854  13.772  69.046  1.00  0.00     0.000 HD 
HETATM   34  C   UNL     1     -11.501  14.896  67.956  1.00  0.00    -0.337 C  
HETATM   35  O   UNL     1     -10.931  15.968  67.773  1.00  0.00    -0.327 OA 
BRANCH  34  36
HETATM   36  C   UNL     1     -11.120  13.611  67.187  1.00  0.00    -0.297 C  
HETATM   37  O   UNL     1      -9.703  13.393  67.268  1.00  0.00    -0.222 OA 
HETATM   38  H   UNL     1      -9.469  12.603  66.795  1.00  0.00     0.000 HD 
BRANCH  36  39
HETATM   39  C   UNL     1     -11.576  13.621  65.701  1.00  0.00    -0.342 C  
HETATM   40  C   UNL     1     -11.995  12.214  65.230  1.00  0.00    -0.313 C  
HETATM   41  C   UNL     1     -12.813  14.540  65.567  1.00  0.00    -0.134 C  
BRANCH  39  42
HETATM   42  C   UNL     1     -10.438  14.165  64.804  1.00  0.00    -0.408 C  
HETATM   43  O   UNL     1     -10.003  13.197  63.855  1.00  0.00    -0.760 OA 
HETATM   44  H   UNL     1      -9.305  13.530  63.304  1.00  0.00     0.000 HD 
ENDBRANCH  39  42
ENDBRANCH  36  39
ENDBRANCH  34  36
ENDBRANCH  31  32
ENDBRANCH  30  31
ENDBRANCH  28  30
ENDBRANCH  25  26
ENDBRANCH  24  25
ENDBRANCH  23  24
ENDBRANCH  22  23
ENDBRANCH  21  22
ENDBRANCH  20  21
ENDBRANCH  18  20
ENDBRANCH  15  16
ENDBRANCH  14  15
ENDBRANCH  12  14
ENDBRANCH   7  10
ENDBRANCH   2   7
TORSDOF 19
ENDMDL
MODEL      263
REMARK 921   NORMALIZED FREE ENERGY PREDICTED BY IDOCK:   -3.62 KCAL/MOL
REMARK 922        TOTAL FREE ENERGY PREDICTED BY IDOCK:   -9.83 KCAL/MOL
REMARK 923 INTER-LIGAND FREE ENERGY PREDICTED BY IDOCK:   -7.94 KCAL/MOL
REMARK 924 INTRA-LIGAND FREE ENERGY PREDICTED BY IDOCK:   -1.89 KCAL/MOL
REMARK 927      BINDING AFFINITY PREDICTED BY RF-SCORE:    0.00 PKD
ROOT
HETATM    1  C   UNL     1      -9.223   6.764  66.635  1.00  0.00    -0.184 C  
HETATM    2  C   UNL     1      -8.804   5.305  66.377  1.00  0.00    -0.123 C  
HETATM    3  C   UNL     1      -8.700   5.057  64.851  1.00  0.00    -0.150 C  
ENDROOT
BRANCH   2   4
HETATM    4  C   UNL     1      -7.392   5.077  66.958  1.00  0.00    -0.082 C  
HETATM    5  O   UNL     1      -6.903   3.777  66.638  1.00  0.00    -0.052 OA 
HETATM    6  H   UNL     1      -6.035   3.636  66.996  1.00  0.00     0.000 HD 
ENDBRANCH   2   4
BRANCH   2   7
HETATM    7  C   UNL     1      -9.809   4.301  67.025  1.00  0.00    -0.179 C  
HETATM    8  O   UNL     1      -9.785   3.006  66.400  1.00  0.00    -0.406 OA 
HETATM    9  H   UNL     1     -10.396   2.396  66.795  1.00  0.00     0.000 HD 
BRANCH   7  10
HETATM   10  C   UNL     1      -9.628   4.086  68.544  1.00  0.00    -0.116 C  
HETATM   11  O   UNL     1      -8.857   3.275  69.048  1.00  0.00    -0.085 OA 
HETATM   12  N   UNL     1     -10.375   4.958  69.305  1.00  0.00    -0.141 N  
HETATM   13  H   UNL     1     -11.053   5.570  68.850  1.00  0.00     0.000 HD 
BRANCH  12  14
HETATM   14  C   UNL     1     -10.211   5.016  70.740  1.00  0.00    -0.229 C  
BRANCH  14  15
HETATM   15  C   UNL     1      -9.071   5.929  71.180  1.00  0.00    -0.152 C  
BRANCH  15  16
HETATM   16  C   UNL     1      -9.374   7.336  70.716  1.00  0.00    -0.160 C  
HETATM   17  O   UNL     1     -10.515   7.699  70.450  1.00  0.00    -0.212 OA 
HETATM   18  N   UNL     1      -8.273   8.159  70.650  1.00  0.00    -0.110 N  
HETATM   19  H   UNL     1      -7.377   7.768  70.941  1.00  0.00     0.000 HD 
BRANCH  18  20
HETATM   20  C   UNL     1      -8.283   9.552  70.196  1.00  0.00    -0.177 C  
BRANCH  20  21
HETATM   21  C   UNL     1      -7.800   9.825  68.768  1.00  0.00    -0.082 C  
BRANCH  21  22
HETATM   22  S   UNL     1      -8.764  11.084  67.847  1.00  0.00    -0.137 SA 
BRANCH  22  23
HETATM   23  S   UNL     1     -10.579  10.171  67.503  1.00  0.00    -0.284 SA 
BRANCH  23  24
HETATM   24  C   UNL     1     -11.718  11.279  68.397  1.00  0.00    -0.294 C  
BRANCH  24  25
HETATM   25  C   UNL     1     -11.778  12.659  67.738  1.00  0.00    -0.356 C  
BRANCH  25  26
HETATM   26  N   UNL     1     -11.688  13.785  68.664  1.00  0.00    -0.334 N  
HETATM   27  H   UNL     1     -12.496  13.991  69.251  1.00  0.00     0.000 HD 
HETATM   28  C   UNL     1     -10.571  14.585  68.787  1.00  0.00    -0.248 C  
HETATM   29  O   UNL     1      -9.567  14.464  68.094  1.00  0.00    -0.205 OA 
BRANCH  28  30
HETATM   30  C   UNL     1     -10.660  15.619  69.886  1.00  0.00    -0.328 C  
BRANCH  30  31
HETATM   31  C   UNL     1     -11.017  16.977  69.291  1.00  0.00    -0.008 C  
BRANCH  31  32
HETATM   32  N   UNL     1     -10.028  17.433  68.333  1.00  0.00    -0.309 N  
HETATM   33  H   UNL     1      -9.612  16.754  67.696  1.00  0.00     0.000 HD 
HETATM   34  C   UNL     1      -9.630  18.747  68.254  1.00  0.00    -0.353 C  
HETATM   35  O   UNL     1     -10.004  19.616  69.035  1.00  0.00    -0.447 OA 
BRANCH  34  36
HETATM   36  C   UNL     1      -8.606  19.024  67.131  1.00  0.00    -0.281 C  
HETATM   37  O   UNL     1      -8.782  18.082  66.062  1.00  0.00    -0.498 OA 
HETATM   38  H   UNL     1      -8.152  18.253  65.371  1.00  0.00     0.000 HD 
BRANCH  36  39
HETATM   39  C   UNL     1      -7.131  19.007  67.621  1.00  0.00    -0.237 C  
HETATM   40  C   UNL     1      -6.669  20.409  68.069  1.00  0.00    -0.336 C  
HETATM   41  C   UNL     1      -7.027  18.074  68.850  1.00  0.00    -0.263 C  
BRANCH  39  42
HETATM   42  C   UNL     1      -6.207  18.476  66.499  1.00  0.00    -0.171 C  
HETATM   43  O   UNL     1      -6.264  17.057  66.394  1.00  0.00    -0.214 OA 
HETATM   44  H   UNL     1      -5.697  16.731  65.705  1.00  0.00     0.000 HD 
ENDBRANCH  39  42
ENDBRANCH  36  39
ENDBRANCH  34  36
ENDBRANCH  31  32
ENDBRANCH  30  31
ENDBRANCH  28  30
ENDBRANCH  25  26
ENDBRANCH  24  25
ENDBRANCH  23  24
ENDBRANCH  22  23
ENDBRANCH  21  22
ENDBRANCH  20  21
ENDBRANCH  18  20
ENDBRANCH  15  16
ENDBRANCH  14  15
ENDBRANCH  12  14
ENDBRANCH   7  10
ENDBRANCH   2   7
TORSDOF 19
ENDMDL
MODEL      264
REMARK 921   NORMALIZED FREE ENERGY PREDICTED BY IDOCK:   -3.60 KCAL/MOL
REMARK 922        TOTAL FREE ENERGY PREDICTED BY IDOCK:   -9.78 KCAL/MOL
REMARK 923 INTER-LIGAND FREE ENERGY PREDICTED BY IDOCK:   -8.29 KCAL/MOL
REMARK 924 INTRA-LIGAND FREE ENERGY PREDICTED BY IDOCK:   -1.49 KCAL/MOL
REMARK 927      BINDING AFFINITY PREDICTED BY RF-SCORE:    0.00 PKD
ROOT
HETATM    1  C   UNL     1     -10.543   2.582  62.937  1.00  0.00    -0.177 C  
HETATM    2  C   UNL     1      -9.300   3.192  63.612  1.00  0.00    -0.098 C  
HETATM    3  C   UNL     1      -8.069   2.292  63.341  1.00  0.00    -0.073 C  
ENDROOT
BRANCH   2   4
HETATM    4  C   UNL     1      -8.998   4.561  62.966  1.00  0.00    -0.129 C  
HETATM    5  O   UNL     1      -7.926   5.223  63.631  1.00  0.00    -0.088 OA 
HETATM    6  H   UNL     1      -7.740   6.066  63.234  1.00  0.00     0.000 HD 
ENDBRANCH   2   4
BRANCH   2   7
HETATM    7  C   UNL     1      -9.517   3.371  65.147  1.00  0.00    -0.152 C  
HETATM    8  O   UNL     1      -8.287   3.553  65.867  1.00  0.00    -0.103 OA 
HETATM    9  H   UNL     1      -8.419   3.662  66.801  1.00  0.00     0.000 HD 
BRANCH   7  10
HETATM   10  C   UNL     1     -10.461   4.528  65.542  1.00  0.00    -0.211 C  
HETATM   11  O   UNL     1     -11.636   4.620  65.198  1.00  0.00     0.002 OA 
HETATM   12  N   UNL     1      -9.874   5.435  66.396  1.00  0.00    -0.165 N  
HETATM   13  H   UNL     1      -8.878   5.360  66.604  1.00  0.00     0.000 HD 
BRANCH  12  14
HETATM   14  C   UNL     1     -10.652   6.493  67.002  1.00  0.00    -0.332 C  
BRANCH  14  15
HETATM   15  C   UNL     1     -11.149   6.149  68.402  1.00  0.00    -0.343 C  
BRANCH  15  16
HETATM   16  C   UNL     1     -10.026   6.388  69.387  1.00  0.00    -0.158 C  
HETATM   17  O   UNL     1      -9.961   5.784  70.453  1.00  0.00    -0.180 OA 
HETATM   18  N   UNL     1      -9.092   7.307  68.967  1.00  0.00    -0.134 N  
HETATM   19  H   UNL     1      -9.219   7.714  68.041  1.00  0.00     0.000 HD 
BRANCH  18  20
HETATM   20  C   UNL     1      -7.931   7.748  69.744  1.00  0.00    -0.115 C  
BRANCH  20  21
HETATM   21  C   UNL     1      -7.768   9.255  69.962  1.00  0.00    -0.104 C  
BRANCH  21  22
HETATM   22  S   UNL     1      -8.960  10.308  69.047  1.00  0.00    -0.180 SA 
BRANCH  22  23
HETATM   23  S   UNL     1      -7.854  11.076  67.487  1.00  0.00    -0.119 SA 
BRANCH  23  24
HETATM   24  C   UNL     1      -9.166  11.598  66.334  1.00  0.00    -0.212 C  
BRANCH  24  25
HETATM   25  C   UNL     1      -9.458  13.094  66.471  1.00  0.00    -0.243 C  
BRANCH  25  26
HETATM   26  N   UNL     1     -10.197  13.467  67.675  1.00  0.00    -0.236 N  
HETATM   27  H   UNL     1      -9.722  13.391  68.574  1.00  0.00     0.000 HD 
HETATM   28  C   UNL     1     -11.501  13.916  67.661  1.00  0.00    -0.324 C  
HETATM   29  O   UNL     1     -12.185  13.994  66.646  1.00  0.00    -0.442 OA 
BRANCH  28  30
HETATM   30  C   UNL     1     -12.026  14.353  69.010  1.00  0.00    -0.342 C  
BRANCH  30  31
HETATM   31  C   UNL     1     -10.924  15.064  69.789  1.00  0.00    -0.273 C  
BRANCH  31  32
HETATM   32  N   UNL     1     -10.705  16.418  69.316  1.00  0.00    -0.304 N  
HETATM   33  H   UNL     1     -11.491  17.067  69.306  1.00  0.00     0.000 HD 
HETATM   34  C   UNL     1      -9.476  16.857  68.882  1.00  0.00    -0.241 C  
HETATM   35  O   UNL     1      -8.496  16.126  68.771  1.00  0.00    -0.208 OA 
BRANCH  34  36
HETATM   36  C   UNL     1      -9.452  18.346  68.470  1.00  0.00    -0.334 C  
HETATM   37  O   UNL     1     -10.557  19.039  69.072  1.00  0.00    -0.363 OA 
HETATM   38  H   UNL     1     -10.542  19.954  68.819  1.00  0.00     0.000 HD 
BRANCH  36  39
HETATM   39  C   UNL     1      -9.460  18.562  66.931  1.00  0.00    -0.300 C  
HETATM   40  C   UNL     1     -10.161  17.398  66.201  1.00  0.00    -0.334 C  
HETATM   41  C   UNL     1     -10.255  19.850  66.614  1.00  0.00    -0.609 C  
BRANCH  39  42
HETATM   42  C   UNL     1      -8.010  18.718  66.413  1.00  0.00    -0.282 C  
HETATM   43  O   UNL     1      -7.894  19.786  65.478  1.00  0.00    -0.385 OA 
HETATM   44  H   UNL     1      -7.004  19.882  65.159  1.00  0.00     0.000 HD 
ENDBRANCH  39  42
ENDBRANCH  36  39
ENDBRANCH  34  36
ENDBRANCH  31  32
ENDBRANCH  30  31
ENDBRANCH  28  30
ENDBRANCH  25  26
ENDBRANCH  24  25
ENDBRANCH  23  24
ENDBRANCH  22  23
ENDBRANCH  21  22
ENDBRANCH  20  21
ENDBRANCH  18  20
ENDBRANCH  15  16
ENDBRANCH  14  15
ENDBRANCH  12  14
ENDBRANCH   7  10
ENDBRANCH   2   7
TORSDOF 19
ENDMDL
MODEL      265
REMARK 921   NORMALIZED FREE ENERGY PREDICTED BY IDOCK:   -3.57 KCAL/MOL
REMARK 922        TOTAL FREE ENERGY PREDICTED BY IDOCK:   -9.71 KCAL/MOL
REMARK 923 INTER-LIGAND FREE ENERGY PREDICTED BY IDOCK:   -8.65 KCAL/MOL
REMARK 924 INTRA-LIGAND FREE ENERGY PREDICTED BY IDOCK:   -1.05 KCAL/MOL
REMARK 927      BINDING AFFINITY PREDICTED BY RF-SCORE:    0.00 PKD
ROOT
HETATM    1  C   UNL     1      -9.399   2.922  68.543  1.00  0.00    -0.249 C  
HETATM    2  C   UNL     1      -8.196   3.609  69.215  1.00  0.00    -0.070 C  
HETATM    3  C   UNL     1      -7.656   2.711  70.356  1.00  0.00    -0.043 C  
ENDROOT
BRANCH   2   4
HETATM    4  C   UNL     1      -7.055   3.746  68.184  1.00  0.00    -0.051 C  
HETATM    5  O   UNL     1      -7.564   3.991  66.876  1.00  0.00    -0.082 OA 
HETATM    6  H   UNL     1      -6.862   4.075  66.242  1.00  0.00     0.000 HD 
ENDBRANCH   2   4
BRANCH   2   7
HETATM    7  C   UNL     1      -8.580   5.018  69.765  1.00  0.00    -0.088 C  
HETATM    8  O   UNL     1      -8.458   6.055  68.777  1.00  0.00    -0.112 OA 
HETATM    9  H   UNL     1      -8.692   6.912  69.111  1.00  0.00     0.000 HD 
BRANCH   7  10
HETATM   10  C   UNL     1      -9.998   5.119  70.370  1.00  0.00    -0.246 C  
HETATM   11  O   UNL     1     -10.434   4.388  71.255  1.00  0.00    -0.054 OA 
HETATM   12  N   UNL     1     -10.726   6.174  69.866  1.00  0.00    -0.267 N  
HETATM   13  H   UNL     1     -10.354   6.715  69.085  1.00  0.00     0.000 HD 
BRANCH  12  14
HETATM   14  C   UNL     1     -12.010   6.524  70.430  1.00  0.00    -0.229 C  
BRANCH  14  15
HETATM   15  C   UNL     1     -11.927   6.972  71.886  1.00  0.00    -0.355 C  
BRANCH  15  16
HETATM   16  C   UNL     1     -11.329   8.360  71.931  1.00  0.00    -0.314 C  
HETATM   17  O   UNL     1     -10.259   8.586  72.489  1.00  0.00    -0.310 OA 
HETATM   18  N   UNL     1     -12.070   9.317  71.277  1.00  0.00    -0.319 N  
HETATM   19  H   UNL     1     -12.919   9.010  70.805  1.00  0.00     0.000 HD 
BRANCH  18  20
HETATM   20  C   UNL     1     -11.735  10.742  71.203  1.00  0.00    -0.056 C  
BRANCH  20  21
HETATM   21  C   UNL     1     -12.859  11.703  70.806  1.00  0.00    -0.109 C  
BRANCH  21  22
HETATM   22  S   UNL     1     -13.416  12.841  72.132  1.00  0.00    -0.366 SA 
BRANCH  22  23
HETATM   23  S   UNL     1     -13.307  14.709  71.267  1.00  0.00    -0.390 SA 
BRANCH  23  24
HETATM   24  C   UNL     1     -11.505  14.981  71.214  1.00  0.00    -0.311 C  
BRANCH  24  25
HETATM   25  C   UNL     1     -11.169  16.335  70.586  1.00  0.00    -0.288 C  
BRANCH  25  26
HETATM   26  N   UNL     1     -11.357  16.404  69.139  1.00  0.00    -0.283 N  
HETATM   27  H   UNL     1     -12.240  16.073  68.751  1.00  0.00     0.000 HD 
HETATM   28  C   UNL     1     -10.405  16.892  68.268  1.00  0.00    -0.335 C  
HETATM   29  O   UNL     1      -9.289  17.264  68.617  1.00  0.00    -0.261 OA 
BRANCH  28  30
HETATM   30  C   UNL     1     -10.857  16.976  66.828  1.00  0.00     0.014 C  
BRANCH  30  31
HETATM   31  C   UNL     1      -9.857  16.255  65.929  1.00  0.00    -0.334 C  
BRANCH  31  32
HETATM   32  N   UNL     1      -9.403  15.004  66.508  1.00  0.00    -0.264 N  
HETATM   33  H   UNL     1      -8.855  15.031  67.368  1.00  0.00     0.000 HD 
HETATM   34  C   UNL     1      -9.685  13.784  65.940  1.00  0.00    -0.196 C  
HETATM   35  O   UNL     1     -10.257  13.656  64.861  1.00  0.00    -0.372 OA 
BRANCH  34  36
HETATM   36  C   UNL     1      -9.151  12.579  66.745  1.00  0.00    -0.214 C  
HETATM   37  O   UNL     1      -7.792  12.302  66.372  1.00  0.00    -0.372 OA 
HETATM   38  H   UNL     1      -7.465  11.561  66.867  1.00  0.00     0.000 HD 
BRANCH  36  39
HETATM   39  C   UNL     1     -10.020  11.299  66.591  1.00  0.00    -0.242 C  
HETATM   40  C   UNL     1      -9.968  10.752  65.150  1.00  0.00    -0.351 C  
HETATM   41  C   UNL     1      -9.454  10.200  67.521  1.00  0.00    -0.172 C  
BRANCH  39  42
HETATM   42  C   UNL     1     -11.483  11.602  66.993  1.00  0.00    -0.262 C  
HETATM   43  O   UNL     1     -12.023  10.586  67.832  1.00  0.00    -0.696 OA 
HETATM   44  H   UNL     1     -12.922  10.772  68.078  1.00  0.00     0.000 HD 
ENDBRANCH  39  42
ENDBRANCH  36  39
ENDBRANCH  34  36
ENDBRANCH  31  32
ENDBRANCH  30  31
ENDBRANCH  28  30
ENDBRANCH  25  26
ENDBRANCH  24  25
ENDBRANCH  23  24
ENDBRANCH  22  23
ENDBRANCH  21  22
ENDBRANCH  20  21
ENDBRANCH  18  20
ENDBRANCH  15  16
ENDBRANCH  14  15
ENDBRANCH  12  14
ENDBRANCH   7  10
ENDBRANCH   2   7
TORSDOF 19
ENDMDL
MODEL      266
REMARK 921   NORMALIZED FREE ENERGY PREDICTED BY IDOCK:   -3.56 KCAL/MOL
REMARK 922        TOTAL FREE ENERGY PREDICTED BY IDOCK:   -9.70 KCAL/MOL
REMARK 923 INTER-LIGAND FREE ENERGY PREDICTED BY IDOCK:   -7.23 KCAL/MOL
REMARK 924 INTRA-LIGAND FREE ENERGY PREDICTED BY IDOCK:   -2.47 KCAL/MOL
REMARK 927      BINDING AFFINITY PREDICTED BY RF-SCORE:    0.00 PKD
ROOT
HETATM    1  C   UNL     1      -9.747   8.772  71.819  1.00  0.00    -0.380 C  
HETATM    2  C   UNL     1     -10.798   8.804  70.694  1.00  0.00    -0.273 C  
HETATM    3  C   UNL     1     -12.014   9.651  71.143  1.00  0.00    -0.452 C  
ENDROOT
BRANCH   2   4
HETATM    4  C   UNL     1     -10.195   9.515  69.463  1.00  0.00    -0.213 C  
HETATM    5  O   UNL     1     -10.991   9.302  68.300  1.00  0.00    -0.451 OA 
HETATM    6  H   UNL     1     -10.620   9.740  67.542  1.00  0.00     0.000 HD 
ENDBRANCH   2   4
BRANCH   2   7
HETATM    7  C   UNL     1     -11.252   7.364  70.299  1.00  0.00    -0.247 C  
HETATM    8  O   UNL     1     -10.341   6.719  69.393  1.00  0.00    -0.183 OA 
HETATM    9  H   UNL     1     -10.617   5.843  69.154  1.00  0.00     0.000 HD 
BRANCH   7  10
HETATM   10  C   UNL     1     -11.480   6.403  71.488  1.00  0.00    -0.306 C  
HETATM   11  O   UNL     1     -12.519   6.330  72.137  1.00  0.00    -0.291 OA 
HETATM   12  N   UNL     1     -10.414   5.562  71.715  1.00  0.00    -0.222 N  
HETATM   13  H   UNL     1      -9.545   5.700  71.198  1.00  0.00     0.000 HD 
BRANCH  12  14
HETATM   14  C   UNL     1     -10.509   4.487  72.677  1.00  0.00    -0.195 C  
BRANCH  14  15
HETATM   15  C   UNL     1      -9.615   3.298  72.342  1.00  0.00    -0.197 C  
BRANCH  15  16
HETATM   16  C   UNL     1      -8.437   3.792  71.532  1.00  0.00    -0.080 C  
HETATM   17  O   UNL     1      -8.500   3.923  70.314  1.00  0.00    -0.059 OA 
HETATM   18  N   UNL     1      -7.325   4.099  72.281  1.00  0.00    -0.061 N  
HETATM   19  H   UNL     1      -7.399   3.999  73.293  1.00  0.00     0.000 HD 
BRANCH  18  20
HETATM   20  C   UNL     1      -6.042   4.559  71.742  1.00  0.00    -0.017 C  
BRANCH  20  21
HETATM   21  C   UNL     1      -5.825   6.073  71.651  1.00  0.00    -0.027 C  
BRANCH  21  22
HETATM   22  S   UNL     1      -5.305   6.688  70.003  1.00  0.00    -0.015 SA 
BRANCH  22  23
HETATM   23  S   UNL     1      -6.780   8.028  69.481  1.00  0.00    -0.039 SA 
BRANCH  23  24
HETATM   24  C   UNL     1      -6.704   7.962  67.661  1.00  0.00    -0.068 C  
BRANCH  24  25
HETATM   25  C   UNL     1      -5.804   9.067  67.104  1.00  0.00    -0.046 C  
BRANCH  25  26
HETATM   26  N   UNL     1      -5.819  10.313  67.866  1.00  0.00    -0.041 N  
HETATM   27  H   UNL     1      -5.194  10.395  68.668  1.00  0.00     0.000 HD 
HETATM   28  C   UNL     1      -6.632  11.384  67.561  1.00  0.00    -0.078 C  
HETATM   29  O   UNL     1      -7.460  11.375  66.656  1.00  0.00    -0.145 OA 
BRANCH  28  30
HETATM   30  C   UNL     1      -6.399  12.610  68.414  1.00  0.00    -0.069 C  
BRANCH  30  31
HETATM   31  C   UNL     1      -6.454  13.863  67.545  1.00  0.00    -0.058 C  
BRANCH  31  32
HETATM   32  N   UNL     1      -7.815  14.233  67.204  1.00  0.00    -0.350 N  
HETATM   33  H   UNL     1      -8.175  13.984  66.283  1.00  0.00     0.000 HD 
HETATM   34  C   UNL     1      -8.636  14.906  68.077  1.00  0.00    -0.160 C  
HETATM   35  O   UNL     1      -8.265  15.327  69.169  1.00  0.00    -0.200 OA 
BRANCH  34  36
HETATM   36  C   UNL     1     -10.061  15.155  67.532  1.00  0.00    -0.232 C  
HETATM   37  O   UNL     1     -10.505  16.470  67.903  1.00  0.00    -0.290 OA 
HETATM   38  H   UNL     1     -11.381  16.622  67.568  1.00  0.00     0.000 HD 
BRANCH  36  39
HETATM   39  C   UNL     1     -11.094  14.091  67.995  1.00  0.00    -0.282 C  
HETATM   40  C   UNL     1     -12.131  13.794  66.892  1.00  0.00    -0.454 C  
HETATM   41  C   UNL     1     -10.348  12.769  68.293  1.00  0.00    -0.248 C  
BRANCH  39  42
HETATM   42  C   UNL     1     -11.809  14.572  69.281  1.00  0.00    -0.323 C  
HETATM   43  O   UNL     1     -10.963  14.483  70.422  1.00  0.00    -0.480 OA 
HETATM   44  H   UNL     1     -11.401  14.779  71.211  1.00  0.00     0.000 HD 
ENDBRANCH  39  42
ENDBRANCH  36  39
ENDBRANCH  34  36
ENDBRANCH  31  32
ENDBRANCH  30  31
ENDBRANCH  28  30
ENDBRANCH  25  26
ENDBRANCH  24  25
ENDBRANCH  23  24
ENDBRANCH  22  23
ENDBRANCH  21  22
ENDBRANCH  20  21
ENDBRANCH  18  20
ENDBRANCH  15  16
ENDBRANCH  14  15
ENDBRANCH  12  14
ENDBRANCH   7  10
ENDBRANCH   2   7
TORSDOF 19
ENDMDL
MODEL      267
REMARK 921   NORMALIZED FREE ENERGY PREDICTED BY IDOCK:   -3.56 KCAL/MOL
REMARK 922        TOTAL FREE ENERGY PREDICTED BY IDOCK:   -9.70 KCAL/MOL
REMARK 923 INTER-LIGAND FREE ENERGY PREDICTED BY IDOCK:   -7.17 KCAL/MOL
REMARK 924 INTRA-LIGAND FREE ENERGY PREDICTED BY IDOCK:   -2.53 KCAL/MOL
REMARK 927      BINDING AFFINITY PREDICTED BY RF-SCORE:    0.00 PKD
ROOT
HETATM    1  C   UNL     1     -11.780   9.077  70.461  1.00  0.00    -0.160 C  
HETATM    2  C   UNL     1     -11.999   7.874  71.398  1.00  0.00    -0.331 C  
HETATM    3  C   UNL     1     -11.375   8.176  72.783  1.00  0.00    -0.406 C  
ENDROOT
BRANCH   2   4
HETATM    4  C   UNL     1     -13.513   7.686  71.628  1.00  0.00    -0.358 C  
HETATM    5  O   UNL     1     -13.776   6.547  72.444  1.00  0.00    -0.456 OA 
HETATM    6  H   UNL     1     -14.709   6.431  72.585  1.00  0.00     0.000 HD 
ENDBRANCH   2   4
BRANCH   2   7
HETATM    7  C   UNL     1     -11.390   6.568  70.799  1.00  0.00    -0.342 C  
HETATM    8  O   UNL     1     -10.468   6.823  69.726  1.00  0.00    -0.193 OA 
HETATM    9  H   UNL     1     -10.097   6.028  69.362  1.00  0.00     0.000 HD 
BRANCH   7  10
HETATM   10  C   UNL     1     -10.675   5.654  71.818  1.00  0.00    -0.244 C  
HETATM   11  O   UNL     1     -11.246   4.943  72.641  1.00  0.00    -0.199 OA 
HETATM   12  N   UNL     1      -9.306   5.650  71.672  1.00  0.00    -0.146 N  
HETATM   13  H   UNL     1      -8.866   6.304  71.023  1.00  0.00     0.000 HD 
BRANCH  12  14
HETATM   14  C   UNL     1      -8.482   4.732  72.426  1.00  0.00    -0.116 C  
BRANCH  14  15
HETATM   15  C   UNL     1      -8.051   3.509  71.622  1.00  0.00    -0.065 C  
BRANCH  15  16
HETATM   16  C   UNL     1      -7.012   3.938  70.611  1.00  0.00    -0.033 C  
HETATM   17  O   UNL     1      -6.510   5.057  70.634  1.00  0.00    -0.031 OA 
HETATM   18  N   UNL     1      -6.672   2.963  69.701  1.00  0.00    -0.033 N  
HETATM   19  H   UNL     1      -7.116   2.052  69.803  1.00  0.00     0.000 HD 
BRANCH  18  20
HETATM   20  C   UNL     1      -5.723   3.130  68.597  1.00  0.00    -0.022 C  
BRANCH  20  21
HETATM   21  C   UNL     1      -6.274   3.683  67.279  1.00  0.00    -0.036 C  
BRANCH  21  22
HETATM   22  S   UNL     1      -6.743   2.416  66.039  1.00  0.00    -0.040 SA 
BRANCH  22  23
HETATM   23  S   UNL     1      -8.759   2.128  66.355  1.00  0.00    -0.121 SA 
BRANCH  23  24
HETATM   24  C   UNL     1      -9.471   2.848  64.839  1.00  0.00    -0.123 C  
BRANCH  24  25
HETATM   25  C   UNL     1      -9.986   4.267  65.090  1.00  0.00    -0.204 C  
BRANCH  25  26
HETATM   26  N   UNL     1      -8.960   5.306  65.060  1.00  0.00    -0.293 N  
HETATM   27  H   UNL     1      -8.207   5.221  64.377  1.00  0.00     0.000 HD 
HETATM   28  C   UNL     1      -8.953   6.396  65.905  1.00  0.00    -0.096 C  
HETATM   29  O   UNL     1      -9.774   6.570  66.800  1.00  0.00    -0.154 OA 
BRANCH  28  30
HETATM   30  C   UNL     1      -7.861   7.402  65.621  1.00  0.00    -0.111 C  
BRANCH  30  31
HETATM   31  C   UNL     1      -8.242   8.251  64.412  1.00  0.00    -0.127 C  
BRANCH  31  32
HETATM   32  N   UNL     1      -9.217   9.272  64.746  1.00  0.00    -0.431 N  
HETATM   33  H   UNL     1     -10.209   9.059  64.635  1.00  0.00     0.000 HD 
HETATM   34  C   UNL     1      -8.854  10.515  65.206  1.00  0.00    -0.188 C  
HETATM   35  O   UNL     1      -7.689  10.895  65.285  1.00  0.00    -0.007 OA 
BRANCH  34  36
HETATM   36  C   UNL     1     -10.050  11.431  65.550  1.00  0.00    -0.247 C  
HETATM   37  O   UNL     1      -9.926  12.682  64.856  1.00  0.00    -0.427 OA 
HETATM   38  H   UNL     1     -10.662  13.244  65.068  1.00  0.00     0.000 HD 
BRANCH  36  39
HETATM   39  C   UNL     1     -10.220  11.680  67.075  1.00  0.00    -0.240 C  
HETATM   40  C   UNL     1      -9.701  10.486  67.903  1.00  0.00    -0.171 C  
HETATM   41  C   UNL     1      -9.380  12.916  67.473  1.00  0.00    -0.190 C  
BRANCH  39  42
HETATM   42  C   UNL     1     -11.708  11.948  67.404  1.00  0.00    -0.256 C  
HETATM   43  O   UNL     1     -12.387  12.568  66.317  1.00  0.00    -0.570 OA 
HETATM   44  H   UNL     1     -13.301  12.733  66.519  1.00  0.00     0.000 HD 
ENDBRANCH  39  42
ENDBRANCH  36  39
ENDBRANCH  34  36
ENDBRANCH  31  32
ENDBRANCH  30  31
ENDBRANCH  28  30
ENDBRANCH  25  26
ENDBRANCH  24  25
ENDBRANCH  23  24
ENDBRANCH  22  23
ENDBRANCH  21  22
ENDBRANCH  20  21
ENDBRANCH  18  20
ENDBRANCH  15  16
ENDBRANCH  14  15
ENDBRANCH  12  14
ENDBRANCH   7  10
ENDBRANCH   2   7
TORSDOF 19
ENDMDL
MODEL      268
REMARK 921   NORMALIZED FREE ENERGY PREDICTED BY IDOCK:   -3.55 KCAL/MOL
REMARK 922        TOTAL FREE ENERGY PREDICTED BY IDOCK:   -9.67 KCAL/MOL
REMARK 923 INTER-LIGAND FREE ENERGY PREDICTED BY IDOCK:   -8.02 KCAL/MOL
REMARK 924 INTRA-LIGAND FREE ENERGY PREDICTED BY IDOCK:   -1.65 KCAL/MOL
REMARK 927      BINDING AFFINITY PREDICTED BY RF-SCORE:    0.00 PKD
ROOT
HETATM    1  C   UNL     1      -9.963   8.017  72.952  1.00  0.00    -0.360 C  
HETATM    2  C   UNL     1      -9.064   7.864  71.711  1.00  0.00    -0.188 C  
HETATM    3  C   UNL     1      -7.603   8.217  72.082  1.00  0.00    -0.142 C  
ENDROOT
BRANCH   2   4
HETATM    4  C   UNL     1      -9.064   6.385  71.270  1.00  0.00    -0.148 C  
HETATM    5  O   UNL     1     -10.389   5.908  71.050  1.00  0.00    -0.205 OA 
HETATM    6  H   UNL     1     -10.388   4.998  70.779  1.00  0.00     0.000 HD 
ENDBRANCH   2   4
BRANCH   2   7
HETATM    7  C   UNL     1      -9.560   8.764  70.536  1.00  0.00    -0.191 C  
HETATM    8  O   UNL     1      -9.061  10.110  70.614  1.00  0.00    -0.269 OA 
HETATM    9  H   UNL     1      -9.363  10.657  69.899  1.00  0.00     0.000 HD 
BRANCH   7  10
HETATM   10  C   UNL     1      -9.235   8.230  69.123  1.00  0.00    -0.151 C  
HETATM   11  O   UNL     1      -8.102   8.098  68.670  1.00  0.00    -0.120 OA 
HETATM   12  N   UNL     1     -10.354   7.837  68.423  1.00  0.00    -0.201 N  
HETATM   13  H   UNL     1     -11.281   8.025  68.807  1.00  0.00     0.000 HD 
BRANCH  12  14
HETATM   14  C   UNL     1     -10.233   7.161  67.151  1.00  0.00    -0.257 C  
BRANCH  14  15
HETATM   15  C   UNL     1     -10.682   5.704  67.198  1.00  0.00    -0.316 C  
BRANCH  15  16
HETATM   16  C   UNL     1     -10.007   4.954  66.072  1.00  0.00    -0.223 C  
HETATM   17  O   UNL     1     -10.637   4.528  65.109  1.00  0.00    -0.206 OA 
HETATM   18  N   UNL     1      -8.644   4.823  66.215  1.00  0.00    -0.113 N  
HETATM   19  H   UNL     1      -8.216   5.258  67.031  1.00  0.00     0.000 HD 
BRANCH  18  20
HETATM   20  C   UNL     1      -7.761   4.110  65.289  1.00  0.00    -0.085 C  
BRANCH  20  21
HETATM   21  C   UNL     1      -7.026   4.949  64.239  1.00  0.00    -0.049 C  
BRANCH  21  22
HETATM   22  S   UNL     1      -5.622   5.941  64.877  1.00  0.00    -0.017 SA 
BRANCH  22  23
HETATM   23  S   UNL     1      -6.462   7.772  65.312  1.00  0.00    -0.041 SA 
BRANCH  23  24
HETATM   24  C   UNL     1      -7.119   8.267  63.685  1.00  0.00    -0.086 C  
BRANCH  24  25
HETATM   25  C   UNL     1      -8.649   8.291  63.692  1.00  0.00     0.186 C  
BRANCH  25  26
HETATM   26  N   UNL     1      -9.246   9.537  63.216  1.00  0.00    -0.452 N  
HETATM   27  H   UNL     1      -9.663   9.546  62.285  1.00  0.00     0.000 HD 
HETATM   28  C   UNL     1      -9.276  10.700  63.957  1.00  0.00    -0.239 C  
HETATM   29  O   UNL     1      -8.757  10.818  65.062  1.00  0.00    -0.191 OA 
BRANCH  28  30
HETATM   30  C   UNL     1     -10.044  11.832  63.314  1.00  0.00    -0.448 C  
BRANCH  30  31
HETATM   31  C   UNL     1     -11.542  11.602  63.482  1.00  0.00    -0.305 C  
BRANCH  31  32
HETATM   32  N   UNL     1     -11.999  11.931  64.819  1.00  0.00    -0.211 N  
HETATM   33  H   UNL     1     -12.598  11.268  65.311  1.00  0.00     0.000 HD 
HETATM   34  C   UNL     1     -11.655  13.105  65.447  1.00  0.00    -0.333 C  
HETATM   35  O   UNL     1     -11.016  14.002  64.904  1.00  0.00    -0.350 OA 
BRANCH  34  36
HETATM   36  C   UNL     1     -12.206  13.232  66.885  1.00  0.00    -0.257 C  
HETATM   37  O   UNL     1     -12.521  14.604  67.170  1.00  0.00    -0.507 OA 
HETATM   38  H   UNL     1     -12.860  14.682  68.054  1.00  0.00     0.000 HD 
BRANCH  36  39
HETATM   39  C   UNL     1     -11.244  12.668  67.968  1.00  0.00    -0.308 C  
HETATM   40  C   UNL     1      -9.788  13.109  67.714  1.00  0.00    -0.228 C  
HETATM   41  C   UNL     1     -11.663  13.232  69.346  1.00  0.00    -0.383 C  
BRANCH  39  42
HETATM   42  C   UNL     1     -11.334  11.124  68.001  1.00  0.00    -0.312 C  
HETATM   43  O   UNL     1     -12.625  10.677  68.404  1.00  0.00    -0.314 OA 
HETATM   44  H   UNL     1     -12.680   9.729  68.425  1.00  0.00     0.000 HD 
ENDBRANCH  39  42
ENDBRANCH  36  39
ENDBRANCH  34  36
ENDBRANCH  31  32
ENDBRANCH  30  31
ENDBRANCH  28  30
ENDBRANCH  25  26
ENDBRANCH  24  25
ENDBRANCH  23  24
ENDBRANCH  22  23
ENDBRANCH  21  22
ENDBRANCH  20  21
ENDBRANCH  18  20
ENDBRANCH  15  16
ENDBRANCH  14  15
ENDBRANCH  12  14
ENDBRANCH   7  10
ENDBRANCH   2   7
TORSDOF 19
ENDMDL
MODEL      269
REMARK 921   NORMALIZED FREE ENERGY PREDICTED BY IDOCK:   -3.54 KCAL/MOL
REMARK 922        TOTAL FREE ENERGY PREDICTED BY IDOCK:   -9.64 KCAL/MOL
REMARK 923 INTER-LIGAND FREE ENERGY PREDICTED BY IDOCK:   -8.05 KCAL/MOL
REMARK 924 INTRA-LIGAND FREE ENERGY PREDICTED BY IDOCK:   -1.59 KCAL/MOL
REMARK 927      BINDING AFFINITY PREDICTED BY RF-SCORE:    0.00 PKD
ROOT
HETATM    1  C   UNL     1     -11.215   1.827  63.102  1.00  0.00    -0.248 C  
HETATM    2  C   UNL     1      -9.910   2.426  63.659  1.00  0.00    -0.130 C  
HETATM    3  C   UNL     1      -9.307   1.467  64.715  1.00  0.00    -0.098 C  
ENDROOT
BRANCH   2   4
HETATM    4  C   UNL     1      -8.877   2.530  62.516  1.00  0.00    -0.074 C  
HETATM    5  O   UNL     1      -8.020   3.656  62.692  1.00  0.00    -0.068 OA 
HETATM    6  H   UNL     1      -7.385   3.719  61.988  1.00  0.00     0.000 HD 
ENDBRANCH   2   4
BRANCH   2   7
HETATM    7  C   UNL     1     -10.152   3.838  64.279  1.00  0.00    -0.218 C  
HETATM    8  O   UNL     1     -11.545   4.123  64.491  1.00  0.00    -0.760 OA 
HETATM    9  H   UNL     1     -11.692   4.981  64.868  1.00  0.00     0.000 HD 
BRANCH   7  10
HETATM   10  C   UNL     1      -9.417   4.099  65.613  1.00  0.00    -0.177 C  
HETATM   11  O   UNL     1      -9.943   4.053  66.721  1.00  0.00    -0.195 OA 
HETATM   12  N   UNL     1      -8.068   4.324  65.451  1.00  0.00    -0.101 N  
HETATM   13  H   UNL     1      -7.683   4.422  64.511  1.00  0.00     0.000 HD 
BRANCH  12  14
HETATM   14  C   UNL     1      -7.191   4.425  66.596  1.00  0.00    -0.079 C  
BRANCH  14  15
HETATM   15  C   UNL     1      -6.842   3.072  67.208  1.00  0.00    -0.045 C  
BRANCH  15  16
HETATM   16  C   UNL     1      -7.002   3.165  68.709  1.00  0.00    -0.048 C  
HETATM   17  O   UNL     1      -6.223   2.610  69.478  1.00  0.00    -0.024 OA 
HETATM   18  N   UNL     1      -8.064   3.938  69.118  1.00  0.00    -0.058 N  
HETATM   19  H   UNL     1      -8.618   4.394  68.394  1.00  0.00     0.000 HD 
BRANCH  18  20
HETATM   20  C   UNL     1      -8.462   4.160  70.511  1.00  0.00    -0.069 C  
BRANCH  20  21
HETATM   21  C   UNL     1      -9.378   3.112  71.151  1.00  0.00    -0.141 C  
BRANCH  21  22
HETATM   22  S   UNL     1      -9.795   3.414  72.911  1.00  0.00    -0.149 SA 
BRANCH  22  23
HETATM   23  S   UNL     1     -10.025   5.458  73.028  1.00  0.00    -0.173 SA 
BRANCH  23  24
HETATM   24  C   UNL     1     -11.749   5.663  72.470  1.00  0.00    -0.197 C  
BRANCH  24  25
HETATM   25  C   UNL     1     -11.909   6.926  71.621  1.00  0.00    -0.324 C  
BRANCH  25  26
HETATM   26  N   UNL     1     -11.957   6.695  70.180  1.00  0.00    -0.615 N  
HETATM   27  H   UNL     1     -12.857   6.463  69.759  1.00  0.00     0.000 HD 
HETATM   28  C   UNL     1     -10.853   6.774  69.357  1.00  0.00    -0.271 C  
HETATM   29  O   UNL     1      -9.716   6.989  69.761  1.00  0.00    -0.168 OA 
BRANCH  28  30
HETATM   30  C   UNL     1     -11.156   6.610  67.885  1.00  0.00    -0.310 C  
BRANCH  30  31
HETATM   31  C   UNL     1     -10.605   7.801  67.108  1.00  0.00    -0.331 C  
BRANCH  31  32
HETATM   32  N   UNL     1     -10.633   9.024  67.888  1.00  0.00    -0.374 N  
HETATM   33  H   UNL     1     -11.287   9.094  68.667  1.00  0.00     0.000 HD 
HETATM   34  C   UNL     1      -9.810  10.091  67.614  1.00  0.00    -0.162 C  
HETATM   35  O   UNL     1      -9.057  10.135  66.645  1.00  0.00    -0.142 OA 
BRANCH  34  36
HETATM   36  C   UNL     1      -9.966  11.272  68.598  1.00  0.00    -0.204 C  
HETATM   37  O   UNL     1     -10.520  10.806  69.839  1.00  0.00    -0.432 OA 
HETATM   38  H   UNL     1     -10.617  11.532  70.444  1.00  0.00     0.000 HD 
BRANCH  36  39
HETATM   39  C   UNL     1     -10.825  12.437  68.033  1.00  0.00    -0.251 C  
HETATM   40  C   UNL     1      -9.974  13.701  67.795  1.00  0.00    -0.235 C  
HETATM   41  C   UNL     1     -11.406  12.009  66.664  1.00  0.00    -0.399 C  
BRANCH  39  42
HETATM   42  C   UNL     1     -11.989  12.754  69.002  1.00  0.00    -0.242 C  
HETATM   43  O   UNL     1     -12.443  14.097  68.863  1.00  0.00    -0.538 OA 
HETATM   44  H   UNL     1     -13.158  14.292  69.458  1.00  0.00     0.000 HD 
ENDBRANCH  39  42
ENDBRANCH  36  39
ENDBRANCH  34  36
ENDBRANCH  31  32
ENDBRANCH  30  31
ENDBRANCH  28  30
ENDBRANCH  25  26
ENDBRANCH  24  25
ENDBRANCH  23  24
ENDBRANCH  22  23
ENDBRANCH  21  22
ENDBRANCH  20  21
ENDBRANCH  18  20
ENDBRANCH  15  16
ENDBRANCH  14  15
ENDBRANCH  12  14
ENDBRANCH   7  10
ENDBRANCH   2   7
TORSDOF 19
ENDMDL
MODEL      270
REMARK 921   NORMALIZED FREE ENERGY PREDICTED BY IDOCK:   -3.53 KCAL/MOL
REMARK 922        TOTAL FREE ENERGY PREDICTED BY IDOCK:   -9.63 KCAL/MOL
REMARK 923 INTER-LIGAND FREE ENERGY PREDICTED BY IDOCK:   -7.19 KCAL/MOL
REMARK 924 INTRA-LIGAND FREE ENERGY PREDICTED BY IDOCK:   -2.43 KCAL/MOL
REMARK 927      BINDING AFFINITY PREDICTED BY RF-SCORE:    0.00 PKD
ROOT
HETATM    1  C   UNL     1     -10.646  15.978  65.740  1.00  0.00    -0.366 C  
HETATM    2  C   UNL     1      -9.974  15.080  66.795  1.00  0.00    -0.254 C  
HETATM    3  C   UNL     1     -10.658  15.290  68.168  1.00  0.00    -0.254 C  
ENDROOT
BRANCH   2   4
HETATM    4  C   UNL     1     -10.197  13.601  66.413  1.00  0.00    -0.292 C  
HETATM    5  O   UNL     1     -10.128  12.753  67.556  1.00  0.00    -0.209 OA 
HETATM    6  H   UNL     1     -10.265  11.843  67.321  1.00  0.00     0.000 HD 
ENDBRANCH   2   4
BRANCH   2   7
HETATM    7  C   UNL     1      -8.444  15.372  66.898  1.00  0.00    -0.252 C  
HETATM    8  O   UNL     1      -8.131  16.767  66.748  1.00  0.00    -0.189 OA 
HETATM    9  H   UNL     1      -7.200  16.945  66.811  1.00  0.00     0.000 HD 
BRANCH   7  10
HETATM   10  C   UNL     1      -7.772  14.884  68.201  1.00  0.00    -0.115 C  
HETATM   11  O   UNL     1      -7.619  15.570  69.207  1.00  0.00    -0.188 OA 
HETATM   12  N   UNL     1      -7.416  13.555  68.160  1.00  0.00    -0.118 N  
HETATM   13  H   UNL     1      -7.498  13.038  67.284  1.00  0.00     0.000 HD 
BRANCH  12  14
HETATM   14  C   UNL     1      -6.926  12.882  69.342  1.00  0.00     0.107 C  
BRANCH  14  15
HETATM   15  C   UNL     1      -5.531  12.292  69.165  1.00  0.00    -0.064 C  
BRANCH  15  16
HETATM   16  C   UNL     1      -5.604  10.800  69.398  1.00  0.00    -0.037 C  
HETATM   17  O   UNL     1      -5.429   9.994  68.489  1.00  0.00    -0.039 OA 
HETATM   18  N   UNL     1      -5.851  10.441  70.703  1.00  0.00    -0.098 N  
HETATM   19  H   UNL     1      -5.931  11.193  71.388  1.00  0.00     0.000 HD 
BRANCH  18  20
HETATM   20  C   UNL     1      -6.008   9.068  71.189  1.00  0.00    -0.055 C  
BRANCH  20  21
HETATM   21  C   UNL     1      -6.454   8.888  72.642  1.00  0.00     0.074 C  
BRANCH  21  22
HETATM   22  S   UNL     1      -7.248   7.278  73.020  1.00  0.00    -0.074 SA 
BRANCH  22  23
HETATM   23  S   UNL     1      -9.222   7.760  73.361  1.00  0.00    -0.293 SA 
BRANCH  23  24
HETATM   24  C   UNL     1     -10.036   6.146  73.130  1.00  0.00    -0.188 C  
BRANCH  24  25
HETATM   25  C   UNL     1     -11.523   6.317  72.814  1.00  0.00    -0.164 C  
BRANCH  25  26
HETATM   26  N   UNL     1     -12.005   7.696  72.857  1.00  0.00    -0.593 N  
HETATM   27  H   UNL     1     -11.781   8.259  73.678  1.00  0.00     0.000 HD 
HETATM   28  C   UNL     1     -12.745   8.278  71.849  1.00  0.00    -0.342 C  
HETATM   29  O   UNL     1     -13.118   7.680  70.845  1.00  0.00    -0.099 OA 
BRANCH  28  30
HETATM   30  C   UNL     1     -13.037   9.746  72.055  1.00  0.00    -0.546 C  
BRANCH  30  31
HETATM   31  C   UNL     1     -11.924  10.587  71.438  1.00  0.00    -0.230 C  
BRANCH  31  32
HETATM   32  N   UNL     1     -11.565  10.130  70.109  1.00  0.00    -0.281 N  
HETATM   33  H   UNL     1     -12.309   9.951  69.434  1.00  0.00     0.000 HD 
HETATM   34  C   UNL     1     -10.260   9.929  69.726  1.00  0.00    -0.246 C  
HETATM   35  O   UNL     1      -9.306  10.028  70.493  1.00  0.00    -0.033 OA 
BRANCH  34  36
HETATM   36  C   UNL     1     -10.099   9.491  68.254  1.00  0.00    -0.183 C  
HETATM   37  O   UNL     1     -11.319   9.730  67.534  1.00  0.00    -0.416 OA 
HETATM   38  H   UNL     1     -11.220   9.460  66.629  1.00  0.00     0.000 HD 
BRANCH  36  39
HETATM   39  C   UNL     1      -9.666   8.006  68.094  1.00  0.00    -0.179 C  
HETATM   40  C   UNL     1      -8.136   7.850  68.206  1.00  0.00    -0.123 C  
HETATM   41  C   UNL     1     -10.299   7.178  69.237  1.00  0.00    -0.209 C  
BRANCH  39  42
HETATM   42  C   UNL     1     -10.159   7.456  66.734  1.00  0.00    -0.235 C  
HETATM   43  O   UNL     1      -9.891   8.361  65.668  1.00  0.00    -0.412 OA 
HETATM   44  H   UNL     1     -10.193   8.024  64.833  1.00  0.00     0.000 HD 
ENDBRANCH  39  42
ENDBRANCH  36  39
ENDBRANCH  34  36
ENDBRANCH  31  32
ENDBRANCH  30  31
ENDBRANCH  28  30
ENDBRANCH  25  26
ENDBRANCH  24  25
ENDBRANCH  23  24
ENDBRANCH  22  23
ENDBRANCH  21  22
ENDBRANCH  20  21
ENDBRANCH  18  20
ENDBRANCH  15  16
ENDBRANCH  14  15
ENDBRANCH  12  14
ENDBRANCH   7  10
ENDBRANCH   2   7
TORSDOF 19
ENDMDL
MODEL      271
REMARK 921   NORMALIZED FREE ENERGY PREDICTED BY IDOCK:   -3.50 KCAL/MOL
REMARK 922        TOTAL FREE ENERGY PREDICTED BY IDOCK:   -9.58 KCAL/MOL
REMARK 923 INTER-LIGAND FREE ENERGY PREDICTED BY IDOCK:   -7.65 KCAL/MOL
REMARK 924 INTRA-LIGAND FREE ENERGY PREDICTED BY IDOCK:   -1.93 KCAL/MOL
REMARK 927      BINDING AFFINITY PREDICTED BY RF-SCORE:    0.00 PKD
ROOT
HETATM    1  C   UNL     1      -6.894  12.967  69.366  1.00  0.00     0.038 C  
HETATM    2  C   UNL     1      -6.563  14.461  69.538  1.00  0.00    -0.141 C  
HETATM    3  C   UNL     1      -7.870  15.257  69.782  1.00  0.00    -0.057 C  
ENDROOT
BRANCH   2   4
HETATM    4  C   UNL     1      -5.694  14.642  70.801  1.00  0.00    -0.162 C  
HETATM    5  O   UNL     1      -5.304  16.003  70.972  1.00  0.00    -0.131 OA 
HETATM    6  H   UNL     1      -4.769  16.114  71.749  1.00  0.00     0.000 HD 
ENDBRANCH   2   4
BRANCH   2   7
HETATM    7  C   UNL     1      -5.807  15.023  68.294  1.00  0.00    -0.119 C  
HETATM    8  O   UNL     1      -5.442  13.999  67.353  1.00  0.00    -0.342 OA 
HETATM    9  H   UNL     1      -4.983  14.341  66.596  1.00  0.00     0.000 HD 
BRANCH   7  10
HETATM   10  C   UNL     1      -6.562  16.122  67.513  1.00  0.00    -0.171 C  
HETATM   11  O   UNL     1      -7.290  15.918  66.547  1.00  0.00    -0.134 OA 
HETATM   12  N   UNL     1      -6.398  17.378  68.054  1.00  0.00    -0.152 N  
HETATM   13  H   UNL     1      -5.732  17.516  68.815  1.00  0.00     0.000 HD 
BRANCH  12  14
HETATM   14  C   UNL     1      -7.158  18.504  67.558  1.00  0.00    -0.206 C  
BRANCH  14  15
HETATM   15  C   UNL     1      -8.297  18.917  68.485  1.00  0.00    -0.384 C  
BRANCH  15  16
HETATM   16  C   UNL     1      -9.552  18.187  68.063  1.00  0.00    -0.300 C  
HETATM   17  O   UNL     1     -10.482  17.996  68.840  1.00  0.00    -0.302 OA 
HETATM   18  N   UNL     1      -9.561  17.791  66.745  1.00  0.00    -0.288 N  
HETATM   19  H   UNL     1      -8.754  18.045  66.175  1.00  0.00     0.000 HD 
BRANCH  18  20
HETATM   20  C   UNL     1     -10.635  17.036  66.094  1.00  0.00    -0.194 C  
BRANCH  20  21
HETATM   21  C   UNL     1     -10.866  15.599  66.572  1.00  0.00    -0.260 C  
BRANCH  21  22
HETATM   22  S   UNL     1     -10.629  14.306  65.293  1.00  0.00    -0.407 SA 
BRANCH  22  23
HETATM   23  S   UNL     1     -10.007  12.656  66.359  1.00  0.00    -0.259 SA 
BRANCH  23  24
HETATM   24  C   UNL     1     -11.427  12.385  67.471  1.00  0.00    -0.346 C  
BRANCH  24  25
HETATM   25  C   UNL     1     -11.018  12.542  68.937  1.00  0.00    -0.227 C  
BRANCH  25  26
HETATM   26  N   UNL     1     -10.681  11.294  69.617  1.00  0.00    -0.454 N  
HETATM   27  H   UNL     1      -9.718  10.962  69.564  1.00  0.00     0.000 HD 
HETATM   28  C   UNL     1     -11.593  10.540  70.326  1.00  0.00    -0.332 C  
HETATM   29  O   UNL     1     -12.785  10.814  70.409  1.00  0.00    -0.327 OA 
BRANCH  28  30
HETATM   30  C   UNL     1     -10.999   9.349  71.042  1.00  0.00    -0.409 C  
BRANCH  30  31
HETATM   31  C   UNL     1      -9.503   9.265  70.754  1.00  0.00    -0.271 C  
BRANCH  31  32
HETATM   32  N   UNL     1      -8.923   8.023  71.229  1.00  0.00    -0.134 N  
HETATM   33  H   UNL     1      -8.712   7.928  72.223  1.00  0.00     0.000 HD 
HETATM   34  C   UNL     1      -8.648   6.970  70.389  1.00  0.00    -0.142 C  
HETATM   35  O   UNL     1      -8.781   7.023  69.170  1.00  0.00    -0.132 OA 
BRANCH  34  36
HETATM   36  C   UNL     1      -8.081   5.725  71.109  1.00  0.00    -0.117 C  
HETATM   37  O   UNL     1      -6.870   5.296  70.467  1.00  0.00    -0.047 OA 
HETATM   38  H   UNL     1      -6.523   4.531  70.910  1.00  0.00     0.000 HD 
BRANCH  36  39
HETATM   39  C   UNL     1      -9.090   4.546  71.191  1.00  0.00    -0.183 C  
HETATM   40  C   UNL     1      -9.083   3.894  72.589  1.00  0.00    -0.132 C  
HETATM   41  C   UNL     1     -10.516   5.094  70.946  1.00  0.00    -0.258 C  
BRANCH  39  42
HETATM   42  C   UNL     1      -8.758   3.490  70.110  1.00  0.00    -0.067 C  
HETATM   43  O   UNL     1      -8.913   4.012  68.795  1.00  0.00    -0.099 OA 
HETATM   44  H   UNL     1      -8.709   3.364  68.131  1.00  0.00     0.000 HD 
ENDBRANCH  39  42
ENDBRANCH  36  39
ENDBRANCH  34  36
ENDBRANCH  31  32
ENDBRANCH  30  31
ENDBRANCH  28  30
ENDBRANCH  25  26
ENDBRANCH  24  25
ENDBRANCH  23  24
ENDBRANCH  22  23
ENDBRANCH  21  22
ENDBRANCH  20  21
ENDBRANCH  18  20
ENDBRANCH  15  16
ENDBRANCH  14  15
ENDBRANCH  12  14
ENDBRANCH   7  10
ENDBRANCH   2   7
TORSDOF 19
ENDMDL
MODEL      272
REMARK 921   NORMALIZED FREE ENERGY PREDICTED BY IDOCK:   -3.50 KCAL/MOL
REMARK 922        TOTAL FREE ENERGY PREDICTED BY IDOCK:   -9.57 KCAL/MOL
REMARK 923 INTER-LIGAND FREE ENERGY PREDICTED BY IDOCK:   -8.83 KCAL/MOL
REMARK 924 INTRA-LIGAND FREE ENERGY PREDICTED BY IDOCK:   -0.74 KCAL/MOL
REMARK 927      BINDING AFFINITY PREDICTED BY RF-SCORE:    0.00 PKD
ROOT
HETATM    1  C   UNL     1      -9.528   8.638  71.605  1.00  0.00    -0.339 C  
HETATM    2  C   UNL     1     -10.955   8.689  71.028  1.00  0.00    -0.314 C  
HETATM    3  C   UNL     1     -11.639  10.013  71.453  1.00  0.00    -0.383 C  
ENDROOT
BRANCH   2   4
HETATM    4  C   UNL     1     -10.874   8.708  69.487  1.00  0.00    -0.129 C  
HETATM    5  O   UNL     1     -10.344   7.486  68.980  1.00  0.00    -0.204 OA 
HETATM    6  H   UNL     1     -10.294   7.498  68.031  1.00  0.00     0.000 HD 
ENDBRANCH   2   4
BRANCH   2   7
HETATM    7  C   UNL     1     -11.802   7.464  71.496  1.00  0.00    -0.297 C  
HETATM    8  O   UNL     1     -12.694   6.981  70.477  1.00  0.00    -0.606 OA 
HETATM    9  H   UNL     1     -13.209   6.235  70.761  1.00  0.00     0.000 HD 
BRANCH   7  10
HETATM   10  C   UNL     1     -10.980   6.258  72.003  1.00  0.00    -0.256 C  
HETATM   11  O   UNL     1     -10.732   6.027  73.183  1.00  0.00    -0.234 OA 
HETATM   12  N   UNL     1     -10.601   5.401  70.993  1.00  0.00    -0.229 N  
HETATM   13  H   UNL     1     -10.767   5.662  70.021  1.00  0.00     0.000 HD 
BRANCH  12  14
HETATM   14  C   UNL     1      -9.968   4.136  71.294  1.00  0.00    -0.146 C  
BRANCH  14  15
HETATM   15  C   UNL     1      -8.727   3.867  70.450  1.00  0.00    -0.126 C  
BRANCH  15  16
HETATM   16  C   UNL     1      -8.849   4.636  69.153  1.00  0.00    -0.093 C  
HETATM   17  O   UNL     1      -9.850   4.559  68.447  1.00  0.00    -0.145 OA 
HETATM   18  N   UNL     1      -7.765   5.433  68.864  1.00  0.00    -0.082 N  
HETATM   19  H   UNL     1      -7.008   5.458  69.545  1.00  0.00     0.000 HD 
BRANCH  18  20
HETATM   20  C   UNL     1      -7.612   6.247  67.656  1.00  0.00    -0.097 C  
BRANCH  20  21
HETATM   21  C   UNL     1      -7.225   5.518  66.366  1.00  0.00    -0.077 C  
BRANCH  21  22
HETATM   22  S   UNL     1      -5.729   6.165  65.525  1.00  0.00    -0.025 SA 
BRANCH  22  23
HETATM   23  S   UNL     1      -6.288   8.042  64.883  1.00  0.00    -0.048 SA 
BRANCH  23  24
HETATM   24  C   UNL     1      -7.904   7.697  64.114  1.00  0.00    -0.133 C  
BRANCH  24  25
HETATM   25  C   UNL     1      -8.580   8.988  63.646  1.00  0.00    -0.130 C  
BRANCH  25  26
HETATM   26  N   UNL     1      -9.318   9.705  64.683  1.00  0.00    -0.389 N  
HETATM   27  H   UNL     1      -9.187   9.419  65.653  1.00  0.00     0.000 HD 
HETATM   28  C   UNL     1     -10.183  10.747  64.421  1.00  0.00    -0.364 C  
HETATM   29  O   UNL     1     -10.459  11.137  63.292  1.00  0.00    -0.353 OA 
BRANCH  28  30
HETATM   30  C   UNL     1     -10.749  11.415  65.654  1.00  0.00    -0.301 C  
BRANCH  30  31
HETATM   31  C   UNL     1     -11.876  12.364  65.257  1.00  0.00    -0.399 C  
BRANCH  31  32
HETATM   32  N   UNL     1     -11.509  13.756  65.441  1.00  0.00    -0.306 N  
HETATM   33  H   UNL     1     -12.164  14.479  65.146  1.00  0.00     0.000 HD 
HETATM   34  C   UNL     1     -10.311  14.134  66.000  1.00  0.00    -0.309 C  
HETATM   35  O   UNL     1      -9.424  13.341  66.302  1.00  0.00    -0.254 OA 
BRANCH  34  36
HETATM   36  C   UNL     1     -10.145  15.662  66.151  1.00  0.00    -0.313 C  
HETATM   37  O   UNL     1      -8.854  16.066  65.667  1.00  0.00    -0.281 OA 
HETATM   38  H   UNL     1      -8.752  17.006  65.760  1.00  0.00     0.000 HD 
BRANCH  36  39
HETATM   39  C   UNL     1     -10.352  16.166  67.607  1.00  0.00    -0.288 C  
HETATM   40  C   UNL     1      -9.046  16.082  68.424  1.00  0.00    -0.192 C  
HETATM   41  C   UNL     1     -10.772  17.654  67.563  1.00  0.00    -0.294 C  
BRANCH  39  42
HETATM   42  C   UNL     1     -11.466  15.343  68.297  1.00  0.00    -0.353 C  
HETATM   43  O   UNL     1     -12.097  16.078  69.341  1.00  0.00    -0.336 OA 
HETATM   44  H   UNL     1     -12.781  15.573  69.765  1.00  0.00     0.000 HD 
ENDBRANCH  39  42
ENDBRANCH  36  39
ENDBRANCH  34  36
ENDBRANCH  31  32
ENDBRANCH  30  31
ENDBRANCH  28  30
ENDBRANCH  25  26
ENDBRANCH  24  25
ENDBRANCH  23  24
ENDBRANCH  22  23
ENDBRANCH  21  22
ENDBRANCH  20  21
ENDBRANCH  18  20
ENDBRANCH  15  16
ENDBRANCH  14  15
ENDBRANCH  12  14
ENDBRANCH   7  10
ENDBRANCH   2   7
TORSDOF 19
ENDMDL
MODEL      273
REMARK 921   NORMALIZED FREE ENERGY PREDICTED BY IDOCK:   -3.50 KCAL/MOL
REMARK 922        TOTAL FREE ENERGY PREDICTED BY IDOCK:   -9.56 KCAL/MOL
REMARK 923 INTER-LIGAND FREE ENERGY PREDICTED BY IDOCK:   -7.52 KCAL/MOL
REMARK 924 INTRA-LIGAND FREE ENERGY PREDICTED BY IDOCK:   -2.04 KCAL/MOL
REMARK 927      BINDING AFFINITY PREDICTED BY RF-SCORE:    0.00 PKD
ROOT
HETATM    1  C   UNL     1      -7.342  10.940  69.542  1.00  0.00    -0.095 C  
HETATM    2  C   UNL     1      -7.382  12.233  68.707  1.00  0.00    -0.083 C  
HETATM    3  C   UNL     1      -7.266  13.460  69.645  1.00  0.00     0.413 C  
ENDROOT
BRANCH   2   4
HETATM    4  C   UNL     1      -6.151  12.270  67.778  1.00  0.00    -0.102 C  
HETATM    5  O   UNL     1      -6.067  11.091  66.980  1.00  0.00    -0.065 OA 
HETATM    6  H   UNL     1      -5.308  11.114  66.408  1.00  0.00     0.000 HD 
ENDBRANCH   2   4
BRANCH   2   7
HETATM    7  C   UNL     1      -8.687  12.319  67.856  1.00  0.00    -0.177 C  
HETATM    8  O   UNL     1      -8.456  12.091  66.455  1.00  0.00    -0.317 OA 
HETATM    9  H   UNL     1      -9.250  12.143  65.937  1.00  0.00     0.000 HD 
BRANCH   7  10
HETATM   10  C   UNL     1      -9.820  11.368  68.299  1.00  0.00    -0.200 C  
HETATM   11  O   UNL     1     -10.530  11.539  69.286  1.00  0.00    -0.153 OA 
HETATM   12  N   UNL     1     -10.018  10.320  67.428  1.00  0.00    -0.182 N  
HETATM   13  H   UNL     1      -9.365  10.176  66.657  1.00  0.00     0.000 HD 
BRANCH  12  14
HETATM   14  C   UNL     1     -11.139   9.422  67.591  1.00  0.00     0.117 C  
BRANCH  14  15
HETATM   15  C   UNL     1     -10.765   7.954  67.418  1.00  0.00    -0.278 C  
BRANCH  15  16
HETATM   16  C   UNL     1      -9.311   7.870  67.009  1.00  0.00    -0.160 C  
HETATM   17  O   UNL     1      -8.402   8.066  67.809  1.00  0.00    -0.126 OA 
HETATM   18  N   UNL     1      -9.113   7.534  65.690  1.00  0.00    -0.384 N  
HETATM   19  H   UNL     1      -9.940   7.346  65.125  1.00  0.00     0.000 HD 
BRANCH  18  20
HETATM   20  C   UNL     1      -7.809   7.425  65.031  1.00  0.00    -0.124 C  
BRANCH  20  21
HETATM   21  C   UNL     1      -7.756   7.727  63.530  1.00  0.00    -0.131 C  
BRANCH  21  22
HETATM   22  S   UNL     1      -6.876   9.270  63.077  1.00  0.00    -0.093 SA 
BRANCH  22  23
HETATM   23  S   UNL     1      -8.359  10.493  62.335  1.00  0.00    -0.232 SA 
BRANCH  23  24
HETATM   24  C   UNL     1      -9.536  10.522  63.727  1.00  0.00    -0.311 C  
BRANCH  24  25
HETATM   25  C   UNL     1     -10.674  11.512  63.467  1.00  0.00    -0.414 C  
BRANCH  25  26
HETATM   26  N   UNL     1     -10.344  12.910  63.735  1.00  0.00    -0.533 N  
HETATM   27  H   UNL     1      -9.837  13.431  63.020  1.00  0.00     0.000 HD 
HETATM   28  C   UNL     1     -10.682  13.563  64.902  1.00  0.00    -0.381 C  
HETATM   29  O   UNL     1     -11.242  13.021  65.849  1.00  0.00    -0.281 OA 
BRANCH  28  30
HETATM   30  C   UNL     1     -10.342  15.036  64.916  1.00  0.00    -0.317 C  
BRANCH  30  31
HETATM   31  C   UNL     1      -9.806  15.430  66.289  1.00  0.00    -0.297 C  
BRANCH  31  32
HETATM   32  N   UNL     1      -9.244  16.768  66.294  1.00  0.00    -0.279 N  
HETATM   33  H   UNL     1      -8.424  16.958  65.719  1.00  0.00     0.000 HD 
HETATM   34  C   UNL     1      -9.778  17.788  67.046  1.00  0.00    -0.290 C  
HETATM   35  O   UNL     1     -10.704  17.635  67.836  1.00  0.00    -0.394 OA 
BRANCH  34  36
HETATM   36  C   UNL     1      -9.057  19.143  66.865  1.00  0.00    -0.307 C  
HETATM   37  O   UNL     1      -8.969  19.469  65.469  1.00  0.00    -0.208 OA 
HETATM   38  H   UNL     1      -8.526  20.302  65.358  1.00  0.00     0.000 HD 
BRANCH  36  39
HETATM   39  C   UNL     1      -7.646  19.184  67.514  1.00  0.00    -0.260 C  
HETATM   40  C   UNL     1      -6.540  18.890  66.478  1.00  0.00    -0.214 C  
HETATM   41  C   UNL     1      -7.393  20.607  68.066  1.00  0.00    -0.151 C  
BRANCH  39  42
HETATM   42  C   UNL     1      -7.569  18.166  68.677  1.00  0.00    -0.295 C  
HETATM   43  O   UNL     1      -6.558  18.512  69.618  1.00  0.00    -0.217 OA 
HETATM   44  H   UNL     1      -6.510  17.887  70.332  1.00  0.00     0.000 HD 
ENDBRANCH  39  42
ENDBRANCH  36  39
ENDBRANCH  34  36
ENDBRANCH  31  32
ENDBRANCH  30  31
ENDBRANCH  28  30
ENDBRANCH  25  26
ENDBRANCH  24  25
ENDBRANCH  23  24
ENDBRANCH  22  23
ENDBRANCH  21  22
ENDBRANCH  20  21
ENDBRANCH  18  20
ENDBRANCH  15  16
ENDBRANCH  14  15
ENDBRANCH  12  14
ENDBRANCH   7  10
ENDBRANCH   2   7
TORSDOF 19
ENDMDL
MODEL      274
REMARK 921   NORMALIZED FREE ENERGY PREDICTED BY IDOCK:   -3.48 KCAL/MOL
REMARK 922        TOTAL FREE ENERGY PREDICTED BY IDOCK:   -9.54 KCAL/MOL
REMARK 923 INTER-LIGAND FREE ENERGY PREDICTED BY IDOCK:   -8.20 KCAL/MOL
REMARK 924 INTRA-LIGAND FREE ENERGY PREDICTED BY IDOCK:   -1.34 KCAL/MOL
REMARK 927      BINDING AFFINITY PREDICTED BY RF-SCORE:    0.00 PKD
ROOT
HETATM    1  C   UNL     1      -8.208  16.297  69.123  1.00  0.00    -0.215 C  
HETATM    2  C   UNL     1      -7.718  17.235  68.005  1.00  0.00    -0.202 C  
HETATM    3  C   UNL     1      -7.484  18.653  68.583  1.00  0.00    -0.332 C  
ENDROOT
BRANCH   2   4
HETATM    4  C   UNL     1      -6.351  16.736  67.492  1.00  0.00    -0.161 C  
HETATM    5  O   UNL     1      -6.155  15.357  67.795  1.00  0.00    -0.141 OA 
HETATM    6  H   UNL     1      -5.313  15.051  67.479  1.00  0.00     0.000 HD 
ENDBRANCH   2   4
BRANCH   2   7
HETATM    7  C   UNL     1      -8.736  17.290  66.823  1.00  0.00    -0.251 C  
HETATM    8  O   UNL     1      -8.128  17.685  65.581  1.00  0.00    -0.518 OA 
HETATM    9  H   UNL     1      -8.748  17.718  64.862  1.00  0.00     0.000 HD 
BRANCH   7  10
HETATM   10  C   UNL     1      -9.508  15.977  66.564  1.00  0.00    -0.271 C  
HETATM   11  O   UNL     1     -10.716  15.906  66.357  1.00  0.00    -0.308 OA 
HETATM   12  N   UNL     1      -8.689  14.871  66.514  1.00  0.00    -0.443 N  
HETATM   13  H   UNL     1      -7.702  14.963  66.757  1.00  0.00     0.000 HD 
BRANCH  12  14
HETATM   14  C   UNL     1      -9.210  13.581  66.119  1.00  0.00     0.029 C  
BRANCH  14  15
HETATM   15  C   UNL     1      -8.610  12.422  66.909  1.00  0.00    -0.171 C  
BRANCH  15  16
HETATM   16  C   UNL     1      -8.801  11.148  66.118  1.00  0.00    -0.190 C  
HETATM   17  O   UNL     1      -9.518  11.105  65.123  1.00  0.00    -0.216 OA 
HETATM   18  N   UNL     1      -8.088  10.072  66.596  1.00  0.00    -0.117 N  
HETATM   19  H   UNL     1      -7.485  10.232  67.402  1.00  0.00     0.000 HD 
BRANCH  18  20
HETATM   20  C   UNL     1      -8.125   8.718  66.039  1.00  0.00    -0.112 C  
BRANCH  20  21
HETATM   21  C   UNL     1      -7.131   7.701  66.608  1.00  0.00    -0.079 C  
BRANCH  21  22
HETATM   22  S   UNL     1      -7.861   6.098  67.118  1.00  0.00    -0.102 SA 
BRANCH  22  23
HETATM   23  S   UNL     1      -9.641   6.008  66.084  1.00  0.00     0.011 SA 
BRANCH  23  24
HETATM   24  C   UNL     1     -10.753   6.935  67.191  1.00  0.00    -0.366 C  
BRANCH  24  25
HETATM   25  C   UNL     1     -11.140   6.098  68.413  1.00  0.00    -0.248 C  
BRANCH  25  26
HETATM   26  N   UNL     1     -11.514   6.873  69.594  1.00  0.00    -0.555 N  
HETATM   27  H   UNL     1     -12.443   7.292  69.621  1.00  0.00     0.000 HD 
HETATM   28  C   UNL     1     -10.679   7.068  70.674  1.00  0.00    -0.231 C  
HETATM   29  O   UNL     1      -9.524   6.659  70.726  1.00  0.00    -0.168 OA 
BRANCH  28  30
HETATM   30  C   UNL     1     -11.314   7.805  71.831  1.00  0.00    -0.315 C  
BRANCH  30  31
HETATM   31  C   UNL     1     -10.876   9.266  71.818  1.00  0.00    -0.288 C  
BRANCH  31  32
HETATM   32  N   UNL     1     -11.635  10.056  70.866  1.00  0.00    -0.350 N  
HETATM   33  H   UNL     1     -12.617  10.249  71.060  1.00  0.00     0.000 HD 
HETATM   34  C   UNL     1     -11.077  10.552  69.711  1.00  0.00    -0.295 C  
HETATM   35  O   UNL     1      -9.933  10.296  69.346  1.00  0.00    -0.214 OA 
BRANCH  34  36
HETATM   36  C   UNL     1     -12.046  11.408  68.865  1.00  0.00    -0.219 C  
HETATM   37  O   UNL     1     -11.888  11.095  67.472  1.00  0.00    -0.591 OA 
HETATM   38  H   UNL     1     -12.484  11.622  66.952  1.00  0.00     0.000 HD 
BRANCH  36  39
HETATM   39  C   UNL     1     -11.880  12.936  69.092  1.00  0.00    -0.353 C  
HETATM   40  C   UNL     1     -10.418  13.301  69.424  1.00  0.00     0.287 C  
HETATM   41  C   UNL     1     -12.255  13.677  67.787  1.00  0.00    -0.201 C  
BRANCH  39  42
HETATM   42  C   UNL     1     -12.817  13.406  70.231  1.00  0.00     0.109 C  
HETATM   43  O   UNL     1     -12.783  14.820  70.396  1.00  0.00    -0.412 OA 
HETATM   44  H   UNL     1     -13.358  15.108  71.095  1.00  0.00     0.000 HD 
ENDBRANCH  39  42
ENDBRANCH  36  39
ENDBRANCH  34  36
ENDBRANCH  31  32
ENDBRANCH  30  31
ENDBRANCH  28  30
ENDBRANCH  25  26
ENDBRANCH  24  25
ENDBRANCH  23  24
ENDBRANCH  22  23
ENDBRANCH  21  22
ENDBRANCH  20  21
ENDBRANCH  18  20
ENDBRANCH  15  16
ENDBRANCH  14  15
ENDBRANCH  12  14
ENDBRANCH   7  10
ENDBRANCH   2   7
TORSDOF 19
ENDMDL
MODEL      275
REMARK 921   NORMALIZED FREE ENERGY PREDICTED BY IDOCK:   -3.48 KCAL/MOL
REMARK 922        TOTAL FREE ENERGY PREDICTED BY IDOCK:   -9.53 KCAL/MOL
REMARK 923 INTER-LIGAND FREE ENERGY PREDICTED BY IDOCK:   -8.75 KCAL/MOL
REMARK 924 INTRA-LIGAND FREE ENERGY PREDICTED BY IDOCK:   -0.78 KCAL/MOL
REMARK 927      BINDING AFFINITY PREDICTED BY RF-SCORE:    0.00 PKD
ROOT
HETATM    1  C   UNL     1     -11.003   7.778  73.146  1.00  0.00    -0.372 C  
HETATM    2  C   UNL     1     -11.115   7.758  71.610  1.00  0.00    -0.275 C  
HETATM    3  C   UNL     1     -12.456   7.103  71.196  1.00  0.00    -0.400 C  
ENDROOT
BRANCH   2   4
HETATM    4  C   UNL     1     -11.155   9.210  71.089  1.00  0.00    -0.323 C  
HETATM    5  O   UNL     1     -11.900   9.308  69.878  1.00  0.00    -0.446 OA 
HETATM    6  H   UNL     1     -11.924  10.202  69.558  1.00  0.00     0.000 HD 
ENDBRANCH   2   4
BRANCH   2   7
HETATM    7  C   UNL     1      -9.915   6.999  70.962  1.00  0.00    -0.188 C  
HETATM    8  O   UNL     1      -9.935   5.587  71.234  1.00  0.00    -0.178 OA 
HETATM    9  H   UNL     1      -9.205   5.126  70.840  1.00  0.00     0.000 HD 
BRANCH   7  10
HETATM   10  C   UNL     1      -9.780   7.174  69.433  1.00  0.00    -0.160 C  
HETATM   11  O   UNL     1      -8.975   7.921  68.884  1.00  0.00    -0.141 OA 
HETATM   12  N   UNL     1     -10.615   6.344  68.719  1.00  0.00    -0.223 N  
HETATM   13  H   UNL     1     -11.316   5.789  69.211  1.00  0.00     0.000 HD 
BRANCH  12  14
HETATM   14  C   UNL     1     -10.512   6.250  67.280  1.00  0.00    -0.254 C  
BRANCH  14  15
HETATM   15  C   UNL     1     -10.371   4.816  66.779  1.00  0.00    -0.229 C  
BRANCH  15  16
HETATM   16  C   UNL     1      -8.904   4.526  66.554  1.00  0.00    -0.112 C  
HETATM   17  O   UNL     1      -8.185   4.097  67.451  1.00  0.00    -0.098 OA 
HETATM   18  N   UNL     1      -8.472   4.758  65.269  1.00  0.00    -0.127 N  
HETATM   19  H   UNL     1      -9.166   5.068  64.590  1.00  0.00     0.000 HD 
BRANCH  18  20
HETATM   20  C   UNL     1      -7.094   4.594  64.797  1.00  0.00    -0.062 C  
BRANCH  20  21
HETATM   21  C   UNL     1      -6.124   5.749  65.060  1.00  0.00    -0.025 C  
BRANCH  21  22
HETATM   22  S   UNL     1      -5.699   6.760  63.590  1.00  0.00    -0.032 SA 
BRANCH  22  23
HETATM   23  S   UNL     1      -7.527   7.283  62.796  1.00  0.00    -0.108 SA 
BRANCH  23  24
HETATM   24  C   UNL     1      -8.308   8.130  64.210  1.00  0.00    -0.030 C  
BRANCH  24  25
HETATM   25  C   UNL     1      -8.035   9.636  64.171  1.00  0.00    -0.143 C  
BRANCH  25  26
HETATM   26  N   UNL     1      -9.110  10.468  64.705  1.00  0.00    -0.204 N  
HETATM   27  H   UNL     1      -9.304  10.421  65.705  1.00  0.00     0.000 HD 
HETATM   28  C   UNL     1      -9.877  11.314  63.931  1.00  0.00    -0.300 C  
HETATM   29  O   UNL     1      -9.769  11.409  62.713  1.00  0.00    -0.335 OA 
BRANCH  28  30
HETATM   30  C   UNL     1     -10.854  12.163  64.711  1.00  0.00    -0.351 C  
BRANCH  30  31
HETATM   31  C   UNL     1     -10.755  11.833  66.197  1.00  0.00    -0.277 C  
BRANCH  31  32
HETATM   32  N   UNL     1     -10.570  13.021  67.010  1.00  0.00    -0.256 N  
HETATM   33  H   UNL     1      -9.701  13.128  67.534  1.00  0.00     0.000 HD 
HETATM   34  C   UNL     1     -11.524  14.008  67.099  1.00  0.00    -0.352 C  
HETATM   35  O   UNL     1     -12.633  13.927  66.581  1.00  0.00    -0.351 OA 
BRANCH  34  36
HETATM   36  C   UNL     1     -11.103  15.208  67.977  1.00  0.00    -0.308 C  
HETATM   37  O   UNL     1     -12.260  15.792  68.596  1.00  0.00    -0.536 OA 
HETATM   38  H   UNL     1     -12.001  16.530  69.136  1.00  0.00     0.000 HD 
BRANCH  36  39
HETATM   39  C   UNL     1     -10.307  16.293  67.200  1.00  0.00    -0.285 C  
HETATM   40  C   UNL     1      -8.785  16.113  67.380  1.00  0.00    -0.194 C  
HETATM   41  C   UNL     1     -10.612  16.149  65.691  1.00  0.00    -0.377 C  
BRANCH  39  42
HETATM   42  C   UNL     1     -10.736  17.703  67.673  1.00  0.00    -0.314 C  
HETATM   43  O   UNL     1     -10.471  18.695  66.687  1.00  0.00    -0.389 OA 
HETATM   44  H   UNL     1     -10.734  19.561  66.978  1.00  0.00     0.000 HD 
ENDBRANCH  39  42
ENDBRANCH  36  39
ENDBRANCH  34  36
ENDBRANCH  31  32
ENDBRANCH  30  31
ENDBRANCH  28  30
ENDBRANCH  25  26
ENDBRANCH  24  25
ENDBRANCH  23  24
ENDBRANCH  22  23
ENDBRANCH  21  22
ENDBRANCH  20  21
ENDBRANCH  18  20
ENDBRANCH  15  16
ENDBRANCH  14  15
ENDBRANCH  12  14
ENDBRANCH   7  10
ENDBRANCH   2   7
TORSDOF 19
ENDMDL
MODEL      276
REMARK 921   NORMALIZED FREE ENERGY PREDICTED BY IDOCK:   -3.48 KCAL/MOL
REMARK 922        TOTAL FREE ENERGY PREDICTED BY IDOCK:   -9.51 KCAL/MOL
REMARK 923 INTER-LIGAND FREE ENERGY PREDICTED BY IDOCK:   -7.59 KCAL/MOL
REMARK 924 INTRA-LIGAND FREE ENERGY PREDICTED BY IDOCK:   -1.92 KCAL/MOL
REMARK 927      BINDING AFFINITY PREDICTED BY RF-SCORE:    0.00 PKD
ROOT
HETATM    1  C   UNL     1      -9.076   2.310  64.157  1.00  0.00    -0.112 C  
HETATM    2  C   UNL     1      -8.418   3.042  65.341  1.00  0.00    -0.100 C  
HETATM    3  C   UNL     1      -8.696   2.265  66.651  1.00  0.00    -0.128 C  
ENDROOT
BRANCH   2   4
HETATM    4  C   UNL     1      -6.887   3.042  65.144  1.00  0.00    -0.045 C  
HETATM    5  O   UNL     1      -6.209   2.686  66.346  1.00  0.00    -0.023 OA 
HETATM    6  H   UNL     1      -5.267   2.687  66.225  1.00  0.00     0.000 HD 
ENDBRANCH   2   4
BRANCH   2   7
HETATM    7  C   UNL     1      -8.933   4.511  65.458  1.00  0.00    -0.138 C  
HETATM    8  O   UNL     1     -10.342   4.631  65.196  1.00  0.00    -0.401 OA 
HETATM    9  H   UNL     1     -10.655   5.524  65.267  1.00  0.00     0.000 HD 
BRANCH   7  10
HETATM   10  C   UNL     1      -8.655   5.194  66.816  1.00  0.00    -0.109 C  
HETATM   11  O   UNL     1      -9.481   5.325  67.714  1.00  0.00    -0.116 OA 
HETATM   12  N   UNL     1      -7.344   5.588  66.963  1.00  0.00    -0.078 N  
HETATM   13  H   UNL     1      -6.706   5.522  66.169  1.00  0.00     0.000 HD 
BRANCH  12  14
HETATM   14  C   UNL     1      -6.860   6.095  68.228  1.00  0.00    -0.074 C  
BRANCH  14  15
HETATM   15  C   UNL     1      -6.049   5.072  69.016  1.00  0.00    -0.029 C  
BRANCH  15  16
HETATM   16  C   UNL     1      -6.660   4.927  70.392  1.00  0.00    -0.035 C  
HETATM   17  O   UNL     1      -5.976   4.681  71.380  1.00  0.00    -0.016 OA 
HETATM   18  N   UNL     1      -8.021   5.122  70.429  1.00  0.00    -0.084 N  
HETATM   19  H   UNL     1      -8.483   5.371  69.555  1.00  0.00     0.000 HD 
BRANCH  18  20
HETATM   20  C   UNL     1      -8.861   5.002  71.624  1.00  0.00    -0.133 C  
BRANCH  20  21
HETATM   21  C   UNL     1     -10.343   4.685  71.408  1.00  0.00    -0.090 C  
BRANCH  21  22
HETATM   22  S   UNL     1     -11.510   5.723  72.369  1.00  0.00    -0.246 SA 
BRANCH  22  23
HETATM   23  S   UNL     1     -10.817   7.643  72.092  1.00  0.00    -0.266 SA 
BRANCH  23  24
HETATM   24  C   UNL     1     -11.271   7.947  70.353  1.00  0.00    -0.234 C  
BRANCH  24  25
HETATM   25  C   UNL     1     -10.893   9.366  69.923  1.00  0.00    -0.236 C  
BRANCH  25  26
HETATM   26  N   UNL     1     -10.968   9.612  68.485  1.00  0.00    -0.432 N  
HETATM   27  H   UNL     1     -11.827  10.015  68.109  1.00  0.00     0.000 HD 
HETATM   28  C   UNL     1      -9.942   9.331  67.608  1.00  0.00    -0.196 C  
HETATM   29  O   UNL     1      -8.889   8.796  67.939  1.00  0.00    -0.135 OA 
BRANCH  28  30
HETATM   30  C   UNL     1     -10.196   9.773  66.185  1.00  0.00    -0.278 C  
BRANCH  30  31
HETATM   31  C   UNL     1      -9.092  10.724  65.733  1.00  0.00    -0.188 C  
BRANCH  31  32
HETATM   32  N   UNL     1      -9.623  11.952  65.172  1.00  0.00    -0.400 N  
HETATM   33  H   UNL     1      -9.942  11.951  64.203  1.00  0.00     0.000 HD 
HETATM   34  C   UNL     1      -9.714  13.116  65.899  1.00  0.00    -0.178 C  
HETATM   35  O   UNL     1      -9.274  13.239  67.038  1.00  0.00    -0.222 OA 
BRANCH  34  36
HETATM   36  C   UNL     1     -10.356  14.289  65.126  1.00  0.00    -0.415 C  
HETATM   37  O   UNL     1      -9.986  15.537  65.732  1.00  0.00    -0.309 OA 
HETATM   38  H   UNL     1     -10.381  16.259  65.257  1.00  0.00     0.000 HD 
BRANCH  36  39
HETATM   39  C   UNL     1     -11.903  14.185  65.019  1.00  0.00    -0.390 C  
HETATM   40  C   UNL     1     -12.327  13.115  63.991  1.00  0.00    -0.425 C  
HETATM   41  C   UNL     1     -12.469  13.754  66.392  1.00  0.00    -0.404 C  
BRANCH  39  42
HETATM   42  C   UNL     1     -12.500  15.560  64.631  1.00  0.00     0.215 C  
HETATM   43  O   UNL     1     -11.874  16.100  63.472  1.00  0.00    -1.146 OA 
HETATM   44  H   UNL     1     -12.240  16.944  63.234  1.00  0.00     0.000 HD 
ENDBRANCH  39  42
ENDBRANCH  36  39
ENDBRANCH  34  36
ENDBRANCH  31  32
ENDBRANCH  30  31
ENDBRANCH  28  30
ENDBRANCH  25  26
ENDBRANCH  24  25
ENDBRANCH  23  24
ENDBRANCH  22  23
ENDBRANCH  21  22
ENDBRANCH  20  21
ENDBRANCH  18  20
ENDBRANCH  15  16
ENDBRANCH  14  15
ENDBRANCH  12  14
ENDBRANCH   7  10
ENDBRANCH   2   7
TORSDOF 19
ENDMDL
MODEL      277
REMARK 921   NORMALIZED FREE ENERGY PREDICTED BY IDOCK:   -3.47 KCAL/MOL
REMARK 922        TOTAL FREE ENERGY PREDICTED BY IDOCK:   -9.51 KCAL/MOL
REMARK 923 INTER-LIGAND FREE ENERGY PREDICTED BY IDOCK:   -7.44 KCAL/MOL
REMARK 924 INTRA-LIGAND FREE ENERGY PREDICTED BY IDOCK:   -2.06 KCAL/MOL
REMARK 927      BINDING AFFINITY PREDICTED BY RF-SCORE:    0.00 PKD
ROOT
HETATM    1  C   UNL     1     -11.881   9.232  70.418  1.00  0.00    -0.097 C  
HETATM    2  C   UNL     1     -12.296   8.241  71.522  1.00  0.00    -0.336 C  
HETATM    3  C   UNL     1     -11.453   8.500  72.795  1.00  0.00    -0.109 C  
ENDROOT
BRANCH   2   4
HETATM    4  C   UNL     1     -13.768   8.503  71.906  1.00  0.00    -0.415 C  
HETATM    5  O   UNL     1     -14.388   7.325  72.415  1.00  0.00    -0.590 OA 
HETATM    6  H   UNL     1     -15.295   7.486  72.650  1.00  0.00     0.000 HD 
ENDBRANCH   2   4
BRANCH   2   7
HETATM    7  C   UNL     1     -12.130   6.763  71.050  1.00  0.00    -0.372 C  
HETATM    8  O   UNL     1     -11.287   6.638  69.891  1.00  0.00    -0.335 OA 
HETATM    9  H   UNL     1     -11.186   5.739  69.604  1.00  0.00     0.000 HD 
BRANCH   7  10
HETATM   10  C   UNL     1     -11.589   5.792  72.123  1.00  0.00    -0.203 C  
HETATM   11  O   UNL     1     -12.290   5.100  72.855  1.00  0.00    -0.045 OA 
HETATM   12  N   UNL     1     -10.214   5.714  72.136  1.00  0.00    -0.196 N  
HETATM   13  H   UNL     1      -9.667   6.353  71.559  1.00  0.00     0.000 HD 
BRANCH  12  14
HETATM   14  C   UNL     1      -9.535   4.737  72.959  1.00  0.00    -0.129 C  
BRANCH  14  15
HETATM   15  C   UNL     1      -8.877   3.623  72.151  1.00  0.00    -0.121 C  
BRANCH  15  16
HETATM   16  C   UNL     1      -7.697   4.201  71.403  1.00  0.00    -0.065 C  
HETATM   17  O   UNL     1      -7.195   5.276  71.717  1.00  0.00    -0.075 OA 
HETATM   18  N   UNL     1      -7.234   3.408  70.378  1.00  0.00    -0.040 N  
HETATM   19  H   UNL     1      -7.695   2.511  70.234  1.00  0.00     0.000 HD 
BRANCH  18  20
HETATM   20  C   UNL     1      -6.131   3.751  69.475  1.00  0.00    -0.027 C  
BRANCH  20  21
HETATM   21  C   UNL     1      -6.460   4.651  68.281  1.00  0.00    -0.038 C  
BRANCH  21  22
HETATM   22  S   UNL     1      -7.020   3.770  66.773  1.00  0.00    -0.059 SA 
BRANCH  22  23
HETATM   23  S   UNL     1      -9.067   3.660  66.989  1.00  0.00    -0.181 SA 
BRANCH  23  24
HETATM   24  C   UNL     1      -9.626   4.938  65.815  1.00  0.00    -0.170 C  
BRANCH  24  25
HETATM   25  C   UNL     1      -9.890   6.266  66.529  1.00  0.00    -0.126 C  
BRANCH  25  26
HETATM   26  N   UNL     1      -8.742   7.168  66.591  1.00  0.00    -0.123 N  
HETATM   27  H   UNL     1      -8.085   7.165  65.811  1.00  0.00     0.000 HD 
HETATM   28  C   UNL     1      -8.500   8.022  67.646  1.00  0.00    -0.131 C  
HETATM   29  O   UNL     1      -9.190   8.069  68.658  1.00  0.00    -0.143 OA 
BRANCH  28  30
HETATM   30  C   UNL     1      -7.319   8.945  67.446  1.00  0.00    -0.081 C  
BRANCH  30  31
HETATM   31  C   UNL     1      -7.770  10.215  66.731  1.00  0.00    -0.105 C  
BRANCH  31  32
HETATM   32  N   UNL     1      -8.840  10.891  67.440  1.00  0.00    -0.133 N  
HETATM   33  H   UNL     1      -8.842  10.873  68.460  1.00  0.00     0.000 HD 
HETATM   34  C   UNL     1      -9.852  11.555  66.787  1.00  0.00    -0.203 C  
HETATM   35  O   UNL     1      -9.986  11.554  65.567  1.00  0.00    -0.223 OA 
BRANCH  34  36
HETATM   36  C   UNL     1     -10.859  12.247  67.732  1.00  0.00    -0.221 C  
HETATM   37  O   UNL     1     -12.024  11.423  67.898  1.00  0.00    -0.626 OA 
HETATM   38  H   UNL     1     -12.643  11.849  68.479  1.00  0.00     0.000 HD 
BRANCH  36  39
HETATM   39  C   UNL     1     -11.273  13.669  67.260  1.00  0.00    -0.329 C  
HETATM   40  C   UNL     1     -12.229  13.605  66.050  1.00  0.00    -0.492 C  
HETATM   41  C   UNL     1     -12.032  14.374  68.409  1.00  0.00    -0.328 C  
BRANCH  39  42
HETATM   42  C   UNL     1     -10.014  14.494  66.899  1.00  0.00    -0.259 C  
HETATM   43  O   UNL     1     -10.186  15.219  65.686  1.00  0.00    -0.315 OA 
HETATM   44  H   UNL     1      -9.413  15.725  65.465  1.00  0.00     0.000 HD 
ENDBRANCH  39  42
ENDBRANCH  36  39
ENDBRANCH  34  36
ENDBRANCH  31  32
ENDBRANCH  30  31
ENDBRANCH  28  30
ENDBRANCH  25  26
ENDBRANCH  24  25
ENDBRANCH  23  24
ENDBRANCH  22  23
ENDBRANCH  21  22
ENDBRANCH  20  21
ENDBRANCH  18  20
ENDBRANCH  15  16
ENDBRANCH  14  15
ENDBRANCH  12  14
ENDBRANCH   7  10
ENDBRANCH   2   7
TORSDOF 19
ENDMDL
MODEL      278
REMARK 921   NORMALIZED FREE ENERGY PREDICTED BY IDOCK:   -3.47 KCAL/MOL
REMARK 922        TOTAL FREE ENERGY PREDICTED BY IDOCK:   -9.50 KCAL/MOL
REMARK 923 INTER-LIGAND FREE ENERGY PREDICTED BY IDOCK:   -8.12 KCAL/MOL
REMARK 924 INTRA-LIGAND FREE ENERGY PREDICTED BY IDOCK:   -1.38 KCAL/MOL
REMARK 927      BINDING AFFINITY PREDICTED BY RF-SCORE:    0.00 PKD
ROOT
HETATM    1  C   UNL     1     -11.177  15.600  71.516  1.00  0.00    -0.373 C  
HETATM    2  C   UNL     1     -11.080  15.106  70.061  1.00  0.00    -0.297 C  
HETATM    3  C   UNL     1     -11.797  16.110  69.124  1.00  0.00    -0.182 C  
ENDROOT
BRANCH   2   4
HETATM    4  C   UNL     1      -9.597  15.087  69.634  1.00  0.00    -0.034 C  
HETATM    5  O   UNL     1      -9.278  16.209  68.815  1.00  0.00    -0.202 OA 
HETATM    6  H   UNL     1      -8.365  16.197  68.552  1.00  0.00     0.000 HD 
ENDBRANCH   2   4
BRANCH   2   7
HETATM    7  C   UNL     1     -11.692  13.679  69.902  1.00  0.00    -0.276 C  
HETATM    8  O   UNL     1     -13.129  13.688  69.873  1.00  0.00     0.056 OA 
HETATM    9  H   UNL     1     -13.501  12.820  69.776  1.00  0.00     0.000 HD 
BRANCH   7  10
HETATM   10  C   UNL     1     -11.208  12.895  68.662  1.00  0.00    -0.281 C  
HETATM   11  O   UNL     1     -10.306  12.063  68.670  1.00  0.00    -0.216 OA 
HETATM   12  N   UNL     1     -11.945  13.167  67.530  1.00  0.00    -0.347 N  
HETATM   13  H   UNL     1     -12.640  13.913  67.549  1.00  0.00     0.000 HD 
BRANCH  12  14
HETATM   14  C   UNL     1     -11.745  12.408  66.316  1.00  0.00    -0.395 C  
BRANCH  14  15
HETATM   15  C   UNL     1     -10.823  13.101  65.318  1.00  0.00    -0.314 C  
BRANCH  15  16
HETATM   16  C   UNL     1     -10.145  12.046  64.473  1.00  0.00    -0.265 C  
HETATM   17  O   UNL     1     -10.083  12.136  63.251  1.00  0.00    -0.414 OA 
HETATM   18  N   UNL     1      -9.592  11.012  65.195  1.00  0.00    -0.225 N  
HETATM   19  H   UNL     1      -9.660  11.062  66.211  1.00  0.00     0.000 HD 
BRANCH  18  20
HETATM   20  C   UNL     1      -8.915   9.847  64.621  1.00  0.00    -0.222 C  
BRANCH  20  21
HETATM   21  C   UNL     1      -7.444  10.016  64.229  1.00  0.00    -0.137 C  
BRANCH  21  22
HETATM   22  S   UNL     1      -6.771   8.702  63.142  1.00  0.00    -0.089 SA 
BRANCH  22  23
HETATM   23  S   UNL     1      -5.764   7.451  64.433  1.00  0.00    -0.037 SA 
BRANCH  23  24
HETATM   24  C   UNL     1      -5.687   8.471  65.942  1.00  0.00    -0.046 C  
BRANCH  24  25
HETATM   25  C   UNL     1      -6.271   7.725  67.143  1.00  0.00    -0.054 C  
BRANCH  25  26
HETATM   26  N   UNL     1      -7.730   7.663  67.177  1.00  0.00    -0.110 N  
HETATM   27  H   UNL     1      -8.212   7.228  66.390  1.00  0.00     0.000 HD 
HETATM   28  C   UNL     1      -8.491   8.159  68.215  1.00  0.00    -0.130 C  
HETATM   29  O   UNL     1      -8.022   8.750  69.182  1.00  0.00    -0.105 OA 
BRANCH  28  30
HETATM   30  C   UNL     1      -9.973   7.885  68.092  1.00  0.00    -0.210 C  
BRANCH  30  31
HETATM   31  C   UNL     1     -10.754   8.858  68.969  1.00  0.00    -0.126 C  
BRANCH  31  32
HETATM   32  N   UNL     1     -11.146   8.261  70.233  1.00  0.00    -0.321 N  
HETATM   33  H   UNL     1     -10.977   8.781  71.094  1.00  0.00     0.000 HD 
HETATM   34  C   UNL     1     -11.736   7.022  70.311  1.00  0.00    -0.236 C  
HETATM   35  O   UNL     1     -11.896   6.286  69.342  1.00  0.00    -0.174 OA 
BRANCH  34  36
HETATM   36  C   UNL     1     -12.119   6.599  71.747  1.00  0.00    -0.353 C  
HETATM   37  O   UNL     1     -12.600   7.736  72.481  1.00  0.00    -0.533 OA 
HETATM   38  H   UNL     1     -12.835   7.476  73.364  1.00  0.00     0.000 HD 
BRANCH  36  39
HETATM   39  C   UNL     1     -10.958   5.915  72.520  1.00  0.00    -0.307 C  
HETATM   40  C   UNL     1     -11.430   4.626  73.223  1.00  0.00    -0.346 C  
HETATM   41  C   UNL     1      -9.857   5.513  71.511  1.00  0.00    -0.221 C  
BRANCH  39  42
HETATM   42  C   UNL     1     -10.362   6.899  73.557  1.00  0.00    -0.338 C  
HETATM   43  O   UNL     1      -9.809   8.053  72.934  1.00  0.00    -0.253 OA 
HETATM   44  H   UNL     1      -9.443   8.657  73.570  1.00  0.00     0.000 HD 
ENDBRANCH  39  42
ENDBRANCH  36  39
ENDBRANCH  34  36
ENDBRANCH  31  32
ENDBRANCH  30  31
ENDBRANCH  28  30
ENDBRANCH  25  26
ENDBRANCH  24  25
ENDBRANCH  23  24
ENDBRANCH  22  23
ENDBRANCH  21  22
ENDBRANCH  20  21
ENDBRANCH  18  20
ENDBRANCH  15  16
ENDBRANCH  14  15
ENDBRANCH  12  14
ENDBRANCH   7  10
ENDBRANCH   2   7
TORSDOF 19
ENDMDL
MODEL      279
REMARK 921   NORMALIZED FREE ENERGY PREDICTED BY IDOCK:   -3.44 KCAL/MOL
REMARK 922        TOTAL FREE ENERGY PREDICTED BY IDOCK:   -9.45 KCAL/MOL
REMARK 923 INTER-LIGAND FREE ENERGY PREDICTED BY IDOCK:   -8.30 KCAL/MOL
REMARK 924 INTRA-LIGAND FREE ENERGY PREDICTED BY IDOCK:   -1.15 KCAL/MOL
REMARK 927      BINDING AFFINITY PREDICTED BY RF-SCORE:    0.00 PKD
ROOT
HETATM    1  C   UNL     1     -10.824  15.498  70.784  1.00  0.00    -0.298 C  
HETATM    2  C   UNL     1     -11.938  14.549  70.308  1.00  0.00    -0.379 C  
HETATM    3  C   UNL     1     -13.246  15.350  70.090  1.00  0.00     0.128 C  
ENDROOT
BRANCH   2   4
HETATM    4  C   UNL     1     -11.546  13.962  68.935  1.00  0.00    -0.316 C  
HETATM    5  O   UNL     1     -10.160  13.632  68.888  1.00  0.00    -0.387 OA 
HETATM    6  H   UNL     1      -9.919  13.271  68.043  1.00  0.00     0.000 HD 
ENDBRANCH   2   4
BRANCH   2   7
HETATM    7  C   UNL     1     -12.173  13.390  71.328  1.00  0.00    -0.069 C  
HETATM    8  O   UNL     1     -13.208  13.687  72.280  1.00  0.00    -0.422 OA 
HETATM    9  H   UNL     1     -13.351  12.983  72.900  1.00  0.00     0.000 HD 
BRANCH   7  10
HETATM   10  C   UNL     1     -12.504  12.021  70.695  1.00  0.00    -0.247 C  
HETATM   11  O   UNL     1     -12.249  11.706  69.536  1.00  0.00    -0.271 OA 
HETATM   12  N   UNL     1     -13.062  11.134  71.589  1.00  0.00    -0.457 N  
HETATM   13  H   UNL     1     -13.320  11.455  72.523  1.00  0.00     0.000 HD 
BRANCH  12  14
HETATM   14  C   UNL     1     -13.286   9.753  71.222  1.00  0.00    -0.373 C  
BRANCH  14  15
HETATM   15  C   UNL     1     -12.865   8.766  72.305  1.00  0.00    -0.465 C  
BRANCH  15  16
HETATM   16  C   UNL     1     -12.587   7.427  71.657  1.00  0.00    -0.358 C  
HETATM   17  O   UNL     1     -13.159   6.403  72.018  1.00  0.00    -0.156 OA 
HETATM   18  N   UNL     1     -11.673   7.475  70.630  1.00  0.00    -0.425 N  
HETATM   19  H   UNL     1     -11.296   8.388  70.381  1.00  0.00     0.000 HD 
BRANCH  18  20
HETATM   20  C   UNL     1     -11.200   6.319  69.864  1.00  0.00    -0.429 C  
BRANCH  20  21
HETATM   21  C   UNL     1     -10.324   5.303  70.604  1.00  0.00    -0.254 C  
BRANCH  21  22
HETATM   22  S   UNL     1      -9.509   5.935  72.120  1.00  0.00    -0.147 SA 
BRANCH  22  23
HETATM   23  S   UNL     1      -7.689   6.637  71.456  1.00  0.00    -0.098 SA 
BRANCH  23  24
HETATM   24  C   UNL     1      -7.615   5.925  69.779  1.00  0.00    -0.081 C  
BRANCH  24  25
HETATM   25  C   UNL     1      -6.970   6.901  68.792  1.00  0.00    -0.075 C  
BRANCH  25  26
HETATM   26  N   UNL     1      -7.842   7.342  67.707  1.00  0.00    -0.112 N  
HETATM   27  H   UNL     1      -7.609   7.056  66.756  1.00  0.00     0.000 HD 
HETATM   28  C   UNL     1      -8.962   8.124  67.898  1.00  0.00    -0.133 C  
HETATM   29  O   UNL     1      -9.303   8.571  68.988  1.00  0.00    -0.146 OA 
BRANCH  28  30
HETATM   30  C   UNL     1      -9.777   8.365  66.648  1.00  0.00    -0.320 C  
BRANCH  30  31
HETATM   31  C   UNL     1     -10.588   9.649  66.799  1.00  0.00    -0.139 C  
BRANCH  31  32
HETATM   32  N   UNL     1      -9.800  10.732  67.356  1.00  0.00    -0.174 N  
HETATM   33  H   UNL     1      -9.848  10.909  68.359  1.00  0.00     0.000 HD 
HETATM   34  C   UNL     1      -8.990  11.528  66.580  1.00  0.00    -0.185 C  
HETATM   35  O   UNL     1      -8.937  11.451  65.356  1.00  0.00    -0.160 OA 
BRANCH  34  36
HETATM   36  C   UNL     1      -8.201  12.587  67.381  1.00  0.00    -0.183 C  
HETATM   37  O   UNL     1      -8.155  13.822  66.650  1.00  0.00    -0.355 OA 
HETATM   38  H   UNL     1      -7.669  14.473  67.142  1.00  0.00     0.000 HD 
BRANCH  36  39
HETATM   39  C   UNL     1      -6.762  12.133  67.755  1.00  0.00    -0.103 C  
HETATM   40  C   UNL     1      -6.217  11.100  66.748  1.00  0.00    -0.122 C  
HETATM   41  C   UNL     1      -5.824  13.363  67.705  1.00  0.00    -0.128 C  
BRANCH  39  42
HETATM   42  C   UNL     1      -6.749  11.541  69.185  1.00  0.00    -0.108 C  
HETATM   43  O   UNL     1      -8.060  11.213  69.633  1.00  0.00    -0.350 OA 
HETATM   44  H   UNL     1      -8.052  10.850  70.511  1.00  0.00     0.000 HD 
ENDBRANCH  39  42
ENDBRANCH  36  39
ENDBRANCH  34  36
ENDBRANCH  31  32
ENDBRANCH  30  31
ENDBRANCH  28  30
ENDBRANCH  25  26
ENDBRANCH  24  25
ENDBRANCH  23  24
ENDBRANCH  22  23
ENDBRANCH  21  22
ENDBRANCH  20  21
ENDBRANCH  18  20
ENDBRANCH  15  16
ENDBRANCH  14  15
ENDBRANCH  12  14
ENDBRANCH   7  10
ENDBRANCH   2   7
TORSDOF 19
ENDMDL
MODEL      280
REMARK 921   NORMALIZED FREE ENERGY PREDICTED BY IDOCK:   -3.44 KCAL/MOL
REMARK 922        TOTAL FREE ENERGY PREDICTED BY IDOCK:   -9.44 KCAL/MOL
REMARK 923 INTER-LIGAND FREE ENERGY PREDICTED BY IDOCK:   -8.25 KCAL/MOL
REMARK 924 INTRA-LIGAND FREE ENERGY PREDICTED BY IDOCK:   -1.20 KCAL/MOL
REMARK 927      BINDING AFFINITY PREDICTED BY RF-SCORE:    0.00 PKD
ROOT
HETATM    1  C   UNL     1     -10.356   5.106  70.495  1.00  0.00    -0.314 C  
HETATM    2  C   UNL     1      -8.838   5.074  70.752  1.00  0.00    -0.156 C  
HETATM    3  C   UNL     1      -8.177   6.320  70.112  1.00  0.00    -0.121 C  
ENDROOT
BRANCH   2   4
HETATM    4  C   UNL     1      -8.583   5.170  72.271  1.00  0.00    -0.125 C  
HETATM    5  O   UNL     1      -7.188   5.201  72.563  1.00  0.00    -0.086 OA 
HETATM    6  H   UNL     1      -7.031   5.260  73.498  1.00  0.00     0.000 HD 
ENDBRANCH   2   4
BRANCH   2   7
HETATM    7  C   UNL     1      -8.194   3.767  70.192  1.00  0.00    -0.056 C  
HETATM    8  O   UNL     1      -9.138   2.690  70.062  1.00  0.00    -0.094 OA 
HETATM    9  H   UNL     1      -8.747   1.896  69.722  1.00  0.00     0.000 HD 
BRANCH   7  10
HETATM   10  C   UNL     1      -7.479   3.922  68.832  1.00  0.00    -0.054 C  
HETATM   11  O   UNL     1      -6.276   4.125  68.694  1.00  0.00    -0.030 OA 
HETATM   12  N   UNL     1      -8.318   3.736  67.756  1.00  0.00    -0.092 N  
HETATM   13  H   UNL     1      -9.322   3.637  67.912  1.00  0.00     0.000 HD 
BRANCH  12  14
HETATM   14  C   UNL     1      -7.796   3.681  66.409  1.00  0.00    -0.089 C  
BRANCH  14  15
HETATM   15  C   UNL     1      -8.098   4.934  65.594  1.00  0.00    -0.112 C  
BRANCH  15  16
HETATM   16  C   UNL     1      -9.348   5.581  66.147  1.00  0.00    -0.157 C  
HETATM   17  O   UNL     1     -10.405   4.967  66.245  1.00  0.00    -0.255 OA 
HETATM   18  N   UNL     1      -9.179   6.886  66.548  1.00  0.00    -0.161 N  
HETATM   19  H   UNL     1      -8.244   7.284  66.467  1.00  0.00     0.000 HD 
BRANCH  18  20
HETATM   20  C   UNL     1     -10.235   7.751  67.081  1.00  0.00    -0.295 C  
BRANCH  20  21
HETATM   21  C   UNL     1     -10.406   9.127  66.431  1.00  0.00    -0.165 C  
BRANCH  21  22
HETATM   22  S   UNL     1      -9.706  10.530  67.383  1.00  0.00    -0.167 SA 
BRANCH  22  23
HETATM   23  S   UNL     1     -11.117  12.019  67.190  1.00  0.00    -0.309 SA 
BRANCH  23  24
HETATM   24  C   UNL     1     -11.456  11.970  65.399  1.00  0.00    -0.305 C  
BRANCH  24  25
HETATM   25  C   UNL     1     -10.430  12.797  64.620  1.00  0.00    -0.350 C  
BRANCH  25  26
HETATM   26  N   UNL     1     -10.235  14.157  65.115  1.00  0.00    -0.473 N  
HETATM   27  H   UNL     1      -9.457  14.331  65.751  1.00  0.00     0.000 HD 
HETATM   28  C   UNL     1     -11.045  15.219  64.770  1.00  0.00    -0.394 C  
HETATM   29  O   UNL     1     -12.039  15.115  64.059  1.00  0.00    -0.546 OA 
BRANCH  28  30
HETATM   30  C   UNL     1     -10.589  16.555  65.309  1.00  0.00    -0.273 C  
BRANCH  30  31
HETATM   31  C   UNL     1     -10.298  16.439  66.802  1.00  0.00    -0.293 C  
BRANCH  31  32
HETATM   32  N   UNL     1      -9.033  17.052  67.161  1.00  0.00    -0.218 N  
HETATM   33  H   UNL     1      -8.532  17.594  66.457  1.00  0.00     0.000 HD 
HETATM   34  C   UNL     1      -8.485  16.928  68.417  1.00  0.00    -0.239 C  
HETATM   35  O   UNL     1      -8.966  16.223  69.299  1.00  0.00    -0.244 OA 
BRANCH  34  36
HETATM   36  C   UNL     1      -7.160  17.701  68.601  1.00  0.00    -0.245 C  
HETATM   37  O   UNL     1      -6.473  17.225  69.769  1.00  0.00    -0.218 OA 
HETATM   38  H   UNL     1      -5.658  17.700  69.882  1.00  0.00     0.000 HD 
BRANCH  36  39
HETATM   39  C   UNL     1      -7.349  19.241  68.683  1.00  0.00    -0.373 C  
HETATM   40  C   UNL     1      -6.561  19.845  69.864  1.00  0.00    -0.329 C  
HETATM   41  C   UNL     1      -6.797  19.879  67.386  1.00  0.00    -0.253 C  
BRANCH  39  42
HETATM   42  C   UNL     1      -8.853  19.583  68.817  1.00  0.00    -0.309 C  
HETATM   43  O   UNL     1      -9.378  20.140  67.617  1.00  0.00    -0.351 OA 
HETATM   44  H   UNL     1     -10.301  20.350  67.699  1.00  0.00     0.000 HD 
ENDBRANCH  39  42
ENDBRANCH  36  39
ENDBRANCH  34  36
ENDBRANCH  31  32
ENDBRANCH  30  31
ENDBRANCH  28  30
ENDBRANCH  25  26
ENDBRANCH  24  25
ENDBRANCH  23  24
ENDBRANCH  22  23
ENDBRANCH  21  22
ENDBRANCH  20  21
ENDBRANCH  18  20
ENDBRANCH  15  16
ENDBRANCH  14  15
ENDBRANCH  12  14
ENDBRANCH   7  10
ENDBRANCH   2   7
TORSDOF 19
ENDMDL
MODEL      281
REMARK 921   NORMALIZED FREE ENERGY PREDICTED BY IDOCK:   -3.43 KCAL/MOL
REMARK 922        TOTAL FREE ENERGY PREDICTED BY IDOCK:   -9.43 KCAL/MOL
REMARK 923 INTER-LIGAND FREE ENERGY PREDICTED BY IDOCK:   -8.00 KCAL/MOL
REMARK 924 INTRA-LIGAND FREE ENERGY PREDICTED BY IDOCK:   -1.43 KCAL/MOL
REMARK 927      BINDING AFFINITY PREDICTED BY RF-SCORE:    0.00 PKD
ROOT
HETATM    1  C   UNL     1      -8.104   5.260  65.960  1.00  0.00    -0.110 C  
HETATM    2  C   UNL     1      -9.423   4.567  66.351  1.00  0.00    -0.177 C  
HETATM    3  C   UNL     1     -10.539   5.629  66.513  1.00  0.00    -0.320 C  
ENDROOT
BRANCH   2   4
HETATM    4  C   UNL     1      -9.862   3.637  65.200  1.00  0.00    -0.126 C  
HETATM    5  O   UNL     1      -8.837   2.705  64.866  1.00  0.00    -0.110 OA 
HETATM    6  H   UNL     1      -9.108   2.133  64.157  1.00  0.00     0.000 HD 
ENDBRANCH   2   4
BRANCH   2   7
HETATM    7  C   UNL     1      -9.263   3.739  67.665  1.00  0.00    -0.174 C  
HETATM    8  O   UNL     1      -9.779   2.402  67.548  1.00  0.00    -0.397 OA 
HETATM    9  H   UNL     1      -9.682   1.899  68.347  1.00  0.00     0.000 HD 
BRANCH   7  10
HETATM   10  C   UNL     1      -7.817   3.633  68.197  1.00  0.00    -0.068 C  
HETATM   11  O   UNL     1      -7.016   2.760  67.875  1.00  0.00    -0.047 OA 
HETATM   12  N   UNL     1      -7.472   4.672  69.032  1.00  0.00    -0.056 N  
HETATM   13  H   UNL     1      -8.185   5.339  69.329  1.00  0.00     0.000 HD 
BRANCH  12  14
HETATM   14  C   UNL     1      -6.111   4.830  69.495  1.00  0.00    -0.018 C  
BRANCH  14  15
HETATM   15  C   UNL     1      -5.553   6.230  69.260  1.00  0.00    -0.013 C  
BRANCH  15  16
HETATM   16  C   UNL     1      -6.611   7.242  69.639  1.00  0.00    -0.040 C  
HETATM   17  O   UNL     1      -7.288   7.120  70.655  1.00  0.00    -0.073 OA 
HETATM   18  N   UNL     1      -6.719   8.301  68.768  1.00  0.00    -0.057 N  
HETATM   19  H   UNL     1      -6.073   8.327  67.980  1.00  0.00     0.000 HD 
BRANCH  18  20
HETATM   20  C   UNL     1      -7.687   9.395  68.881  1.00  0.00    -0.076 C  
BRANCH  20  21
HETATM   21  C   UNL     1      -8.815   9.439  67.846  1.00  0.00    -0.124 C  
BRANCH  21  22
HETATM   22  S   UNL     1     -10.444   8.846  68.445  1.00  0.00    -0.151 SA 
BRANCH  22  23
HETATM   23  S   UNL     1     -10.415   9.255  70.464  1.00  0.00    -0.279 SA 
BRANCH  23  24
HETATM   24  C   UNL     1     -11.429  10.768  70.544  1.00  0.00    -0.275 C  
BRANCH  24  25
HETATM   25  C   UNL     1     -12.140  11.027  69.214  1.00  0.00    -0.292 C  
BRANCH  25  26
HETATM   26  N   UNL     1     -11.836  12.316  68.597  1.00  0.00    -0.319 N  
HETATM   27  H   UNL     1     -11.721  13.127  69.206  1.00  0.00     0.000 HD 
HETATM   28  C   UNL     1     -11.695  12.497  67.237  1.00  0.00    -0.362 C  
HETATM   29  O   UNL     1     -11.867  11.609  66.410  1.00  0.00    -0.470 OA 
BRANCH  28  30
HETATM   30  C   UNL     1     -11.269  13.890  66.832  1.00  0.00    -0.324 C  
BRANCH  30  31
HETATM   31  C   UNL     1      -9.756  14.029  66.972  1.00  0.00    -0.256 C  
BRANCH  31  32
HETATM   32  N   UNL     1      -9.379  15.271  67.620  1.00  0.00    -0.198 N  
HETATM   33  H   UNL     1      -9.477  15.346  68.633  1.00  0.00     0.000 HD 
HETATM   34  C   UNL     1      -8.893  16.350  66.920  1.00  0.00    -0.205 C  
HETATM   35  O   UNL     1      -8.825  16.387  65.694  1.00  0.00    -0.406 OA 
BRANCH  34  36
HETATM   36  C   UNL     1      -8.504  17.551  67.810  1.00  0.00    -0.225 C  
HETATM   37  O   UNL     1      -8.788  17.255  69.186  1.00  0.00    -0.135 OA 
HETATM   38  H   UNL     1      -8.549  17.994  69.733  1.00  0.00     0.000 HD 
BRANCH  36  39
HETATM   39  C   UNL     1      -9.198  18.878  67.394  1.00  0.00    -0.313 C  
HETATM   40  C   UNL     1     -10.523  18.613  66.650  1.00  0.00    -0.459 C  
HETATM   41  C   UNL     1      -9.541  19.681  68.671  1.00  0.00    -0.457 C  
BRANCH  39  42
HETATM   42  C   UNL     1      -8.248  19.716  66.506  1.00  0.00    -0.328 C  
HETATM   43  O   UNL     1      -8.181  21.073  66.934  1.00  0.00    -0.560 OA 
HETATM   44  H   UNL     1      -7.598  21.587  66.388  1.00  0.00     0.000 HD 
ENDBRANCH  39  42
ENDBRANCH  36  39
ENDBRANCH  34  36
ENDBRANCH  31  32
ENDBRANCH  30  31
ENDBRANCH  28  30
ENDBRANCH  25  26
ENDBRANCH  24  25
ENDBRANCH  23  24
ENDBRANCH  22  23
ENDBRANCH  21  22
ENDBRANCH  20  21
ENDBRANCH  18  20
ENDBRANCH  15  16
ENDBRANCH  14  15
ENDBRANCH  12  14
ENDBRANCH   7  10
ENDBRANCH   2   7
TORSDOF 19
ENDMDL
MODEL      282
REMARK 921   NORMALIZED FREE ENERGY PREDICTED BY IDOCK:   -3.40 KCAL/MOL
REMARK 922        TOTAL FREE ENERGY PREDICTED BY IDOCK:   -9.36 KCAL/MOL
REMARK 923 INTER-LIGAND FREE ENERGY PREDICTED BY IDOCK:   -8.11 KCAL/MOL
REMARK 924 INTRA-LIGAND FREE ENERGY PREDICTED BY IDOCK:   -1.25 KCAL/MOL
REMARK 927      BINDING AFFINITY PREDICTED BY RF-SCORE:    0.00 PKD
ROOT
HETATM    1  C   UNL     1      -5.767   6.381  73.760  1.00  0.00    -0.054 C  
HETATM    2  C   UNL     1      -6.768   6.757  72.652  1.00  0.00    -0.063 C  
HETATM    3  C   UNL     1      -7.244   8.217  72.857  1.00  0.00    -0.141 C  
ENDROOT
BRANCH   2   4
HETATM    4  C   UNL     1      -6.048   6.715  71.287  1.00  0.00    -0.036 C  
HETATM    5  O   UNL     1      -5.831   8.027  70.775  1.00  0.00    -0.033 OA 
HETATM    6  H   UNL     1      -5.388   8.001  69.935  1.00  0.00     0.000 HD 
ENDBRANCH   2   4
BRANCH   2   7
HETATM    7  C   UNL     1      -7.988   5.783  72.634  1.00  0.00    -0.102 C  
HETATM    8  O   UNL     1      -8.201   5.132  73.898  1.00  0.00    -0.107 OA 
HETATM    9  H   UNL     1      -8.943   4.540  73.887  1.00  0.00     0.000 HD 
BRANCH   7  10
HETATM   10  C   UNL     1      -9.329   6.424  72.211  1.00  0.00    -0.141 C  
HETATM   11  O   UNL     1     -10.170   6.861  72.990  1.00  0.00    -0.186 OA 
HETATM   12  N   UNL     1      -9.469   6.531  70.845  1.00  0.00    -0.171 N  
HETATM   13  H   UNL     1      -8.779   6.095  70.232  1.00  0.00     0.000 HD 
BRANCH  12  14
HETATM   14  C   UNL     1     -10.582   7.252  70.268  1.00  0.00    -0.229 C  
BRANCH  14  15
HETATM   15  C   UNL     1     -11.406   6.411  69.299  1.00  0.00    -0.405 C  
BRANCH  15  16
HETATM   16  C   UNL     1     -10.998   6.764  67.886  1.00  0.00    -0.227 C  
HETATM   17  O   UNL     1     -11.080   5.954  66.968  1.00  0.00    -0.260 OA 
HETATM   18  N   UNL     1     -10.564   8.060  67.729  1.00  0.00    -0.406 N  
HETATM   19  H   UNL     1     -10.583   8.663  68.551  1.00  0.00     0.000 HD 
BRANCH  18  20
HETATM   20  C   UNL     1     -10.077   8.644  66.477  1.00  0.00    -0.269 C  
BRANCH  20  21
HETATM   21  C   UNL     1      -8.685   8.217  66.002  1.00  0.00    -0.155 C  
BRANCH  21  22
HETATM   22  S   UNL     1      -7.312   8.623  67.150  1.00  0.00    -0.088 SA 
BRANCH  22  23
HETATM   23  S   UNL     1      -6.532  10.375  66.397  1.00  0.00    -0.106 SA 
BRANCH  23  24
HETATM   24  C   UNL     1      -6.343  11.370  67.912  1.00  0.00    -0.055 C  
BRANCH  24  25
HETATM   25  C   UNL     1      -5.795  12.763  67.594  1.00  0.00    -0.141 C  
BRANCH  25  26
HETATM   26  N   UNL     1      -6.774  13.843  67.683  1.00  0.00    -0.178 N  
HETATM   27  H   UNL     1      -7.759  13.594  67.771  1.00  0.00     0.000 HD 
HETATM   28  C   UNL     1      -6.440  15.181  67.653  1.00  0.00    -0.155 C  
HETATM   29  O   UNL     1      -5.297  15.594  67.493  1.00  0.00    -0.264 OA 
BRANCH  28  30
HETATM   30  C   UNL     1      -7.602  16.121  67.874  1.00  0.00    -0.146 C  
BRANCH  30  31
HETATM   31  C   UNL     1      -8.460  15.621  69.032  1.00  0.00    -0.231 C  
BRANCH  31  32
HETATM   32  N   UNL     1      -9.654  14.937  68.574  1.00  0.00    -0.208 N  
HETATM   33  H   UNL     1      -9.732  13.932  68.723  1.00  0.00     0.000 HD 
HETATM   34  C   UNL     1     -10.685  15.596  67.945  1.00  0.00    -0.294 C  
HETATM   35  O   UNL     1     -10.643  16.785  67.640  1.00  0.00    -0.324 OA 
BRANCH  34  36
HETATM   36  C   UNL     1     -11.882  14.689  67.586  1.00  0.00    -0.337 C  
HETATM   37  O   UNL     1     -12.361  14.019  68.763  1.00  0.00    -0.522 OA 
HETATM   38  H   UNL     1     -13.097  13.461  68.541  1.00  0.00     0.000 HD 
BRANCH  36  39
HETATM   39  C   UNL     1     -11.560  13.651  66.474  1.00  0.00    -0.392 C  
HETATM   40  C   UNL     1     -11.520  12.215  67.037  1.00  0.00    -0.415 C  
HETATM   41  C   UNL     1     -12.681  13.697  65.410  1.00  0.00    -0.500 C  
BRANCH  39  42
HETATM   42  C   UNL     1     -10.208  13.997  65.804  1.00  0.00    -0.328 C  
HETATM   43  O   UNL     1      -9.194  13.055  66.139  1.00  0.00    -0.440 OA 
HETATM   44  H   UNL     1      -8.365  13.268  65.728  1.00  0.00     0.000 HD 
ENDBRANCH  39  42
ENDBRANCH  36  39
ENDBRANCH  34  36
ENDBRANCH  31  32
ENDBRANCH  30  31
ENDBRANCH  28  30
ENDBRANCH  25  26
ENDBRANCH  24  25
ENDBRANCH  23  24
ENDBRANCH  22  23
ENDBRANCH  21  22
ENDBRANCH  20  21
ENDBRANCH  18  20
ENDBRANCH  15  16
ENDBRANCH  14  15
ENDBRANCH  12  14
ENDBRANCH   7  10
ENDBRANCH   2   7
TORSDOF 19
ENDMDL
MODEL      283
REMARK 921   NORMALIZED FREE ENERGY PREDICTED BY IDOCK:   -3.40 KCAL/MOL
REMARK 922        TOTAL FREE ENERGY PREDICTED BY IDOCK:   -9.35 KCAL/MOL
REMARK 923 INTER-LIGAND FREE ENERGY PREDICTED BY IDOCK:   -8.64 KCAL/MOL
REMARK 924 INTRA-LIGAND FREE ENERGY PREDICTED BY IDOCK:   -0.71 KCAL/MOL
REMARK 927      BINDING AFFINITY PREDICTED BY RF-SCORE:    0.00 PKD
ROOT
HETATM    1  C   UNL     1     -10.053   4.702  70.237  1.00  0.00    -0.276 C  
HETATM    2  C   UNL     1      -9.215   4.723  68.945  1.00  0.00    -0.172 C  
HETATM    3  C   UNL     1     -10.156   4.813  67.718  1.00  0.00    -0.129 C  
ENDROOT
BRANCH   2   4
HETATM    4  C   UNL     1      -8.347   5.999  68.930  1.00  0.00    -0.107 C  
HETATM    5  O   UNL     1      -8.069   6.453  70.252  1.00  0.00    -0.116 OA 
HETATM    6  H   UNL     1      -7.535   7.239  70.243  1.00  0.00     0.000 HD 
ENDBRANCH   2   4
BRANCH   2   7
HETATM    7  C   UNL     1      -8.301   3.462  68.840  1.00  0.00    -0.061 C  
HETATM    8  O   UNL     1      -8.725   2.392  69.700  1.00  0.00    -0.059 OA 
HETATM    9  H   UNL     1      -8.169   1.625  69.636  1.00  0.00     0.000 HD 
BRANCH   7  10
HETATM   10  C   UNL     1      -8.152   2.881  67.416  1.00  0.00    -0.077 C  
HETATM   11  O   UNL     1      -8.745   1.891  67.000  1.00  0.00    -0.102 OA 
HETATM   12  N   UNL     1      -7.327   3.634  66.610  1.00  0.00    -0.068 N  
HETATM   13  H   UNL     1      -6.800   4.410  67.012  1.00  0.00     0.000 HD 
BRANCH  12  14
HETATM   14  C   UNL     1      -7.197   3.338  65.201  1.00  0.00    -0.070 C  
BRANCH  14  15
HETATM   15  C   UNL     1      -8.475   3.599  64.411  1.00  0.00    -0.093 C  
BRANCH  15  16
HETATM   16  C   UNL     1      -8.416   5.001  63.845  1.00  0.00    -0.129 C  
HETATM   17  O   UNL     1      -8.536   5.219  62.644  1.00  0.00    -0.110 OA 
HETATM   18  N   UNL     1      -8.246   5.986  64.791  1.00  0.00    -0.167 N  
HETATM   19  H   UNL     1      -8.207   5.695  65.768  1.00  0.00     0.000 HD 
BRANCH  18  20
HETATM   20  C   UNL     1      -8.118   7.418  64.508  1.00  0.00    -0.079 C  
BRANCH  20  21
HETATM   21  C   UNL     1      -6.724   7.936  64.144  1.00  0.00    -0.061 C  
BRANCH  21  22
HETATM   22  S   UNL     1      -6.636   9.725  63.750  1.00  0.00    -0.124 SA 
BRANCH  22  23
HETATM   23  S   UNL     1      -8.318  10.069  62.611  1.00  0.00    -0.175 SA 
BRANCH  23  24
HETATM   24  C   UNL     1      -9.531  10.542  63.887  1.00  0.00    -0.292 C  
BRANCH  24  25
HETATM   25  C   UNL     1     -10.170  11.896  63.568  1.00  0.00    -0.457 C  
BRANCH  25  26
HETATM   26  N   UNL     1     -10.833  12.543  64.697  1.00  0.00    -0.294 N  
HETATM   27  H   UNL     1     -10.268  12.795  65.508  1.00  0.00     0.000 HD 
HETATM   28  C   UNL     1     -12.181  12.833  64.726  1.00  0.00    -0.459 C  
HETATM   29  O   UNL     1     -12.964  12.526  63.833  1.00  0.00    -0.730 OA 
BRANCH  28  30
HETATM   30  C   UNL     1     -12.629  13.606  65.945  1.00  0.00    -0.478 C  
BRANCH  30  31
HETATM   31  C   UNL     1     -11.423  13.944  66.816  1.00  0.00    -0.352 C  
BRANCH  31  32
HETATM   32  N   UNL     1     -11.270  15.374  67.008  1.00  0.00    -0.279 N  
HETATM   33  H   UNL     1     -11.699  15.808  67.826  1.00  0.00     0.000 HD 
HETATM   34  C   UNL     1     -10.569  16.165  66.129  1.00  0.00    -0.283 C  
HETATM   35  O   UNL     1     -10.097  15.751  65.074  1.00  0.00    -0.425 OA 
BRANCH  34  36
HETATM   36  C   UNL     1     -10.486  17.649  66.550  1.00  0.00    -0.283 C  
HETATM   37  O   UNL     1     -10.562  18.493  65.390  1.00  0.00    -0.589 OA 
HETATM   38  H   UNL     1     -10.511  19.406  65.649  1.00  0.00     0.000 HD 
BRANCH  36  39
HETATM   39  C   UNL     1      -9.214  17.988  67.376  1.00  0.00    -0.253 C  
HETATM   40  C   UNL     1      -9.136  17.142  68.664  1.00  0.00    -0.268 C  
HETATM   41  C   UNL     1      -7.966  17.650  66.527  1.00  0.00    -0.302 C  
BRANCH  39  42
HETATM   42  C   UNL     1      -9.197  19.495  67.727  1.00  0.00    -0.324 C  
HETATM   43  O   UNL     1     -10.505  19.989  67.999  1.00  0.00    -0.396 OA 
HETATM   44  H   UNL     1     -10.495  20.915  68.214  1.00  0.00     0.000 HD 
ENDBRANCH  39  42
ENDBRANCH  36  39
ENDBRANCH  34  36
ENDBRANCH  31  32
ENDBRANCH  30  31
ENDBRANCH  28  30
ENDBRANCH  25  26
ENDBRANCH  24  25
ENDBRANCH  23  24
ENDBRANCH  22  23
ENDBRANCH  21  22
ENDBRANCH  20  21
ENDBRANCH  18  20
ENDBRANCH  15  16
ENDBRANCH  14  15
ENDBRANCH  12  14
ENDBRANCH   7  10
ENDBRANCH   2   7
TORSDOF 19
ENDMDL
MODEL      284
REMARK 921   NORMALIZED FREE ENERGY PREDICTED BY IDOCK:   -3.38 KCAL/MOL
REMARK 922        TOTAL FREE ENERGY PREDICTED BY IDOCK:   -9.32 KCAL/MOL
REMARK 923 INTER-LIGAND FREE ENERGY PREDICTED BY IDOCK:   -8.19 KCAL/MOL
REMARK 924 INTRA-LIGAND FREE ENERGY PREDICTED BY IDOCK:   -1.13 KCAL/MOL
REMARK 927      BINDING AFFINITY PREDICTED BY RF-SCORE:    0.00 PKD
ROOT
HETATM    1  C   UNL     1      -8.259   5.838  67.210  1.00  0.00    -0.102 C  
HETATM    2  C   UNL     1      -9.483   5.214  67.905  1.00  0.00    -0.155 C  
HETATM    3  C   UNL     1     -10.780   5.735  67.237  1.00  0.00    -0.345 C  
ENDROOT
BRANCH   2   4
HETATM    4  C   UNL     1      -9.459   3.686  67.691  1.00  0.00    -0.185 C  
HETATM    5  O   UNL     1      -8.162   3.236  67.306  1.00  0.00    -0.081 OA 
HETATM    6  H   UNL     1      -8.148   2.296  67.173  1.00  0.00     0.000 HD 
ENDBRANCH   2   4
BRANCH   2   7
HETATM    7  C   UNL     1      -9.492   5.532  69.434  1.00  0.00    -0.133 C  
HETATM    8  O   UNL     1     -10.447   4.742  70.162  1.00  0.00    -0.199 OA 
HETATM    9  H   UNL     1     -10.453   4.935  71.092  1.00  0.00     0.000 HD 
BRANCH   7  10
HETATM   10  C   UNL     1      -8.127   5.376  70.141  1.00  0.00    -0.089 C  
HETATM   11  O   UNL     1      -7.262   4.567  69.818  1.00  0.00    -0.049 OA 
HETATM   12  N   UNL     1      -7.931   6.297  71.146  1.00  0.00    -0.114 N  
HETATM   13  H   UNL     1      -8.699   6.906  71.427  1.00  0.00     0.000 HD 
BRANCH  12  14
HETATM   14  C   UNL     1      -6.651   6.410  71.807  1.00  0.00    -0.058 C  
BRANCH  14  15
HETATM   15  C   UNL     1      -6.017   7.790  71.660  1.00  0.00    -0.035 C  
BRANCH  15  16
HETATM   16  C   UNL     1      -7.109   8.795  71.370  1.00  0.00    -0.090 C  
HETATM   17  O   UNL     1      -8.090   8.912  72.098  1.00  0.00    -0.369 OA 
HETATM   18  N   UNL     1      -6.886   9.566  70.252  1.00  0.00    -0.077 N  
HETATM   19  H   UNL     1      -6.013   9.418  69.747  1.00  0.00     0.000 HD 
BRANCH  18  20
HETATM   20  C   UNL     1      -7.802  10.583  69.730  1.00  0.00    -0.034 C  
BRANCH  20  21
HETATM   21  C   UNL     1      -8.137  10.521  68.237  1.00  0.00    -0.115 C  
BRANCH  21  22
HETATM   22  S   UNL     1      -9.279   9.170  67.751  1.00  0.00    -0.132 SA 
BRANCH  22  23
HETATM   23  S   UNL     1     -10.638   9.084  69.297  1.00  0.00    -0.181 SA 
BRANCH  23  24
HETATM   24  C   UNL     1     -11.369  10.753  69.233  1.00  0.00    -0.286 C  
BRANCH  24  25
HETATM   25  C   UNL     1     -11.544  11.224  67.788  1.00  0.00    -0.230 C  
BRANCH  25  26
HETATM   26  N   UNL     1     -10.964  12.532  67.494  1.00  0.00    -0.241 N  
HETATM   27  H   UNL     1     -10.127  12.814  68.005  1.00  0.00     0.000 HD 
HETATM   28  C   UNL     1     -11.485  13.407  66.563  1.00  0.00    -0.341 C  
HETATM   29  O   UNL     1     -12.515  13.197  65.932  1.00  0.00    -0.420 OA 
BRANCH  28  30
HETATM   30  C   UNL     1     -10.657  14.652  66.342  1.00  0.00    -0.301 C  
BRANCH  30  31
HETATM   31  C   UNL     1      -9.561  14.740  67.400  1.00  0.00    -0.210 C  
BRANCH  31  32
HETATM   32  N   UNL     1      -9.226  16.113  67.727  1.00  0.00    -0.202 N  
HETATM   33  H   UNL     1      -8.275  16.440  67.556  1.00  0.00     0.000 HD 
HETATM   34  C   UNL     1     -10.143  16.989  68.260  1.00  0.00    -0.306 C  
HETATM   35  O   UNL     1     -11.281  16.663  68.585  1.00  0.00    -0.328 OA 
BRANCH  34  36
HETATM   36  C   UNL     1      -9.591  18.414  68.484  1.00  0.00    -0.345 C  
HETATM   37  O   UNL     1     -10.430  19.125  69.408  1.00  0.00    -0.428 OA 
HETATM   38  H   UNL     1     -10.090  20.002  69.546  1.00  0.00     0.000 HD 
BRANCH  36  39
HETATM   39  C   UNL     1      -9.431  19.229  67.171  1.00  0.00    -0.388 C  
HETATM   40  C   UNL     1     -10.457  18.790  66.106  1.00  0.00    -0.499 C  
HETATM   41  C   UNL     1      -9.695  20.722  67.477  1.00  0.00    -0.444 C  
BRANCH  39  42
HETATM   42  C   UNL     1      -7.993  19.069  66.621  1.00  0.00    -0.271 C  
HETATM   43  O   UNL     1      -7.703  20.028  65.609  1.00  0.00    -0.405 OA 
HETATM   44  H   UNL     1      -6.821  19.930  65.272  1.00  0.00     0.000 HD 
ENDBRANCH  39  42
ENDBRANCH  36  39
ENDBRANCH  34  36
ENDBRANCH  31  32
ENDBRANCH  30  31
ENDBRANCH  28  30
ENDBRANCH  25  26
ENDBRANCH  24  25
ENDBRANCH  23  24
ENDBRANCH  22  23
ENDBRANCH  21  22
ENDBRANCH  20  21
ENDBRANCH  18  20
ENDBRANCH  15  16
ENDBRANCH  14  15
ENDBRANCH  12  14
ENDBRANCH   7  10
ENDBRANCH   2   7
TORSDOF 19
ENDMDL
MODEL      285
REMARK 921   NORMALIZED FREE ENERGY PREDICTED BY IDOCK:   -3.38 KCAL/MOL
REMARK 922        TOTAL FREE ENERGY PREDICTED BY IDOCK:   -9.31 KCAL/MOL
REMARK 923 INTER-LIGAND FREE ENERGY PREDICTED BY IDOCK:   -8.51 KCAL/MOL
REMARK 924 INTRA-LIGAND FREE ENERGY PREDICTED BY IDOCK:   -0.81 KCAL/MOL
REMARK 927      BINDING AFFINITY PREDICTED BY RF-SCORE:    0.00 PKD
ROOT
HETATM    1  C   UNL     1     -10.513   4.466  72.519  1.00  0.00    -0.235 C  
HETATM    2  C   UNL     1      -9.812   5.311  71.439  1.00  0.00    -0.232 C  
HETATM    3  C   UNL     1     -10.791   5.572  70.268  1.00  0.00    -0.285 C  
ENDROOT
BRANCH   2   4
HETATM    4  C   UNL     1      -9.457   6.691  72.033  1.00  0.00    -0.148 C  
HETATM    5  O   UNL     1      -8.861   6.563  73.322  1.00  0.00    -0.124 OA 
HETATM    6  H   UNL     1      -8.642   7.413  73.687  1.00  0.00     0.000 HD 
ENDBRANCH   2   4
BRANCH   2   7
HETATM    7  C   UNL     1      -8.516   4.612  70.921  1.00  0.00    -0.098 C  
HETATM    8  O   UNL     1      -7.814   3.901  71.955  1.00  0.00    -0.071 OA 
HETATM    9  H   UNL     1      -7.026   3.475  71.640  1.00  0.00     0.000 HD 
BRANCH   7  10
HETATM   10  C   UNL     1      -8.729   3.631  69.747  1.00  0.00    -0.075 C  
HETATM   11  O   UNL     1      -9.381   2.592  69.813  1.00  0.00    -0.130 OA 
HETATM   12  N   UNL     1      -8.170   4.071  68.568  1.00  0.00    -0.075 N  
HETATM   13  H   UNL     1      -7.581   4.904  68.569  1.00  0.00     0.000 HD 
BRANCH  12  14
HETATM   14  C   UNL     1      -8.407   3.367  67.327  1.00  0.00    -0.092 C  
BRANCH  14  15
HETATM   15  C   UNL     1      -9.580   3.930  66.530  1.00  0.00    -0.211 C  
BRANCH  15  16
HETATM   16  C   UNL     1      -9.044   4.909  65.509  1.00  0.00    -0.153 C  
HETATM   17  O   UNL     1      -8.571   4.535  64.441  1.00  0.00    -0.125 OA 
HETATM   18  N   UNL     1      -9.163   6.230  65.875  1.00  0.00    -0.335 N  
HETATM   19  H   UNL     1      -9.617   6.430  66.766  1.00  0.00     0.000 HD 
BRANCH  18  20
HETATM   20  C   UNL     1      -8.689   7.372  65.088  1.00  0.00     0.146 C  
BRANCH  20  21
HETATM   21  C   UNL     1      -7.254   7.845  65.337  1.00  0.00    -0.064 C  
BRANCH  21  22
HETATM   22  S   UNL     1      -6.958   9.628  65.030  1.00  0.00    -0.118 SA 
BRANCH  22  23
HETATM   23  S   UNL     1      -8.225  10.085  63.471  1.00  0.00    -0.172 SA 
BRANCH  23  24
HETATM   24  C   UNL     1      -9.584  10.932  64.342  1.00  0.00    -0.265 C  
BRANCH  24  25
HETATM   25  C   UNL     1     -10.196  12.033  63.473  1.00  0.00    -0.450 C  
BRANCH  25  26
HETATM   26  N   UNL     1     -10.215  13.359  64.085  1.00  0.00    -0.644 N  
HETATM   27  H   UNL     1      -9.426  13.982  63.908  1.00  0.00     0.000 HD 
HETATM   28  C   UNL     1     -11.240  13.815  64.887  1.00  0.00    -0.349 C  
HETATM   29  O   UNL     1     -12.207  13.134  65.210  1.00  0.00    -0.401 OA 
BRANCH  28  30
HETATM   30  C   UNL     1     -11.103  15.258  65.317  1.00  0.00    -0.382 C  
BRANCH  30  31
HETATM   31  C   UNL     1     -10.454  15.327  66.696  1.00  0.00    -0.290 C  
BRANCH  31  32
HETATM   32  N   UNL     1     -10.234  16.695  67.129  1.00  0.00    -0.285 N  
HETATM   33  H   UNL     1     -10.789  17.439  66.707  1.00  0.00     0.000 HD 
HETATM   34  C   UNL     1      -9.303  17.023  68.087  1.00  0.00    -0.254 C  
HETATM   35  O   UNL     1      -8.527  16.212  68.584  1.00  0.00    -0.192 OA 
BRANCH  34  36
HETATM   36  C   UNL     1      -9.267  18.528  68.435  1.00  0.00    -0.324 C  
HETATM   37  O   UNL     1     -10.589  18.990  68.753  1.00  0.00    -0.397 OA 
HETATM   38  H   UNL     1     -10.566  19.915  68.967  1.00  0.00     0.000 HD 
BRANCH  36  39
HETATM   39  C   UNL     1      -8.649  19.407  67.313  1.00  0.00    -0.329 C  
HETATM   40  C   UNL     1      -9.739  20.153  66.515  1.00  0.00    -0.553 C  
HETATM   41  C   UNL     1      -7.741  20.478  67.963  1.00  0.00    -0.090 C  
BRANCH  39  42
HETATM   42  C   UNL     1      -7.799  18.530  66.361  1.00  0.00    -0.271 C  
HETATM   43  O   UNL     1      -7.041  19.319  65.450  1.00  0.00    -0.433 OA 
HETATM   44  H   UNL     1      -6.520  18.780  64.865  1.00  0.00     0.000 HD 
ENDBRANCH  39  42
ENDBRANCH  36  39
ENDBRANCH  34  36
ENDBRANCH  31  32
ENDBRANCH  30  31
ENDBRANCH  28  30
ENDBRANCH  25  26
ENDBRANCH  24  25
ENDBRANCH  23  24
ENDBRANCH  22  23
ENDBRANCH  21  22
ENDBRANCH  20  21
ENDBRANCH  18  20
ENDBRANCH  15  16
ENDBRANCH  14  15
ENDBRANCH  12  14
ENDBRANCH   7  10
ENDBRANCH   2   7
TORSDOF 19
ENDMDL
MODEL      286
REMARK 921   NORMALIZED FREE ENERGY PREDICTED BY IDOCK:   -3.36 KCAL/MOL
REMARK 922        TOTAL FREE ENERGY PREDICTED BY IDOCK:   -9.28 KCAL/MOL
REMARK 923 INTER-LIGAND FREE ENERGY PREDICTED BY IDOCK:   -7.65 KCAL/MOL
REMARK 924 INTRA-LIGAND FREE ENERGY PREDICTED BY IDOCK:   -1.63 KCAL/MOL
REMARK 927      BINDING AFFINITY PREDICTED BY RF-SCORE:    0.00 PKD
ROOT
HETATM    1  C   UNL     1      -7.965   4.191  71.393  1.00  0.00    -0.077 C  
HETATM    2  C   UNL     1      -9.453   4.081  71.015  1.00  0.00    -0.233 C  
HETATM    3  C   UNL     1      -9.597   4.068  69.473  1.00  0.00    -0.265 C  
ENDROOT
BRANCH   2   4
HETATM    4  C   UNL     1     -10.002   2.730  71.521  1.00  0.00    -0.042 C  
HETATM    5  O   UNL     1      -9.713   1.677  70.606  1.00  0.00    -0.106 OA 
HETATM    6  H   UNL     1     -10.051   0.845  70.917  1.00  0.00     0.000 HD 
ENDBRANCH   2   4
BRANCH   2   7
HETATM    7  C   UNL     1     -10.284   5.251  71.630  1.00  0.00    -0.212 C  
HETATM    8  O   UNL     1     -10.660   5.010  72.997  1.00  0.00    -0.192 OA 
HETATM    9  H   UNL     1     -11.165   5.721  73.371  1.00  0.00     0.000 HD 
BRANCH   7  10
HETATM   10  C   UNL     1      -9.602   6.636  71.574  1.00  0.00    -0.164 C  
HETATM   11  O   UNL     1      -8.824   7.066  72.420  1.00  0.00    -0.128 OA 
HETATM   12  N   UNL     1      -9.896   7.336  70.425  1.00  0.00    -0.183 N  
HETATM   13  H   UNL     1     -10.599   6.974  69.780  1.00  0.00     0.000 HD 
BRANCH  12  14
HETATM   14  C   UNL     1      -9.221   8.578  70.121  1.00  0.00    -0.156 C  
BRANCH  14  15
HETATM   15  C   UNL     1      -9.470   9.066  68.698  1.00  0.00    -0.149 C  
BRANCH  15  16
HETATM   16  C   UNL     1      -8.832   8.091  67.734  1.00  0.00    -0.126 C  
HETATM   17  O   UNL     1      -8.212   7.107  68.125  1.00  0.00    -0.122 OA 
HETATM   18  N   UNL     1      -9.034   8.394  66.407  1.00  0.00    -0.160 N  
HETATM   19  H   UNL     1      -9.607   9.210  66.194  1.00  0.00     0.000 HD 
BRANCH  18  20
HETATM   20  C   UNL     1      -8.493   7.637  65.275  1.00  0.00    -0.076 C  
BRANCH  20  21
HETATM   21  C   UNL     1      -7.319   8.261  64.515  1.00  0.00    -0.091 C  
BRANCH  21  22
HETATM   22  S   UNL     1      -7.425  10.076  64.274  1.00  0.00    -0.122 SA 
BRANCH  22  23
HETATM   23  S   UNL     1      -8.868  10.306  62.821  1.00  0.00    -0.270 SA 
BRANCH  23  24
HETATM   24  C   UNL     1     -10.263  10.960  63.794  1.00  0.00    -0.343 C  
BRANCH  24  25
HETATM   25  C   UNL     1     -10.071  12.446  64.106  1.00  0.00    -0.295 C  
BRANCH  25  26
HETATM   26  N   UNL     1      -9.529  12.730  65.432  1.00  0.00    -0.456 N  
HETATM   27  H   UNL     1      -8.689  12.232  65.726  1.00  0.00     0.000 HD 
HETATM   28  C   UNL     1     -10.091  13.634  66.309  1.00  0.00    -0.299 C  
HETATM   29  O   UNL     1     -11.129  14.247  66.084  1.00  0.00    -0.314 OA 
BRANCH  28  30
HETATM   30  C   UNL     1      -9.299  13.852  67.577  1.00  0.00    -0.217 C  
BRANCH  30  31
HETATM   31  C   UNL     1      -7.979  14.544  67.251  1.00  0.00    -0.191 C  
BRANCH  31  32
HETATM   32  N   UNL     1      -8.179  15.841  66.634  1.00  0.00    -0.270 N  
HETATM   33  H   UNL     1      -8.995  15.981  66.037  1.00  0.00     0.000 HD 
HETATM   34  C   UNL     1      -7.310  16.890  66.824  1.00  0.00    -0.237 C  
HETATM   35  O   UNL     1      -6.257  16.792  67.448  1.00  0.00    -0.135 OA 
BRANCH  34  36
HETATM   36  C   UNL     1      -7.739  18.195  66.118  1.00  0.00    -0.224 C  
HETATM   37  O   UNL     1      -6.617  19.086  66.011  1.00  0.00    -0.202 OA 
HETATM   38  H   UNL     1      -6.881  19.889  65.576  1.00  0.00     0.000 HD 
BRANCH  36  39
HETATM   39  C   UNL     1      -8.928  18.913  66.814  1.00  0.00    -0.320 C  
HETATM   40  C   UNL     1      -8.867  18.749  68.347  1.00  0.00    -0.375 C  
HETATM   41  C   UNL     1      -8.841  20.428  66.510  1.00  0.00    -0.227 C  
BRANCH  39  42
HETATM   42  C   UNL     1     -10.269  18.361  66.273  1.00  0.00    -0.406 C  
HETATM   43  O   UNL     1     -10.675  17.185  66.965  1.00  0.00    -0.266 OA 
HETATM   44  H   UNL     1     -11.498  16.846  66.633  1.00  0.00     0.000 HD 
ENDBRANCH  39  42
ENDBRANCH  36  39
ENDBRANCH  34  36
ENDBRANCH  31  32
ENDBRANCH  30  31
ENDBRANCH  28  30
ENDBRANCH  25  26
ENDBRANCH  24  25
ENDBRANCH  23  24
ENDBRANCH  22  23
ENDBRANCH  21  22
ENDBRANCH  20  21
ENDBRANCH  18  20
ENDBRANCH  15  16
ENDBRANCH  14  15
ENDBRANCH  12  14
ENDBRANCH   7  10
ENDBRANCH   2   7
TORSDOF 19
ENDMDL
MODEL      287
REMARK 921   NORMALIZED FREE ENERGY PREDICTED BY IDOCK:   -3.31 KCAL/MOL
REMARK 922        TOTAL FREE ENERGY PREDICTED BY IDOCK:   -9.17 KCAL/MOL
REMARK 923 INTER-LIGAND FREE ENERGY PREDICTED BY IDOCK:   -7.63 KCAL/MOL
REMARK 924 INTRA-LIGAND FREE ENERGY PREDICTED BY IDOCK:   -1.54 KCAL/MOL
REMARK 927      BINDING AFFINITY PREDICTED BY RF-SCORE:    0.00 PKD
ROOT
HETATM    1  C   UNL     1      -9.924   4.607  69.343  1.00  0.00    -0.249 C  
HETATM    2  C   UNL     1      -8.974   3.509  69.856  1.00  0.00    -0.173 C  
HETATM    3  C   UNL     1      -9.483   2.123  69.388  1.00  0.00    -0.119 C  
ENDROOT
BRANCH   2   4
HETATM    4  C   UNL     1      -7.584   3.708  69.217  1.00  0.00    -0.052 C  
HETATM    5  O   UNL     1      -6.733   2.592  69.468  1.00  0.00    -0.033 OA 
HETATM    6  H   UNL     1      -5.877   2.715  69.074  1.00  0.00     0.000 HD 
ENDBRANCH   2   4
BRANCH   2   7
HETATM    7  C   UNL     1      -8.849   3.547  71.412  1.00  0.00    -0.088 C  
HETATM    8  O   UNL     1      -7.612   4.128  71.858  1.00  0.00    -0.066 OA 
HETATM    9  H   UNL     1      -7.535   4.151  72.804  1.00  0.00     0.000 HD 
BRANCH   7  10
HETATM   10  C   UNL     1      -9.995   4.281  72.141  1.00  0.00    -0.179 C  
HETATM   11  O   UNL     1     -10.990   3.733  72.609  1.00  0.00    -0.022 OA 
HETATM   12  N   UNL     1      -9.764   5.630  72.290  1.00  0.00    -0.155 N  
HETATM   13  H   UNL     1      -8.960   6.057  71.829  1.00  0.00     0.000 HD 
BRANCH  12  14
HETATM   14  C   UNL     1     -10.647   6.450  73.090  1.00  0.00    -0.255 C  
BRANCH  14  15
HETATM   15  C   UNL     1     -10.571   7.933  72.743  1.00  0.00    -0.418 C  
BRANCH  15  16
HETATM   16  C   UNL     1      -9.118   8.351  72.724  1.00  0.00    -0.229 C  
HETATM   17  O   UNL     1      -8.492   8.564  73.758  1.00  0.00    -0.337 OA 
HETATM   18  N   UNL     1      -8.571   8.439  71.464  1.00  0.00    -0.151 N  
HETATM   19  H   UNL     1      -9.168   8.193  70.676  1.00  0.00     0.000 HD 
BRANCH  18  20
HETATM   20  C   UNL     1      -7.199   8.859  71.165  1.00  0.00    -0.102 C  
BRANCH  20  21
HETATM   21  C   UNL     1      -6.940   9.461  69.781  1.00  0.00    -0.065 C  
BRANCH  21  22
HETATM   22  S   UNL     1      -6.202   8.311  68.557  1.00  0.00    -0.054 SA 
BRANCH  22  23
HETATM   23  S   UNL     1      -7.214   8.723  66.810  1.00  0.00    -0.082 SA 
BRANCH  23  24
HETATM   24  C   UNL     1      -8.576   9.773  67.417  1.00  0.00    -0.128 C  
BRANCH  24  25
HETATM   25  C   UNL     1      -8.427  11.212  66.921  1.00  0.00    -0.147 C  
BRANCH  25  26
HETATM   26  N   UNL     1      -9.558  11.714  66.144  1.00  0.00    -0.226 N  
HETATM   27  H   UNL     1      -9.503  11.667  65.127  1.00  0.00     0.000 HD 
HETATM   28  C   UNL     1     -10.696  12.248  66.712  1.00  0.00    -0.240 C  
HETATM   29  O   UNL     1     -10.847  12.404  67.919  1.00  0.00    -0.209 OA 
BRANCH  28  30
HETATM   30  C   UNL     1     -11.784  12.598  65.722  1.00  0.00    -0.466 C  
BRANCH  30  31
HETATM   31  C   UNL     1     -12.309  14.002  66.005  1.00  0.00    -0.473 C  
BRANCH  31  32
HETATM   32  N   UNL     1     -11.235  14.963  66.179  1.00  0.00    -0.336 N  
HETATM   33  H   UNL     1     -10.529  15.048  65.447  1.00  0.00     0.000 HD 
HETATM   34  C   UNL     1     -11.134  15.762  67.293  1.00  0.00    -0.211 C  
HETATM   35  O   UNL     1     -11.880  15.668  68.264  1.00  0.00    -0.318 OA 
BRANCH  34  36
HETATM   36  C   UNL     1      -9.946  16.749  67.251  1.00  0.00    -0.272 C  
HETATM   37  O   UNL     1      -9.629  17.078  65.890  1.00  0.00    -0.488 OA 
HETATM   38  H   UNL     1      -8.899  17.684  65.864  1.00  0.00     0.000 HD 
BRANCH  36  39
HETATM   39  C   UNL     1      -8.680  16.223  67.983  1.00  0.00    -0.178 C  
HETATM   40  C   UNL     1      -7.829  15.325  67.063  1.00  0.00    -0.224 C  
HETATM   41  C   UNL     1      -7.802  17.431  68.388  1.00  0.00    -0.257 C  
BRANCH  39  42
HETATM   42  C   UNL     1      -9.091  15.443  69.256  1.00  0.00    -0.260 C  
HETATM   43  O   UNL     1      -8.711  14.073  69.182  1.00  0.00    -0.369 OA 
HETATM   44  H   UNL     1      -8.963  13.594  69.963  1.00  0.00     0.000 HD 
ENDBRANCH  39  42
ENDBRANCH  36  39
ENDBRANCH  34  36
ENDBRANCH  31  32
ENDBRANCH  30  31
ENDBRANCH  28  30
ENDBRANCH  25  26
ENDBRANCH  24  25
ENDBRANCH  23  24
ENDBRANCH  22  23
ENDBRANCH  21  22
ENDBRANCH  20  21
ENDBRANCH  18  20
ENDBRANCH  15  16
ENDBRANCH  14  15
ENDBRANCH  12  14
ENDBRANCH   7  10
ENDBRANCH   2   7
TORSDOF 19
ENDMDL
MODEL      288
REMARK 921   NORMALIZED FREE ENERGY PREDICTED BY IDOCK:   -3.30 KCAL/MOL
REMARK 922        TOTAL FREE ENERGY PREDICTED BY IDOCK:   -9.15 KCAL/MOL
REMARK 923 INTER-LIGAND FREE ENERGY PREDICTED BY IDOCK:   -7.62 KCAL/MOL
REMARK 924 INTRA-LIGAND FREE ENERGY PREDICTED BY IDOCK:   -1.53 KCAL/MOL
REMARK 927      BINDING AFFINITY PREDICTED BY RF-SCORE:    0.00 PKD
ROOT
HETATM    1  C   UNL     1     -11.579  15.105  72.077  1.00  0.00    -0.496 C  
HETATM    2  C   UNL     1     -12.721  14.280  71.457  1.00  0.00    -0.425 C  
HETATM    3  C   UNL     1     -13.985  15.165  71.318  1.00  0.00    -0.548 C  
ENDROOT
BRANCH   2   4
HETATM    4  C   UNL     1     -12.318  13.859  70.027  1.00  0.00    -0.316 C  
HETATM    5  O   UNL     1     -10.917  14.016  69.816  1.00  0.00    -0.444 OA 
HETATM    6  H   UNL     1     -10.670  13.757  68.936  1.00  0.00     0.000 HD 
ENDBRANCH   2   4
BRANCH   2   7
HETATM    7  C   UNL     1     -13.035  13.011  72.310  1.00  0.00    -0.224 C  
HETATM    8  O   UNL     1     -14.386  12.990  72.803  1.00  0.00    -0.649 OA 
HETATM    9  H   UNL     1     -14.577  12.219  73.322  1.00  0.00     0.000 HD 
BRANCH   7  10
HETATM   10  C   UNL     1     -12.781  11.665  71.597  1.00  0.00    -0.270 C  
HETATM   11  O   UNL     1     -11.804  11.420  70.895  1.00  0.00    -0.258 OA 
HETATM   12  N   UNL     1     -13.736  10.714  71.883  1.00  0.00    -0.163 N  
HETATM   13  H   UNL     1     -14.566  10.977  72.414  1.00  0.00     0.000 HD 
BRANCH  12  14
HETATM   14  C   UNL     1     -13.576   9.347  71.438  1.00  0.00    -0.294 C  
BRANCH  14  15
HETATM   15  C   UNL     1     -13.112   8.405  72.544  1.00  0.00    -0.209 C  
BRANCH  15  16
HETATM   16  C   UNL     1     -12.298   7.293  71.921  1.00  0.00    -0.312 C  
HETATM   17  O   UNL     1     -12.743   6.156  71.798  1.00  0.00    -0.017 OA 
HETATM   18  N   UNL     1     -11.049   7.679  71.491  1.00  0.00    -0.234 N  
HETATM   19  H   UNL     1     -10.799   8.662  71.599  1.00  0.00     0.000 HD 
BRANCH  18  20
HETATM   20  C   UNL     1     -10.049   6.793  70.890  1.00  0.00    -0.190 C  
BRANCH  20  21
HETATM   21  C   UNL     1      -8.989   6.201  71.824  1.00  0.00    -0.141 C  
BRANCH  21  22
HETATM   22  S   UNL     1      -8.507   7.272  73.233  1.00  0.00    -0.139 SA 
BRANCH  22  23
HETATM   23  S   UNL     1      -6.546   7.767  72.836  1.00  0.00    -0.074 SA 
BRANCH  23  24
HETATM   24  C   UNL     1      -6.366   7.191  71.116  1.00  0.00    -0.037 C  
BRANCH  24  25
HETATM   25  C   UNL     1      -6.462   8.358  70.130  1.00  0.00    -0.038 C  
BRANCH  25  26
HETATM   26  N   UNL     1      -6.001   8.058  68.777  1.00  0.00    -0.038 N  
HETATM   27  H   UNL     1      -5.101   8.436  68.480  1.00  0.00     0.000 HD 
HETATM   28  C   UNL     1      -6.714   7.290  67.880  1.00  0.00    -0.061 C  
HETATM   29  O   UNL     1      -7.828   6.832  68.110  1.00  0.00    -0.110 OA 
BRANCH  28  30
HETATM   30  C   UNL     1      -5.993   7.015  66.580  1.00  0.00    -0.034 C  
BRANCH  30  31
HETATM   31  C   UNL     1      -6.986   7.047  65.422  1.00  0.00    -0.056 C  
BRANCH  31  32
HETATM   32  N   UNL     1      -8.085   7.962  65.668  1.00  0.00    -0.122 N  
HETATM   33  H   UNL     1      -8.991   7.580  65.938  1.00  0.00     0.000 HD 
HETATM   34  C   UNL     1      -7.949   9.325  65.550  1.00  0.00    -0.104 C  
HETATM   35  O   UNL     1      -6.927   9.871  65.143  1.00  0.00    -0.114 OA 
BRANCH  34  36
HETATM   36  C   UNL     1      -9.227  10.116  65.907  1.00  0.00    -0.162 C  
HETATM   37  O   UNL     1      -9.372  11.239  65.024  1.00  0.00    -0.238 OA 
HETATM   38  H   UNL     1     -10.158  11.725  65.244  1.00  0.00     0.000 HD 
BRANCH  36  39
HETATM   39  C   UNL     1      -9.268  10.589  67.387  1.00  0.00    -0.154 C  
HETATM   40  C   UNL     1      -7.856  10.916  67.914  1.00  0.00    -0.109 C  
HETATM   41  C   UNL     1     -10.104  11.888  67.470  1.00  0.00    -0.206 C  
BRANCH  39  42
HETATM   42  C   UNL     1      -9.928   9.503  68.271  1.00  0.00    -0.161 C  
HETATM   43  O   UNL     1     -10.788   8.656  67.515  1.00  0.00    -0.477 OA 
HETATM   44  H   UNL     1     -11.192   7.989  68.058  1.00  0.00     0.000 HD 
ENDBRANCH  39  42
ENDBRANCH  36  39
ENDBRANCH  34  36
ENDBRANCH  31  32
ENDBRANCH  30  31
ENDBRANCH  28  30
ENDBRANCH  25  26
ENDBRANCH  24  25
ENDBRANCH  23  24
ENDBRANCH  22  23
ENDBRANCH  21  22
ENDBRANCH  20  21
ENDBRANCH  18  20
ENDBRANCH  15  16
ENDBRANCH  14  15
ENDBRANCH  12  14
ENDBRANCH   7  10
ENDBRANCH   2   7
TORSDOF 19
ENDMDL
MODEL      289
REMARK 921   NORMALIZED FREE ENERGY PREDICTED BY IDOCK:   -3.30 KCAL/MOL
REMARK 922        TOTAL FREE ENERGY PREDICTED BY IDOCK:   -9.14 KCAL/MOL
REMARK 923 INTER-LIGAND FREE ENERGY PREDICTED BY IDOCK:   -7.94 KCAL/MOL
REMARK 924 INTRA-LIGAND FREE ENERGY PREDICTED BY IDOCK:   -1.20 KCAL/MOL
REMARK 927      BINDING AFFINITY PREDICTED BY RF-SCORE:    0.00 PKD
ROOT
HETATM    1  C   UNL     1     -10.054   9.085  70.710  1.00  0.00    -0.303 C  
HETATM    2  C   UNL     1      -9.612   8.284  69.470  1.00  0.00    -0.171 C  
HETATM    3  C   UNL     1      -8.112   7.920  69.596  1.00  0.00    -0.117 C  
ENDROOT
BRANCH   2   4
HETATM    4  C   UNL     1     -10.388   6.951  69.429  1.00  0.00    -0.204 C  
HETATM    5  O   UNL     1     -10.922   6.702  68.131  1.00  0.00    -0.362 OA 
HETATM    6  H   UNL     1     -11.401   5.881  68.106  1.00  0.00     0.000 HD 
ENDBRANCH   2   4
BRANCH   2   7
HETATM    7  C   UNL     1      -9.869   9.085  68.155  1.00  0.00    -0.166 C  
HETATM    8  O   UNL     1     -11.266   9.188  67.830  1.00  0.00    -0.474 OA 
HETATM    9  H   UNL     1     -11.423   9.676  67.030  1.00  0.00     0.000 HD 
BRANCH   7  10
HETATM   10  C   UNL     1      -9.281  10.513  68.135  1.00  0.00    -0.148 C  
HETATM   11  O   UNL     1      -9.829  11.501  68.616  1.00  0.00    -0.199 OA 
HETATM   12  N   UNL     1      -8.023  10.571  67.578  1.00  0.00    -0.106 N  
HETATM   13  H   UNL     1      -7.632   9.742  67.129  1.00  0.00     0.000 HD 
BRANCH  12  14
HETATM   14  C   UNL     1      -7.249  11.792  67.621  1.00  0.00    -0.111 C  
BRANCH  14  15
HETATM   15  C   UNL     1      -6.953  12.267  69.040  1.00  0.00    -0.078 C  
BRANCH  15  16
HETATM   16  C   UNL     1      -6.950  13.779  69.052  1.00  0.00    -0.104 C  
HETATM   17  O   UNL     1      -5.914  14.426  68.937  1.00  0.00    -0.083 OA 
HETATM   18  N   UNL     1      -8.198  14.346  69.173  1.00  0.00    -0.349 N  
HETATM   19  H   UNL     1      -8.998  13.715  69.213  1.00  0.00     0.000 HD 
BRANCH  18  20
HETATM   20  C   UNL     1      -8.471  15.784  69.250  1.00  0.00    -0.258 C  
BRANCH  20  21
HETATM   21  C   UNL     1      -9.463  16.362  68.237  1.00  0.00    -0.217 C  
BRANCH  21  22
HETATM   22  S   UNL     1     -11.232  16.114  68.651  1.00  0.00    -0.359 SA 
BRANCH  22  23
HETATM   23  S   UNL     1     -11.715  14.331  67.738  1.00  0.00    -0.378 SA 
BRANCH  23  24
HETATM   24  C   UNL     1     -11.532  14.763  65.976  1.00  0.00    -0.316 C  
BRANCH  24  25
HETATM   25  C   UNL     1     -10.152  14.360  65.449  1.00  0.00    -0.359 C  
BRANCH  25  26
HETATM   26  N   UNL     1     -10.174  13.438  64.316  1.00  0.00    -0.669 N  
HETATM   27  H   UNL     1      -9.880  13.789  63.404  1.00  0.00     0.000 HD 
HETATM   28  C   UNL     1     -10.568  12.120  64.411  1.00  0.00    -0.323 C  
HETATM   29  O   UNL     1     -10.991  11.608  65.442  1.00  0.00    -0.299 OA 
BRANCH  28  30
HETATM   30  C   UNL     1     -10.401  11.323  63.138  1.00  0.00    -0.338 C  
BRANCH  30  31
HETATM   31  C   UNL     1      -8.919  11.172  62.812  1.00  0.00    -0.289 C  
BRANCH  31  32
HETATM   32  N   UNL     1      -8.526   9.782  62.679  1.00  0.00    -0.155 N  
HETATM   33  H   UNL     1      -8.370   9.402  61.746  1.00  0.00     0.000 HD 
HETATM   34  C   UNL     1      -8.358   8.957  63.767  1.00  0.00    -0.161 C  
HETATM   35  O   UNL     1      -8.610   9.296  64.919  1.00  0.00    -0.160 OA 
BRANCH  34  36
HETATM   36  C   UNL     1      -7.888   7.530  63.405  1.00  0.00    -0.124 C  
HETATM   37  O   UNL     1      -8.508   6.573  64.278  1.00  0.00    -0.337 OA 
HETATM   38  H   UNL     1      -8.218   5.696  64.056  1.00  0.00     0.000 HD 
BRANCH  36  39
HETATM   39  C   UNL     1      -6.343   7.362  63.435  1.00  0.00    -0.053 C  
HETATM   40  C   UNL     1      -5.660   8.227  62.356  1.00  0.00    -0.071 C  
HETATM   41  C   UNL     1      -5.818   7.840  64.809  1.00  0.00    -0.038 C  
BRANCH  39  42
HETATM   42  C   UNL     1      -5.971   5.872  63.238  1.00  0.00    -0.021 C  
HETATM   43  O   UNL     1      -7.126   5.044  63.160  1.00  0.00    -0.041 OA 
HETATM   44  H   UNL     1      -6.897   4.129  63.039  1.00  0.00     0.000 HD 
ENDBRANCH  39  42
ENDBRANCH  36  39
ENDBRANCH  34  36
ENDBRANCH  31  32
ENDBRANCH  30  31
ENDBRANCH  28  30
ENDBRANCH  25  26
ENDBRANCH  24  25
ENDBRANCH  23  24
ENDBRANCH  22  23
ENDBRANCH  21  22
ENDBRANCH  20  21
ENDBRANCH  18  20
ENDBRANCH  15  16
ENDBRANCH  14  15
ENDBRANCH  12  14
ENDBRANCH   7  10
ENDBRANCH   2   7
TORSDOF 19
ENDMDL
MODEL      290
REMARK 921   NORMALIZED FREE ENERGY PREDICTED BY IDOCK:   -3.27 KCAL/MOL
REMARK 922        TOTAL FREE ENERGY PREDICTED BY IDOCK:   -9.07 KCAL/MOL
REMARK 923 INTER-LIGAND FREE ENERGY PREDICTED BY IDOCK:   -6.81 KCAL/MOL
REMARK 924 INTRA-LIGAND FREE ENERGY PREDICTED BY IDOCK:   -2.26 KCAL/MOL
REMARK 927      BINDING AFFINITY PREDICTED BY RF-SCORE:    0.00 PKD
ROOT
HETATM    1  C   UNL     1     -10.155   3.968  65.708  1.00  0.00    -0.112 C  
HETATM    2  C   UNL     1      -8.869   3.250  66.158  1.00  0.00    -0.139 C  
HETATM    3  C   UNL     1      -8.820   3.196  67.705  1.00  0.00    -0.161 C  
ENDROOT
BRANCH   2   4
HETATM    4  C   UNL     1      -8.911   1.788  65.666  1.00  0.00    -0.124 C  
HETATM    5  O   UNL     1      -7.759   1.469  64.889  1.00  0.00    -0.061 OA 
HETATM    6  H   UNL     1      -7.785   0.569  64.586  1.00  0.00     0.000 HD 
ENDBRANCH   2   4
BRANCH   2   7
HETATM    7  C   UNL     1      -7.597   3.959  65.596  1.00  0.00    -0.082 C  
HETATM    8  O   UNL     1      -7.673   4.205  64.182  1.00  0.00    -0.080 OA 
HETATM    9  H   UNL     1      -6.899   4.636  63.840  1.00  0.00     0.000 HD 
BRANCH   7  10
HETATM   10  C   UNL     1      -7.238   5.296  66.280  1.00  0.00    -0.073 C  
HETATM   11  O   UNL     1      -7.748   6.379  66.008  1.00  0.00    -0.088 OA 
HETATM   12  N   UNL     1      -6.324   5.153  67.300  1.00  0.00    -0.039 N  
HETATM   13  H   UNL     1      -5.874   4.250  67.451  1.00  0.00     0.000 HD 
BRANCH  12  14
HETATM   14  C   UNL     1      -5.993   6.267  68.161  1.00  0.00    -0.016 C  
BRANCH  14  15
HETATM   15  C   UNL     1      -6.755   6.255  69.482  1.00  0.00    -0.056 C  
BRANCH  15  16
HETATM   16  C   UNL     1      -7.799   7.349  69.448  1.00  0.00    -0.122 C  
HETATM   17  O   UNL     1      -8.740   7.370  70.235  1.00  0.00    -0.143 OA 
HETATM   18  N   UNL     1      -7.579   8.310  68.488  1.00  0.00    -0.098 N  
HETATM   19  H   UNL     1      -6.739   8.220  67.919  1.00  0.00     0.000 HD 
BRANCH  18  20
HETATM   20  C   UNL     1      -8.456   9.453  68.219  1.00  0.00    -0.120 C  
BRANCH  20  21
HETATM   21  C   UNL     1      -8.401  10.624  69.204  1.00  0.00    -0.135 C  
BRANCH  21  22
HETATM   22  S   UNL     1      -6.732  11.337  69.472  1.00  0.00    -0.113 SA 
BRANCH  22  23
HETATM   23  S   UNL     1      -6.143  11.952  67.596  1.00  0.00    -0.099 SA 
BRANCH  23  24
HETATM   24  C   UNL     1      -6.450  13.747  67.688  1.00  0.00    -0.150 C  
BRANCH  24  25
HETATM   25  C   UNL     1      -6.918  14.156  69.087  1.00  0.00    -0.111 C  
BRANCH  25  26
HETATM   26  N   UNL     1      -8.262  14.728  69.141  1.00  0.00    -0.281 N  
HETATM   27  H   UNL     1      -9.040  14.108  69.368  1.00  0.00     0.000 HD 
HETATM   28  C   UNL     1      -8.535  16.058  68.903  1.00  0.00    -0.232 C  
HETATM   29  O   UNL     1      -7.687  16.879  68.568  1.00  0.00    -0.205 OA 
BRANCH  28  30
HETATM   30  C   UNL     1      -9.977  16.451  69.126  1.00  0.00    -0.273 C  
BRANCH  30  31
HETATM   31  C   UNL     1     -10.818  15.205  69.389  1.00  0.00    -0.262 C  
BRANCH  31  32
HETATM   32  N   UNL     1     -11.553  14.783  68.212  1.00  0.00    -0.311 N  
HETATM   33  H   UNL     1     -12.462  15.205  68.022  1.00  0.00     0.000 HD 
HETATM   34  C   UNL     1     -11.069  13.834  67.342  1.00  0.00    -0.296 C  
HETATM   35  O   UNL     1     -10.031  13.206  67.534  1.00  0.00    -0.217 OA 
BRANCH  34  36
HETATM   36  C   UNL     1     -11.987  13.570  66.128  1.00  0.00    -0.412 C  
HETATM   37  O   UNL     1     -12.298  12.170  66.044  1.00  0.00    -0.550 OA 
HETATM   38  H   UNL     1     -12.863  12.008  65.297  1.00  0.00     0.000 HD 
BRANCH  36  39
HETATM   39  C   UNL     1     -11.389  14.067  64.782  1.00  0.00    -0.366 C  
HETATM   40  C   UNL     1     -10.672  15.422  64.949  1.00  0.00    -0.416 C  
HETATM   41  C   UNL     1     -10.335  13.044  64.298  1.00  0.00    -0.385 C  
BRANCH  39  42
HETATM   42  C   UNL     1     -12.508  14.185  63.719  1.00  0.00     0.044 C  
HETATM   43  O   UNL     1     -13.016  12.910  63.341  1.00  0.00    -0.526 OA 
HETATM   44  H   UNL     1     -13.703  12.982  62.688  1.00  0.00     0.000 HD 
ENDBRANCH  39  42
ENDBRANCH  36  39
ENDBRANCH  34  36
ENDBRANCH  31  32
ENDBRANCH  30  31
ENDBRANCH  28  30
ENDBRANCH  25  26
ENDBRANCH  24  25
ENDBRANCH  23  24
ENDBRANCH  22  23
ENDBRANCH  21  22
ENDBRANCH  20  21
ENDBRANCH  18  20
ENDBRANCH  15  16
ENDBRANCH  14  15
ENDBRANCH  12  14
ENDBRANCH   7  10
ENDBRANCH   2   7
TORSDOF 19
ENDMDL
MODEL      291
REMARK 921   NORMALIZED FREE ENERGY PREDICTED BY IDOCK:   -3.26 KCAL/MOL
REMARK 922        TOTAL FREE ENERGY PREDICTED BY IDOCK:   -9.05 KCAL/MOL
REMARK 923 INTER-LIGAND FREE ENERGY PREDICTED BY IDOCK:   -7.15 KCAL/MOL
REMARK 924 INTRA-LIGAND FREE ENERGY PREDICTED BY IDOCK:   -1.91 KCAL/MOL
REMARK 927      BINDING AFFINITY PREDICTED BY RF-SCORE:    0.00 PKD
ROOT
HETATM    1  C   UNL     1      -6.541  13.177  69.291  1.00  0.00    -0.091 C  
HETATM    2  C   UNL     1      -6.387  14.706  69.392  1.00  0.00    -0.125 C  
HETATM    3  C   UNL     1      -7.787  15.369  69.406  1.00  0.00    -0.232 C  
ENDROOT
BRANCH   2   4
HETATM    4  C   UNL     1      -5.720  15.056  70.740  1.00  0.00    -0.094 C  
HETATM    5  O   UNL     1      -5.521  16.461  70.871  1.00  0.00    -0.121 OA 
HETATM    6  H   UNL     1      -5.110  16.676  71.700  1.00  0.00     0.000 HD 
ENDBRANCH   2   4
BRANCH   2   7
HETATM    7  C   UNL     1      -5.528  15.270  68.218  1.00  0.00    -0.118 C  
HETATM    8  O   UNL     1      -5.212  14.275  67.229  1.00  0.00    -0.282 OA 
HETATM    9  H   UNL     1      -4.690  14.618  66.515  1.00  0.00     0.000 HD 
BRANCH   7  10
HETATM   10  C   UNL     1      -6.146  16.478  67.479  1.00  0.00    -0.149 C  
HETATM   11  O   UNL     1      -6.854  16.398  66.479  1.00  0.00    -0.213 OA 
HETATM   12  N   UNL     1      -5.885  17.680  68.097  1.00  0.00    -0.153 N  
HETATM   13  H   UNL     1      -5.238  17.712  68.885  1.00  0.00     0.000 HD 
BRANCH  12  14
HETATM   14  C   UNL     1      -6.516  18.899  67.644  1.00  0.00    -0.202 C  
BRANCH  14  15
HETATM   15  C   UNL     1      -7.561  19.434  68.617  1.00  0.00    -0.398 C  
BRANCH  15  16
HETATM   16  C   UNL     1      -8.925  18.953  68.175  1.00  0.00    -0.311 C  
HETATM   17  O   UNL     1      -9.893  18.970  68.929  1.00  0.00    -0.401 OA 
HETATM   18  N   UNL     1      -8.979  18.531  66.866  1.00  0.00    -0.272 N  
HETATM   19  H   UNL     1      -8.125  18.606  66.314  1.00  0.00     0.000 HD 
BRANCH  18  20
HETATM   20  C   UNL     1     -10.165  17.983  66.202  1.00  0.00    -0.363 C  
BRANCH  20  21
HETATM   21  C   UNL     1     -10.421  16.482  66.357  1.00  0.00    -0.274 C  
BRANCH  21  22
HETATM   22  S   UNL     1     -10.858  15.602  64.808  1.00  0.00    -0.233 SA 
BRANCH  22  23
HETATM   23  S   UNL     1     -10.287  13.654  65.161  1.00  0.00    -0.355 SA 
BRANCH  23  24
HETATM   24  C   UNL     1     -11.406  13.188  66.524  1.00  0.00    -0.315 C  
BRANCH  24  25
HETATM   25  C   UNL     1     -10.688  13.251  67.874  1.00  0.00    -0.239 C  
BRANCH  25  26
HETATM   26  N   UNL     1     -10.424  11.953  68.490  1.00  0.00    -0.219 N  
HETATM   27  H   UNL     1     -11.055  11.632  69.225  1.00  0.00     0.000 HD 
HETATM   28  C   UNL     1      -9.370  11.139  68.132  1.00  0.00    -0.176 C  
HETATM   29  O   UNL     1      -8.521  11.448  67.304  1.00  0.00    -0.139 OA 
BRANCH  28  30
HETATM   30  C   UNL     1      -9.357   9.793  68.821  1.00  0.00    -0.150 C  
BRANCH  30  31
HETATM   31  C   UNL     1      -8.062   9.057  68.494  1.00  0.00    -0.107 C  
BRANCH  31  32
HETATM   32  N   UNL     1      -8.057   7.702  69.011  1.00  0.00    -0.124 N  
HETATM   33  H   UNL     1      -8.048   7.561  70.021  1.00  0.00     0.000 HD 
HETATM   34  C   UNL     1      -8.065   6.600  68.188  1.00  0.00    -0.111 C  
HETATM   35  O   UNL     1      -7.985   6.667  66.965  1.00  0.00    -0.106 OA 
BRANCH  34  36
HETATM   36  C   UNL     1      -8.111   5.253  68.945  1.00  0.00    -0.086 C  
HETATM   37  O   UNL     1      -7.256   4.298  68.298  1.00  0.00    -0.058 OA 
HETATM   38  H   UNL     1      -7.284   3.470  68.763  1.00  0.00     0.000 HD 
BRANCH  36  39
HETATM   39  C   UNL     1      -9.546   4.675  69.090  1.00  0.00    -0.245 C  
HETATM   40  C   UNL     1     -10.454   5.118  67.925  1.00  0.00    -0.100 C  
HETATM   41  C   UNL     1      -9.466   3.130  69.050  1.00  0.00    -0.177 C  
BRANCH  39  42
HETATM   42  C   UNL     1     -10.159   5.117  70.441  1.00  0.00    -0.262 C  
HETATM   43  O   UNL     1      -9.166   5.592  71.343  1.00  0.00    -0.145 OA 
HETATM   44  H   UNL     1      -9.542   5.864  72.172  1.00  0.00     0.000 HD 
ENDBRANCH  39  42
ENDBRANCH  36  39
ENDBRANCH  34  36
ENDBRANCH  31  32
ENDBRANCH  30  31
ENDBRANCH  28  30
ENDBRANCH  25  26
ENDBRANCH  24  25
ENDBRANCH  23  24
ENDBRANCH  22  23
ENDBRANCH  21  22
ENDBRANCH  20  21
ENDBRANCH  18  20
ENDBRANCH  15  16
ENDBRANCH  14  15
ENDBRANCH  12  14
ENDBRANCH   7  10
ENDBRANCH   2   7
TORSDOF 19
ENDMDL
MODEL      292
REMARK 921   NORMALIZED FREE ENERGY PREDICTED BY IDOCK:   -3.24 KCAL/MOL
REMARK 922        TOTAL FREE ENERGY PREDICTED BY IDOCK:   -9.02 KCAL/MOL
REMARK 923 INTER-LIGAND FREE ENERGY PREDICTED BY IDOCK:   -6.94 KCAL/MOL
REMARK 924 INTRA-LIGAND FREE ENERGY PREDICTED BY IDOCK:   -2.08 KCAL/MOL
REMARK 927      BINDING AFFINITY PREDICTED BY RF-SCORE:    0.00 PKD
ROOT
HETATM    1  C   UNL     1      -9.998  13.024  67.069  1.00  0.00    -0.242 C  
HETATM    2  C   UNL     1      -9.271  11.670  67.168  1.00  0.00    -0.176 C  
HETATM    3  C   UNL     1      -9.353  10.937  65.806  1.00  0.00    -0.232 C  
ENDROOT
BRANCH   2   4
HETATM    4  C   UNL     1      -7.774  11.921  67.444  1.00  0.00    -0.158 C  
HETATM    5  O   UNL     1      -6.953  10.983  66.752  1.00  0.00    -0.114 OA 
HETATM    6  H   UNL     1      -6.032  11.137  66.923  1.00  0.00     0.000 HD 
ENDBRANCH   2   4
BRANCH   2   7
HETATM    7  C   UNL     1      -9.874  10.782  68.302  1.00  0.00    -0.166 C  
HETATM    8  O   UNL     1      -9.009  10.675  69.445  1.00  0.00    -0.342 OA 
HETATM    9  H   UNL     1      -9.376  10.135  70.135  1.00  0.00     0.000 HD 
BRANCH   7  10
HETATM   10  C   UNL     1     -11.262  11.228  68.811  1.00  0.00    -0.250 C  
HETATM   11  O   UNL     1     -12.279  11.267  68.125  1.00  0.00    -0.622 OA 
HETATM   12  N   UNL     1     -11.276  11.518  70.158  1.00  0.00    -0.475 N  
HETATM   13  H   UNL     1     -10.398  11.539  70.677  1.00  0.00     0.000 HD 
BRANCH  12  14
HETATM   14  C   UNL     1     -12.519  11.792  70.844  1.00  0.00    -0.318 C  
BRANCH  14  15
HETATM   15  C   UNL     1     -13.265  10.531  71.266  1.00  0.00    -0.399 C  
BRANCH  15  16
HETATM   16  C   UNL     1     -12.280   9.386  71.333  1.00  0.00    -0.356 C  
HETATM   17  O   UNL     1     -11.098   9.564  71.613  1.00  0.00    -0.371 OA 
HETATM   18  N   UNL     1     -12.831   8.150  71.083  1.00  0.00    -0.503 N  
HETATM   19  H   UNL     1     -13.834   8.111  70.909  1.00  0.00     0.000 HD 
BRANCH  18  20
HETATM   20  C   UNL     1     -12.092   6.886  71.047  1.00  0.00    -0.380 C  
BRANCH  20  21
HETATM   21  C   UNL     1     -11.987   6.100  72.357  1.00  0.00    -0.190 C  
BRANCH  21  22
HETATM   22  S   UNL     1     -10.387   6.266  73.239  1.00  0.00    -0.249 SA 
BRANCH  22  23
HETATM   23  S   UNL     1     -10.056   4.392  74.031  1.00  0.00    -0.199 SA 
BRANCH  23  24
HETATM   24  C   UNL     1      -8.292   4.493  74.479  1.00  0.00    -0.097 C  
BRANCH  24  25
HETATM   25  C   UNL     1      -7.584   5.599  73.692  1.00  0.00    -0.094 C  
BRANCH  25  26
HETATM   26  N   UNL     1      -6.687   5.126  72.641  1.00  0.00    -0.067 N  
HETATM   27  H   UNL     1      -5.715   4.938  72.886  1.00  0.00     0.000 HD 
HETATM   28  C   UNL     1      -7.082   4.920  71.335  1.00  0.00    -0.056 C  
HETATM   29  O   UNL     1      -8.209   5.166  70.918  1.00  0.00    -0.105 OA 
BRANCH  28  30
HETATM   30  C   UNL     1      -6.017   4.321  70.446  1.00  0.00    -0.017 C  
BRANCH  30  31
HETATM   31  C   UNL     1      -5.213   5.433  69.780  1.00  0.00    -0.004 C  
BRANCH  31  32
HETATM   32  N   UNL     1      -6.035   6.260  68.915  1.00  0.00    -0.020 N  
HETATM   33  H   UNL     1      -6.574   7.020  69.330  1.00  0.00     0.000 HD 
HETATM   34  C   UNL     1      -6.113   6.055  67.558  1.00  0.00    -0.018 C  
HETATM   35  O   UNL     1      -5.576   5.114  66.982  1.00  0.00    -0.012 OA 
BRANCH  34  36
HETATM   36  C   UNL     1      -7.004   7.080  66.820  1.00  0.00    -0.073 C  
HETATM   37  O   UNL     1      -7.384   8.135  67.718  1.00  0.00    -0.089 OA 
HETATM   38  H   UNL     1      -7.932   8.765  67.264  1.00  0.00     0.000 HD 
BRANCH  36  39
HETATM   39  C   UNL     1      -8.268   6.448  66.173  1.00  0.00    -0.122 C  
HETATM   40  C   UNL     1      -9.440   7.450  66.128  1.00  0.00    -0.076 C  
HETATM   41  C   UNL     1      -7.937   6.060  64.713  1.00  0.00    -0.127 C  
BRANCH  39  42
HETATM   42  C   UNL     1      -8.683   5.178  66.955  1.00  0.00    -0.103 C  
HETATM   43  O   UNL     1      -9.602   5.478  68.001  1.00  0.00    -0.117 OA 
HETATM   44  H   UNL     1      -9.857   4.699  68.481  1.00  0.00     0.000 HD 
ENDBRANCH  39  42
ENDBRANCH  36  39
ENDBRANCH  34  36
ENDBRANCH  31  32
ENDBRANCH  30  31
ENDBRANCH  28  30
ENDBRANCH  25  26
ENDBRANCH  24  25
ENDBRANCH  23  24
ENDBRANCH  22  23
ENDBRANCH  21  22
ENDBRANCH  20  21
ENDBRANCH  18  20
ENDBRANCH  15  16
ENDBRANCH  14  15
ENDBRANCH  12  14
ENDBRANCH   7  10
ENDBRANCH   2   7
TORSDOF 19
ENDMDL
MODEL      293
REMARK 921   NORMALIZED FREE ENERGY PREDICTED BY IDOCK:   -3.22 KCAL/MOL
REMARK 922        TOTAL FREE ENERGY PREDICTED BY IDOCK:   -8.97 KCAL/MOL
REMARK 923 INTER-LIGAND FREE ENERGY PREDICTED BY IDOCK:   -8.39 KCAL/MOL
REMARK 924 INTRA-LIGAND FREE ENERGY PREDICTED BY IDOCK:   -0.58 KCAL/MOL
REMARK 927      BINDING AFFINITY PREDICTED BY RF-SCORE:    0.00 PKD
ROOT
HETATM    1  C   UNL     1      -8.539   6.473  66.199  1.00  0.00    -0.146 C  
HETATM    2  C   UNL     1      -9.509   5.969  67.284  1.00  0.00    -0.119 C  
HETATM    3  C   UNL     1     -10.968   6.236  66.840  1.00  0.00    -0.404 C  
ENDROOT
BRANCH   2   4
HETATM    4  C   UNL     1      -9.361   4.438  67.418  1.00  0.00    -0.155 C  
HETATM    5  O   UNL     1      -9.933   3.762  66.301  1.00  0.00    -0.399 OA 
HETATM    6  H   UNL     1      -9.842   2.820  66.384  1.00  0.00     0.000 HD 
ENDBRANCH   2   4
BRANCH   2   7
HETATM    7  C   UNL     1      -9.225   6.648  68.661  1.00  0.00    -0.128 C  
HETATM    8  O   UNL     1     -10.076   6.158  69.711  1.00  0.00    -0.166 OA 
HETATM    9  H   UNL     1      -9.903   6.571  70.548  1.00  0.00     0.000 HD 
BRANCH   7  10
HETATM   10  C   UNL     1      -7.766   6.534  69.156  1.00  0.00    -0.102 C  
HETATM   11  O   UNL     1      -7.020   5.588  68.922  1.00  0.00    -0.056 OA 
HETATM   12  N   UNL     1      -7.340   7.651  69.841  1.00  0.00    -0.079 N  
HETATM   13  H   UNL     1      -8.009   8.386  70.072  1.00  0.00     0.000 HD 
BRANCH  12  14
HETATM   14  C   UNL     1      -5.956   7.794  70.236  1.00  0.00    -0.029 C  
BRANCH  14  15
HETATM   15  C   UNL     1      -5.257   8.972  69.565  1.00  0.00    -0.035 C  
BRANCH  15  16
HETATM   16  C   UNL     1      -6.055  10.227  69.839  1.00  0.00    -0.062 C  
HETATM   17  O   UNL     1      -6.531  10.463  70.945  1.00  0.00    -0.327 OA 
HETATM   18  N   UNL     1      -6.168  11.073  68.759  1.00  0.00    -0.043 N  
HETATM   19  H   UNL     1      -5.692  10.801  67.900  1.00  0.00     0.000 HD 
BRANCH  18  20
HETATM   20  C   UNL     1      -6.918  12.331  68.744  1.00  0.00    -0.098 C  
BRANCH  20  21
HETATM   21  C   UNL     1      -7.862  12.568  67.562  1.00  0.00    -0.168 C  
BRANCH  21  22
HETATM   22  S   UNL     1      -8.951  11.154  67.139  1.00  0.00    -0.147 SA 
BRANCH  22  23
HETATM   23  S   UNL     1      -9.780  10.604  68.943  1.00  0.00    -0.201 SA 
BRANCH  23  24
HETATM   24  C   UNL     1     -11.427  11.379  68.838  1.00  0.00    -0.298 C  
BRANCH  24  25
HETATM   25  C   UNL     1     -11.586  12.164  67.534  1.00  0.00    -0.343 C  
BRANCH  25  26
HETATM   26  N   UNL     1     -11.322  13.597  67.644  1.00  0.00    -0.286 N  
HETATM   27  H   UNL     1     -10.731  14.033  66.936  1.00  0.00     0.000 HD 
HETATM   28  C   UNL     1     -11.828  14.391  68.651  1.00  0.00    -0.331 C  
HETATM   29  O   UNL     1     -12.502  13.964  69.583  1.00  0.00    -0.300 OA 
BRANCH  28  30
HETATM   30  C   UNL     1     -11.520  15.863  68.502  1.00  0.00    -0.377 C  
BRANCH  30  31
HETATM   31  C   UNL     1     -10.087  16.045  68.012  1.00  0.00    -0.240 C  
BRANCH  31  32
HETATM   32  N   UNL     1      -9.701  17.443  67.956  1.00  0.00    -0.271 N  
HETATM   33  H   UNL     1      -9.661  17.977  68.824  1.00  0.00     0.000 HD 
HETATM   34  C   UNL     1      -9.387  18.073  66.775  1.00  0.00    -0.284 C  
HETATM   35  O   UNL     1      -9.493  17.541  65.674  1.00  0.00    -0.498 OA 
BRANCH  34  36
HETATM   36  C   UNL     1      -8.953  19.546  66.947  1.00  0.00    -0.325 C  
HETATM   37  O   UNL     1      -9.588  20.363  65.951  1.00  0.00    -0.653 OA 
HETATM   38  H   UNL     1      -9.321  21.269  66.057  1.00  0.00     0.000 HD 
BRANCH  36  39
HETATM   39  C   UNL     1      -7.413  19.746  66.901  1.00  0.00    -0.266 C  
HETATM   40  C   UNL     1      -6.968  20.910  67.812  1.00  0.00    -0.312 C  
HETATM   41  C   UNL     1      -6.729  18.463  67.427  1.00  0.00    -0.204 C  
BRANCH  39  42
HETATM   42  C   UNL     1      -6.957  20.006  65.445  1.00  0.00    -0.302 C  
HETATM   43  O   UNL     1      -5.935  20.996  65.379  1.00  0.00    -0.241 OA 
HETATM   44  H   UNL     1      -5.655  21.156  64.486  1.00  0.00     0.000 HD 
ENDBRANCH  39  42
ENDBRANCH  36  39
ENDBRANCH  34  36
ENDBRANCH  31  32
ENDBRANCH  30  31
ENDBRANCH  28  30
ENDBRANCH  25  26
ENDBRANCH  24  25
ENDBRANCH  23  24
ENDBRANCH  22  23
ENDBRANCH  21  22
ENDBRANCH  20  21
ENDBRANCH  18  20
ENDBRANCH  15  16
ENDBRANCH  14  15
ENDBRANCH  12  14
ENDBRANCH   7  10
ENDBRANCH   2   7
TORSDOF 19
ENDMDL
MODEL      294
REMARK 921   NORMALIZED FREE ENERGY PREDICTED BY IDOCK:   -3.22 KCAL/MOL
REMARK 922        TOTAL FREE ENERGY PREDICTED BY IDOCK:   -8.97 KCAL/MOL
REMARK 923 INTER-LIGAND FREE ENERGY PREDICTED BY IDOCK:   -8.58 KCAL/MOL
REMARK 924 INTRA-LIGAND FREE ENERGY PREDICTED BY IDOCK:   -0.39 KCAL/MOL
REMARK 927      BINDING AFFINITY PREDICTED BY RF-SCORE:    0.00 PKD
ROOT
HETATM    1  C   UNL     1      -6.195  13.781  68.291  1.00  0.00    -0.110 C  
HETATM    2  C   UNL     1      -6.604  15.008  69.127  1.00  0.00    -0.120 C  
HETATM    3  C   UNL     1      -8.124  14.955  69.418  1.00  0.00    -0.103 C  
ENDROOT
BRANCH   2   4
HETATM    4  C   UNL     1      -5.890  14.947  70.494  1.00  0.00    -0.143 C  
HETATM    5  O   UNL     1      -6.612  14.139  71.420  1.00  0.00    -0.315 OA 
HETATM    6  H   UNL     1      -6.172  14.102  72.262  1.00  0.00     0.000 HD 
ENDBRANCH   2   4
BRANCH   2   7
HETATM    7  C   UNL     1      -6.235  16.339  68.399  1.00  0.00    -0.119 C  
HETATM    8  O   UNL     1      -5.519  16.124  67.172  1.00  0.00    -0.306 OA 
HETATM    9  H   UNL     1      -5.295  16.934  66.729  1.00  0.00     0.000 HD 
BRANCH   7  10
HETATM   10  C   UNL     1      -7.433  17.263  68.081  1.00  0.00    -0.208 C  
HETATM   11  O   UNL     1      -7.785  18.213  68.774  1.00  0.00    -0.297 OA 
HETATM   12  N   UNL     1      -8.042  16.963  66.883  1.00  0.00    -0.197 N  
HETATM   13  H   UNL     1      -7.762  16.126  66.371  1.00  0.00     0.000 HD 
BRANCH  12  14
HETATM   14  C   UNL     1      -9.073  17.820  66.342  1.00  0.00    -0.234 C  
BRANCH  14  15
HETATM   15  C   UNL     1     -10.482  17.278  66.559  1.00  0.00    -0.260 C  
BRANCH  15  16
HETATM   16  C   UNL     1     -10.886  16.480  65.340  1.00  0.00    -0.206 C  
HETATM   17  O   UNL     1     -11.263  17.024  64.306  1.00  0.00    -1.186 OA 
HETATM   18  N   UNL     1     -10.765  15.117  65.490  1.00  0.00    -0.340 N  
HETATM   19  H   UNL     1     -10.395  14.775  66.376  1.00  0.00     0.000 HD 
BRANCH  18  20
HETATM   20  C   UNL     1     -11.125  14.120  64.479  1.00  0.00    -0.330 C  
BRANCH  20  21
HETATM   21  C   UNL     1     -11.631  12.765  64.984  1.00  0.00    -0.337 C  
BRANCH  21  22
HETATM   22  S   UNL     1     -11.497  12.510  66.795  1.00  0.00    -0.380 SA 
BRANCH  22  23
HETATM   23  S   UNL     1      -9.540  11.929  67.076  1.00  0.00    -0.192 SA 
BRANCH  23  24
HETATM   24  C   UNL     1      -9.127  11.238  65.440  1.00  0.00    -0.147 C  
BRANCH  24  25
HETATM   25  C   UNL     1      -9.892   9.937  65.181  1.00  0.00    -0.278 C  
BRANCH  25  26
HETATM   26  N   UNL     1      -9.268   8.738  65.736  1.00  0.00    -0.300 N  
HETATM   27  H   UNL     1      -8.460   8.347  65.251  1.00  0.00     0.000 HD 
HETATM   28  C   UNL     1      -9.712   8.106  66.878  1.00  0.00    -0.226 C  
HETATM   29  O   UNL     1     -10.705   8.455  67.509  1.00  0.00    -0.240 OA 
BRANCH  28  30
HETATM   30  C   UNL     1      -8.848   6.952  67.331  1.00  0.00    -0.118 C  
BRANCH  30  31
HETATM   31  C   UNL     1      -9.648   6.036  68.252  1.00  0.00    -0.119 C  
BRANCH  31  32
HETATM   32  N   UNL     1      -9.494   6.395  69.649  1.00  0.00    -0.147 N  
HETATM   33  H   UNL     1      -8.566   6.351  70.068  1.00  0.00     0.000 HD 
HETATM   34  C   UNL     1     -10.555   6.792  70.429  1.00  0.00    -0.227 C  
HETATM   35  O   UNL     1     -11.720   6.788  70.041  1.00  0.00    -0.337 OA 
BRANCH  34  36
HETATM   36  C   UNL     1     -10.163   7.177  71.872  1.00  0.00    -0.190 C  
HETATM   37  O   UNL     1      -9.941   8.594  71.959  1.00  0.00    -0.283 OA 
HETATM   38  H   UNL     1      -9.699   8.830  72.847  1.00  0.00     0.000 HD 
BRANCH  36  39
HETATM   39  C   UNL     1      -8.920   6.408  72.401  1.00  0.00    -0.134 C  
HETATM   40  C   UNL     1      -8.835   6.465  73.941  1.00  0.00    -0.137 C  
HETATM   41  C   UNL     1      -9.050   4.919  72.002  1.00  0.00    -0.156 C  
BRANCH  39  42
HETATM   42  C   UNL     1      -7.631   6.992  71.775  1.00  0.00    -0.088 C  
HETATM   43  O   UNL     1      -7.007   7.939  72.636  1.00  0.00    -0.070 OA 
HETATM   44  H   UNL     1      -6.215   8.298  72.252  1.00  0.00     0.000 HD 
ENDBRANCH  39  42
ENDBRANCH  36  39
ENDBRANCH  34  36
ENDBRANCH  31  32
ENDBRANCH  30  31
ENDBRANCH  28  30
ENDBRANCH  25  26
ENDBRANCH  24  25
ENDBRANCH  23  24
ENDBRANCH  22  23
ENDBRANCH  21  22
ENDBRANCH  20  21
ENDBRANCH  18  20
ENDBRANCH  15  16
ENDBRANCH  14  15
ENDBRANCH  12  14
ENDBRANCH   7  10
ENDBRANCH   2   7
TORSDOF 19
ENDMDL
MODEL      295
REMARK 921   NORMALIZED FREE ENERGY PREDICTED BY IDOCK:   -3.20 KCAL/MOL
REMARK 922        TOTAL FREE ENERGY PREDICTED BY IDOCK:   -8.93 KCAL/MOL
REMARK 923 INTER-LIGAND FREE ENERGY PREDICTED BY IDOCK:   -7.01 KCAL/MOL
REMARK 924 INTRA-LIGAND FREE ENERGY PREDICTED BY IDOCK:   -1.92 KCAL/MOL
REMARK 927      BINDING AFFINITY PREDICTED BY RF-SCORE:    0.00 PKD
ROOT
HETATM    1  C   UNL     1     -11.366  10.195  70.411  1.00  0.00    -0.401 C  
HETATM    2  C   UNL     1     -10.290   9.666  69.445  1.00  0.00    -0.226 C  
HETATM    3  C   UNL     1      -8.890   9.826  70.087  1.00  0.00    -0.226 C  
ENDROOT
BRANCH   2   4
HETATM    4  C   UNL     1     -10.507   8.153  69.231  1.00  0.00    -0.214 C  
HETATM    5  O   UNL     1     -11.125   7.889  67.974  1.00  0.00    -0.457 OA 
HETATM    6  H   UNL     1     -11.259   6.957  67.843  1.00  0.00     0.000 HD 
ENDBRANCH   2   4
BRANCH   2   7
HETATM    7  C   UNL     1     -10.348  10.404  68.071  1.00  0.00    -0.179 C  
HETATM    8  O   UNL     1     -11.622  11.021  67.821  1.00  0.00    -0.510 OA 
HETATM    9  H   UNL     1     -11.657  11.471  66.986  1.00  0.00     0.000 HD 
BRANCH   7  10
HETATM   10  C   UNL     1      -9.262  11.484  67.865  1.00  0.00    -0.168 C  
HETATM   11  O   UNL     1      -8.160  11.280  67.365  1.00  0.00    -0.126 OA 
HETATM   12  N   UNL     1      -9.677  12.744  68.234  1.00  0.00    -0.222 N  
HETATM   13  H   UNL     1     -10.574  12.861  68.707  1.00  0.00     0.000 HD 
BRANCH  12  14
HETATM   14  C   UNL     1      -8.858  13.904  67.961  1.00  0.00    -0.184 C  
BRANCH  14  15
HETATM   15  C   UNL     1      -9.657  15.200  67.880  1.00  0.00    -0.203 C  
BRANCH  15  16
HETATM   16  C   UNL     1     -10.787  15.011  66.892  1.00  0.00    -0.315 C  
HETATM   17  O   UNL     1     -11.772  14.329  67.158  1.00  0.00    -0.366 OA 
HETATM   18  N   UNL     1     -10.619  15.685  65.704  1.00  0.00    -0.356 N  
HETATM   19  H   UNL     1      -9.784  16.262  65.607  1.00  0.00     0.000 HD 
BRANCH  18  20
HETATM   20  C   UNL     1     -11.542  15.639  64.567  1.00  0.00    -0.262 C  
BRANCH  20  21
HETATM   21  C   UNL     1     -12.494  14.442  64.488  1.00  0.00    -0.339 C  
BRANCH  21  22
HETATM   22  S   UNL     1     -11.981  13.115  63.332  1.00  0.00    -0.332 SA 
BRANCH  22  23
HETATM   23  S   UNL     1     -11.626  11.495  64.555  1.00  0.00     0.024 SA 
BRANCH  23  24
HETATM   24  C   UNL     1      -9.805  11.417  64.537  1.00  0.00    -0.260 C  
BRANCH  24  25
HETATM   25  C   UNL     1      -9.315   9.984  64.321  1.00  0.00    -0.288 C  
BRANCH  25  26
HETATM   26  N   UNL     1      -8.222   9.570  65.197  1.00  0.00    -0.127 N  
HETATM   27  H   UNL     1      -7.365  10.125  65.193  1.00  0.00     0.000 HD 
HETATM   28  C   UNL     1      -8.284   8.471  66.028  1.00  0.00    -0.118 C  
HETATM   29  O   UNL     1      -9.239   7.703  66.073  1.00  0.00    -0.150 OA 
BRANCH  28  30
HETATM   30  C   UNL     1      -7.081   8.299  66.928  1.00  0.00    -0.078 C  
BRANCH  30  31
HETATM   31  C   UNL     1      -6.811   6.814  67.151  1.00  0.00    -0.069 C  
BRANCH  31  32
HETATM   32  N   UNL     1      -7.911   6.154  67.830  1.00  0.00    -0.104 N  
HETATM   33  H   UNL     1      -8.848   6.545  67.741  1.00  0.00     0.000 HD 
HETATM   34  C   UNL     1      -7.734   5.021  68.589  1.00  0.00    -0.078 C  
HETATM   35  O   UNL     1      -6.634   4.531  68.829  1.00  0.00    -0.043 OA 
BRANCH  34  36
HETATM   36  C   UNL     1      -9.043   4.452  69.180  1.00  0.00    -0.125 C  
HETATM   37  O   UNL     1     -10.173   4.986  68.473  1.00  0.00    -0.146 OA 
HETATM   38  H   UNL     1     -10.978   4.636  68.836  1.00  0.00     0.000 HD 
BRANCH  36  39
HETATM   39  C   UNL     1      -9.196   4.710  70.705  1.00  0.00    -0.197 C  
HETATM   40  C   UNL     1      -8.520   6.032  71.124  1.00  0.00    -0.125 C  
HETATM   41  C   UNL     1     -10.701   4.836  71.040  1.00  0.00     0.119 C  
BRANCH  39  42
HETATM   42  C   UNL     1      -8.594   3.528  71.503  1.00  0.00    -0.076 C  
HETATM   43  O   UNL     1      -8.000   3.962  72.723  1.00  0.00    -0.079 OA 
HETATM   44  H   UNL     1      -7.631   3.237  73.213  1.00  0.00     0.000 HD 
ENDBRANCH  39  42
ENDBRANCH  36  39
ENDBRANCH  34  36
ENDBRANCH  31  32
ENDBRANCH  30  31
ENDBRANCH  28  30
ENDBRANCH  25  26
ENDBRANCH  24  25
ENDBRANCH  23  24
ENDBRANCH  22  23
ENDBRANCH  21  22
ENDBRANCH  20  21
ENDBRANCH  18  20
ENDBRANCH  15  16
ENDBRANCH  14  15
ENDBRANCH  12  14
ENDBRANCH   7  10
ENDBRANCH   2   7
TORSDOF 19
ENDMDL
MODEL      296
REMARK 921   NORMALIZED FREE ENERGY PREDICTED BY IDOCK:   -3.19 KCAL/MOL
REMARK 922        TOTAL FREE ENERGY PREDICTED BY IDOCK:   -8.92 KCAL/MOL
REMARK 923 INTER-LIGAND FREE ENERGY PREDICTED BY IDOCK:   -8.49 KCAL/MOL
REMARK 924 INTRA-LIGAND FREE ENERGY PREDICTED BY IDOCK:   -0.43 KCAL/MOL
REMARK 927      BINDING AFFINITY PREDICTED BY RF-SCORE:    0.00 PKD
ROOT
HETATM    1  C   UNL     1     -10.415  20.231  68.482  1.00  0.00    -0.177 C  
HETATM    2  C   UNL     1      -9.738  19.421  67.361  1.00  0.00    -0.424 C  
HETATM    3  C   UNL     1     -10.603  19.487  66.078  1.00  0.00    -0.589 C  
ENDROOT
BRANCH   2   4
HETATM    4  C   UNL     1      -8.384  20.075  67.015  1.00  0.00    -0.323 C  
HETATM    5  O   UNL     1      -7.876  19.591  65.774  1.00  0.00    -0.406 OA 
HETATM    6  H   UNL     1      -7.042  19.994  65.561  1.00  0.00     0.000 HD 
ENDBRANCH   2   4
BRANCH   2   7
HETATM    7  C   UNL     1      -9.511  17.937  67.790  1.00  0.00    -0.263 C  
HETATM    8  O   UNL     1     -10.450  17.494  68.785  1.00  0.00    -0.355 OA 
HETATM    9  H   UNL     1     -10.312  16.592  69.045  1.00  0.00     0.000 HD 
BRANCH   7  10
HETATM   10  C   UNL     1      -9.542  16.912  66.634  1.00  0.00    -0.267 C  
HETATM   11  O   UNL     1      -8.711  16.850  65.733  1.00  0.00    -0.512 OA 
HETATM   12  N   UNL     1     -10.571  16.003  66.747  1.00  0.00    -0.315 N  
HETATM   13  H   UNL     1     -11.278  16.129  67.471  1.00  0.00     0.000 HD 
BRANCH  12  14
HETATM   14  C   UNL     1     -10.662  14.872  65.851  1.00  0.00    -0.323 C  
BRANCH  14  15
HETATM   15  C   UNL     1     -10.020  13.607  66.411  1.00  0.00    -0.299 C  
BRANCH  15  16
HETATM   16  C   UNL     1     -10.463  12.428  65.573  1.00  0.00    -0.275 C  
HETATM   17  O   UNL     1     -11.201  11.557  66.022  1.00  0.00    -0.270 OA 
HETATM   18  N   UNL     1      -9.992  12.444  64.280  1.00  0.00    -0.536 N  
HETATM   19  H   UNL     1      -9.424  13.242  63.998  1.00  0.00     0.000 HD 
BRANCH  18  20
HETATM   20  C   UNL     1     -10.239  11.405  63.277  1.00  0.00    -0.385 C  
BRANCH  20  21
HETATM   21  C   UNL     1      -9.014  10.749  62.634  1.00  0.00    -0.301 C  
BRANCH  21  22
HETATM   22  S   UNL     1      -7.817  10.012  63.811  1.00  0.00    -0.150 SA 
BRANCH  22  23
HETATM   23  S   UNL     1      -7.423   8.149  63.025  1.00  0.00    -0.123 SA 
BRANCH  23  24
HETATM   24  C   UNL     1      -7.543   7.095  64.508  1.00  0.00    -0.107 C  
BRANCH  24  25
HETATM   25  C   UNL     1      -7.083   5.666  64.209  1.00  0.00    -0.053 C  
BRANCH  25  26
HETATM   26  N   UNL     1      -6.461   4.974  65.335  1.00  0.00    -0.035 N  
HETATM   27  H   UNL     1      -5.453   5.068  65.461  1.00  0.00     0.000 HD 
HETATM   28  C   UNL     1      -7.162   4.200  66.237  1.00  0.00    -0.068 C  
HETATM   29  O   UNL     1      -8.364   3.973  66.150  1.00  0.00    -0.107 OA 
BRANCH  28  30
HETATM   30  C   UNL     1      -6.334   3.672  67.386  1.00  0.00    -0.037 C  
BRANCH  30  31
HETATM   31  C   UNL     1      -5.761   4.836  68.188  1.00  0.00    -0.017 C  
BRANCH  31  32
HETATM   32  N   UNL     1      -6.800   5.641  68.802  1.00  0.00    -0.057 N  
HETATM   33  H   UNL     1      -6.885   6.622  68.534  1.00  0.00     0.000 HD 
HETATM   34  C   UNL     1      -7.675   5.130  69.732  1.00  0.00    -0.071 C  
HETATM   35  O   UNL     1      -7.594   3.992  70.184  1.00  0.00    -0.045 OA 
BRANCH  34  36
HETATM   36  C   UNL     1      -8.734   6.144  70.220  1.00  0.00    -0.145 C  
HETATM   37  O   UNL     1      -8.428   6.567  71.558  1.00  0.00    -0.124 OA 
HETATM   38  H   UNL     1      -9.079   7.191  71.858  1.00  0.00     0.000 HD 
BRANCH  36  39
HETATM   39  C   UNL     1     -10.188   5.600  70.150  1.00  0.00    -0.318 C  
HETATM   40  C   UNL     1     -10.646   5.400  68.690  1.00  0.00    -0.167 C  
HETATM   41  C   UNL     1     -10.236   4.217  70.841  1.00  0.00    -0.052 C  
BRANCH  39  42
HETATM   42  C   UNL     1     -11.149   6.568  70.881  1.00  0.00    -0.292 C  
HETATM   43  O   UNL     1     -11.817   7.437  69.972  1.00  0.00    -0.505 OA 
HETATM   44  H   UNL     1     -12.407   8.032  70.421  1.00  0.00     0.000 HD 
ENDBRANCH  39  42
ENDBRANCH  36  39
ENDBRANCH  34  36
ENDBRANCH  31  32
ENDBRANCH  30  31
ENDBRANCH  28  30
ENDBRANCH  25  26
ENDBRANCH  24  25
ENDBRANCH  23  24
ENDBRANCH  22  23
ENDBRANCH  21  22
ENDBRANCH  20  21
ENDBRANCH  18  20
ENDBRANCH  15  16
ENDBRANCH  14  15
ENDBRANCH  12  14
ENDBRANCH   7  10
ENDBRANCH   2   7
TORSDOF 19
ENDMDL
MODEL      297
REMARK 921   NORMALIZED FREE ENERGY PREDICTED BY IDOCK:   -3.19 KCAL/MOL
REMARK 922        TOTAL FREE ENERGY PREDICTED BY IDOCK:   -8.92 KCAL/MOL
REMARK 923 INTER-LIGAND FREE ENERGY PREDICTED BY IDOCK:   -7.57 KCAL/MOL
REMARK 924 INTRA-LIGAND FREE ENERGY PREDICTED BY IDOCK:   -1.35 KCAL/MOL
REMARK 927      BINDING AFFINITY PREDICTED BY RF-SCORE:    0.00 PKD
ROOT
HETATM    1  C   UNL     1      -9.935   7.754  68.331  1.00  0.00    -0.195 C  
HETATM    2  C   UNL     1      -8.596   7.903  69.076  1.00  0.00    -0.135 C  
HETATM    3  C   UNL     1      -8.633   7.069  70.381  1.00  0.00    -0.142 C  
ENDROOT
BRANCH   2   4
HETATM    4  C   UNL     1      -7.467   7.311  68.206  1.00  0.00    -0.102 C  
HETATM    5  O   UNL     1      -7.831   6.038  67.679  1.00  0.00    -0.099 OA 
HETATM    6  H   UNL     1      -7.136   5.673  67.144  1.00  0.00     0.000 HD 
ENDBRANCH   2   4
BRANCH   2   7
HETATM    7  C   UNL     1      -8.286   9.399  69.394  1.00  0.00    -0.119 C  
HETATM    8  O   UNL     1      -8.280   9.680  70.804  1.00  0.00    -0.291 OA 
HETATM    9  H   UNL     1      -8.092  10.591  70.998  1.00  0.00     0.000 HD 
BRANCH   7  10
HETATM   10  C   UNL     1      -6.957   9.929  68.811  1.00  0.00    -0.062 C  
HETATM   11  O   UNL     1      -5.853   9.440  69.031  1.00  0.00    -0.039 OA 
HETATM   12  N   UNL     1      -7.132  10.982  67.941  1.00  0.00    -0.079 N  
HETATM   13  H   UNL     1      -8.056  11.402  67.837  1.00  0.00     0.000 HD 
BRANCH  12  14
HETATM   14  C   UNL     1      -6.022  11.501  67.173  1.00  0.00    -0.111 C  
BRANCH  14  15
HETATM   15  C   UNL     1      -5.481  12.821  67.712  1.00  0.00    -0.124 C  
BRANCH  15  16
HETATM   16  C   UNL     1      -6.553  13.878  67.565  1.00  0.00    -0.086 C  
HETATM   17  O   UNL     1      -7.685  13.603  67.181  1.00  0.00    -0.113 OA 
HETATM   18  N   UNL     1      -6.151  15.144  67.924  1.00  0.00    -0.146 N  
HETATM   19  H   UNL     1      -5.201  15.252  68.277  1.00  0.00     0.000 HD 
BRANCH  18  20
HETATM   20  C   UNL     1      -6.979  16.350  67.840  1.00  0.00    -0.139 C  
BRANCH  20  21
HETATM   21  C   UNL     1      -7.566  16.701  66.470  1.00  0.00    -0.292 C  
BRANCH  21  22
HETATM   22  S   UNL     1      -8.842  18.018  66.482  1.00  0.00    -0.233 SA 
BRANCH  22  23
HETATM   23  S   UNL     1     -10.454  17.143  67.423  1.00  0.00    -0.309 SA 
BRANCH  23  24
HETATM   24  C   UNL     1      -9.719  16.641  69.013  1.00  0.00    -0.260 C  
BRANCH  24  25
HETATM   25  C   UNL     1     -10.753  15.955  69.908  1.00  0.00    -0.334 C  
BRANCH  25  26
HETATM   26  N   UNL     1     -10.670  14.497  69.936  1.00  0.00    -0.453 N  
HETATM   27  H   UNL     1      -9.893  14.068  70.439  1.00  0.00     0.000 HD 
HETATM   28  C   UNL     1     -11.585  13.668  69.319  1.00  0.00    -0.311 C  
HETATM   29  O   UNL     1     -12.524  14.074  68.642  1.00  0.00    -0.147 OA 
BRANCH  28  30
HETATM   30  C   UNL     1     -11.366  12.195  69.574  1.00  0.00    -0.277 C  
BRANCH  30  31
HETATM   31  C   UNL     1     -10.460  11.611  68.494  1.00  0.00    -0.217 C  
BRANCH  31  32
HETATM   32  N   UNL     1     -11.048  11.715  67.172  1.00  0.00    -0.282 N  
HETATM   33  H   UNL     1     -11.968  12.144  67.076  1.00  0.00     0.000 HD 
HETATM   34  C   UNL     1     -10.411  11.254  66.044  1.00  0.00    -0.252 C  
HETATM   35  O   UNL     1      -9.346  10.643  66.069  1.00  0.00    -0.174 OA 
BRANCH  34  36
HETATM   36  C   UNL     1     -11.190  11.510  64.735  1.00  0.00    -0.188 C  
HETATM   37  O   UNL     1     -10.393  11.121  63.605  1.00  0.00    -0.344 OA 
HETATM   38  H   UNL     1     -10.873  11.279  62.800  1.00  0.00     0.000 HD 
BRANCH  36  39
HETATM   39  C   UNL     1     -11.664  12.981  64.575  1.00  0.00    -0.419 C  
HETATM   40  C   UNL     1     -10.559  13.977  64.983  1.00  0.00    -0.426 C  
HETATM   41  C   UNL     1     -11.989  13.240  63.085  1.00  0.00    -0.179 C  
BRANCH  39  42
HETATM   42  C   UNL     1     -12.936  13.222  65.422  1.00  0.00    -0.102 C  
HETATM   43  O   UNL     1     -13.055  14.583  65.823  1.00  0.00    -0.391 OA 
HETATM   44  H   UNL     1     -13.836  14.731  66.344  1.00  0.00     0.000 HD 
ENDBRANCH  39  42
ENDBRANCH  36  39
ENDBRANCH  34  36
ENDBRANCH  31  32
ENDBRANCH  30  31
ENDBRANCH  28  30
ENDBRANCH  25  26
ENDBRANCH  24  25
ENDBRANCH  23  24
ENDBRANCH  22  23
ENDBRANCH  21  22
ENDBRANCH  20  21
ENDBRANCH  18  20
ENDBRANCH  15  16
ENDBRANCH  14  15
ENDBRANCH  12  14
ENDBRANCH   7  10
ENDBRANCH   2   7
TORSDOF 19
ENDMDL
MODEL      298
REMARK 921   NORMALIZED FREE ENERGY PREDICTED BY IDOCK:   -3.19 KCAL/MOL
REMARK 922        TOTAL FREE ENERGY PREDICTED BY IDOCK:   -8.91 KCAL/MOL
REMARK 923 INTER-LIGAND FREE ENERGY PREDICTED BY IDOCK:   -7.21 KCAL/MOL
REMARK 924 INTRA-LIGAND FREE ENERGY PREDICTED BY IDOCK:   -1.70 KCAL/MOL
REMARK 927      BINDING AFFINITY PREDICTED BY RF-SCORE:    0.00 PKD
ROOT
HETATM    1  C   UNL     1     -11.764  16.172  68.839  1.00  0.00    -0.250 C  
HETATM    2  C   UNL     1     -10.490  16.657  68.124  1.00  0.00    -0.321 C  
HETATM    3  C   UNL     1     -10.629  16.422  66.600  1.00  0.00    -0.239 C  
ENDROOT
BRANCH   2   4
HETATM    4  C   UNL     1     -10.349  18.180  68.325  1.00  0.00    -0.363 C  
HETATM    5  O   UNL     1     -10.861  18.901  67.207  1.00  0.00    -0.458 OA 
HETATM    6  H   UNL     1     -10.774  19.839  67.330  1.00  0.00     0.000 HD 
ENDBRANCH   2   4
BRANCH   2   7
HETATM    7  C   UNL     1      -9.220  15.933  68.673  1.00  0.00    -0.209 C  
HETATM    8  O   UNL     1      -9.485  15.163  69.858  1.00  0.00    -0.462 OA 
HETATM    9  H   UNL     1      -8.712  14.723  70.192  1.00  0.00     0.000 HD 
BRANCH   7  10
HETATM   10  C   UNL     1      -8.511  15.003  67.664  1.00  0.00    -0.160 C  
HETATM   11  O   UNL     1      -7.719  15.378  66.805  1.00  0.00    -0.177 OA 
HETATM   12  N   UNL     1      -8.798  13.671  67.865  1.00  0.00    -0.177 N  
HETATM   13  H   UNL     1      -9.512  13.406  68.544  1.00  0.00     0.000 HD 
BRANCH  12  14
HETATM   14  C   UNL     1      -8.101  12.643  67.125  1.00  0.00    -0.141 C  
BRANCH  14  15
HETATM   15  C   UNL     1      -6.622  12.542  67.482  1.00  0.00    -0.150 C  
BRANCH  15  16
HETATM   16  C   UNL     1      -6.498  12.343  68.976  1.00  0.00    -0.097 C  
HETATM   17  O   UNL     1      -6.375  13.290  69.747  1.00  0.00    -0.122 OA 
HETATM   18  N   UNL     1      -6.562  11.029  69.379  1.00  0.00    -0.090 N  
HETATM   19  H   UNL     1      -6.714  10.325  68.658  1.00  0.00     0.000 HD 
BRANCH  18  20
HETATM   20  C   UNL     1      -6.430  10.561  70.761  1.00  0.00     0.103 C  
BRANCH  20  21
HETATM   21  C   UNL     1      -5.160   9.781  71.116  1.00  0.00    -0.049 C  
BRANCH  21  22
HETATM   22  S   UNL     1      -5.443   8.130  71.862  1.00  0.00    -0.037 SA 
BRANCH  22  23
HETATM   23  S   UNL     1      -7.426   8.165  72.419  1.00  0.00    -0.118 SA 
BRANCH  23  24
HETATM   24  C   UNL     1      -8.210   7.277  71.033  1.00  0.00    -0.107 C  
BRANCH  24  25
HETATM   25  C   UNL     1      -9.339   8.104  70.415  1.00  0.00    -0.158 C  
BRANCH  25  26
HETATM   26  N   UNL     1      -9.758   7.673  69.084  1.00  0.00    -0.162 N  
HETATM   27  H   UNL     1      -9.309   8.104  68.275  1.00  0.00     0.000 HD 
HETATM   28  C   UNL     1     -10.725   6.716  68.860  1.00  0.00    -0.264 C  
HETATM   29  O   UNL     1     -11.367   6.174  69.754  1.00  0.00    -0.411 OA 
BRANCH  28  30
HETATM   30  C   UNL     1     -10.915   6.345  67.407  1.00  0.00    -0.463 C  
BRANCH  30  31
HETATM   31  C   UNL     1      -9.631   5.733  66.857  1.00  0.00    -0.141 C  
BRANCH  31  32
HETATM   32  N   UNL     1      -9.186   6.393  65.644  1.00  0.00    -0.372 N  
HETATM   33  H   UNL     1      -9.778   6.351  64.815  1.00  0.00     0.000 HD 
HETATM   34  C   UNL     1      -7.994   7.075  65.573  1.00  0.00    -0.130 C  
HETATM   35  O   UNL     1      -7.174   7.104  66.486  1.00  0.00    -0.075 OA 
BRANCH  34  36
HETATM   36  C   UNL     1      -7.737   7.747  64.205  1.00  0.00    -0.124 C  
HETATM   37  O   UNL     1      -6.396   7.475  63.769  1.00  0.00    -0.052 OA 
HETATM   38  H   UNL     1      -6.239   7.889  62.928  1.00  0.00     0.000 HD 
BRANCH  36  39
HETATM   39  C   UNL     1      -7.998   9.279  64.211  1.00  0.00    -0.135 C  
HETATM   40  C   UNL     1      -9.081   9.663  65.240  1.00  0.00    -0.269 C  
HETATM   41  C   UNL     1      -6.694  10.004  64.622  1.00  0.00    -0.128 C  
BRANCH  39  42
HETATM   42  C   UNL     1      -8.417   9.749  62.797  1.00  0.00    -0.174 C  
HETATM   43  O   UNL     1      -9.823   9.950  62.701  1.00  0.00    -0.533 OA 
HETATM   44  H   UNL     1     -10.081  10.238  61.834  1.00  0.00     0.000 HD 
ENDBRANCH  39  42
ENDBRANCH  36  39
ENDBRANCH  34  36
ENDBRANCH  31  32
ENDBRANCH  30  31
ENDBRANCH  28  30
ENDBRANCH  25  26
ENDBRANCH  24  25
ENDBRANCH  23  24
ENDBRANCH  22  23
ENDBRANCH  21  22
ENDBRANCH  20  21
ENDBRANCH  18  20
ENDBRANCH  15  16
ENDBRANCH  14  15
ENDBRANCH  12  14
ENDBRANCH   7  10
ENDBRANCH   2   7
TORSDOF 19
ENDMDL
MODEL      299
REMARK 921   NORMALIZED FREE ENERGY PREDICTED BY IDOCK:   -3.17 KCAL/MOL
REMARK 922        TOTAL FREE ENERGY PREDICTED BY IDOCK:   -8.87 KCAL/MOL
REMARK 923 INTER-LIGAND FREE ENERGY PREDICTED BY IDOCK:   -7.51 KCAL/MOL
REMARK 924 INTRA-LIGAND FREE ENERGY PREDICTED BY IDOCK:   -1.36 KCAL/MOL
REMARK 927      BINDING AFFINITY PREDICTED BY RF-SCORE:    0.00 PKD
ROOT
HETATM    1  C   UNL     1     -11.719   8.785  70.587  1.00  0.00    -0.194 C  
HETATM    2  C   UNL     1     -12.170   7.642  71.516  1.00  0.00    -0.351 C  
HETATM    3  C   UNL     1     -11.648   7.903  72.951  1.00  0.00    -0.303 C  
ENDROOT
BRANCH   2   4
HETATM    4  C   UNL     1     -13.712   7.641  71.601  1.00  0.00    -0.374 C  
HETATM    5  O   UNL     1     -14.197   6.446  72.206  1.00  0.00    -0.559 OA 
HETATM    6  H   UNL     1     -15.146   6.445  72.258  1.00  0.00     0.000 HD 
ENDBRANCH   2   4
BRANCH   2   7
HETATM    7  C   UNL     1     -11.671   6.257  70.998  1.00  0.00    -0.217 C  
HETATM    8  O   UNL     1     -11.006   6.344  69.726  1.00  0.00    -0.283 OA 
HETATM    9  H   UNL     1     -10.702   5.502  69.411  1.00  0.00     0.000 HD 
BRANCH   7  10
HETATM   10  C   UNL     1     -10.729   5.501  71.961  1.00  0.00    -0.234 C  
HETATM   11  O   UNL     1     -11.091   4.928  72.985  1.00  0.00    -0.262 OA 
HETATM   12  N   UNL     1      -9.425   5.463  71.522  1.00  0.00    -0.147 N  
HETATM   13  H   UNL     1      -9.152   6.007  70.703  1.00  0.00     0.000 HD 
BRANCH  12  14
HETATM   14  C   UNL     1      -8.435   4.661  72.207  1.00  0.00    -0.118 C  
BRANCH  14  15
HETATM   15  C   UNL     1      -7.799   3.599  71.316  1.00  0.00    -0.059 C  
BRANCH  15  16
HETATM   16  C   UNL     1      -6.694   4.243  70.509  1.00  0.00    -0.032 C  
HETATM   17  O   UNL     1      -6.294   5.378  70.751  1.00  0.00    -0.028 OA 
HETATM   18  N   UNL     1      -6.175   3.441  69.519  1.00  0.00    -0.027 N  
HETATM   19  H   UNL     1      -6.549   2.497  69.437  1.00  0.00     0.000 HD 
BRANCH  18  20
HETATM   20  C   UNL     1      -5.128   3.836  68.573  1.00  0.00    -0.007 C  
BRANCH  20  21
HETATM   21  C   UNL     1      -5.505   4.864  67.502  1.00  0.00    -0.013 C  
BRANCH  21  22
HETATM   22  S   UNL     1      -6.422   4.190  66.064  1.00  0.00    -0.037 SA 
BRANCH  22  23
HETATM   23  S   UNL     1      -8.398   4.560  66.512  1.00  0.00    -0.105 SA 
BRANCH  23  24
HETATM   24  C   UNL     1      -8.894   5.628  65.120  1.00  0.00    -0.048 C  
BRANCH  24  25
HETATM   25  C   UNL     1      -8.401   7.063  65.322  1.00  0.00    -0.096 C  
BRANCH  25  26
HETATM   26  N   UNL     1      -8.639   7.958  64.192  1.00  0.00    -0.364 N  
HETATM   27  H   UNL     1      -9.594   8.056  63.848  1.00  0.00     0.000 HD 
HETATM   28  C   UNL     1      -7.643   8.678  63.567  1.00  0.00    -0.124 C  
HETATM   29  O   UNL     1      -6.455   8.595  63.860  1.00  0.00    -0.076 OA 
BRANCH  28  30
HETATM   30  C   UNL     1      -8.134   9.626  62.496  1.00  0.00    -0.139 C  
BRANCH  30  31
HETATM   31  C   UNL     1      -9.570  10.045  62.795  1.00  0.00    -0.074 C  
BRANCH  31  32
HETATM   32  N   UNL     1      -9.643  11.372  63.378  1.00  0.00    -0.387 N  
HETATM   33  H   UNL     1      -9.479  12.181  62.779  1.00  0.00     0.000 HD 
HETATM   34  C   UNL     1      -9.924  11.577  64.708  1.00  0.00    -0.260 C  
HETATM   35  O   UNL     1     -10.045  10.668  65.523  1.00  0.00    -0.255 OA 
BRANCH  34  36
HETATM   36  C   UNL     1     -10.005  13.067  65.108  1.00  0.00    -0.152 C  
HETATM   37  O   UNL     1      -9.128  13.325  66.217  1.00  0.00    -0.453 OA 
HETATM   38  H   UNL     1      -9.178  14.242  66.463  1.00  0.00     0.000 HD 
BRANCH  36  39
HETATM   39  C   UNL     1     -11.446  13.540  65.445  1.00  0.00    -0.318 C  
HETATM   40  C   UNL     1     -11.911  14.658  64.488  1.00  0.00    -0.473 C  
HETATM   41  C   UNL     1     -12.415  12.348  65.265  1.00  0.00    -0.256 C  
BRANCH  39  42
HETATM   42  C   UNL     1     -11.512  14.034  66.910  1.00  0.00    -0.356 C  
HETATM   43  O   UNL     1     -11.694  12.957  67.823  1.00  0.00    -0.330 OA 
HETATM   44  H   UNL     1     -11.735  13.260  68.723  1.00  0.00     0.000 HD 
ENDBRANCH  39  42
ENDBRANCH  36  39
ENDBRANCH  34  36
ENDBRANCH  31  32
ENDBRANCH  30  31
ENDBRANCH  28  30
ENDBRANCH  25  26
ENDBRANCH  24  25
ENDBRANCH  23  24
ENDBRANCH  22  23
ENDBRANCH  21  22
ENDBRANCH  20  21
ENDBRANCH  18  20
ENDBRANCH  15  16
ENDBRANCH  14  15
ENDBRANCH  12  14
ENDBRANCH   7  10
ENDBRANCH   2   7
TORSDOF 19
ENDMDL
MODEL      300
REMARK 921   NORMALIZED FREE ENERGY PREDICTED BY IDOCK:   -3.14 KCAL/MOL
REMARK 922        TOTAL FREE ENERGY PREDICTED BY IDOCK:   -8.81 KCAL/MOL
REMARK 923 INTER-LIGAND FREE ENERGY PREDICTED BY IDOCK:   -7.72 KCAL/MOL
REMARK 924 INTRA-LIGAND FREE ENERGY PREDICTED BY IDOCK:   -1.09 KCAL/MOL
REMARK 927      BINDING AFFINITY PREDICTED BY RF-SCORE:    0.00 PKD
ROOT
HETATM    1  C   UNL     1      -9.272   9.386  70.349  1.00  0.00    -0.305 C  
HETATM    2  C   UNL     1     -10.505   8.687  70.953  1.00  0.00    -0.265 C  
HETATM    3  C   UNL     1     -10.248   8.383  72.449  1.00  0.00    -0.399 C  
ENDROOT
BRANCH   2   4
HETATM    4  C   UNL     1     -11.707   9.654  70.899  1.00  0.00    -0.334 C  
HETATM    5  O   UNL     1     -12.204   9.937  72.204  1.00  0.00    -0.243 OA 
HETATM    6  H   UNL     1     -12.945  10.531  72.171  1.00  0.00     0.000 HD 
ENDBRANCH   2   4
BRANCH   2   7
HETATM    7  C   UNL     1     -10.849   7.375  70.181  1.00  0.00    -0.256 C  
HETATM    8  O   UNL     1     -11.225   7.614  68.814  1.00  0.00    -0.406 OA 
HETATM    9  H   UNL     1     -11.435   6.816  68.344  1.00  0.00     0.000 HD 
BRANCH   7  10
HETATM   10  C   UNL     1      -9.731   6.309  70.174  1.00  0.00    -0.163 C  
HETATM   11  O   UNL     1      -8.800   6.268  70.973  1.00  0.00    -0.135 OA 
HETATM   12  N   UNL     1      -9.915   5.340  69.212  1.00  0.00    -0.195 N  
HETATM   13  H   UNL     1     -10.662   5.447  68.526  1.00  0.00     0.000 HD 
BRANCH  12  14
HETATM   14  C   UNL     1      -9.061   4.174  69.163  1.00  0.00    -0.131 C  
BRANCH  14  15
HETATM   15  C   UNL     1      -8.608   3.819  67.751  1.00  0.00    -0.112 C  
BRANCH  15  16
HETATM   16  C   UNL     1      -7.243   4.425  67.514  1.00  0.00    -0.069 C  
HETATM   17  O   UNL     1      -6.253   4.051  68.134  1.00  0.00    -0.031 OA 
HETATM   18  N   UNL     1      -7.217   5.394  66.537  1.00  0.00    -0.076 N  
HETATM   19  H   UNL     1      -8.090   5.593  66.051  1.00  0.00     0.000 HD 
BRANCH  18  20
HETATM   20  C   UNL     1      -6.034   6.164  66.141  1.00  0.00    -0.028 C  
BRANCH  20  21
HETATM   21  C   UNL     1      -6.155   7.690  66.164  1.00  0.00    -0.038 C  
BRANCH  21  22
HETATM   22  S   UNL     1      -7.260   8.404  64.886  1.00  0.00    -0.087 SA 
BRANCH  22  23
HETATM   23  S   UNL     1      -7.142  10.437  65.201  1.00  0.00    -0.028 SA 
BRANCH  23  24
HETATM   24  C   UNL     1      -5.388  10.633  65.660  1.00  0.00    -0.122 C  
BRANCH  24  25
HETATM   25  C   UNL     1      -5.236  10.912  67.157  1.00  0.00    -0.046 C  
BRANCH  25  26
HETATM   26  N   UNL     1      -6.231  11.824  67.715  1.00  0.00    -0.054 N  
HETATM   27  H   UNL     1      -7.082  11.425  68.111  1.00  0.00     0.000 HD 
HETATM   28  C   UNL     1      -6.082  13.195  67.737  1.00  0.00    -0.154 C  
HETATM   29  O   UNL     1      -5.128  13.785  67.240  1.00  0.00    -0.315 OA 
BRANCH  28  30
HETATM   30  C   UNL     1      -7.182  13.933  68.465  1.00  0.00    -0.107 C  
BRANCH  30  31
HETATM   31  C   UNL     1      -8.492  13.159  68.345  1.00  0.00    -0.126 C  
BRANCH  31  32
HETATM   32  N   UNL     1      -9.048  13.229  67.007  1.00  0.00    -0.226 N  
HETATM   33  H   UNL     1      -8.718  12.569  66.303  1.00  0.00     0.000 HD 
HETATM   34  C   UNL     1     -10.003  14.153  66.654  1.00  0.00    -0.277 C  
HETATM   35  O   UNL     1     -10.394  15.043  67.403  1.00  0.00    -0.235 OA 
BRANCH  34  36
HETATM   36  C   UNL     1     -10.495  14.020  65.195  1.00  0.00    -0.397 C  
HETATM   37  O   UNL     1     -10.678  15.323  64.618  1.00  0.00    -0.593 OA 
HETATM   38  H   UNL     1     -10.980  15.240  63.721  1.00  0.00     0.000 HD 
BRANCH  36  39
HETATM   39  C   UNL     1     -11.798  13.185  65.056  1.00  0.00    -0.390 C  
HETATM   40  C   UNL     1     -13.004  13.913  65.684  1.00  0.00    -0.361 C  
HETATM   41  C   UNL     1     -12.108  12.994  63.552  1.00  0.00    -0.617 C  
BRANCH  39  42
HETATM   42  C   UNL     1     -11.610  11.798  65.717  1.00  0.00    -0.125 C  
HETATM   43  O   UNL     1     -10.496  11.099  65.173  1.00  0.00    -0.276 OA 
HETATM   44  H   UNL     1     -10.381  10.248  65.578  1.00  0.00     0.000 HD 
ENDBRANCH  39  42
ENDBRANCH  36  39
ENDBRANCH  34  36
ENDBRANCH  31  32
ENDBRANCH  30  31
ENDBRANCH  28  30
ENDBRANCH  25  26
ENDBRANCH  24  25
ENDBRANCH  23  24
ENDBRANCH  22  23
ENDBRANCH  21  22
ENDBRANCH  20  21
ENDBRANCH  18  20
ENDBRANCH  15  16
ENDBRANCH  14  15
ENDBRANCH  12  14
ENDBRANCH   7  10
ENDBRANCH   2   7
TORSDOF 19
ENDMDL
MODEL      301
REMARK 921   NORMALIZED FREE ENERGY PREDICTED BY IDOCK:   -3.14 KCAL/MOL
REMARK 922        TOTAL FREE ENERGY PREDICTED BY IDOCK:   -8.80 KCAL/MOL
REMARK 923 INTER-LIGAND FREE ENERGY PREDICTED BY IDOCK:   -7.06 KCAL/MOL
REMARK 924 INTRA-LIGAND FREE ENERGY PREDICTED BY IDOCK:   -1.74 KCAL/MOL
REMARK 927      BINDING AFFINITY PREDICTED BY RF-SCORE:    0.00 PKD
ROOT
HETATM    1  C   UNL     1     -10.753  12.674  69.653  1.00  0.00     0.419 C  
HETATM    2  C   UNL     1     -10.717  11.259  69.044  1.00  0.00    -0.257 C  
HETATM    3  C   UNL     1     -10.342  10.232  70.141  1.00  0.00    -0.210 C  
ENDROOT
BRANCH   2   4
HETATM    4  C   UNL     1     -12.133  10.886  68.555  1.00  0.00     0.076 C  
HETATM    5  O   UNL     1     -12.948  10.425  69.630  1.00  0.00    -0.616 OA 
HETATM    6  H   UNL     1     -13.819  10.195  69.329  1.00  0.00     0.000 HD 
ENDBRANCH   2   4
BRANCH   2   7
HETATM    7  C   UNL     1      -9.711  11.178  67.854  1.00  0.00    -0.174 C  
HETATM    8  O   UNL     1     -10.094  12.005  66.742  1.00  0.00    -0.201 OA 
HETATM    9  H   UNL     1      -9.481  11.955  66.018  1.00  0.00     0.000 HD 
BRANCH   7  10
HETATM   10  C   UNL     1      -8.249  11.529  68.210  1.00  0.00    -0.152 C  
HETATM   11  O   UNL     1      -7.485  10.794  68.828  1.00  0.00    -0.092 OA 
HETATM   12  N   UNL     1      -7.845  12.742  67.698  1.00  0.00    -0.152 N  
HETATM   13  H   UNL     1      -8.528  13.352  67.249  1.00  0.00     0.000 HD 
BRANCH  12  14
HETATM   14  C   UNL     1      -6.464  13.161  67.788  1.00  0.00    -0.153 C  
BRANCH  14  15
HETATM   15  C   UNL     1      -6.256  14.353  68.717  1.00  0.00    -0.085 C  
BRANCH  15  16
HETATM   16  C   UNL     1      -7.449  15.274  68.595  1.00  0.00    -0.126 C  
HETATM   17  O   UNL     1      -7.904  15.875  69.563  1.00  0.00    -0.226 OA 
HETATM   18  N   UNL     1      -7.945  15.392  67.317  1.00  0.00    -0.184 N  
HETATM   19  H   UNL     1      -7.459  14.885  66.577  1.00  0.00     0.000 HD 
BRANCH  18  20
HETATM   20  C   UNL     1      -9.114  16.187  66.932  1.00  0.00    -0.218 C  
BRANCH  20  21
HETATM   21  C   UNL     1     -10.429  15.434  66.710  1.00  0.00    -0.299 C  
BRANCH  21  22
HETATM   22  S   UNL     1     -11.144  15.595  65.029  1.00  0.00    -0.347 SA 
BRANCH  22  23
HETATM   23  S   UNL     1     -12.383  13.958  64.854  1.00  0.00    -0.406 SA 
BRANCH  23  24
HETATM   24  C   UNL     1     -11.680  13.124  63.393  1.00  0.00    -0.350 C  
BRANCH  24  25
HETATM   25  C   UNL     1     -11.707  11.603  63.559  1.00  0.00    -0.279 C  
BRANCH  25  26
HETATM   26  N   UNL     1     -10.659  10.888  62.834  1.00  0.00    -0.776 N  
HETATM   27  H   UNL     1     -10.856  10.583  61.880  1.00  0.00     0.000 HD 
HETATM   28  C   UNL     1      -9.420  10.603  63.368  1.00  0.00    -0.319 C  
HETATM   29  O   UNL     1      -9.095  10.872  64.519  1.00  0.00    -0.199 OA 
BRANCH  28  30
HETATM   30  C   UNL     1      -8.455   9.957  62.400  1.00  0.00    -0.175 C  
BRANCH  30  31
HETATM   31  C   UNL     1      -8.316   8.472  62.721  1.00  0.00    -0.154 C  
BRANCH  31  32
HETATM   32  N   UNL     1      -8.773   8.158  64.062  1.00  0.00    -0.350 N  
HETATM   33  H   UNL     1      -9.327   8.849  64.567  1.00  0.00     0.000 HD 
HETATM   34  C   UNL     1      -8.487   6.961  64.676  1.00  0.00     0.155 C  
HETATM   35  O   UNL     1      -7.754   6.106  64.186  1.00  0.00    -0.093 OA 
BRANCH  34  36
HETATM   36  C   UNL     1      -9.114   6.811  66.080  1.00  0.00    -0.109 C  
HETATM   37  O   UNL     1     -10.169   7.771  66.251  1.00  0.00    -0.475 OA 
HETATM   38  H   UNL     1     -10.554   7.679  67.115  1.00  0.00     0.000 HD 
BRANCH  36  39
HETATM   39  C   UNL     1      -8.081   6.940  67.235  1.00  0.00    -0.118 C  
HETATM   40  C   UNL     1      -7.266   5.642  67.410  1.00  0.00    -0.076 C  
HETATM   41  C   UNL     1      -7.082   8.068  66.884  1.00  0.00    -0.081 C  
BRANCH  39  42
HETATM   42  C   UNL     1      -8.807   7.295  68.555  1.00  0.00    -0.129 C  
HETATM   43  O   UNL     1      -8.695   6.252  69.517  1.00  0.00    -0.130 OA 
HETATM   44  H   UNL     1      -9.140   6.469  70.328  1.00  0.00     0.000 HD 
ENDBRANCH  39  42
ENDBRANCH  36  39
ENDBRANCH  34  36
ENDBRANCH  31  32
ENDBRANCH  30  31
ENDBRANCH  28  30
ENDBRANCH  25  26
ENDBRANCH  24  25
ENDBRANCH  23  24
ENDBRANCH  22  23
ENDBRANCH  21  22
ENDBRANCH  20  21
ENDBRANCH  18  20
ENDBRANCH  15  16
ENDBRANCH  14  15
ENDBRANCH  12  14
ENDBRANCH   7  10
ENDBRANCH   2   7
TORSDOF 19
ENDMDL
MODEL      302
REMARK 921   NORMALIZED FREE ENERGY PREDICTED BY IDOCK:   -3.12 KCAL/MOL
REMARK 922        TOTAL FREE ENERGY PREDICTED BY IDOCK:   -8.77 KCAL/MOL
REMARK 923 INTER-LIGAND FREE ENERGY PREDICTED BY IDOCK:   -7.30 KCAL/MOL
REMARK 924 INTRA-LIGAND FREE ENERGY PREDICTED BY IDOCK:   -1.47 KCAL/MOL
REMARK 927      BINDING AFFINITY PREDICTED BY RF-SCORE:    0.00 PKD
ROOT
HETATM    1  C   UNL     1      -9.431   3.486  70.519  1.00  0.00    -0.249 C  
HETATM    2  C   UNL     1      -8.765   4.682  69.815  1.00  0.00    -0.112 C  
HETATM    3  C   UNL     1      -9.476   4.951  68.465  1.00  0.00    -0.194 C  
ENDROOT
BRANCH   2   4
HETATM    4  C   UNL     1      -8.962   5.947  70.677  1.00  0.00    -0.145 C  
HETATM    5  O   UNL     1      -7.726   6.620  70.901  1.00  0.00    -0.091 OA 
HETATM    6  H   UNL     1      -7.848   7.399  71.432  1.00  0.00     0.000 HD 
ENDBRANCH   2   4
BRANCH   2   7
HETATM    7  C   UNL     1      -7.241   4.432  69.588  1.00  0.00    -0.050 C  
HETATM    8  O   UNL     1      -6.603   3.815  70.718  1.00  0.00    -0.030 OA 
HETATM    9  H   UNL     1      -5.676   3.663  70.580  1.00  0.00     0.000 HD 
BRANCH   7  10
HETATM   10  C   UNL     1      -6.897   3.585  68.342  1.00  0.00    -0.046 C  
HETATM   11  O   UNL     1      -7.260   2.427  68.163  1.00  0.00    -0.047 OA 
HETATM   12  N   UNL     1      -6.189   4.287  67.391  1.00  0.00    -0.035 N  
HETATM   13  H   UNL     1      -5.849   5.224  67.606  1.00  0.00     0.000 HD 
BRANCH  12  14
HETATM   14  C   UNL     1      -5.921   3.711  66.093  1.00  0.00    -0.023 C  
BRANCH  14  15
HETATM   15  C   UNL     1      -5.654   4.755  65.014  1.00  0.00    -0.014 C  
BRANCH  15  16
HETATM   16  C   UNL     1      -6.297   6.058  65.433  1.00  0.00    -0.038 C  
HETATM   17  O   UNL     1      -5.722   6.858  66.165  1.00  0.00    -0.028 OA 
HETATM   18  N   UNL     1      -7.550   6.267  64.903  1.00  0.00    -0.085 N  
HETATM   19  H   UNL     1      -7.913   5.558  64.267  1.00  0.00     0.000 HD 
BRANCH  18  20
HETATM   20  C   UNL     1      -8.403   7.426  65.179  1.00  0.00    -0.079 C  
BRANCH  20  21
HETATM   21  C   UNL     1      -8.410   8.551  64.141  1.00  0.00    -0.095 C  
BRANCH  21  22
HETATM   22  S   UNL     1      -7.902  10.197  64.773  1.00  0.00    -0.131 SA 
BRANCH  22  23
HETATM   23  S   UNL     1      -7.904   9.968  66.821  1.00  0.00    -0.111 SA 
BRANCH  23  24
HETATM   24  C   UNL     1      -9.436  10.841  67.283  1.00  0.00    -0.159 C  
BRANCH  24  25
HETATM   25  C   UNL     1     -10.621   9.875  67.361  1.00  0.00    -0.277 C  
BRANCH  25  26
HETATM   26  N   UNL     1     -11.464  10.032  68.543  1.00  0.00    -0.520 N  
HETATM   27  H   UNL     1     -12.477  10.007  68.419  1.00  0.00     0.000 HD 
HETATM   28  C   UNL     1     -10.967  10.212  69.817  1.00  0.00    -0.280 C  
HETATM   29  O   UNL     1      -9.772  10.313  70.074  1.00  0.00    -0.160 OA 
BRANCH  28  30
HETATM   30  C   UNL     1     -12.019  10.237  70.902  1.00  0.00    -0.473 C  
BRANCH  30  31
HETATM   31  C   UNL     1     -12.779  11.559  70.856  1.00  0.00    -0.278 C  
BRANCH  31  32
HETATM   32  N   UNL     1     -11.898  12.688  70.625  1.00  0.00    -0.482 N  
HETATM   33  H   UNL     1     -10.912  12.511  70.434  1.00  0.00     0.000 HD 
HETATM   34  C   UNL     1     -12.344  13.989  70.655  1.00  0.00    -0.375 C  
HETATM   35  O   UNL     1     -13.489  14.305  70.965  1.00  0.00    -0.326 OA 
BRANCH  34  36
HETATM   36  C   UNL     1     -11.253  15.033  70.332  1.00  0.00    -0.254 C  
HETATM   37  O   UNL     1     -11.657  16.328  70.805  1.00  0.00    -0.500 OA 
HETATM   38  H   UNL     1     -10.986  16.970  70.606  1.00  0.00     0.000 HD 
BRANCH  36  39
HETATM   39  C   UNL     1     -10.893  15.104  68.821  1.00  0.00    -0.247 C  
HETATM   40  C   UNL     1     -11.869  14.267  67.969  1.00  0.00    -0.379 C  
HETATM   41  C   UNL     1     -11.013  16.573  68.350  1.00  0.00    -0.348 C  
BRANCH  39  42
HETATM   42  C   UNL     1      -9.441  14.616  68.601  1.00  0.00    -0.211 C  
HETATM   43  O   UNL     1      -8.638  14.803  69.762  1.00  0.00    -0.425 OA 
HETATM   44  H   UNL     1      -7.746  14.503  69.627  1.00  0.00     0.000 HD 
ENDBRANCH  39  42
ENDBRANCH  36  39
ENDBRANCH  34  36
ENDBRANCH  31  32
ENDBRANCH  30  31
ENDBRANCH  28  30
ENDBRANCH  25  26
ENDBRANCH  24  25
ENDBRANCH  23  24
ENDBRANCH  22  23
ENDBRANCH  21  22
ENDBRANCH  20  21
ENDBRANCH  18  20
ENDBRANCH  15  16
ENDBRANCH  14  15
ENDBRANCH  12  14
ENDBRANCH   7  10
ENDBRANCH   2   7
TORSDOF 19
ENDMDL
MODEL      303
REMARK 921   NORMALIZED FREE ENERGY PREDICTED BY IDOCK:   -3.12 KCAL/MOL
REMARK 922        TOTAL FREE ENERGY PREDICTED BY IDOCK:   -8.76 KCAL/MOL
REMARK 923 INTER-LIGAND FREE ENERGY PREDICTED BY IDOCK:   -7.41 KCAL/MOL
REMARK 924 INTRA-LIGAND FREE ENERGY PREDICTED BY IDOCK:   -1.35 KCAL/MOL
REMARK 927      BINDING AFFINITY PREDICTED BY RF-SCORE:    0.00 PKD
ROOT
HETATM    1  C   UNL     1     -10.668   5.357  70.968  1.00  0.00    -0.239 C  
HETATM    2  C   UNL     1      -9.186   5.087  71.287  1.00  0.00    -0.186 C  
HETATM    3  C   UNL     1      -8.294   6.041  70.454  1.00  0.00    -0.124 C  
ENDROOT
BRANCH   2   4
HETATM    4  C   UNL     1      -8.923   5.420  72.771  1.00  0.00    -0.121 C  
HETATM    5  O   UNL     1      -9.729   4.621  73.633  1.00  0.00    -0.132 OA 
HETATM    6  H   UNL     1      -9.567   4.827  74.546  1.00  0.00     0.000 HD 
ENDBRANCH   2   4
BRANCH   2   7
HETATM    7  C   UNL     1      -8.805   3.600  71.006  1.00  0.00    -0.082 C  
HETATM    8  O   UNL     1      -9.884   2.688  71.270  1.00  0.00    -0.154 OA 
HETATM    9  H   UNL     1      -9.652   1.783  71.099  1.00  0.00     0.000 HD 
BRANCH   7  10
HETATM   10  C   UNL     1      -8.298   3.316  69.574  1.00  0.00    -0.059 C  
HETATM   11  O   UNL     1      -7.116   3.210  69.260  1.00  0.00    -0.044 OA 
HETATM   12  N   UNL     1      -9.318   3.114  68.671  1.00  0.00    -0.174 N  
HETATM   13  H   UNL     1     -10.284   3.277  68.957  1.00  0.00     0.000 HD 
BRANCH  12  14
HETATM   14  C   UNL     1      -9.037   2.674  67.322  1.00  0.00    -0.164 C  
BRANCH  14  15
HETATM   15  C   UNL     1      -8.767   3.825  66.358  1.00  0.00    -0.118 C  
BRANCH  15  16
HETATM   16  C   UNL     1      -9.961   4.753  66.367  1.00  0.00    -0.241 C  
HETATM   17  O   UNL     1     -10.939   4.557  65.652  1.00  0.00    -0.218 OA 
HETATM   18  N   UNL     1      -9.858   5.798  67.256  1.00  0.00    -0.131 N  
HETATM   19  H   UNL     1      -9.021   5.839  67.837  1.00  0.00     0.000 HD 
BRANCH  18  20
HETATM   20  C   UNL     1     -10.854   6.859  67.434  1.00  0.00    -0.326 C  
BRANCH  20  21
HETATM   21  C   UNL     1     -10.519   8.236  66.854  1.00  0.00    -0.295 C  
BRANCH  21  22
HETATM   22  S   UNL     1     -10.437   9.598  68.079  1.00  0.00    -0.236 SA 
BRANCH  22  23
HETATM   23  S   UNL     1     -11.009  11.266  67.012  1.00  0.00    -0.287 SA 
BRANCH  23  24
HETATM   24  C   UNL     1     -10.055  11.057  65.473  1.00  0.00    -0.261 C  
BRANCH  24  25
HETATM   25  C   UNL     1      -8.550  11.113  65.744  1.00  0.00    -0.113 C  
BRANCH  25  26
HETATM   26  N   UNL     1      -8.123  12.204  66.617  1.00  0.00    -0.384 N  
HETATM   27  H   UNL     1      -8.392  13.156  66.365  1.00  0.00     0.000 HD 
HETATM   28  C   UNL     1      -7.378  12.018  67.762  1.00  0.00    -0.113 C  
HETATM   29  O   UNL     1      -6.953  10.928  68.130  1.00  0.00    -0.067 OA 
BRANCH  28  30
HETATM   30  C   UNL     1      -7.148  13.275  68.570  1.00  0.00    -0.105 C  
BRANCH  30  31
HETATM   31  C   UNL     1      -6.801  14.433  67.640  1.00  0.00    -0.182 C  
BRANCH  31  32
HETATM   32  N   UNL     1      -7.526  15.643  67.978  1.00  0.00    -0.120 N  
HETATM   33  H   UNL     1      -7.044  16.374  68.503  1.00  0.00     0.000 HD 
HETATM   34  C   UNL     1      -8.838  15.841  67.617  1.00  0.00    -0.175 C  
HETATM   35  O   UNL     1      -9.525  14.985  67.067  1.00  0.00    -0.215 OA 
BRANCH  34  36
HETATM   36  C   UNL     1      -9.401  17.218  68.033  1.00  0.00    -0.264 C  
HETATM   37  O   UNL     1     -10.788  17.095  68.386  1.00  0.00    -0.367 OA 
HETATM   38  H   UNL     1     -11.134  17.942  68.641  1.00  0.00     0.000 HD 
BRANCH  36  39
HETATM   39  C   UNL     1      -9.222  18.313  66.944  1.00  0.00    -0.282 C  
HETATM   40  C   UNL     1     -10.462  18.407  66.030  1.00  0.00    -0.400 C  
HETATM   41  C   UNL     1      -9.058  19.684  67.640  1.00  0.00    -0.403 C  
BRANCH  39  42
HETATM   42  C   UNL     1      -7.960  18.016  66.099  1.00  0.00    -0.192 C  
HETATM   43  O   UNL     1      -7.527  19.163  65.374  1.00  0.00    -0.436 OA 
HETATM   44  H   UNL     1      -6.752  18.981  64.855  1.00  0.00     0.000 HD 
ENDBRANCH  39  42
ENDBRANCH  36  39
ENDBRANCH  34  36
ENDBRANCH  31  32
ENDBRANCH  30  31
ENDBRANCH  28  30
ENDBRANCH  25  26
ENDBRANCH  24  25
ENDBRANCH  23  24
ENDBRANCH  22  23
ENDBRANCH  21  22
ENDBRANCH  20  21
ENDBRANCH  18  20
ENDBRANCH  15  16
ENDBRANCH  14  15
ENDBRANCH  12  14
ENDBRANCH   7  10
ENDBRANCH   2   7
TORSDOF 19
ENDMDL
MODEL      304
REMARK 921   NORMALIZED FREE ENERGY PREDICTED BY IDOCK:   -3.12 KCAL/MOL
REMARK 922        TOTAL FREE ENERGY PREDICTED BY IDOCK:   -8.76 KCAL/MOL
REMARK 923 INTER-LIGAND FREE ENERGY PREDICTED BY IDOCK:   -7.17 KCAL/MOL
REMARK 924 INTRA-LIGAND FREE ENERGY PREDICTED BY IDOCK:   -1.58 KCAL/MOL
REMARK 927      BINDING AFFINITY PREDICTED BY RF-SCORE:    0.00 PKD
ROOT
HETATM    1  C   UNL     1      -9.793   9.162  66.564  1.00  0.00    -0.333 C  
HETATM    2  C   UNL     1      -9.017  10.386  66.042  1.00  0.00    -0.178 C  
HETATM    3  C   UNL     1      -8.279  10.012  64.732  1.00  0.00    -0.155 C  
ENDROOT
BRANCH   2   4
HETATM    4  C   UNL     1     -10.021  11.501  65.680  1.00  0.00    -0.236 C  
HETATM    5  O   UNL     1      -9.841  12.649  66.505  1.00  0.00    -0.243 OA 
HETATM    6  H   UNL     1     -10.459  13.335  66.283  1.00  0.00     0.000 HD 
ENDBRANCH   2   4
BRANCH   2   7
HETATM    7  C   UNL     1      -8.005  10.914  67.106  1.00  0.00    -0.127 C  
HETATM    8  O   UNL     1      -8.601  11.835  68.035  1.00  0.00    -0.144 OA 
HETATM    9  H   UNL     1      -7.986  12.156  68.683  1.00  0.00     0.000 HD 
BRANCH   7  10
HETATM   10  C   UNL     1      -7.295   9.818  67.932  1.00  0.00    -0.085 C  
HETATM   11  O   UNL     1      -7.511   9.586  69.117  1.00  0.00    -0.070 OA 
HETATM   12  N   UNL     1      -6.426   9.056  67.183  1.00  0.00    -0.060 N  
HETATM   13  H   UNL     1      -6.223   9.323  66.219  1.00  0.00     0.000 HD 
BRANCH  12  14
HETATM   14  C   UNL     1      -5.796   7.882  67.745  1.00  0.00    -0.041 C  
BRANCH  14  15
HETATM   15  C   UNL     1      -6.568   6.595  67.471  1.00  0.00    -0.057 C  
BRANCH  15  16
HETATM   16  C   UNL     1      -7.010   6.006  68.791  1.00  0.00    -0.072 C  
HETATM   17  O   UNL     1      -7.507   4.886  68.866  1.00  0.00    -0.063 OA 
HETATM   18  N   UNL     1      -6.779   6.817  69.878  1.00  0.00    -0.048 N  
HETATM   19  H   UNL     1      -6.315   7.708  69.707  1.00  0.00     0.000 HD 
BRANCH  18  20
HETATM   20  C   UNL     1      -7.147   6.503  71.262  1.00  0.00    -0.077 C  
BRANCH  20  21
HETATM   21  C   UNL     1      -8.367   7.225  71.841  1.00  0.00    -0.107 C  
BRANCH  21  22
HETATM   22  S   UNL     1      -9.967   6.359  71.610  1.00  0.00    -0.174 SA 
BRANCH  22  23
HETATM   23  S   UNL     1     -10.792   7.267  69.954  1.00  0.00    -0.233 SA 
BRANCH  23  24
HETATM   24  C   UNL     1     -11.462   8.801  70.676  1.00  0.00    -0.231 C  
BRANCH  24  25
HETATM   25  C   UNL     1     -10.460   9.951  70.559  1.00  0.00    -0.264 C  
BRANCH  25  26
HETATM   26  N   UNL     1     -10.813  10.976  69.581  1.00  0.00    -0.401 N  
HETATM   27  H   UNL     1     -10.251  11.046  68.732  1.00  0.00     0.000 HD 
HETATM   28  C   UNL     1     -11.864  11.855  69.741  1.00  0.00    -0.340 C  
HETATM   29  O   UNL     1     -12.570  11.898  70.743  1.00  0.00    -0.308 OA 
BRANCH  28  30
HETATM   30  C   UNL     1     -12.116  12.754  68.552  1.00  0.00    -0.142 C  
BRANCH  30  31
HETATM   31  C   UNL     1     -11.874  14.208  68.943  1.00  0.00    -0.347 C  
BRANCH  31  32
HETATM   32  N   UNL     1     -11.084  14.917  67.954  1.00  0.00    -0.287 N  
HETATM   33  H   UNL     1     -11.422  14.958  66.993  1.00  0.00     0.000 HD 
HETATM   34  C   UNL     1      -9.895  15.534  68.266  1.00  0.00    -0.213 C  
HETATM   35  O   UNL     1      -9.363  15.461  69.370  1.00  0.00    -0.250 OA 
BRANCH  34  36
HETATM   36  C   UNL     1      -9.242  16.273  67.077  1.00  0.00    -0.214 C  
HETATM   37  O   UNL     1      -8.773  15.324  66.106  1.00  0.00    -0.446 OA 
HETATM   38  H   UNL     1      -8.371  15.779  65.375  1.00  0.00     0.000 HD 
BRANCH  36  39
HETATM   39  C   UNL     1      -8.086  17.223  67.499  1.00  0.00    -0.197 C  
HETATM   40  C   UNL     1      -7.471  17.939  66.279  1.00  0.00    -0.321 C  
HETATM   41  C   UNL     1      -8.656  18.314  68.435  1.00  0.00    -0.315 C  
BRANCH  39  42
HETATM   42  C   UNL     1      -6.995  16.424  68.252  1.00  0.00    -0.137 C  
HETATM   43  O   UNL     1      -6.383  15.447  67.418  1.00  0.00    -0.256 OA 
HETATM   44  H   UNL     1      -5.714  14.956  67.881  1.00  0.00     0.000 HD 
ENDBRANCH  39  42
ENDBRANCH  36  39
ENDBRANCH  34  36
ENDBRANCH  31  32
ENDBRANCH  30  31
ENDBRANCH  28  30
ENDBRANCH  25  26
ENDBRANCH  24  25
ENDBRANCH  23  24
ENDBRANCH  22  23
ENDBRANCH  21  22
ENDBRANCH  20  21
ENDBRANCH  18  20
ENDBRANCH  15  16
ENDBRANCH  14  15
ENDBRANCH  12  14
ENDBRANCH   7  10
ENDBRANCH   2   7
TORSDOF 19
ENDMDL
MODEL      305
REMARK 921   NORMALIZED FREE ENERGY PREDICTED BY IDOCK:   -3.06 KCAL/MOL
REMARK 922        TOTAL FREE ENERGY PREDICTED BY IDOCK:   -8.63 KCAL/MOL
REMARK 923 INTER-LIGAND FREE ENERGY PREDICTED BY IDOCK:   -5.76 KCAL/MOL
REMARK 924 INTRA-LIGAND FREE ENERGY PREDICTED BY IDOCK:   -2.88 KCAL/MOL
REMARK 927      BINDING AFFINITY PREDICTED BY RF-SCORE:    0.00 PKD
ROOT
HETATM    1  C   UNL     1     -11.353   8.307  72.671  1.00  0.00    -0.421 C  
HETATM    2  C   UNL     1     -11.755   7.206  71.672  1.00  0.00    -0.324 C  
HETATM    3  C   UNL     1     -11.400   5.818  72.260  1.00  0.00    -0.334 C  
ENDROOT
BRANCH   2   4
HETATM    4  C   UNL     1     -13.287   7.229  71.488  1.00  0.00    -0.369 C  
HETATM    5  O   UNL     1     -13.911   8.093  72.436  1.00  0.00    -0.547 OA 
HETATM    6  H   UNL     1     -14.854   8.106  72.323  1.00  0.00     0.000 HD 
ENDBRANCH   2   4
BRANCH   2   7
HETATM    7  C   UNL     1     -11.056   7.409  70.291  1.00  0.00    -0.258 C  
HETATM    8  O   UNL     1     -11.732   6.730  69.219  1.00  0.00    -0.618 OA 
HETATM    9  H   UNL     1     -11.306   6.853  68.379  1.00  0.00     0.000 HD 
BRANCH   7  10
HETATM   10  C   UNL     1     -10.870   8.881  69.863  1.00  0.00    -0.211 C  
HETATM   11  O   UNL     1     -11.731   9.751  69.958  1.00  0.00    -0.189 OA 
HETATM   12  N   UNL     1      -9.595   9.158  69.421  1.00  0.00    -0.161 N  
HETATM   13  H   UNL     1      -8.929   8.396  69.294  1.00  0.00     0.000 HD 
BRANCH  12  14
HETATM   14  C   UNL     1      -9.189  10.516  69.135  1.00  0.00    -0.171 C  
BRANCH  14  15
HETATM   15  C   UNL     1      -9.201  10.847  67.646  1.00  0.00    -0.155 C  
BRANCH  15  16
HETATM   16  C   UNL     1      -7.865  10.458  67.054  1.00  0.00    -0.112 C  
HETATM   17  O   UNL     1      -6.977   9.955  67.735  1.00  0.00    -0.083 OA 
HETATM   18  N   UNL     1      -7.756  10.690  65.702  1.00  0.00    -0.247 N  
HETATM   19  H   UNL     1      -8.574  11.067  65.224  1.00  0.00     0.000 HD 
BRANCH  18  20
HETATM   20  C   UNL     1      -6.560  10.440  64.894  1.00  0.00    -0.060 C  
BRANCH  20  21
HETATM   21  C   UNL     1      -6.478   9.096  64.165  1.00  0.00    -0.084 C  
BRANCH  21  22
HETATM   22  S   UNL     1      -8.088   8.268  63.873  1.00  0.00    -0.085 SA 
BRANCH  22  23
HETATM   23  S   UNL     1      -7.629   6.259  63.897  1.00  0.00    -0.096 SA 
BRANCH  23  24
HETATM   24  C   UNL     1      -8.263   5.761  65.532  1.00  0.00    -0.132 C  
BRANCH  24  25
HETATM   25  C   UNL     1      -8.290   6.947  66.499  1.00  0.00    -0.121 C  
BRANCH  25  26
HETATM   26  N   UNL     1      -7.455   6.790  67.687  1.00  0.00    -0.096 N  
HETATM   27  H   UNL     1      -7.918   6.691  68.591  1.00  0.00     0.000 HD 
HETATM   28  C   UNL     1      -6.077   6.767  67.654  1.00  0.00    -0.028 C  
HETATM   29  O   UNL     1      -5.417   6.932  66.633  1.00  0.00    -0.017 OA 
BRANCH  28  30
HETATM   30  C   UNL     1      -5.423   6.480  68.986  1.00  0.00    -0.016 C  
BRANCH  30  31
HETATM   31  C   UNL     1      -6.093   7.304  70.081  1.00  0.00    -0.024 C  
BRANCH  31  32
HETATM   32  N   UNL     1      -6.427   6.502  71.243  1.00  0.00    -0.048 N  
HETATM   33  H   UNL     1      -5.766   6.462  72.018  1.00  0.00     0.000 HD 
HETATM   34  C   UNL     1      -7.602   5.793  71.336  1.00  0.00    -0.105 C  
HETATM   35  O   UNL     1      -8.414   5.705  70.420  1.00  0.00    -0.122 OA 
BRANCH  34  36
HETATM   36  C   UNL     1      -7.779   5.049  72.678  1.00  0.00    -0.097 C  
HETATM   37  O   UNL     1      -6.822   5.528  73.636  1.00  0.00    -0.077 OA 
HETATM   38  H   UNL     1      -6.931   5.070  74.461  1.00  0.00     0.000 HD 
BRANCH  36  39
HETATM   39  C   UNL     1      -7.677   3.504  72.547  1.00  0.00    -0.067 C  
HETATM   40  C   UNL     1      -6.724   3.097  71.404  1.00  0.00    -0.030 C  
HETATM   41  C   UNL     1      -7.093   2.930  73.859  1.00  0.00    -0.037 C  
BRANCH  39  42
HETATM   42  C   UNL     1      -9.082   2.899  72.308  1.00  0.00    -0.089 C  
HETATM   43  O   UNL     1      -9.391   2.810  70.921  1.00  0.00    -0.125 OA 
HETATM   44  H   UNL     1     -10.253   2.440  70.774  1.00  0.00     0.000 HD 
ENDBRANCH  39  42
ENDBRANCH  36  39
ENDBRANCH  34  36
ENDBRANCH  31  32
ENDBRANCH  30  31
ENDBRANCH  28  30
ENDBRANCH  25  26
ENDBRANCH  24  25
ENDBRANCH  23  24
ENDBRANCH  22  23
ENDBRANCH  21  22
ENDBRANCH  20  21
ENDBRANCH  18  20
ENDBRANCH  15  16
ENDBRANCH  14  15
ENDBRANCH  12  14
ENDBRANCH   7  10
ENDBRANCH   2   7
TORSDOF 19
ENDMDL
MODEL      306
REMARK 921   NORMALIZED FREE ENERGY PREDICTED BY IDOCK:   -3.05 KCAL/MOL
REMARK 922        TOTAL FREE ENERGY PREDICTED BY IDOCK:   -8.61 KCAL/MOL
REMARK 923 INTER-LIGAND FREE ENERGY PREDICTED BY IDOCK:   -6.81 KCAL/MOL
REMARK 924 INTRA-LIGAND FREE ENERGY PREDICTED BY IDOCK:   -1.80 KCAL/MOL
REMARK 927      BINDING AFFINITY PREDICTED BY RF-SCORE:    0.00 PKD
ROOT
HETATM    1  C   UNL     1     -10.922   4.193  64.797  1.00  0.00    -0.054 C  
HETATM    2  C   UNL     1      -9.398   4.099  64.593  1.00  0.00    -0.163 C  
HETATM    3  C   UNL     1      -8.910   2.679  64.974  1.00  0.00    -0.123 C  
ENDROOT
BRANCH   2   4
HETATM    4  C   UNL     1      -9.079   4.288  63.095  1.00  0.00    -0.130 C  
HETATM    5  O   UNL     1      -7.896   3.585  62.723  1.00  0.00    -0.067 OA 
HETATM    6  H   UNL     1      -7.700   3.702  61.801  1.00  0.00     0.000 HD 
ENDBRANCH   2   4
BRANCH   2   7
HETATM    7  C   UNL     1      -8.645   5.178  65.432  1.00  0.00    -0.146 C  
HETATM    8  O   UNL     1      -9.403   5.633  66.566  1.00  0.00    -0.140 OA 
HETATM    9  H   UNL     1      -8.944   6.289  67.076  1.00  0.00     0.000 HD 
BRANCH   7  10
HETATM   10  C   UNL     1      -7.252   4.750  65.947  1.00  0.00    -0.076 C  
HETATM   11  O   UNL     1      -6.294   4.482  65.228  1.00  0.00    -0.033 OA 
HETATM   12  N   UNL     1      -7.157   4.765  67.321  1.00  0.00    -0.067 N  
HETATM   13  H   UNL     1      -7.993   4.928  67.882  1.00  0.00     0.000 HD 
BRANCH  12  14
HETATM   14  C   UNL     1      -5.886   4.554  67.977  1.00  0.00    -0.022 C  
BRANCH  14  15
HETATM   15  C   UNL     1      -5.803   5.206  69.354  1.00  0.00    -0.020 C  
BRANCH  15  16
HETATM   16  C   UNL     1      -6.964   6.163  69.505  1.00  0.00    -0.067 C  
HETATM   17  O   UNL     1      -8.072   5.785  69.873  1.00  0.00    -0.103 OA 
HETATM   18  N   UNL     1      -6.656   7.475  69.224  1.00  0.00    -0.039 N  
HETATM   19  H   UNL     1      -5.690   7.686  68.974  1.00  0.00     0.000 HD 
BRANCH  18  20
HETATM   20  C   UNL     1      -7.603   8.592  69.255  1.00  0.00    -0.094 C  
BRANCH  20  21
HETATM   21  C   UNL     1      -8.663   8.640  68.151  1.00  0.00    -0.142 C  
BRANCH  21  22
HETATM   22  S   UNL     1      -8.297   9.789  66.769  1.00  0.00    -0.124 SA 
BRANCH  22  23
HETATM   23  S   UNL     1      -6.520  10.678  67.315  1.00  0.00    -0.075 SA 
BRANCH  23  24
HETATM   24  C   UNL     1      -7.102  12.007  68.419  1.00  0.00    -0.084 C  
BRANCH  24  25
HETATM   25  C   UNL     1      -7.357  13.300  67.641  1.00  0.00    -0.161 C  
BRANCH  25  26
HETATM   26  N   UNL     1      -8.504  13.257  66.738  1.00  0.00    -0.428 N  
HETATM   27  H   UNL     1      -8.327  13.178  65.737  1.00  0.00     0.000 HD 
HETATM   28  C   UNL     1      -9.814  13.316  67.166  1.00  0.00    -0.237 C  
HETATM   29  O   UNL     1     -10.143  13.466  68.337  1.00  0.00    -0.241 OA 
BRANCH  28  30
HETATM   30  C   UNL     1     -10.839  13.140  66.069  1.00  0.00    -0.287 C  
BRANCH  30  31
HETATM   31  C   UNL     1     -10.762  14.312  65.095  1.00  0.00    -0.394 C  
BRANCH  31  32
HETATM   32  N   UNL     1     -10.905  15.590  65.765  1.00  0.00    -0.338 N  
HETATM   33  H   UNL     1     -11.827  15.870  66.099  1.00  0.00     0.000 HD 
HETATM   34  C   UNL     1      -9.842  16.439  65.967  1.00  0.00    -0.335 C  
HETATM   35  O   UNL     1      -8.716  16.233  65.522  1.00  0.00    -0.203 OA 
BRANCH  34  36
HETATM   36  C   UNL     1     -10.204  17.724  66.745  1.00  0.00    -0.351 C  
HETATM   37  O   UNL     1      -9.638  18.870  66.092  1.00  0.00    -0.413 OA 
HETATM   38  H   UNL     1      -9.861  19.660  66.571  1.00  0.00     0.000 HD 
BRANCH  36  39
HETATM   39  C   UNL     1      -9.766  17.687  68.236  1.00  0.00    -0.315 C  
HETATM   40  C   UNL     1      -8.337  17.128  68.390  1.00  0.00    -0.251 C  
HETATM   41  C   UNL     1      -9.758  19.132  68.787  1.00  0.00    -0.491 C  
BRANCH  39  42
HETATM   42  C   UNL     1     -10.763  16.835  69.059  1.00  0.00    -0.331 C  
HETATM   43  O   UNL     1     -10.093  15.882  69.878  1.00  0.00    -0.268 OA 
HETATM   44  H   UNL     1     -10.705  15.358  70.383  1.00  0.00     0.000 HD 
ENDBRANCH  39  42
ENDBRANCH  36  39
ENDBRANCH  34  36
ENDBRANCH  31  32
ENDBRANCH  30  31
ENDBRANCH  28  30
ENDBRANCH  25  26
ENDBRANCH  24  25
ENDBRANCH  23  24
ENDBRANCH  22  23
ENDBRANCH  21  22
ENDBRANCH  20  21
ENDBRANCH  18  20
ENDBRANCH  15  16
ENDBRANCH  14  15
ENDBRANCH  12  14
ENDBRANCH   7  10
ENDBRANCH   2   7
TORSDOF 19
ENDMDL
MODEL      307
REMARK 921   NORMALIZED FREE ENERGY PREDICTED BY IDOCK:   -3.03 KCAL/MOL
REMARK 922        TOTAL FREE ENERGY PREDICTED BY IDOCK:   -8.59 KCAL/MOL
REMARK 923 INTER-LIGAND FREE ENERGY PREDICTED BY IDOCK:   -7.22 KCAL/MOL
REMARK 924 INTRA-LIGAND FREE ENERGY PREDICTED BY IDOCK:   -1.36 KCAL/MOL
REMARK 927      BINDING AFFINITY PREDICTED BY RF-SCORE:    0.00 PKD
ROOT
HETATM    1  C   UNL     1      -9.475   6.884  72.934  1.00  0.00    -0.161 C  
HETATM    2  C   UNL     1     -10.248   6.049  71.896  1.00  0.00    -0.237 C  
HETATM    3  C   UNL     1     -11.529   5.469  72.546  1.00  0.00    -0.303 C  
ENDROOT
BRANCH   2   4
HETATM    4  C   UNL     1     -10.713   6.975  70.752  1.00  0.00    -0.228 C  
HETATM    5  O   UNL     1     -11.988   6.581  70.252  1.00  0.00    -0.500 OA 
HETATM    6  H   UNL     1     -12.274   7.151  69.547  1.00  0.00     0.000 HD 
ENDBRANCH   2   4
BRANCH   2   7
HETATM    7  C   UNL     1      -9.363   4.901  71.317  1.00  0.00    -0.150 C  
HETATM    8  O   UNL     1      -9.966   3.604  71.462  1.00  0.00    -0.174 OA 
HETATM    9  H   UNL     1      -9.428   2.906  71.110  1.00  0.00     0.000 HD 
BRANCH   7  10
HETATM   10  C   UNL     1      -8.969   5.066  69.833  1.00  0.00    -0.106 C  
HETATM   11  O   UNL     1      -7.942   5.612  69.439  1.00  0.00    -0.096 OA 
HETATM   12  N   UNL     1      -9.858   4.467  68.969  1.00  0.00    -0.152 N  
HETATM   13  H   UNL     1     -10.731   4.083  69.330  1.00  0.00     0.000 HD 
BRANCH  12  14
HETATM   14  C   UNL     1      -9.570   4.375  67.555  1.00  0.00    -0.172 C  
BRANCH  14  15
HETATM   15  C   UNL     1      -9.137   2.980  67.117  1.00  0.00    -0.200 C  
BRANCH  15  16
HETATM   16  C   UNL     1      -7.655   3.007  66.813  1.00  0.00    -0.075 C  
HETATM   17  O   UNL     1      -6.814   2.778  67.676  1.00  0.00    -0.043 OA 
HETATM   18  N   UNL     1      -7.353   3.279  65.499  1.00  0.00    -0.074 N  
HETATM   19  H   UNL     1      -8.133   3.406  64.855  1.00  0.00     0.000 HD 
BRANCH  18  20
HETATM   20  C   UNL     1      -6.000   3.401  64.950  1.00  0.00    -0.022 C  
BRANCH  20  21
HETATM   21  C   UNL     1      -5.247   4.705  65.232  1.00  0.00    -0.012 C  
BRANCH  21  22
HETATM   22  S   UNL     1      -5.130   5.860  63.812  1.00  0.00    -0.017 SA 
BRANCH  22  23
HETATM   23  S   UNL     1      -6.990   5.760  62.931  1.00  0.00    -0.049 SA 
BRANCH  23  24
HETATM   24  C   UNL     1      -8.064   6.348  64.282  1.00  0.00    -0.063 C  
BRANCH  24  25
HETATM   25  C   UNL     1      -7.677   7.763  64.720  1.00  0.00    -0.119 C  
BRANCH  25  26
HETATM   26  N   UNL     1      -8.797   8.603  65.137  1.00  0.00    -0.356 N  
HETATM   27  H   UNL     1      -9.311   8.339  65.978  1.00  0.00     0.000 HD 
HETATM   28  C   UNL     1      -9.196   9.735  64.458  1.00  0.00    -0.253 C  
HETATM   29  O   UNL     1      -8.688  10.115  63.408  1.00  0.00    -0.174 OA 
BRANCH  28  30
HETATM   30  C   UNL     1     -10.303  10.513  65.132  1.00  0.00    -0.310 C  
BRANCH  30  31
HETATM   31  C   UNL     1     -10.286  10.240  66.633  1.00  0.00    -0.219 C  
BRANCH  31  32
HETATM   32  N   UNL     1     -10.222  11.463  67.411  1.00  0.00    -0.190 N  
HETATM   33  H   UNL     1      -9.330  11.952  67.485  1.00  0.00     0.000 HD 
HETATM   34  C   UNL     1     -11.320  11.987  68.052  1.00  0.00    -0.296 C  
HETATM   35  O   UNL     1     -12.410  11.425  68.097  1.00  0.00    -0.502 OA 
BRANCH  34  36
HETATM   36  C   UNL     1     -11.043  13.321  68.780  1.00  0.00    -0.266 C  
HETATM   37  O   UNL     1     -12.102  13.602  69.708  1.00  0.00    -0.320 OA 
HETATM   38  H   UNL     1     -11.932  14.423  70.156  1.00  0.00     0.000 HD 
BRANCH  36  39
HETATM   39  C   UNL     1     -10.844  14.523  67.815  1.00  0.00    -0.267 C  
HETATM   40  C   UNL     1     -11.555  14.286  66.466  1.00  0.00    -0.390 C  
HETATM   41  C   UNL     1     -11.475  15.783  68.452  1.00  0.00    -0.367 C  
BRANCH  39  42
HETATM   42  C   UNL     1      -9.334  14.771  67.584  1.00  0.00    -0.195 C  
HETATM   43  O   UNL     1      -8.614  14.833  68.811  1.00  0.00    -0.163 OA 
HETATM   44  H   UNL     1      -7.688  14.986  68.669  1.00  0.00     0.000 HD 
ENDBRANCH  39  42
ENDBRANCH  36  39
ENDBRANCH  34  36
ENDBRANCH  31  32
ENDBRANCH  30  31
ENDBRANCH  28  30
ENDBRANCH  25  26
ENDBRANCH  24  25
ENDBRANCH  23  24
ENDBRANCH  22  23
ENDBRANCH  21  22
ENDBRANCH  20  21
ENDBRANCH  18  20
ENDBRANCH  15  16
ENDBRANCH  14  15
ENDBRANCH  12  14
ENDBRANCH   7  10
ENDBRANCH   2   7
TORSDOF 19
ENDMDL
MODEL      308
REMARK 921   NORMALIZED FREE ENERGY PREDICTED BY IDOCK:   -3.02 KCAL/MOL
REMARK 922        TOTAL FREE ENERGY PREDICTED BY IDOCK:   -8.56 KCAL/MOL
REMARK 923 INTER-LIGAND FREE ENERGY PREDICTED BY IDOCK:   -8.76 KCAL/MOL
REMARK 924 INTRA-LIGAND FREE ENERGY PREDICTED BY IDOCK:    0.20 KCAL/MOL
REMARK 927      BINDING AFFINITY PREDICTED BY RF-SCORE:    0.00 PKD
ROOT
HETATM    1  C   UNL     1      -9.596   2.355  68.505  1.00  0.00    -0.108 C  
HETATM    2  C   UNL     1      -8.728   3.584  68.176  1.00  0.00    -0.133 C  
HETATM    3  C   UNL     1      -7.236   3.172  68.144  1.00  0.00    -0.050 C  
ENDROOT
BRANCH   2   4
HETATM    4  C   UNL     1      -9.079   4.082  66.757  1.00  0.00    -0.143 C  
HETATM    5  O   UNL     1     -10.484   4.273  66.607  1.00  0.00    -0.279 OA 
HETATM    6  H   UNL     1     -10.699   4.579  65.733  1.00  0.00     0.000 HD 
ENDBRANCH   2   4
BRANCH   2   7
HETATM    7  C   UNL     1      -8.955   4.733  69.207  1.00  0.00    -0.095 C  
HETATM    8  O   UNL     1      -9.660   5.854  68.648  1.00  0.00    -0.119 OA 
HETATM    9  H   UNL     1      -9.798   6.553  69.276  1.00  0.00     0.000 HD 
BRANCH   7  10
HETATM   10  C   UNL     1      -9.696   4.316  70.497  1.00  0.00    -0.212 C  
HETATM   11  O   UNL     1      -9.561   3.234  71.062  1.00  0.00    -0.153 OA 
HETATM   12  N   UNL     1     -10.489   5.317  71.012  1.00  0.00    -0.225 N  
HETATM   13  H   UNL     1     -10.627   6.176  70.478  1.00  0.00     0.000 HD 
BRANCH  12  14
HETATM   14  C   UNL     1     -11.129   5.168  72.300  1.00  0.00    -0.107 C  
BRANCH  14  15
HETATM   15  C   UNL     1     -10.143   5.145  73.463  1.00  0.00    -0.205 C  
BRANCH  15  16
HETATM   16  C   UNL     1      -9.437   6.481  73.524  1.00  0.00    -0.145 C  
HETATM   17  O   UNL     1      -8.782   6.822  74.504  1.00  0.00    -0.156 OA 
HETATM   18  N   UNL     1      -9.574   7.246  72.389  1.00  0.00    -0.148 N  
HETATM   19  H   UNL     1     -10.100   6.844  71.614  1.00  0.00     0.000 HD 
BRANCH  18  20
HETATM   20  C   UNL     1      -9.024   8.592  72.204  1.00  0.00    -0.230 C  
BRANCH  20  21
HETATM   21  C   UNL     1      -9.317   9.288  70.872  1.00  0.00    -0.245 C  
BRANCH  21  22
HETATM   22  S   UNL     1     -10.997   9.001  70.195  1.00  0.00    -0.210 SA 
BRANCH  22  23
HETATM   23  S   UNL     1     -11.568  10.845  69.474  1.00  0.00    -0.341 SA 
BRANCH  23  24
HETATM   24  C   UNL     1     -12.952  11.258  70.585  1.00  0.00    -0.027 C  
BRANCH  24  25
HETATM   25  C   UNL     1     -12.629  12.488  71.437  1.00  0.00    -0.194 C  
BRANCH  25  26
HETATM   26  N   UNL     1     -12.003  13.590  70.710  1.00  0.00    -0.516 N  
HETATM   27  H   UNL     1     -11.607  13.397  69.790  1.00  0.00     0.000 HD 
HETATM   28  C   UNL     1     -11.919  14.877  71.200  1.00  0.00    -0.335 C  
HETATM   29  O   UNL     1     -12.311  15.210  72.313  1.00  0.00    -0.325 OA 
BRANCH  28  30
HETATM   30  C   UNL     1     -11.333  15.878  70.231  1.00  0.00    -0.381 C  
BRANCH  30  31
HETATM   31  C   UNL     1     -10.177  15.242  69.465  1.00  0.00    -0.260 C  
BRANCH  31  32
HETATM   32  N   UNL     1     -10.375  15.298  68.029  1.00  0.00    -0.241 N  
HETATM   33  H   UNL     1     -10.963  16.036  67.643  1.00  0.00     0.000 HD 
HETATM   34  C   UNL     1      -9.799  14.392  67.170  1.00  0.00    -0.254 C  
HETATM   35  O   UNL     1      -9.153  13.418  67.546  1.00  0.00    -0.194 OA 
BRANCH  34  36
HETATM   36  C   UNL     1     -10.098  14.665  65.679  1.00  0.00    -0.363 C  
HETATM   37  O   UNL     1     -10.500  16.032  65.501  1.00  0.00    -0.371 OA 
HETATM   38  H   UNL     1     -10.684  16.199  64.584  1.00  0.00     0.000 HD 
BRANCH  36  39
HETATM   39  C   UNL     1     -11.168  13.710  65.078  1.00  0.00    -0.329 C  
HETATM   40  C   UNL     1     -11.929  12.950  66.184  1.00  0.00    -0.491 C  
HETATM   41  C   UNL     1     -12.206  14.553  64.301  1.00  0.00    -0.441 C  
BRANCH  39  42
HETATM   42  C   UNL     1     -10.497  12.708  64.108  1.00  0.00    -0.413 C  
HETATM   43  O   UNL     1      -9.748  11.717  64.805  1.00  0.00    -0.322 OA 
HETATM   44  H   UNL     1      -9.336  11.102  64.210  1.00  0.00     0.000 HD 
ENDBRANCH  39  42
ENDBRANCH  36  39
ENDBRANCH  34  36
ENDBRANCH  31  32
ENDBRANCH  30  31
ENDBRANCH  28  30
ENDBRANCH  25  26
ENDBRANCH  24  25
ENDBRANCH  23  24
ENDBRANCH  22  23
ENDBRANCH  21  22
ENDBRANCH  20  21
ENDBRANCH  18  20
ENDBRANCH  15  16
ENDBRANCH  14  15
ENDBRANCH  12  14
ENDBRANCH   7  10
ENDBRANCH   2   7
TORSDOF 19
ENDMDL
MODEL      309
REMARK 921   NORMALIZED FREE ENERGY PREDICTED BY IDOCK:   -3.01 KCAL/MOL
REMARK 922        TOTAL FREE ENERGY PREDICTED BY IDOCK:   -8.54 KCAL/MOL
REMARK 923 INTER-LIGAND FREE ENERGY PREDICTED BY IDOCK:   -7.56 KCAL/MOL
REMARK 924 INTRA-LIGAND FREE ENERGY PREDICTED BY IDOCK:   -0.98 KCAL/MOL
REMARK 927      BINDING AFFINITY PREDICTED BY RF-SCORE:    0.00 PKD
ROOT
HETATM    1  C   UNL     1     -11.143   9.158  70.731  1.00  0.00    -0.336 C  
HETATM    2  C   UNL     1     -11.676   8.055  71.663  1.00  0.00    -0.325 C  
HETATM    3  C   UNL     1     -10.745   7.921  72.894  1.00  0.00    -0.440 C  
ENDROOT
BRANCH   2   4
HETATM    4  C   UNL     1     -13.060   8.476  72.201  1.00  0.00    -0.358 C  
HETATM    5  O   UNL     1     -14.113   7.901  71.430  1.00  0.00    -0.524 OA 
HETATM    6  H   UNL     1     -14.965   8.161  71.761  1.00  0.00     0.000 HD 
ENDBRANCH   2   4
BRANCH   2   7
HETATM    7  C   UNL     1     -11.794   6.688  70.918  1.00  0.00    -0.377 C  
HETATM    8  O   UNL     1     -12.359   6.818  69.602  1.00  0.00    -0.332 OA 
HETATM    9  H   UNL     1     -12.431   5.987  69.148  1.00  0.00     0.000 HD 
BRANCH   7  10
HETATM   10  C   UNL     1     -10.471   5.904  70.779  1.00  0.00    -0.248 C  
HETATM   11  O   UNL     1      -9.505   6.274  70.117  1.00  0.00    -0.158 OA 
HETATM   12  N   UNL     1     -10.441   4.757  71.541  1.00  0.00    -0.127 N  
HETATM   13  H   UNL     1     -11.286   4.450  72.023  1.00  0.00     0.000 HD 
BRANCH  12  14
HETATM   14  C   UNL     1      -9.227   3.982  71.667  1.00  0.00    -0.126 C  
BRANCH  14  15
HETATM   15  C   UNL     1      -9.266   2.671  70.889  1.00  0.00    -0.201 C  
BRANCH  15  16
HETATM   16  C   UNL     1      -8.637   2.895  69.532  1.00  0.00    -0.067 C  
HETATM   17  O   UNL     1      -7.492   2.531  69.281  1.00  0.00    -0.044 OA 
HETATM   18  N   UNL     1      -9.465   3.508  68.619  1.00  0.00    -0.164 N  
HETATM   19  H   UNL     1     -10.414   3.725  68.919  1.00  0.00     0.000 HD 
BRANCH  18  20
HETATM   20  C   UNL     1      -9.091   3.875  67.250  1.00  0.00    -0.156 C  
BRANCH  20  21
HETATM   21  C   UNL     1      -8.695   5.333  67.001  1.00  0.00    -0.107 C  
BRANCH  21  22
HETATM   22  S   UNL     1     -10.094   6.514  66.899  1.00  0.00    -0.195 SA 
BRANCH  22  23
HETATM   23  S   UNL     1      -9.189   8.365  66.919  1.00  0.00    -0.167 SA 
BRANCH  23  24
HETATM   24  C   UNL     1      -7.742   8.074  65.848  1.00  0.00    -0.092 C  
BRANCH  24  25
HETATM   25  C   UNL     1      -6.458   8.592  66.501  1.00  0.00    -0.059 C  
BRANCH  25  26
HETATM   26  N   UNL     1      -6.571   9.915  67.110  1.00  0.00    -0.069 N  
HETATM   27  H   UNL     1      -7.133  10.010  67.956  1.00  0.00     0.000 HD 
HETATM   28  C   UNL     1      -5.958  11.043  66.605  1.00  0.00    -0.114 C  
HETATM   29  O   UNL     1      -5.306  11.057  65.566  1.00  0.00    -0.141 OA 
BRANCH  28  30
HETATM   30  C   UNL     1      -6.118  12.279  67.460  1.00  0.00    -0.140 C  
BRANCH  30  31
HETATM   31  C   UNL     1      -7.002  11.965  68.663  1.00  0.00    -0.095 C  
BRANCH  31  32
HETATM   32  N   UNL     1      -8.356  12.457  68.490  1.00  0.00    -0.310 N  
HETATM   33  H   UNL     1      -9.074  11.814  68.157  1.00  0.00     0.000 HD 
HETATM   34  C   UNL     1      -8.706  13.760  68.758  1.00  0.00     0.038 C  
HETATM   35  O   UNL     1      -7.897  14.628  69.074  1.00  0.00    -0.141 OA 
BRANCH  34  36
HETATM   36  C   UNL     1     -10.208  14.059  68.556  1.00  0.00    -0.237 C  
HETATM   37  O   UNL     1     -10.968  13.519  69.649  1.00  0.00    -0.455 OA 
HETATM   38  H   UNL     1     -11.891  13.703  69.524  1.00  0.00     0.000 HD 
BRANCH  36  39
HETATM   39  C   UNL     1     -10.767  13.532  67.205  1.00  0.00    -0.282 C  
HETATM   40  C   UNL     1     -10.340  12.072  66.949  1.00  0.00    -0.238 C  
HETATM   41  C   UNL     1     -12.313  13.556  67.263  1.00  0.00    -0.179 C  
BRANCH  39  42
HETATM   42  C   UNL     1     -10.287  14.438  66.045  1.00  0.00    -0.309 C  
HETATM   43  O   UNL     1      -9.192  13.861  65.341  1.00  0.00    -0.286 OA 
HETATM   44  H   UNL     1      -8.898  14.417  64.630  1.00  0.00     0.000 HD 
ENDBRANCH  39  42
ENDBRANCH  36  39
ENDBRANCH  34  36
ENDBRANCH  31  32
ENDBRANCH  30  31
ENDBRANCH  28  30
ENDBRANCH  25  26
ENDBRANCH  24  25
ENDBRANCH  23  24
ENDBRANCH  22  23
ENDBRANCH  21  22
ENDBRANCH  20  21
ENDBRANCH  18  20
ENDBRANCH  15  16
ENDBRANCH  14  15
ENDBRANCH  12  14
ENDBRANCH   7  10
ENDBRANCH   2   7
TORSDOF 19
ENDMDL
MODEL      310
REMARK 921   NORMALIZED FREE ENERGY PREDICTED BY IDOCK:   -3.00 KCAL/MOL
REMARK 922        TOTAL FREE ENERGY PREDICTED BY IDOCK:   -8.52 KCAL/MOL
REMARK 923 INTER-LIGAND FREE ENERGY PREDICTED BY IDOCK:   -7.26 KCAL/MOL
REMARK 924 INTRA-LIGAND FREE ENERGY PREDICTED BY IDOCK:   -1.26 KCAL/MOL
REMARK 927      BINDING AFFINITY PREDICTED BY RF-SCORE:    0.00 PKD
ROOT
HETATM    1  C   UNL     1     -10.830  15.463  70.685  1.00  0.00    -0.318 C  
HETATM    2  C   UNL     1     -11.970  14.562  70.175  1.00  0.00    -0.377 C  
HETATM    3  C   UNL     1     -13.228  15.423  69.903  1.00  0.00     0.422 C  
ENDROOT
BRANCH   2   4
HETATM    4  C   UNL     1     -11.556  13.944  68.823  1.00  0.00    -0.335 C  
HETATM    5  O   UNL     1     -12.420  14.370  67.772  1.00  0.00    -0.588 OA 
HETATM    6  H   UNL     1     -12.166  13.989  66.939  1.00  0.00     0.000 HD 
ENDBRANCH   2   4
BRANCH   2   7
HETATM    7  C   UNL     1     -12.297  13.427  71.195  1.00  0.00    -0.259 C  
HETATM    8  O   UNL     1     -13.373  13.769  72.085  1.00  0.00    -0.394 OA 
HETATM    9  H   UNL     1     -13.572  13.078  72.705  1.00  0.00     0.000 HD 
BRANCH   7  10
HETATM   10  C   UNL     1     -12.635  12.058  70.563  1.00  0.00    -0.109 C  
HETATM   11  O   UNL     1     -12.468  11.775  69.380  1.00  0.00    -0.095 OA 
HETATM   12  N   UNL     1     -13.086  11.136  71.481  1.00  0.00    -0.424 N  
HETATM   13  H   UNL     1     -13.275  11.430  72.439  1.00  0.00     0.000 HD 
BRANCH  12  14
HETATM   14  C   UNL     1     -13.294   9.756  71.103  1.00  0.00    -0.291 C  
BRANCH  14  15
HETATM   15  C   UNL     1     -12.844   8.765  72.171  1.00  0.00    -0.456 C  
BRANCH  15  16
HETATM   16  C   UNL     1     -12.685   7.404  71.531  1.00  0.00    -0.372 C  
HETATM   17  O   UNL     1     -13.368   6.444  71.873  1.00  0.00    -0.074 OA 
HETATM   18  N   UNL     1     -11.740   7.356  70.532  1.00  0.00    -0.456 N  
HETATM   19  H   UNL     1     -11.264   8.226  70.295  1.00  0.00     0.000 HD 
BRANCH  18  20
HETATM   20  C   UNL     1     -11.363   6.156  69.780  1.00  0.00    -0.382 C  
BRANCH  20  21
HETATM   21  C   UNL     1     -10.656   5.040  70.554  1.00  0.00    -0.080 C  
BRANCH  21  22
HETATM   22  S   UNL     1      -9.418   5.608  71.782  1.00  0.00    -0.149 SA 
BRANCH  22  23
HETATM   23  S   UNL     1      -7.696   5.855  70.678  1.00  0.00    -0.098 SA 
BRANCH  23  24
HETATM   24  C   UNL     1      -8.224   5.254  69.040  1.00  0.00    -0.085 C  
BRANCH  24  25
HETATM   25  C   UNL     1      -7.825   6.235  67.936  1.00  0.00    -0.103 C  
BRANCH  25  26
HETATM   26  N   UNL     1      -8.869   7.182  67.549  1.00  0.00    -0.120 N  
HETATM   27  H   UNL     1      -9.610   6.854  66.930  1.00  0.00     0.000 HD 
HETATM   28  C   UNL     1      -8.906   8.493  67.975  1.00  0.00    -0.142 C  
HETATM   29  O   UNL     1      -8.039   9.008  68.673  1.00  0.00    -0.104 OA 
BRANCH  28  30
HETATM   30  C   UNL     1     -10.137   9.257  67.543  1.00  0.00    -0.273 C  
BRANCH  30  31
HETATM   31  C   UNL     1      -9.742  10.656  67.081  1.00  0.00    -0.171 C  
BRANCH  31  32
HETATM   32  N   UNL     1      -8.569  10.639  66.227  1.00  0.00    -0.147 N  
HETATM   33  H   UNL     1      -7.661  10.863  66.635  1.00  0.00     0.000 HD 
HETATM   34  C   UNL     1      -8.636  10.332  64.888  1.00  0.00    -0.182 C  
HETATM   35  O   UNL     1      -9.690  10.139  64.290  1.00  0.00    -0.310 OA 
BRANCH  34  36
HETATM   36  C   UNL     1      -7.264  10.322  64.178  1.00  0.00    -0.057 C  
HETATM   37  O   UNL     1      -7.396  10.847  62.848  1.00  0.00    -0.357 OA 
HETATM   38  H   UNL     1      -6.553  10.840  62.411  1.00  0.00     0.000 HD 
BRANCH  36  39
HETATM   39  C   UNL     1      -6.600   8.917  64.135  1.00  0.00    -0.082 C  
HETATM   40  C   UNL     1      -7.639   7.796  64.342  1.00  0.00    -0.110 C  
HETATM   41  C   UNL     1      -5.969   8.708  62.739  1.00  0.00    -0.087 C  
BRANCH  39  42
HETATM   42  C   UNL     1      -5.493   8.823  65.213  1.00  0.00    -0.039 C  
HETATM   43  O   UNL     1      -5.978   9.185  66.502  1.00  0.00    -0.057 OA 
HETATM   44  H   UNL     1      -5.299   9.127  67.164  1.00  0.00     0.000 HD 
ENDBRANCH  39  42
ENDBRANCH  36  39
ENDBRANCH  34  36
ENDBRANCH  31  32
ENDBRANCH  30  31
ENDBRANCH  28  30
ENDBRANCH  25  26
ENDBRANCH  24  25
ENDBRANCH  23  24
ENDBRANCH  22  23
ENDBRANCH  21  22
ENDBRANCH  20  21
ENDBRANCH  18  20
ENDBRANCH  15  16
ENDBRANCH  14  15
ENDBRANCH  12  14
ENDBRANCH   7  10
ENDBRANCH   2   7
TORSDOF 19
ENDMDL
MODEL      311
REMARK 921   NORMALIZED FREE ENERGY PREDICTED BY IDOCK:   -2.98 KCAL/MOL
REMARK 922        TOTAL FREE ENERGY PREDICTED BY IDOCK:   -8.47 KCAL/MOL
REMARK 923 INTER-LIGAND FREE ENERGY PREDICTED BY IDOCK:   -8.56 KCAL/MOL
REMARK 924 INTRA-LIGAND FREE ENERGY PREDICTED BY IDOCK:    0.09 KCAL/MOL
REMARK 927      BINDING AFFINITY PREDICTED BY RF-SCORE:    0.00 PKD
ROOT
HETATM    1  C   UNL     1     -12.486  11.725  63.630  1.00  0.00    -0.482 C  
HETATM    2  C   UNL     1     -11.581  12.561  64.553  1.00  0.00    -0.406 C  
HETATM    3  C   UNL     1     -11.487  11.883  65.942  1.00  0.00    -0.340 C  
ENDROOT
BRANCH   2   4
HETATM    4  C   UNL     1     -10.151  12.579  63.973  1.00  0.00    -0.289 C  
HETATM    5  O   UNL     1     -10.026  11.681  62.872  1.00  0.00    -0.577 OA 
HETATM    6  H   UNL     1      -9.145  11.692  62.515  1.00  0.00     0.000 HD 
ENDBRANCH   2   4
BRANCH   2   7
HETATM    7  C   UNL     1     -12.109  14.023  64.695  1.00  0.00    -0.440 C  
HETATM    8  O   UNL     1     -13.406  14.090  65.313  1.00  0.00    -0.741 OA 
HETATM    9  H   UNL     1     -13.727  14.979  65.399  1.00  0.00     0.000 HD 
BRANCH   7  10
HETATM   10  C   UNL     1     -11.177  14.982  65.468  1.00  0.00    -0.344 C  
HETATM   11  O   UNL     1     -10.352  15.726  64.946  1.00  0.00    -0.487 OA 
HETATM   12  N   UNL     1     -11.409  14.982  66.826  1.00  0.00    -0.327 N  
HETATM   13  H   UNL     1     -12.055  14.301  67.227  1.00  0.00     0.000 HD 
BRANCH  12  14
HETATM   14  C   UNL     1     -10.748  15.934  67.690  1.00  0.00    -0.312 C  
BRANCH  14  15
HETATM   15  C   UNL     1     -10.258  15.321  68.998  1.00  0.00    -0.239 C  
BRANCH  15  16
HETATM   16  C   UNL     1     -11.354  14.444  69.561  1.00  0.00    -0.276 C  
HETATM   17  O   UNL     1     -12.456  14.895  69.856  1.00  0.00    -0.299 OA 
HETATM   18  N   UNL     1     -11.011  13.116  69.680  1.00  0.00    -0.456 N  
HETATM   19  H   UNL     1     -10.083  12.842  69.358  1.00  0.00     0.000 HD 
BRANCH  18  20
HETATM   20  C   UNL     1     -11.872  12.066  70.231  1.00  0.00    -0.270 C  
BRANCH  20  21
HETATM   21  C   UNL     1     -12.088  10.818  69.371  1.00  0.00    -0.244 C  
BRANCH  21  22
HETATM   22  S   UNL     1     -10.576   9.836  69.029  1.00  0.00    -0.222 SA 
BRANCH  22  23
HETATM   23  S   UNL     1      -9.916   9.267  70.896  1.00  0.00    -0.289 SA 
BRANCH  23  24
HETATM   24  C   UNL     1      -8.982   7.751  70.505  1.00  0.00    -0.150 C  
BRANCH  24  25
HETATM   25  C   UNL     1      -9.822   6.500  70.770  1.00  0.00    -0.184 C  
BRANCH  25  26
HETATM   26  N   UNL     1     -10.279   5.802  69.571  1.00  0.00    -0.215 N  
HETATM   27  H   UNL     1     -11.196   6.042  69.194  1.00  0.00     0.000 HD 
HETATM   28  C   UNL     1      -9.538   4.837  68.922  1.00  0.00    -0.162 C  
HETATM   29  O   UNL     1      -8.450   4.431  69.317  1.00  0.00    -0.076 OA 
BRANCH  28  30
HETATM   30  C   UNL     1     -10.157   4.331  67.638  1.00  0.00     0.008 C  
BRANCH  30  31
HETATM   31  C   UNL     1      -9.543   5.058  66.446  1.00  0.00    -0.164 C  
BRANCH  31  32
HETATM   32  N   UNL     1      -8.510   4.271  65.798  1.00  0.00    -0.113 N  
HETATM   33  H   UNL     1      -7.744   3.906  66.364  1.00  0.00     0.000 HD 
HETATM   34  C   UNL     1      -8.527   4.001  64.450  1.00  0.00    -0.105 C  
HETATM   35  O   UNL     1      -9.354   4.472  63.675  1.00  0.00    -0.132 OA 
BRANCH  34  36
HETATM   36  C   UNL     1      -7.361   3.104  63.976  1.00  0.00    -0.065 C  
HETATM   37  O   UNL     1      -7.874   1.870  63.451  1.00  0.00    -0.058 OA 
HETATM   38  H   UNL     1      -7.157   1.319  63.160  1.00  0.00     0.000 HD 
BRANCH  36  39
HETATM   39  C   UNL     1      -6.311   2.818  65.086  1.00  0.00    -0.024 C  
HETATM   40  C   UNL     1      -6.901   1.938  66.207  1.00  0.00    -0.042 C  
HETATM   41  C   UNL     1      -5.129   2.039  64.462  1.00  0.00    -0.004 C  
BRANCH  39  42
HETATM   42  C   UNL     1      -5.788   4.151  65.674  1.00  0.00    -0.022 C  
HETATM   43  O   UNL     1      -5.577   5.130  64.662  1.00  0.00    -0.016 OA 
HETATM   44  H   UNL     1      -5.256   5.948  65.024  1.00  0.00     0.000 HD 
ENDBRANCH  39  42
ENDBRANCH  36  39
ENDBRANCH  34  36
ENDBRANCH  31  32
ENDBRANCH  30  31
ENDBRANCH  28  30
ENDBRANCH  25  26
ENDBRANCH  24  25
ENDBRANCH  23  24
ENDBRANCH  22  23
ENDBRANCH  21  22
ENDBRANCH  20  21
ENDBRANCH  18  20
ENDBRANCH  15  16
ENDBRANCH  14  15
ENDBRANCH  12  14
ENDBRANCH   7  10
ENDBRANCH   2   7
TORSDOF 19
ENDMDL
MODEL      312
REMARK 921   NORMALIZED FREE ENERGY PREDICTED BY IDOCK:   -2.97 KCAL/MOL
REMARK 922        TOTAL FREE ENERGY PREDICTED BY IDOCK:   -8.44 KCAL/MOL
REMARK 923 INTER-LIGAND FREE ENERGY PREDICTED BY IDOCK:   -7.56 KCAL/MOL
REMARK 924 INTRA-LIGAND FREE ENERGY PREDICTED BY IDOCK:   -0.88 KCAL/MOL
REMARK 927      BINDING AFFINITY PREDICTED BY RF-SCORE:    0.00 PKD
ROOT
HETATM    1  C   UNL     1      -9.102  10.028  63.565  1.00  0.00    -0.303 C  
HETATM    2  C   UNL     1      -8.199   9.102  64.399  1.00  0.00    -0.158 C  
HETATM    3  C   UNL     1      -9.041   8.410  65.500  1.00  0.00    -0.108 C  
ENDROOT
BRANCH   2   4
HETATM    4  C   UNL     1      -7.653   7.980  63.491  1.00  0.00    -0.133 C  
HETATM    5  O   UNL     1      -8.190   6.710  63.855  1.00  0.00    -0.290 OA 
HETATM    6  H   UNL     1      -7.853   6.019  63.296  1.00  0.00     0.000 HD 
ENDBRANCH   2   4
BRANCH   2   7
HETATM    7  C   UNL     1      -7.010   9.888  65.036  1.00  0.00    -0.130 C  
HETATM    8  O   UNL     1      -7.419  11.131  65.632  1.00  0.00    -0.366 OA 
HETATM    9  H   UNL     1      -6.696  11.610  66.019  1.00  0.00     0.000 HD 
BRANCH   7  10
HETATM   10  C   UNL     1      -6.205   9.108  66.098  1.00  0.00    -0.064 C  
HETATM   11  O   UNL     1      -5.425   8.193  65.851  1.00  0.00    -0.028 OA 
HETATM   12  N   UNL     1      -6.389   9.589  67.376  1.00  0.00    -0.064 N  
HETATM   13  H   UNL     1      -7.095  10.305  67.548  1.00  0.00     0.000 HD 
BRANCH  12  14
HETATM   14  C   UNL     1      -5.594   9.092  68.476  1.00  0.00    -0.038 C  
BRANCH  14  15
HETATM   15  C   UNL     1      -6.427   8.442  69.576  1.00  0.00    -0.040 C  
BRANCH  15  16
HETATM   16  C   UNL     1      -7.865   8.881  69.416  1.00  0.00    -0.098 C  
HETATM   17  O   UNL     1      -8.196   9.724  68.589  1.00  0.00    -0.102 OA 
HETATM   18  N   UNL     1      -8.749   8.237  70.251  1.00  0.00    -0.137 N  
HETATM   19  H   UNL     1      -8.373   7.517  70.867  1.00  0.00     0.000 HD 
BRANCH  18  20
HETATM   20  C   UNL     1     -10.188   8.502  70.326  1.00  0.00    -0.193 C  
BRANCH  20  21
HETATM   21  C   UNL     1     -10.903   8.117  71.625  1.00  0.00    -0.249 C  
BRANCH  21  22
HETATM   22  S   UNL     1     -12.349   7.008  71.418  1.00  0.00    -0.382 SA 
BRANCH  22  23
HETATM   23  S   UNL     1     -13.972   8.238  71.732  1.00  0.00    -0.407 SA 
BRANCH  23  24
HETATM   24  C   UNL     1     -13.330   9.843  71.151  1.00  0.00    -0.301 C  
BRANCH  24  25
HETATM   25  C   UNL     1     -13.249  10.853  72.298  1.00  0.00    -0.034 C  
BRANCH  25  26
HETATM   26  N   UNL     1     -13.887  12.140  72.029  1.00  0.00    -0.052 N  
HETATM   27  H   UNL     1     -14.842  12.138  71.670  1.00  0.00     0.000 HD 
HETATM   28  C   UNL     1     -13.269  13.356  72.232  1.00  0.00    -0.472 C  
HETATM   29  O   UNL     1     -12.107  13.475  72.606  1.00  0.00     0.641 OA 
BRANCH  28  30
HETATM   30  C   UNL     1     -14.156  14.556  71.995  1.00  0.00    -0.606 C  
BRANCH  30  31
HETATM   31  C   UNL     1     -13.377  15.637  71.251  1.00  0.00    -0.409 C  
BRANCH  31  32
HETATM   32  N   UNL     1     -12.866  15.164  69.978  1.00  0.00    -0.628 N  
HETATM   33  H   UNL     1     -13.409  14.477  69.456  1.00  0.00     0.000 HD 
HETATM   34  C   UNL     1     -11.676  15.610  69.451  1.00  0.00    -0.383 C  
HETATM   35  O   UNL     1     -10.912  16.364  70.046  1.00  0.00    -0.354 OA 
BRANCH  34  36
HETATM   36  C   UNL     1     -11.345  15.017  68.063  1.00  0.00    -0.327 C  
HETATM   37  O   UNL     1     -12.557  14.652  67.384  1.00  0.00    -0.461 OA 
HETATM   38  H   UNL     1     -12.353  14.287  66.530  1.00  0.00     0.000 HD 
BRANCH  36  39
HETATM   39  C   UNL     1     -10.379  13.801  68.124  1.00  0.00    -0.252 C  
HETATM   40  C   UNL     1      -9.621  13.615  66.793  1.00  0.00    -0.277 C  
HETATM   41  C   UNL     1      -9.321  14.062  69.223  1.00  0.00     0.391 C  
BRANCH  39  42
HETATM   42  C   UNL     1     -11.168  12.516  68.472  1.00  0.00    -0.283 C  
HETATM   43  O   UNL     1     -10.951  12.110  69.819  1.00  0.00    -0.467 OA 
HETATM   44  H   UNL     1     -11.435  11.321  70.033  1.00  0.00     0.000 HD 
ENDBRANCH  39  42
ENDBRANCH  36  39
ENDBRANCH  34  36
ENDBRANCH  31  32
ENDBRANCH  30  31
ENDBRANCH  28  30
ENDBRANCH  25  26
ENDBRANCH  24  25
ENDBRANCH  23  24
ENDBRANCH  22  23
ENDBRANCH  21  22
ENDBRANCH  20  21
ENDBRANCH  18  20
ENDBRANCH  15  16
ENDBRANCH  14  15
ENDBRANCH  12  14
ENDBRANCH   7  10
ENDBRANCH   2   7
TORSDOF 19
ENDMDL
MODEL      313
REMARK 921   NORMALIZED FREE ENERGY PREDICTED BY IDOCK:   -2.96 KCAL/MOL
REMARK 922        TOTAL FREE ENERGY PREDICTED BY IDOCK:   -8.43 KCAL/MOL
REMARK 923 INTER-LIGAND FREE ENERGY PREDICTED BY IDOCK:   -6.36 KCAL/MOL
REMARK 924 INTRA-LIGAND FREE ENERGY PREDICTED BY IDOCK:   -2.07 KCAL/MOL
REMARK 927      BINDING AFFINITY PREDICTED BY RF-SCORE:    0.00 PKD
ROOT
HETATM    1  C   UNL     1     -11.654  15.669  68.910  1.00  0.00    -0.392 C  
HETATM    2  C   UNL     1     -10.432  16.189  68.130  1.00  0.00    -0.279 C  
HETATM    3  C   UNL     1     -10.501  15.691  66.665  1.00  0.00    -0.301 C  
ENDROOT
BRANCH   2   4
HETATM    4  C   UNL     1     -10.490  17.731  68.075  1.00  0.00    -0.394 C  
HETATM    5  O   UNL     1      -9.362  18.316  68.721  1.00  0.00    -0.308 OA 
HETATM    6  H   UNL     1      -9.398  19.265  68.688  1.00  0.00     0.000 HD 
ENDBRANCH   2   4
BRANCH   2   7
HETATM    7  C   UNL     1      -9.096  15.736  68.798  1.00  0.00    -0.213 C  
HETATM    8  O   UNL     1      -9.297  15.097  70.070  1.00  0.00    -0.456 OA 
HETATM    9  H   UNL     1      -8.484  14.821  70.476  1.00  0.00     0.000 HD 
BRANCH   7  10
HETATM   10  C   UNL     1      -8.223  14.795  67.939  1.00  0.00    -0.150 C  
HETATM   11  O   UNL     1      -7.548  15.152  66.977  1.00  0.00    -0.199 OA 
HETATM   12  N   UNL     1      -8.211  13.498  68.402  1.00  0.00    -0.168 N  
HETATM   13  H   UNL     1      -8.837  13.228  69.161  1.00  0.00     0.000 HD 
BRANCH  12  14
HETATM   14  C   UNL     1      -7.323  12.514  67.825  1.00  0.00    -0.124 C  
BRANCH  14  15
HETATM   15  C   UNL     1      -5.953  12.472  68.496  1.00  0.00    -0.056 C  
BRANCH  15  16
HETATM   16  C   UNL     1      -6.121  11.952  69.906  1.00  0.00    -0.153 C  
HETATM   17  O   UNL     1      -6.198  12.707  70.869  1.00  0.00    -0.115 OA 
HETATM   18  N   UNL     1      -6.206  10.581  69.997  1.00  0.00    -0.086 N  
HETATM   19  H   UNL     1      -6.179  10.051  69.127  1.00  0.00     0.000 HD 
BRANCH  18  20
HETATM   20  C   UNL     1      -6.332   9.822  71.244  1.00  0.00     0.070 C  
BRANCH  20  21
HETATM   21  C   UNL     1      -5.239   8.794  71.549  1.00  0.00    -0.036 C  
BRANCH  21  22
HETATM   22  S   UNL     1      -5.611   7.649  72.933  1.00  0.00    -0.044 SA 
BRANCH  22  23
HETATM   23  S   UNL     1      -7.173   8.555  73.925  1.00  0.00     0.017 SA 
BRANCH  23  24
HETATM   24  C   UNL     1      -8.591   7.560  73.358  1.00  0.00    -0.166 C  
BRANCH  24  25
HETATM   25  C   UNL     1      -9.534   8.389  72.483  1.00  0.00    -0.289 C  
BRANCH  25  26
HETATM   26  N   UNL     1      -9.990   7.721  71.267  1.00  0.00    -0.175 N  
HETATM   27  H   UNL     1      -9.419   7.807  70.426  1.00  0.00     0.000 HD 
HETATM   28  C   UNL     1     -11.151   6.979  71.194  1.00  0.00    -0.258 C  
HETATM   29  O   UNL     1     -11.940   6.854  72.124  1.00  0.00    -0.294 OA 
BRANCH  28  30
HETATM   30  C   UNL     1     -11.367   6.283  69.869  1.00  0.00    -0.504 C  
BRANCH  30  31
HETATM   31  C   UNL     1     -10.316   5.194  69.679  1.00  0.00    -0.246 C  
BRANCH  31  32
HETATM   32  N   UNL     1      -9.462   5.450  68.535  1.00  0.00    -0.118 N  
HETATM   33  H   UNL     1      -9.804   5.213  67.604  1.00  0.00     0.000 HD 
HETATM   34  C   UNL     1      -8.208   6.002  68.661  1.00  0.00    -0.107 C  
HETATM   35  O   UNL     1      -7.676   6.235  69.742  1.00  0.00    -0.100 OA 
BRANCH  34  36
HETATM   36  C   UNL     1      -7.490   6.237  67.314  1.00  0.00    -0.084 C  
HETATM   37  O   UNL     1      -6.067   6.252  67.512  1.00  0.00    -0.016 OA 
HETATM   38  H   UNL     1      -5.626   6.398  66.684  1.00  0.00     0.000 HD 
BRANCH  36  39
HETATM   39  C   UNL     1      -7.942   7.537  66.591  1.00  0.00    -0.110 C  
HETATM   40  C   UNL     1      -7.831   8.765  67.517  1.00  0.00    -0.102 C  
HETATM   41  C   UNL     1      -7.009   7.784  65.382  1.00  0.00    -0.055 C  
BRANCH  39  42
HETATM   42  C   UNL     1      -9.397   7.381  66.086  1.00  0.00    -0.054 C  
HETATM   43  O   UNL     1     -10.332   7.992  66.969  1.00  0.00    -0.291 OA 
HETATM   44  H   UNL     1     -11.225   7.896  66.660  1.00  0.00     0.000 HD 
ENDBRANCH  39  42
ENDBRANCH  36  39
ENDBRANCH  34  36
ENDBRANCH  31  32
ENDBRANCH  30  31
ENDBRANCH  28  30
ENDBRANCH  25  26
ENDBRANCH  24  25
ENDBRANCH  23  24
ENDBRANCH  22  23
ENDBRANCH  21  22
ENDBRANCH  20  21
ENDBRANCH  18  20
ENDBRANCH  15  16
ENDBRANCH  14  15
ENDBRANCH  12  14
ENDBRANCH   7  10
ENDBRANCH   2   7
TORSDOF 19
ENDMDL
MODEL      314
REMARK 921   NORMALIZED FREE ENERGY PREDICTED BY IDOCK:   -2.95 KCAL/MOL
REMARK 922        TOTAL FREE ENERGY PREDICTED BY IDOCK:   -8.41 KCAL/MOL
REMARK 923 INTER-LIGAND FREE ENERGY PREDICTED BY IDOCK:   -7.12 KCAL/MOL
REMARK 924 INTRA-LIGAND FREE ENERGY PREDICTED BY IDOCK:   -1.28 KCAL/MOL
REMARK 927      BINDING AFFINITY PREDICTED BY RF-SCORE:    0.00 PKD
ROOT
HETATM    1  C   UNL     1      -8.529   6.269  66.371  1.00  0.00    -0.125 C  
HETATM    2  C   UNL     1      -9.565   5.609  67.301  1.00  0.00    -0.125 C  
HETATM    3  C   UNL     1     -10.980   6.137  66.959  1.00  0.00    -0.414 C  
ENDROOT
BRANCH   2   4
HETATM    4  C   UNL     1      -9.584   4.089  67.034  1.00  0.00    -0.201 C  
HETATM    5  O   UNL     1      -8.842   3.379  68.022  1.00  0.00    -0.101 OA 
HETATM    6  H   UNL     1      -8.853   2.444  67.857  1.00  0.00     0.000 HD 
ENDBRANCH   2   4
BRANCH   2   7
HETATM    7  C   UNL     1      -9.232   5.875  68.803  1.00  0.00    -0.115 C  
HETATM    8  O   UNL     1      -9.858   4.932  69.689  1.00  0.00    -0.180 OA 
HETATM    9  H   UNL     1      -9.655   5.094  70.602  1.00  0.00     0.000 HD 
BRANCH   7  10
HETATM   10  C   UNL     1      -7.725   5.902  69.143  1.00  0.00    -0.091 C  
HETATM   11  O   UNL     1      -6.950   4.969  68.953  1.00  0.00    -0.050 OA 
HETATM   12  N   UNL     1      -7.302   7.121  69.623  1.00  0.00    -0.083 N  
HETATM   13  H   UNL     1      -7.988   7.847  69.830  1.00  0.00     0.000 HD 
BRANCH  12  14
HETATM   14  C   UNL     1      -5.896   7.384  69.840  1.00  0.00    -0.024 C  
BRANCH  14  15
HETATM   15  C   UNL     1      -5.453   8.749  69.323  1.00  0.00    -0.035 C  
BRANCH  15  16
HETATM   16  C   UNL     1      -6.656   9.664  69.282  1.00  0.00    -0.048 C  
HETATM   17  O   UNL     1      -7.436   9.750  70.225  1.00  0.00    -0.141 OA 
HETATM   18  N   UNL     1      -6.771  10.395  68.121  1.00  0.00    -0.060 N  
HETATM   19  H   UNL     1      -6.039  10.281  67.421  1.00  0.00     0.000 HD 
BRANCH  18  20
HETATM   20  C   UNL     1      -7.862  11.323  67.811  1.00  0.00    -0.115 C  
BRANCH  20  21
HETATM   21  C   UNL     1      -8.834  10.912  66.701  1.00  0.00    -0.159 C  
BRANCH  21  22
HETATM   22  S   UNL     1     -10.196   9.803  67.229  1.00  0.00    -0.249 SA 
BRANCH  22  23
HETATM   23  S   UNL     1     -10.626  10.418  69.148  1.00  0.00    -0.244 SA 
BRANCH  23  24
HETATM   24  C   UNL     1     -11.507  11.984  68.839  1.00  0.00    -0.301 C  
BRANCH  24  25
HETATM   25  C   UNL     1     -12.159  11.987  67.454  1.00  0.00     0.165 C  
BRANCH  25  26
HETATM   26  N   UNL     1     -11.851  13.156  66.634  1.00  0.00    -0.381 N  
HETATM   27  H   UNL     1     -11.174  13.831  66.991  1.00  0.00     0.000 HD 
HETATM   28  C   UNL     1     -12.426  13.398  65.403  1.00  0.00    -0.494 C  
HETATM   29  O   UNL     1     -13.290  12.686  64.903  1.00  0.00    -0.741 OA 
BRANCH  28  30
HETATM   30  C   UNL     1     -11.875  14.606  64.682  1.00  0.00    -0.459 C  
BRANCH  30  31
HETATM   31  C   UNL     1     -10.350  14.565  64.692  1.00  0.00    -0.138 C  
BRANCH  31  32
HETATM   32  N   UNL     1      -9.773  15.793  65.206  1.00  0.00    -0.105 N  
HETATM   33  H   UNL     1      -9.703  16.600  64.585  1.00  0.00     0.000 HD 
HETATM   34  C   UNL     1      -9.317  15.909  66.498  1.00  0.00    -0.277 C  
HETATM   35  O   UNL     1      -9.274  14.970  67.288  1.00  0.00    -0.190 OA 
BRANCH  34  36
HETATM   36  C   UNL     1      -8.788  17.317  66.852  1.00  0.00    -0.240 C  
HETATM   37  O   UNL     1      -7.370  17.267  67.075  1.00  0.00    -0.161 OA 
HETATM   38  H   UNL     1      -7.046  18.133  67.293  1.00  0.00     0.000 HD 
BRANCH  36  39
HETATM   39  C   UNL     1      -9.501  17.954  68.078  1.00  0.00    -0.279 C  
HETATM   40  C   UNL     1      -8.789  19.244  68.536  1.00  0.00    -0.411 C  
HETATM   41  C   UNL     1     -10.941  18.342  67.669  1.00  0.00    -0.160 C  
BRANCH  39  42
HETATM   42  C   UNL     1      -9.559  16.936  69.243  1.00  0.00    -0.079 C  
HETATM   43  O   UNL     1     -10.891  16.505  69.502  1.00  0.00    -0.310 OA 
HETATM   44  H   UNL     1     -10.926  15.880  70.218  1.00  0.00     0.000 HD 
ENDBRANCH  39  42
ENDBRANCH  36  39
ENDBRANCH  34  36
ENDBRANCH  31  32
ENDBRANCH  30  31
ENDBRANCH  28  30
ENDBRANCH  25  26
ENDBRANCH  24  25
ENDBRANCH  23  24
ENDBRANCH  22  23
ENDBRANCH  21  22
ENDBRANCH  20  21
ENDBRANCH  18  20
ENDBRANCH  15  16
ENDBRANCH  14  15
ENDBRANCH  12  14
ENDBRANCH   7  10
ENDBRANCH   2   7
TORSDOF 19
ENDMDL
MODEL      315
REMARK 921   NORMALIZED FREE ENERGY PREDICTED BY IDOCK:   -2.93 KCAL/MOL
REMARK 922        TOTAL FREE ENERGY PREDICTED BY IDOCK:   -8.35 KCAL/MOL
REMARK 923 INTER-LIGAND FREE ENERGY PREDICTED BY IDOCK:   -6.57 KCAL/MOL
REMARK 924 INTRA-LIGAND FREE ENERGY PREDICTED BY IDOCK:   -1.78 KCAL/MOL
REMARK 927      BINDING AFFINITY PREDICTED BY RF-SCORE:    0.00 PKD
ROOT
HETATM    1  C   UNL     1     -10.395   4.757  71.884  1.00  0.00    -0.242 C  
HETATM    2  C   UNL     1      -8.922   4.733  71.434  1.00  0.00    -0.164 C  
HETATM    3  C   UNL     1      -8.583   6.052  70.696  1.00  0.00    -0.134 C  
ENDROOT
BRANCH   2   4
HETATM    4  C   UNL     1      -8.015   4.679  72.682  1.00  0.00    -0.092 C  
HETATM    5  O   UNL     1      -7.618   5.986  73.091  1.00  0.00    -0.097 OA 
HETATM    6  H   UNL     1      -7.060   5.953  73.859  1.00  0.00     0.000 HD 
ENDBRANCH   2   4
BRANCH   2   7
HETATM    7  C   UNL     1      -8.629   3.504  70.517  1.00  0.00    -0.070 C  
HETATM    8  O   UNL     1      -9.825   2.864  70.041  1.00  0.00    -0.019 OA 
HETATM    9  H   UNL     1      -9.646   2.117  69.483  1.00  0.00     0.000 HD 
BRANCH   7  10
HETATM   10  C   UNL     1      -7.744   3.805  69.287  1.00  0.00    -0.052 C  
HETATM   11  O   UNL     1      -6.529   3.975  69.325  1.00  0.00    -0.032 OA 
HETATM   12  N   UNL     1      -8.445   3.793  68.102  1.00  0.00    -0.091 N  
HETATM   13  H   UNL     1      -9.462   3.715  68.119  1.00  0.00     0.000 HD 
BRANCH  12  14
HETATM   14  C   UNL     1      -7.758   3.890  66.833  1.00  0.00    -0.085 C  
BRANCH  14  15
HETATM   15  C   UNL     1      -8.252   5.045  65.968  1.00  0.00    -0.113 C  
BRANCH  15  16
HETATM   16  C   UNL     1      -9.463   5.662  66.630  1.00  0.00    -0.147 C  
HETATM   17  O   UNL     1     -10.536   5.070  66.697  1.00  0.00    -0.264 OA 
HETATM   18  N   UNL     1      -9.241   6.911  67.163  1.00  0.00    -0.135 N  
HETATM   19  H   UNL     1      -8.297   7.290  67.094  1.00  0.00     0.000 HD 
BRANCH  18  20
HETATM   20  C   UNL     1     -10.253   7.741  67.823  1.00  0.00    -0.212 C  
BRANCH  20  21
HETATM   21  C   UNL     1     -10.660   9.038  67.118  1.00  0.00    -0.220 C  
BRANCH  21  22
HETATM   22  S   UNL     1     -10.511  10.557  68.135  1.00  0.00    -0.202 SA 
BRANCH  22  23
HETATM   23  S   UNL     1     -10.066  12.033  66.767  1.00  0.00    -0.205 SA 
BRANCH  23  24
HETATM   24  C   UNL     1      -8.917  11.161  65.652  1.00  0.00    -0.184 C  
BRANCH  24  25
HETATM   25  C   UNL     1      -7.663  10.702  66.399  1.00  0.00    -0.141 C  
BRANCH  25  26
HETATM   26  N   UNL     1      -6.697  11.761  66.685  1.00  0.00    -0.351 N  
HETATM   27  H   UNL     1      -6.158  12.144  65.908  1.00  0.00     0.000 HD 
HETATM   28  C   UNL     1      -6.475  12.270  67.947  1.00  0.00    -0.088 C  
HETATM   29  O   UNL     1      -7.023  11.848  68.960  1.00  0.00    -0.098 OA 
BRANCH  28  30
HETATM   30  C   UNL     1      -5.515  13.437  67.991  1.00  0.00    -0.113 C  
BRANCH  30  31
HETATM   31  C   UNL     1      -6.250  14.726  67.638  1.00  0.00    -0.091 C  
BRANCH  31  32
HETATM   32  N   UNL     1      -7.599  14.751  68.173  1.00  0.00    -0.111 N  
HETATM   33  H   UNL     1      -8.203  13.943  68.020  1.00  0.00     0.000 HD 
HETATM   34  C   UNL     1      -8.092  15.823  68.877  1.00  0.00    -0.207 C  
HETATM   35  O   UNL     1      -7.475  16.873  69.033  1.00  0.00    -0.235 OA 
BRANCH  34  36
HETATM   36  C   UNL     1      -9.532  15.621  69.400  1.00  0.00    -0.279 C  
HETATM   37  O   UNL     1      -9.820  14.219  69.515  1.00  0.00    -0.401 OA 
HETATM   38  H   UNL     1     -10.705  14.095  69.836  1.00  0.00     0.000 HD 
BRANCH  36  39
HETATM   39  C   UNL     1     -10.611  16.319  68.526  1.00  0.00    -0.294 C  
HETATM   40  C   UNL     1     -10.404  17.848  68.489  1.00  0.00    -0.365 C  
HETATM   41  C   UNL     1     -10.485  15.802  67.074  1.00  0.00    -0.309 C  
BRANCH  39  42
HETATM   42  C   UNL     1     -12.023  15.986  69.065  1.00  0.00    -0.149 C  
HETATM   43  O   UNL     1     -12.432  14.672  68.701  1.00  0.00    -0.583 OA 
HETATM   44  H   UNL     1     -13.299  14.467  69.032  1.00  0.00     0.000 HD 
ENDBRANCH  39  42
ENDBRANCH  36  39
ENDBRANCH  34  36
ENDBRANCH  31  32
ENDBRANCH  30  31
ENDBRANCH  28  30
ENDBRANCH  25  26
ENDBRANCH  24  25
ENDBRANCH  23  24
ENDBRANCH  22  23
ENDBRANCH  21  22
ENDBRANCH  20  21
ENDBRANCH  18  20
ENDBRANCH  15  16
ENDBRANCH  14  15
ENDBRANCH  12  14
ENDBRANCH   7  10
ENDBRANCH   2   7
TORSDOF 19
ENDMDL
MODEL      316
REMARK 921   NORMALIZED FREE ENERGY PREDICTED BY IDOCK:   -2.91 KCAL/MOL
REMARK 922        TOTAL FREE ENERGY PREDICTED BY IDOCK:   -8.32 KCAL/MOL
REMARK 923 INTER-LIGAND FREE ENERGY PREDICTED BY IDOCK:   -7.10 KCAL/MOL
REMARK 924 INTRA-LIGAND FREE ENERGY PREDICTED BY IDOCK:   -1.22 KCAL/MOL
REMARK 927      BINDING AFFINITY PREDICTED BY RF-SCORE:    0.00 PKD
ROOT
HETATM    1  C   UNL     1     -11.926  14.418  67.794  1.00  0.00    -0.368 C  
HETATM    2  C   UNL     1     -10.968  15.213  68.701  1.00  0.00    -0.256 C  
HETATM    3  C   UNL     1      -9.511  14.751  68.449  1.00  0.00    -0.213 C  
ENDROOT
BRANCH   2   4
HETATM    4  C   UNL     1     -11.031  16.706  68.313  1.00  0.00    -0.341 C  
HETATM    5  O   UNL     1     -10.024  17.459  68.985  1.00  0.00    -0.302 OA 
HETATM    6  H   UNL     1     -10.064  18.378  68.746  1.00  0.00     0.000 HD 
ENDBRANCH   2   4
BRANCH   2   7
HETATM    7  C   UNL     1     -11.341  15.044  70.207  1.00  0.00    -0.263 C  
HETATM    8  O   UNL     1     -12.041  16.181  70.739  1.00  0.00    -0.500 OA 
HETATM    9  H   UNL     1     -12.268  16.079  71.656  1.00  0.00     0.000 HD 
BRANCH   7  10
HETATM   10  C   UNL     1     -12.178  13.788  70.536  1.00  0.00    -0.369 C  
HETATM   11  O   UNL     1     -13.364  13.802  70.851  1.00  0.00    -0.173 OA 
HETATM   12  N   UNL     1     -11.477  12.614  70.370  1.00  0.00    -0.414 N  
HETATM   13  H   UNL     1     -10.477  12.648  70.173  1.00  0.00     0.000 HD 
BRANCH  12  14
HETATM   14  C   UNL     1     -12.142  11.334  70.472  1.00  0.00    -0.387 C  
BRANCH  14  15
HETATM   15  C   UNL     1     -11.765  10.369  69.353  1.00  0.00    -0.231 C  
BRANCH  15  16
HETATM   16  C   UNL     1     -11.625   8.982  69.938  1.00  0.00     0.185 C  
HETATM   17  O   UNL     1     -10.700   8.238  69.626  1.00  0.00    -0.230 OA 
HETATM   18  N   UNL     1     -12.597   8.654  70.856  1.00  0.00    -0.493 N  
HETATM   19  H   UNL     1     -13.291   9.367  71.077  1.00  0.00     0.000 HD 
BRANCH  18  20
HETATM   20  C   UNL     1     -12.714   7.363  71.539  1.00  0.00    -0.372 C  
BRANCH  20  21
HETATM   21  C   UNL     1     -11.412   6.633  71.882  1.00  0.00    -0.291 C  
BRANCH  21  22
HETATM   22  S   UNL     1     -10.533   7.262  73.363  1.00  0.00    -0.371 SA 
BRANCH  22  23
HETATM   23  S   UNL     1     -10.208   5.578  74.505  1.00  0.00    -0.246 SA 
BRANCH  23  24
HETATM   24  C   UNL     1      -9.204   4.560  73.374  1.00  0.00    -0.113 C  
BRANCH  24  25
HETATM   25  C   UNL     1      -8.190   5.417  72.612  1.00  0.00    -0.114 C  
BRANCH  25  26
HETATM   26  N   UNL     1      -7.830   4.911  71.290  1.00  0.00    -0.090 N  
HETATM   27  H   UNL     1      -8.514   4.998  70.538  1.00  0.00     0.000 HD 
HETATM   28  C   UNL     1      -6.616   4.323  71.003  1.00  0.00    -0.030 C  
HETATM   29  O   UNL     1      -5.743   4.117  71.840  1.00  0.00    -0.007 OA 
BRANCH  28  30
HETATM   30  C   UNL     1      -6.417   3.978  69.545  1.00  0.00    -0.033 C  
BRANCH  30  31
HETATM   31  C   UNL     1      -5.879   5.192  68.794  1.00  0.00    -0.020 C  
BRANCH  31  32
HETATM   32  N   UNL     1      -6.858   5.745  67.877  1.00  0.00    -0.058 N  
HETATM   33  H   UNL     1      -6.971   5.313  66.960  1.00  0.00     0.000 HD 
HETATM   34  C   UNL     1      -7.638   6.831  68.198  1.00  0.00    -0.107 C  
HETATM   35  O   UNL     1      -7.511   7.472  69.237  1.00  0.00    -0.086 OA 
BRANCH  34  36
HETATM   36  C   UNL     1      -8.649   7.224  67.098  1.00  0.00    -0.121 C  
HETATM   37  O   UNL     1      -8.927   6.092  66.260  1.00  0.00    -0.142 OA 
HETATM   38  H   UNL     1      -9.549   6.334  65.583  1.00  0.00     0.000 HD 
BRANCH  36  39
HETATM   39  C   UNL     1      -8.184   8.429  66.233  1.00  0.00    -0.111 C  
HETATM   40  C   UNL     1      -8.242   8.098  64.728  1.00  0.00    -0.137 C  
HETATM   41  C   UNL     1      -9.142   9.618  66.481  1.00  0.00    -0.185 C  
BRANCH  39  42
HETATM   42  C   UNL     1      -6.746   8.841  66.632  1.00  0.00    -0.072 C  
HETATM   43  O   UNL     1      -5.788   8.421  65.666  1.00  0.00    -0.043 OA 
HETATM   44  H   UNL     1      -4.906   8.674  65.910  1.00  0.00     0.000 HD 
ENDBRANCH  39  42
ENDBRANCH  36  39
ENDBRANCH  34  36
ENDBRANCH  31  32
ENDBRANCH  30  31
ENDBRANCH  28  30
ENDBRANCH  25  26
ENDBRANCH  24  25
ENDBRANCH  23  24
ENDBRANCH  22  23
ENDBRANCH  21  22
ENDBRANCH  20  21
ENDBRANCH  18  20
ENDBRANCH  15  16
ENDBRANCH  14  15
ENDBRANCH  12  14
ENDBRANCH   7  10
ENDBRANCH   2   7
TORSDOF 19
ENDMDL
MODEL      317
REMARK 921   NORMALIZED FREE ENERGY PREDICTED BY IDOCK:   -2.88 KCAL/MOL
REMARK 922        TOTAL FREE ENERGY PREDICTED BY IDOCK:   -8.25 KCAL/MOL
REMARK 923 INTER-LIGAND FREE ENERGY PREDICTED BY IDOCK:   -7.65 KCAL/MOL
REMARK 924 INTRA-LIGAND FREE ENERGY PREDICTED BY IDOCK:   -0.60 KCAL/MOL
REMARK 927      BINDING AFFINITY PREDICTED BY RF-SCORE:    0.00 PKD
ROOT
HETATM    1  C   UNL     1      -9.780   5.508  66.054  1.00  0.00    -0.107 C  
HETATM    2  C   UNL     1      -9.340   4.146  65.485  1.00  0.00    -0.162 C  
HETATM    3  C   UNL     1     -10.298   3.727  64.342  1.00  0.00    -0.235 C  
ENDROOT
BRANCH   2   4
HETATM    4  C   UNL     1      -7.939   4.292  64.855  1.00  0.00    -0.093 C  
HETATM    5  O   UNL     1      -7.563   3.114  64.146  1.00  0.00    -0.072 OA 
HETATM    6  H   UNL     1      -6.700   3.204  63.759  1.00  0.00     0.000 HD 
ENDBRANCH   2   4
BRANCH   2   7
HETATM    7  C   UNL     1      -9.306   3.050  66.596  1.00  0.00    -0.083 C  
HETATM    8  O   UNL     1      -9.330   1.714  66.064  1.00  0.00    -0.315 OA 
HETATM    9  H   UNL     1      -9.309   1.048  66.740  1.00  0.00     0.000 HD 
BRANCH   7  10
HETATM   10  C   UNL     1      -8.107   3.141  67.566  1.00  0.00    -0.080 C  
HETATM   11  O   UNL     1      -7.571   2.178  68.106  1.00  0.00    -0.054 OA 
HETATM   12  N   UNL     1      -7.634   4.425  67.721  1.00  0.00    -0.076 N  
HETATM   13  H   UNL     1      -8.148   5.204  67.309  1.00  0.00     0.000 HD 
BRANCH  12  14
HETATM   14  C   UNL     1      -6.418   4.683  68.459  1.00  0.00    -0.037 C  
BRANCH  14  15
HETATM   15  C   UNL     1      -5.557   5.778  67.838  1.00  0.00    -0.012 C  
BRANCH  15  16
HETATM   16  C   UNL     1      -6.440   6.963  67.517  1.00  0.00    -0.050 C  
HETATM   17  O   UNL     1      -7.311   7.349  68.289  1.00  0.00    -0.094 OA 
HETATM   18  N   UNL     1      -6.158   7.569  66.314  1.00  0.00    -0.040 N  
HETATM   19  H   UNL     1      -5.380   7.195  65.772  1.00  0.00     0.000 HD 
BRANCH  18  20
HETATM   20  C   UNL     1      -6.886   8.708  65.749  1.00  0.00    -0.068 C  
BRANCH  20  21
HETATM   21  C   UNL     1      -8.191   8.404  65.007  1.00  0.00    -0.153 C  
BRANCH  21  22
HETATM   22  S   UNL     1      -9.547   9.606  65.291  1.00  0.00    -0.228 SA 
BRANCH  22  23
HETATM   23  S   UNL     1     -10.375   9.010  67.082  1.00  0.00    -0.264 SA 
BRANCH  23  24
HETATM   24  C   UNL     1     -10.541  10.603  67.954  1.00  0.00    -0.228 C  
BRANCH  24  25
HETATM   25  C   UNL     1     -10.280  11.779  67.010  1.00  0.00    -0.214 C  
BRANCH  25  26
HETATM   26  N   UNL     1     -10.833  13.056  67.453  1.00  0.00    -0.248 N  
HETATM   27  H   UNL     1     -11.792  13.284  67.190  1.00  0.00     0.000 HD 
HETATM   28  C   UNL     1     -10.130  13.971  68.209  1.00  0.00    -0.246 C  
HETATM   29  O   UNL     1      -8.957  13.828  68.535  1.00  0.00    -0.180 OA 
BRANCH  28  30
HETATM   30  C   UNL     1     -10.937  15.171  68.650  1.00  0.00    -0.256 C  
BRANCH  30  31
HETATM   31  C   UNL     1     -11.030  16.180  67.509  1.00  0.00    -0.238 C  
BRANCH  31  32
HETATM   32  N   UNL     1     -10.315  17.407  67.805  1.00  0.00    -0.344 N  
HETATM   33  H   UNL     1      -9.942  17.544  68.744  1.00  0.00     0.000 HD 
HETATM   34  C   UNL     1     -10.123  18.392  66.865  1.00  0.00    -0.367 C  
HETATM   35  O   UNL     1     -10.611  18.359  65.739  1.00  0.00    -0.570 OA 
BRANCH  34  36
HETATM   36  C   UNL     1      -9.292  19.591  67.375  1.00  0.00    -0.319 C  
HETATM   37  O   UNL     1      -9.649  20.779  66.650  1.00  0.00    -0.652 OA 
HETATM   38  H   UNL     1      -9.138  21.516  66.964  1.00  0.00     0.000 HD 
BRANCH  36  39
HETATM   39  C   UNL     1      -7.757  19.358  67.296  1.00  0.00    -0.275 C  
HETATM   40  C   UNL     1      -7.381  18.490  66.078  1.00  0.00    -0.275 C  
HETATM   41  C   UNL     1      -7.055  20.725  67.121  1.00  0.00    -0.404 C  
BRANCH  39  42
HETATM   42  C   UNL     1      -7.257  18.691  68.600  1.00  0.00    -0.291 C  
HETATM   43  O   UNL     1      -6.592  19.622  69.449  1.00  0.00    -0.321 OA 
HETATM   44  H   UNL     1      -6.285  19.213  70.249  1.00  0.00     0.000 HD 
ENDBRANCH  39  42
ENDBRANCH  36  39
ENDBRANCH  34  36
ENDBRANCH  31  32
ENDBRANCH  30  31
ENDBRANCH  28  30
ENDBRANCH  25  26
ENDBRANCH  24  25
ENDBRANCH  23  24
ENDBRANCH  22  23
ENDBRANCH  21  22
ENDBRANCH  20  21
ENDBRANCH  18  20
ENDBRANCH  15  16
ENDBRANCH  14  15
ENDBRANCH  12  14
ENDBRANCH   7  10
ENDBRANCH   2   7
TORSDOF 19
ENDMDL
MODEL      318
REMARK 921   NORMALIZED FREE ENERGY PREDICTED BY IDOCK:   -2.86 KCAL/MOL
REMARK 922        TOTAL FREE ENERGY PREDICTED BY IDOCK:   -8.21 KCAL/MOL
REMARK 923 INTER-LIGAND FREE ENERGY PREDICTED BY IDOCK:   -6.51 KCAL/MOL
REMARK 924 INTRA-LIGAND FREE ENERGY PREDICTED BY IDOCK:   -1.70 KCAL/MOL
REMARK 927      BINDING AFFINITY PREDICTED BY RF-SCORE:    0.00 PKD
ROOT
HETATM    1  C   UNL     1      -7.903   7.101  70.050  1.00  0.00    -0.113 C  
HETATM    2  C   UNL     1      -7.004   7.729  71.131  1.00  0.00    -0.049 C  
HETATM    3  C   UNL     1      -7.384   7.157  72.519  1.00  0.00    -0.079 C  
ENDROOT
BRANCH   2   4
HETATM    4  C   UNL     1      -5.540   7.318  70.869  1.00  0.00    -0.027 C  
HETATM    5  O   UNL     1      -5.422   5.909  70.682  1.00  0.00    -0.012 OA 
HETATM    6  H   UNL     1      -4.521   5.656  70.521  1.00  0.00     0.000 HD 
ENDBRANCH   2   4
BRANCH   2   7
HETATM    7  C   UNL     1      -7.121   9.286  71.132  1.00  0.00    -0.041 C  
HETATM    8  O   UNL     1      -6.084   9.923  71.898  1.00  0.00    -0.300 OA 
HETATM    9  H   UNL     1      -6.155  10.869  71.899  1.00  0.00     0.000 HD 
BRANCH   7  10
HETATM   10  C   UNL     1      -7.133   9.941  69.733  1.00  0.00    -0.106 C  
HETATM   11  O   UNL     1      -6.378   9.639  68.814  1.00  0.00    -0.046 OA 
HETATM   12  N   UNL     1      -8.139  10.869  69.580  1.00  0.00    -0.362 N  
HETATM   13  H   UNL     1      -8.701  11.140  70.387  1.00  0.00     0.000 HD 
BRANCH  12  14
HETATM   14  C   UNL     1      -8.408  11.464  68.290  1.00  0.00    -0.152 C  
BRANCH  14  15
HETATM   15  C   UNL     1      -8.694  12.960  68.365  1.00  0.00    -0.119 C  
BRANCH  15  16
HETATM   16  C   UNL     1     -10.191  13.169  68.319  1.00  0.00    -0.250 C  
HETATM   17  O   UNL     1     -10.959  12.504  69.008  1.00  0.00    -0.233 OA 
HETATM   18  N   UNL     1     -10.597  14.173  67.470  1.00  0.00    -0.256 N  
HETATM   19  H   UNL     1      -9.870  14.695  66.981  1.00  0.00     0.000 HD 
BRANCH  18  20
HETATM   20  C   UNL     1     -11.988  14.552  67.211  1.00  0.00    -0.344 C  
BRANCH  20  21
HETATM   21  C   UNL     1     -12.530  14.301  65.801  1.00  0.00    -0.403 C  
BRANCH  21  22
HETATM   22  S   UNL     1     -12.378  12.574  65.204  1.00  0.00    -0.335 SA 
BRANCH  22  23
HETATM   23  S   UNL     1     -10.705  12.605  64.002  1.00  0.00    -0.434 SA 
BRANCH  23  24
HETATM   24  C   UNL     1      -9.479  11.770  65.062  1.00  0.00    -0.062 C  
BRANCH  24  25
HETATM   25  C   UNL     1      -9.174  10.361  64.550  1.00  0.00    -0.246 C  
BRANCH  25  26
HETATM   26  N   UNL     1     -10.038   9.312  65.087  1.00  0.00    -0.145 N  
HETATM   27  H   UNL     1     -10.998   9.258  64.747  1.00  0.00     0.000 HD 
HETATM   28  C   UNL     1      -9.625   8.392  66.027  1.00  0.00    -0.126 C  
HETATM   29  O   UNL     1      -8.513   8.397  66.545  1.00  0.00    -0.107 OA 
BRANCH  28  30
HETATM   30  C   UNL     1     -10.649   7.329  66.354  1.00  0.00     0.311 C  
BRANCH  30  31
HETATM   31  C   UNL     1     -10.162   6.483  67.526  1.00  0.00    -0.176 C  
BRANCH  31  32
HETATM   32  N   UNL     1     -11.149   6.395  68.586  1.00  0.00    -0.466 N  
HETATM   33  H   UNL     1     -11.801   5.611  68.585  1.00  0.00     0.000 HD 
HETATM   34  C   UNL     1     -11.238   7.330  69.590  1.00  0.00    -0.084 C  
HETATM   35  O   UNL     1     -10.560   8.353  69.624  1.00  0.00    -0.224 OA 
BRANCH  34  36
HETATM   36  C   UNL     1     -12.324   7.019  70.643  1.00  0.00    -0.190 C  
HETATM   37  O   UNL     1     -13.132   8.184  70.874  1.00  0.00    -0.512 OA 
HETATM   38  H   UNL     1     -13.800   7.992  71.522  1.00  0.00     0.000 HD 
BRANCH  36  39
HETATM   39  C   UNL     1     -11.749   6.491  71.987  1.00  0.00    -0.367 C  
HETATM   40  C   UNL     1     -12.830   5.769  72.818  1.00  0.00     0.666 C  
HETATM   41  C   UNL     1     -10.638   5.459  71.681  1.00  0.00    -0.284 C  
BRANCH  39  42
HETATM   42  C   UNL     1     -11.147   7.661  72.800  1.00  0.00    -0.383 C  
HETATM   43  O   UNL     1     -11.014   7.335  74.179  1.00  0.00    -0.457 OA 
HETATM   44  H   UNL     1     -10.645   8.053  74.679  1.00  0.00     0.000 HD 
ENDBRANCH  39  42
ENDBRANCH  36  39
ENDBRANCH  34  36
ENDBRANCH  31  32
ENDBRANCH  30  31
ENDBRANCH  28  30
ENDBRANCH  25  26
ENDBRANCH  24  25
ENDBRANCH  23  24
ENDBRANCH  22  23
ENDBRANCH  21  22
ENDBRANCH  20  21
ENDBRANCH  18  20
ENDBRANCH  15  16
ENDBRANCH  14  15
ENDBRANCH  12  14
ENDBRANCH   7  10
ENDBRANCH   2   7
TORSDOF 19
ENDMDL
MODEL      319
REMARK 921   NORMALIZED FREE ENERGY PREDICTED BY IDOCK:   -2.85 KCAL/MOL
REMARK 922        TOTAL FREE ENERGY PREDICTED BY IDOCK:   -8.20 KCAL/MOL
REMARK 923 INTER-LIGAND FREE ENERGY PREDICTED BY IDOCK:   -6.52 KCAL/MOL
REMARK 924 INTRA-LIGAND FREE ENERGY PREDICTED BY IDOCK:   -1.67 KCAL/MOL
REMARK 927      BINDING AFFINITY PREDICTED BY RF-SCORE:    0.00 PKD
ROOT
HETATM    1  C   UNL     1      -9.019  10.517  69.139  1.00  0.00    -0.171 C  
HETATM    2  C   UNL     1      -8.397   9.110  69.059  1.00  0.00    -0.127 C  
HETATM    3  C   UNL     1      -9.100   8.173  70.072  1.00  0.00    -0.151 C  
ENDROOT
BRANCH   2   4
HETATM    4  C   UNL     1      -8.662   8.522  67.657  1.00  0.00    -0.136 C  
HETATM    5  O   UNL     1      -8.531   9.516  66.644  1.00  0.00    -0.130 OA 
HETATM    6  H   UNL     1      -8.695   9.154  65.781  1.00  0.00     0.000 HD 
ENDBRANCH   2   4
BRANCH   2   7
HETATM    7  C   UNL     1      -6.860   9.152  69.330  1.00  0.00    -0.048 C  
HETATM    8  O   UNL     1      -6.228   7.873  69.156  1.00  0.00    -0.034 OA 
HETATM    9  H   UNL     1      -5.293   7.898  69.321  1.00  0.00     0.000 HD 
BRANCH   7  10
HETATM   10  C   UNL     1      -6.075  10.177  68.482  1.00  0.00    -0.044 C  
HETATM   11  O   UNL     1      -5.714   9.994  67.323  1.00  0.00    -0.045 OA 
HETATM   12  N   UNL     1      -5.873  11.374  69.132  1.00  0.00    -0.045 N  
HETATM   13  H   UNL     1      -6.129  11.463  70.115  1.00  0.00     0.000 HD 
BRANCH  12  14
HETATM   14  C   UNL     1      -5.303  12.507  68.437  1.00  0.00    -0.056 C  
BRANCH  14  15
HETATM   15  C   UNL     1      -6.345  13.362  67.723  1.00  0.00    -0.164 C  
BRANCH  15  16
HETATM   16  C   UNL     1      -7.159  14.100  68.762  1.00  0.00    -0.107 C  
HETATM   17  O   UNL     1      -6.791  14.189  69.929  1.00  0.00    -0.084 OA 
HETATM   18  N   UNL     1      -8.312  14.673  68.275  1.00  0.00    -0.141 N  
HETATM   19  H   UNL     1      -8.497  14.578  67.277  1.00  0.00     0.000 HD 
BRANCH  18  20
HETATM   20  C   UNL     1      -9.295  15.408  69.076  1.00  0.00    -0.232 C  
BRANCH  20  21
HETATM   21  C   UNL     1     -10.674  14.764  69.252  1.00  0.00    -0.256 C  
BRANCH  21  22
HETATM   22  S   UNL     1     -11.730  14.762  67.753  1.00  0.00    -0.297 SA 
BRANCH  22  23
HETATM   23  S   UNL     1     -11.527  12.854  67.001  1.00  0.00    -0.358 SA 
BRANCH  23  24
HETATM   24  C   UNL     1     -10.333  13.121  65.649  1.00  0.00    -0.284 C  
BRANCH  24  25
HETATM   25  C   UNL     1     -11.028  13.098  64.286  1.00  0.00    -0.403 C  
BRANCH  25  26
HETATM   26  N   UNL     1     -10.417  12.209  63.301  1.00  0.00    -0.572 N  
HETATM   27  H   UNL     1     -10.197  12.589  62.380  1.00  0.00     0.000 HD 
HETATM   28  C   UNL     1     -10.122  10.885  63.547  1.00  0.00    -0.347 C  
HETATM   29  O   UNL     1     -10.393  10.310  64.596  1.00  0.00    -0.266 OA 
BRANCH  28  30
HETATM   30  C   UNL     1      -9.390  10.186  62.424  1.00  0.00    -0.297 C  
BRANCH  30  31
HETATM   31  C   UNL     1      -8.221   9.385  62.988  1.00  0.00    -0.167 C  
BRANCH  31  32
HETATM   32  N   UNL     1      -8.521   7.969  63.079  1.00  0.00    -0.403 N  
HETATM   33  H   UNL     1      -9.498   7.673  63.091  1.00  0.00     0.000 HD 
HETATM   34  C   UNL     1      -7.538   7.010  63.149  1.00  0.00    -0.104 C  
HETATM   35  O   UNL     1      -6.341   7.272  63.233  1.00  0.00    -0.051 OA 
BRANCH  34  36
HETATM   36  C   UNL     1      -8.075   5.562  63.188  1.00  0.00    -0.103 C  
HETATM   37  O   UNL     1      -9.291   5.470  62.428  1.00  0.00    -0.353 OA 
HETATM   38  H   UNL     1      -9.621   4.579  62.452  1.00  0.00     0.000 HD 
BRANCH  36  39
HETATM   39  C   UNL     1      -8.303   5.026  64.629  1.00  0.00    -0.141 C  
HETATM   40  C   UNL     1      -8.335   6.174  65.659  1.00  0.00    -0.146 C  
HETATM   41  C   UNL     1      -9.678   4.319  64.685  1.00  0.00    -0.152 C  
BRANCH  39  42
HETATM   42  C   UNL     1      -7.194   4.011  64.996  1.00  0.00    -0.067 C  
HETATM   43  O   UNL     1      -6.578   4.328  66.241  1.00  0.00    -0.040 OA 
HETATM   44  H   UNL     1      -5.897   3.705  66.466  1.00  0.00     0.000 HD 
ENDBRANCH  39  42
ENDBRANCH  36  39
ENDBRANCH  34  36
ENDBRANCH  31  32
ENDBRANCH  30  31
ENDBRANCH  28  30
ENDBRANCH  25  26
ENDBRANCH  24  25
ENDBRANCH  23  24
ENDBRANCH  22  23
ENDBRANCH  21  22
ENDBRANCH  20  21
ENDBRANCH  18  20
ENDBRANCH  15  16
ENDBRANCH  14  15
ENDBRANCH  12  14
ENDBRANCH   7  10
ENDBRANCH   2   7
TORSDOF 19
ENDMDL
MODEL      320
REMARK 921   NORMALIZED FREE ENERGY PREDICTED BY IDOCK:   -2.84 KCAL/MOL
REMARK 922        TOTAL FREE ENERGY PREDICTED BY IDOCK:   -8.18 KCAL/MOL
REMARK 923 INTER-LIGAND FREE ENERGY PREDICTED BY IDOCK:   -5.89 KCAL/MOL
REMARK 924 INTRA-LIGAND FREE ENERGY PREDICTED BY IDOCK:   -2.29 KCAL/MOL
REMARK 927      BINDING AFFINITY PREDICTED BY RF-SCORE:    0.00 PKD
ROOT
HETATM    1  C   UNL     1     -10.905  11.631  69.915  1.00  0.00     0.249 C  
HETATM    2  C   UNL     1     -10.119  10.846  68.848  1.00  0.00    -0.211 C  
HETATM    3  C   UNL     1      -8.685  10.566  69.362  1.00  0.00    -0.093 C  
ENDROOT
BRANCH   2   4
HETATM    4  C   UNL     1     -10.790   9.471  68.640  1.00  0.00    -0.139 C  
HETATM    5  O   UNL     1     -11.090   9.243  67.265  1.00  0.00    -0.352 OA 
HETATM    6  H   UNL     1     -11.502   8.397  67.137  1.00  0.00     0.000 HD 
ENDBRANCH   2   4
BRANCH   2   7
HETATM    7  C   UNL     1     -10.072  11.619  67.493  1.00  0.00    -0.191 C  
HETATM    8  O   UNL     1     -11.182  12.517  67.324  1.00  0.00    -0.264 OA 
HETATM    9  H   UNL     1     -11.153  12.988  66.500  1.00  0.00     0.000 HD 
BRANCH   7  10
HETATM   10  C   UNL     1      -8.779  12.429  67.249  1.00  0.00    -0.191 C  
HETATM   11  O   UNL     1      -7.805  12.019  66.626  1.00  0.00    -0.089 OA 
HETATM   12  N   UNL     1      -8.846  13.713  67.742  1.00  0.00    -0.178 N  
HETATM   13  H   UNL     1      -9.645  13.994  68.311  1.00  0.00     0.000 HD 
BRANCH  12  14
HETATM   14  C   UNL     1      -7.797  14.669  67.464  1.00  0.00    -0.193 C  
BRANCH  14  15
HETATM   15  C   UNL     1      -8.306  16.102  67.340  1.00  0.00    -0.191 C  
BRANCH  15  16
HETATM   16  C   UNL     1      -9.731  16.067  66.837  1.00  0.00    -0.235 C  
HETATM   17  O   UNL     1     -10.687  16.228  67.589  1.00  0.00    -0.313 OA 
HETATM   18  N   UNL     1      -9.847  15.871  65.480  1.00  0.00    -0.290 N  
HETATM   19  H   UNL     1      -8.985  15.798  64.942  1.00  0.00     0.000 HD 
BRANCH  18  20
HETATM   20  C   UNL     1     -11.111  15.758  64.746  1.00  0.00    -0.400 C  
BRANCH  20  21
HETATM   21  C   UNL     1     -11.940  14.491  64.974  1.00  0.00    -0.399 C  
BRANCH  21  22
HETATM   22  S   UNL     1     -12.315  13.523  63.462  1.00  0.00    -0.079 SA 
BRANCH  22  23
HETATM   23  S   UNL     1     -11.773  11.597  63.954  1.00  0.00    -0.178 SA 
BRANCH  23  24
HETATM   24  C   UNL     1      -9.958  11.681  63.811  1.00  0.00    -0.349 C  
BRANCH  24  25
HETATM   25  C   UNL     1      -9.441  10.706  62.751  1.00  0.00    -0.328 C  
BRANCH  25  26
HETATM   26  N   UNL     1      -8.208  10.008  63.108  1.00  0.00    -0.150 N  
HETATM   27  H   UNL     1      -7.396  10.124  62.501  1.00  0.00     0.000 HD 
HETATM   28  C   UNL     1      -8.082   9.202  64.220  1.00  0.00    -0.148 C  
HETATM   29  O   UNL     1      -9.006   8.948  64.986  1.00  0.00    -0.189 OA 
BRANCH  28  30
HETATM   30  C   UNL     1      -6.686   8.674  64.455  1.00  0.00    -0.066 C  
BRANCH  30  31
HETATM   31  C   UNL     1      -6.604   7.214  64.018  1.00  0.00    -0.044 C  
BRANCH  31  32
HETATM   32  N   UNL     1      -7.230   6.321  64.975  1.00  0.00    -0.067 N  
HETATM   33  H   UNL     1      -8.160   5.955  64.771  1.00  0.00     0.000 HD 
HETATM   34  C   UNL     1      -6.614   5.949  66.147  1.00  0.00    -0.047 C  
HETATM   35  O   UNL     1      -5.538   6.407  66.522  1.00  0.00    -0.013 OA 
BRANCH  34  36
HETATM   36  C   UNL     1      -7.433   4.951  66.996  1.00  0.00    -0.087 C  
HETATM   37  O   UNL     1      -8.361   4.242  66.160  1.00  0.00    -0.108 OA 
HETATM   38  H   UNL     1      -8.864   3.629  66.682  1.00  0.00     0.000 HD 
BRANCH  36  39
HETATM   39  C   UNL     1      -8.184   5.620  68.181  1.00  0.00    -0.096 C  
HETATM   40  C   UNL     1      -7.995   7.151  68.177  1.00  0.00    -0.119 C  
HETATM   41  C   UNL     1      -9.698   5.341  68.031  1.00  0.00    -0.179 C  
BRANCH  39  42
HETATM   42  C   UNL     1      -7.688   5.026  69.522  1.00  0.00    -0.067 C  
HETATM   43  O   UNL     1      -7.870   5.936  70.603  1.00  0.00    -0.100 OA 
HETATM   44  H   UNL     1      -7.565   5.572  71.426  1.00  0.00     0.000 HD 
ENDBRANCH  39  42
ENDBRANCH  36  39
ENDBRANCH  34  36
ENDBRANCH  31  32
ENDBRANCH  30  31
ENDBRANCH  28  30
ENDBRANCH  25  26
ENDBRANCH  24  25
ENDBRANCH  23  24
ENDBRANCH  22  23
ENDBRANCH  21  22
ENDBRANCH  20  21
ENDBRANCH  18  20
ENDBRANCH  15  16
ENDBRANCH  14  15
ENDBRANCH  12  14
ENDBRANCH   7  10
ENDBRANCH   2   7
TORSDOF 19
ENDMDL
MODEL      321
REMARK 921   NORMALIZED FREE ENERGY PREDICTED BY IDOCK:   -2.84 KCAL/MOL
REMARK 922        TOTAL FREE ENERGY PREDICTED BY IDOCK:   -8.17 KCAL/MOL
REMARK 923 INTER-LIGAND FREE ENERGY PREDICTED BY IDOCK:   -7.52 KCAL/MOL
REMARK 924 INTRA-LIGAND FREE ENERGY PREDICTED BY IDOCK:   -0.65 KCAL/MOL
REMARK 927      BINDING AFFINITY PREDICTED BY RF-SCORE:    0.00 PKD
ROOT
HETATM    1  C   UNL     1      -8.079  14.952  69.818  1.00  0.00     0.112 C  
HETATM    2  C   UNL     1      -7.873  15.672  68.473  1.00  0.00    -0.133 C  
HETATM    3  C   UNL     1      -8.235  17.170  68.625  1.00  0.00    -0.255 C  
ENDROOT
BRANCH   2   4
HETATM    4  C   UNL     1      -6.377  15.615  68.096  1.00  0.00    -0.125 C  
HETATM    5  O   UNL     1      -5.996  16.744  67.313  1.00  0.00    -0.137 OA 
HETATM    6  H   UNL     1      -5.076  16.709  67.081  1.00  0.00     0.000 HD 
ENDBRANCH   2   4
BRANCH   2   7
HETATM    7  C   UNL     1      -8.726  15.017  67.341  1.00  0.00    -0.194 C  
HETATM    8  O   UNL     1      -8.511  15.627  66.057  1.00  0.00    -0.351 OA 
HETATM    9  H   UNL     1      -9.029  15.228  65.369  1.00  0.00     0.000 HD 
BRANCH   7  10
HETATM   10  C   UNL     1      -8.526  13.495  67.171  1.00  0.00    -0.166 C  
HETATM   11  O   UNL     1      -9.426  12.693  66.940  1.00  0.00    -0.215 OA 
HETATM   12  N   UNL     1      -7.203  13.114  67.230  1.00  0.00    -0.339 N  
HETATM   13  H   UNL     1      -6.493  13.799  67.491  1.00  0.00     0.000 HD 
BRANCH  12  14
HETATM   14  C   UNL     1      -6.809  11.756  66.929  1.00  0.00    -0.104 C  
BRANCH  14  15
HETATM   15  C   UNL     1      -6.469  10.938  68.171  1.00  0.00    -0.058 C  
BRANCH  15  16
HETATM   16  C   UNL     1      -7.255   9.647  68.129  1.00  0.00    -0.080 C  
HETATM   17  O   UNL     1      -8.113   9.439  67.277  1.00  0.00    -0.109 OA 
HETATM   18  N   UNL     1      -6.903   8.739  69.101  1.00  0.00    -0.054 N  
HETATM   19  H   UNL     1      -6.143   8.996  69.729  1.00  0.00     0.000 HD 
BRANCH  18  20
HETATM   20  C   UNL     1      -7.534   7.432  69.306  1.00  0.00    -0.092 C  
BRANCH  20  21
HETATM   21  C   UNL     1      -7.085   6.624  70.527  1.00  0.00    -0.068 C  
BRANCH  21  22
HETATM   22  S   UNL     1      -8.358   5.509  71.234  1.00  0.00    -0.127 SA 
BRANCH  22  23
HETATM   23  S   UNL     1      -9.637   5.148  69.659  1.00  0.00    -0.186 SA 
BRANCH  23  24
HETATM   24  C   UNL     1     -10.790   6.554  69.796  1.00  0.00    -0.295 C  
BRANCH  24  25
HETATM   25  C   UNL     1     -11.964   6.218  70.718  1.00  0.00    -0.041 C  
BRANCH  25  26
HETATM   26  N   UNL     1     -12.741   7.371  71.166  1.00  0.00    -0.519 N  
HETATM   27  H   UNL     1     -13.728   7.415  70.909  1.00  0.00     0.000 HD 
HETATM   28  C   UNL     1     -12.215   8.401  71.917  1.00  0.00    -0.343 C  
HETATM   29  O   UNL     1     -11.033   8.479  72.234  1.00  0.00    -0.338 OA 
BRANCH  28  30
HETATM   30  C   UNL     1     -13.228   9.431  72.363  1.00  0.00    -0.483 C  
BRANCH  30  31
HETATM   31  C   UNL     1     -13.452  10.452  71.253  1.00  0.00    -0.125 C  
BRANCH  31  32
HETATM   32  N   UNL     1     -12.710  11.678  71.479  1.00  0.00    -0.354 N  
HETATM   33  H   UNL     1     -11.750  11.741  71.138  1.00  0.00     0.000 HD 
HETATM   34  C   UNL     1     -13.253  12.758  72.135  1.00  0.00    -0.441 C  
HETATM   35  O   UNL     1     -14.363  12.744  72.659  1.00  0.00    -0.362 OA 
BRANCH  34  36
HETATM   36  C   UNL     1     -12.309  13.978  72.221  1.00  0.00     0.028 C  
HETATM   37  O   UNL     1     -12.748  14.864  73.263  1.00  0.00    -0.456 OA 
HETATM   38  H   UNL     1     -12.167  15.615  73.316  1.00  0.00     0.000 HD 
BRANCH  36  39
HETATM   39  C   UNL     1     -12.176  14.752  70.880  1.00  0.00    -0.384 C  
HETATM   40  C   UNL     1     -11.631  13.846  69.757  1.00  0.00    -0.335 C  
HETATM   41  C   UNL     1     -13.579  15.235  70.443  1.00  0.00     0.128 C  
BRANCH  39  42
HETATM   42  C   UNL     1     -11.251  15.979  71.069  1.00  0.00    -0.302 C  
HETATM   43  O   UNL     1     -11.468  16.964  70.064  1.00  0.00    -0.217 OA 
HETATM   44  H   UNL     1     -10.900  17.717  70.179  1.00  0.00     0.000 HD 
ENDBRANCH  39  42
ENDBRANCH  36  39
ENDBRANCH  34  36
ENDBRANCH  31  32
ENDBRANCH  30  31
ENDBRANCH  28  30
ENDBRANCH  25  26
ENDBRANCH  24  25
ENDBRANCH  23  24
ENDBRANCH  22  23
ENDBRANCH  21  22
ENDBRANCH  20  21
ENDBRANCH  18  20
ENDBRANCH  15  16
ENDBRANCH  14  15
ENDBRANCH  12  14
ENDBRANCH   7  10
ENDBRANCH   2   7
TORSDOF 19
ENDMDL
MODEL      322
REMARK 921   NORMALIZED FREE ENERGY PREDICTED BY IDOCK:   -2.84 KCAL/MOL
REMARK 922        TOTAL FREE ENERGY PREDICTED BY IDOCK:   -8.16 KCAL/MOL
REMARK 923 INTER-LIGAND FREE ENERGY PREDICTED BY IDOCK:   -6.35 KCAL/MOL
REMARK 924 INTRA-LIGAND FREE ENERGY PREDICTED BY IDOCK:   -1.82 KCAL/MOL
REMARK 927      BINDING AFFINITY PREDICTED BY RF-SCORE:    0.00 PKD
ROOT
HETATM    1  C   UNL     1     -10.450   2.311  63.482  1.00  0.00    -0.161 C  
HETATM    2  C   UNL     1      -9.453   3.077  64.371  1.00  0.00    -0.145 C  
HETATM    3  C   UNL     1      -9.004   2.173  65.545  1.00  0.00    -0.120 C  
ENDROOT
BRANCH   2   4
HETATM    4  C   UNL     1      -8.186   3.395  63.549  1.00  0.00    -0.089 C  
HETATM    5  O   UNL     1      -7.822   2.299  62.713  1.00  0.00    -0.056 OA 
HETATM    6  H   UNL     1      -7.042   2.495  62.207  1.00  0.00     0.000 HD 
ENDBRANCH   2   4
BRANCH   2   7
HETATM    7  C   UNL     1     -10.076   4.403  64.911  1.00  0.00    -0.118 C  
HETATM    8  O   UNL     1     -11.513   4.363  64.963  1.00  0.00    -1.090 OA 
HETATM    9  H   UNL     1     -11.892   5.169  65.292  1.00  0.00     0.000 HD 
BRANCH   7  10
HETATM   10  C   UNL     1      -9.574   4.839  66.306  1.00  0.00    -0.178 C  
HETATM   11  O   UNL     1     -10.130   4.567  67.365  1.00  0.00    -0.151 OA 
HETATM   12  N   UNL     1      -8.376   5.517  66.260  1.00  0.00    -0.111 N  
HETATM   13  H   UNL     1      -7.981   5.782  65.357  1.00  0.00     0.000 HD 
BRANCH  12  14
HETATM   14  C   UNL     1      -7.672   5.860  67.475  1.00  0.00    -0.097 C  
BRANCH  14  15
HETATM   15  C   UNL     1      -6.758   4.746  67.976  1.00  0.00    -0.054 C  
BRANCH  15  16
HETATM   16  C   UNL     1      -7.007   4.544  69.454  1.00  0.00    -0.050 C  
HETATM   17  O   UNL     1      -6.162   4.044  70.190  1.00  0.00    -0.025 OA 
HETATM   18  N   UNL     1      -8.234   4.992  69.887  1.00  0.00    -0.074 N  
HETATM   19  H   UNL     1      -8.840   5.436  69.199  1.00  0.00     0.000 HD 
BRANCH  18  20
HETATM   20  C   UNL     1      -8.739   4.881  71.258  1.00  0.00    -0.128 C  
BRANCH  20  21
HETATM   21  C   UNL     1     -10.258   4.821  71.440  1.00  0.00    -0.166 C  
BRANCH  21  22
HETATM   22  S   UNL     1     -10.878   5.472  73.039  1.00  0.00    -0.294 SA 
BRANCH  22  23
HETATM   23  S   UNL     1     -10.228   7.427  73.068  1.00  0.00    -0.320 SA 
BRANCH  23  24
HETATM   24  C   UNL     1     -11.586   8.275  72.197  1.00  0.00    -0.364 C  
BRANCH  24  25
HETATM   25  C   UNL     1     -11.105   9.583  71.565  1.00  0.00    -0.336 C  
BRANCH  25  26
HETATM   26  N   UNL     1     -11.254   9.655  70.114  1.00  0.00    -0.253 N  
HETATM   27  H   UNL     1     -12.031  10.197  69.735  1.00  0.00     0.000 HD 
HETATM   28  C   UNL     1     -10.401   9.032  69.228  1.00  0.00    -0.219 C  
HETATM   29  O   UNL     1      -9.469   8.312  69.570  1.00  0.00    -0.161 OA 
BRANCH  28  30
HETATM   30  C   UNL     1     -10.677   9.336  67.773  1.00  0.00    -0.270 C  
BRANCH  30  31
HETATM   31  C   UNL     1      -9.405   9.837  67.098  1.00  0.00    -0.142 C  
BRANCH  31  32
HETATM   32  N   UNL     1      -8.442  10.349  68.056  1.00  0.00    -0.118 N  
HETATM   33  H   UNL     1      -8.760  10.576  68.998  1.00  0.00     0.000 HD 
HETATM   34  C   UNL     1      -7.118  10.539  67.739  1.00  0.00    -0.083 C  
HETATM   35  O   UNL     1      -6.661  10.382  66.611  1.00  0.00    -0.080 OA 
BRANCH  34  36
HETATM   36  C   UNL     1      -6.258  11.042  68.920  1.00  0.00    -0.042 C  
HETATM   37  O   UNL     1      -6.770  10.524  70.157  1.00  0.00    -0.137 OA 
HETATM   38  H   UNL     1      -6.241  10.834  70.883  1.00  0.00     0.000 HD 
BRANCH  36  39
HETATM   39  C   UNL     1      -6.153  12.591  68.992  1.00  0.00    -0.081 C  
HETATM   40  C   UNL     1      -7.524  13.261  68.764  1.00  0.00    -0.053 C  
HETATM   41  C   UNL     1      -5.674  12.992  70.407  1.00  0.00    -0.169 C  
BRANCH  39  42
HETATM   42  C   UNL     1      -5.132  13.101  67.946  1.00  0.00    -0.103 C  
HETATM   43  O   UNL     1      -5.356  14.467  67.610  1.00  0.00    -0.309 OA 
HETATM   44  H   UNL     1      -4.730  14.780  66.968  1.00  0.00     0.000 HD 
ENDBRANCH  39  42
ENDBRANCH  36  39
ENDBRANCH  34  36
ENDBRANCH  31  32
ENDBRANCH  30  31
ENDBRANCH  28  30
ENDBRANCH  25  26
ENDBRANCH  24  25
ENDBRANCH  23  24
ENDBRANCH  22  23
ENDBRANCH  21  22
ENDBRANCH  20  21
ENDBRANCH  18  20
ENDBRANCH  15  16
ENDBRANCH  14  15
ENDBRANCH  12  14
ENDBRANCH   7  10
ENDBRANCH   2   7
TORSDOF 19
ENDMDL
MODEL      323
REMARK 921   NORMALIZED FREE ENERGY PREDICTED BY IDOCK:   -2.82 KCAL/MOL
REMARK 922        TOTAL FREE ENERGY PREDICTED BY IDOCK:   -8.14 KCAL/MOL
REMARK 923 INTER-LIGAND FREE ENERGY PREDICTED BY IDOCK:   -6.09 KCAL/MOL
REMARK 924 INTRA-LIGAND FREE ENERGY PREDICTED BY IDOCK:   -2.06 KCAL/MOL
REMARK 927      BINDING AFFINITY PREDICTED BY RF-SCORE:    0.00 PKD
ROOT
HETATM    1  C   UNL     1      -8.163   7.084  70.083  1.00  0.00    -0.133 C  
HETATM    2  C   UNL     1      -7.297   7.721  71.186  1.00  0.00    -0.066 C  
HETATM    3  C   UNL     1      -7.773   7.221  72.573  1.00  0.00    -0.095 C  
ENDROOT
BRANCH   2   4
HETATM    4  C   UNL     1      -5.839   7.242  71.021  1.00  0.00    -0.035 C  
HETATM    5  O   UNL     1      -5.758   5.819  71.015  1.00  0.00    -0.016 OA 
HETATM    6  H   UNL     1      -4.860   5.524  70.913  1.00  0.00     0.000 HD 
ENDBRANCH   2   4
BRANCH   2   7
HETATM    7  C   UNL     1      -7.350   9.280  71.121  1.00  0.00    -0.023 C  
HETATM    8  O   UNL     1      -6.271   9.905  71.837  1.00  0.00    -0.297 OA 
HETATM    9  H   UNL     1      -6.303  10.853  71.797  1.00  0.00     0.000 HD 
BRANCH   7  10
HETATM   10  C   UNL     1      -7.365   9.873  69.695  1.00  0.00    -0.115 C  
HETATM   11  O   UNL     1      -6.517   9.650  68.836  1.00  0.00    -0.046 OA 
HETATM   12  N   UNL     1      -8.482  10.638  69.441  1.00  0.00    -0.349 N  
HETATM   13  H   UNL     1      -9.128  10.854  70.200  1.00  0.00     0.000 HD 
BRANCH  12  14
HETATM   14  C   UNL     1      -8.750  11.139  68.111  1.00  0.00    -0.144 C  
BRANCH  14  15
HETATM   15  C   UNL     1      -9.040  12.636  68.078  1.00  0.00    -0.207 C  
BRANCH  15  16
HETATM   16  C   UNL     1     -10.519  12.836  67.830  1.00  0.00    -0.220 C  
HETATM   17  O   UNL     1     -11.368  12.152  68.393  1.00  0.00    -0.239 OA 
HETATM   18  N   UNL     1     -10.812  13.855  66.953  1.00  0.00    -0.284 N  
HETATM   19  H   UNL     1     -10.030  14.391  66.579  1.00  0.00     0.000 HD 
BRANCH  18  20
HETATM   20  C   UNL     1     -12.158  14.230  66.512  1.00  0.00    -0.429 C  
BRANCH  20  21
HETATM   21  C   UNL     1     -12.462  14.111  65.016  1.00  0.00    -0.419 C  
BRANCH  21  22
HETATM   22  S   UNL     1     -12.504  12.397  64.364  1.00  0.00    -0.375 SA 
BRANCH  22  23
HETATM   23  S   UNL     1     -10.682  12.172  63.429  1.00  0.00    -0.341 SA 
BRANCH  23  24
HETATM   24  C   UNL     1      -9.976  10.760  64.342  1.00  0.00    -0.338 C  
BRANCH  24  25
HETATM   25  C   UNL     1      -8.748  10.196  63.623  1.00  0.00    -0.212 C  
BRANCH  25  26
HETATM   26  N   UNL     1      -8.837   8.780  63.278  1.00  0.00    -0.419 N  
HETATM   27  H   UNL     1      -9.615   8.474  62.693  1.00  0.00     0.000 HD 
HETATM   28  C   UNL     1      -7.926   7.833  63.698  1.00  0.00    -0.103 C  
HETATM   29  O   UNL     1      -6.985   8.078  64.447  1.00  0.00    -0.069 OA 
BRANCH  28  30
HETATM   30  C   UNL     1      -8.149   6.452  63.127  1.00  0.00    -0.046 C  
BRANCH  30  31
HETATM   31  C   UNL     1      -7.321   5.431  63.902  1.00  0.00    -0.053 C  
BRANCH  31  32
HETATM   32  N   UNL     1      -8.133   4.646  64.813  1.00  0.00    -0.103 N  
HETATM   33  H   UNL     1      -8.658   3.853  64.445  1.00  0.00     0.000 HD 
HETATM   34  C   UNL     1      -8.221   4.934  66.155  1.00  0.00    -0.108 C  
HETATM   35  O   UNL     1      -7.702   5.918  66.673  1.00  0.00    -0.097 OA 
BRANCH  34  36
HETATM   36  C   UNL     1      -9.099   3.943  66.952  1.00  0.00    -0.151 C  
HETATM   37  O   UNL     1      -9.931   4.659  67.877  1.00  0.00    -0.143 OA 
HETATM   38  H   UNL     1     -10.471   4.049  68.367  1.00  0.00     0.000 HD 
BRANCH  36  39
HETATM   39  C   UNL     1      -8.278   2.855  67.701  1.00  0.00    -0.087 C  
HETATM   40  C   UNL     1      -9.149   1.629  68.044  1.00  0.00    -0.192 C  
HETATM   41  C   UNL     1      -7.139   2.367  66.776  1.00  0.00    -0.049 C  
BRANCH  39  42
HETATM   42  C   UNL     1      -7.666   3.451  68.992  1.00  0.00    -0.051 C  
HETATM   43  O   UNL     1      -6.458   4.157  68.728  1.00  0.00    -0.035 OA 
HETATM   44  H   UNL     1      -6.082   4.522  69.520  1.00  0.00     0.000 HD 
ENDBRANCH  39  42
ENDBRANCH  36  39
ENDBRANCH  34  36
ENDBRANCH  31  32
ENDBRANCH  30  31
ENDBRANCH  28  30
ENDBRANCH  25  26
ENDBRANCH  24  25
ENDBRANCH  23  24
ENDBRANCH  22  23
ENDBRANCH  21  22
ENDBRANCH  20  21
ENDBRANCH  18  20
ENDBRANCH  15  16
ENDBRANCH  14  15
ENDBRANCH  12  14
ENDBRANCH   7  10
ENDBRANCH   2   7
TORSDOF 19
ENDMDL
MODEL      324
REMARK 921   NORMALIZED FREE ENERGY PREDICTED BY IDOCK:   -2.79 KCAL/MOL
REMARK 922        TOTAL FREE ENERGY PREDICTED BY IDOCK:   -8.06 KCAL/MOL
REMARK 923 INTER-LIGAND FREE ENERGY PREDICTED BY IDOCK:   -8.59 KCAL/MOL
REMARK 924 INTRA-LIGAND FREE ENERGY PREDICTED BY IDOCK:    0.53 KCAL/MOL
REMARK 927      BINDING AFFINITY PREDICTED BY RF-SCORE:    0.00 PKD
ROOT
HETATM    1  C   UNL     1     -10.820   3.684  63.903  1.00  0.00    -0.205 C  
HETATM    2  C   UNL     1      -9.288   3.521  63.921  1.00  0.00    -0.129 C  
HETATM    3  C   UNL     1      -8.925   2.019  63.816  1.00  0.00    -0.092 C  
ENDROOT
BRANCH   2   4
HETATM    4  C   UNL     1      -8.695   4.208  62.673  1.00  0.00    -0.101 C  
HETATM    5  O   UNL     1      -8.797   5.627  62.763  1.00  0.00    -0.332 OA 
HETATM    6  H   UNL     1      -8.432   6.049  61.994  1.00  0.00     0.000 HD 
ENDBRANCH   2   4
BRANCH   2   7
HETATM    7  C   UNL     1      -8.666   4.144  65.210  1.00  0.00    -0.122 C  
HETATM    8  O   UNL     1      -7.302   4.561  65.026  1.00  0.00    -0.070 OA 
HETATM    9  H   UNL     1      -6.924   4.940  65.810  1.00  0.00     0.000 HD 
BRANCH   7  10
HETATM   10  C   UNL     1      -9.442   5.345  65.796  1.00  0.00    -0.087 C  
HETATM   11  O   UNL     1     -10.481   5.256  66.444  1.00  0.00    -0.260 OA 
HETATM   12  N   UNL     1      -8.813   6.551  65.582  1.00  0.00    -0.317 N  
HETATM   13  H   UNL     1      -7.989   6.589  64.982  1.00  0.00     0.000 HD 
BRANCH  12  14
HETATM   14  C   UNL     1      -9.305   7.763  66.198  1.00  0.00    -0.100 C  
BRANCH  14  15
HETATM   15  C   UNL     1      -9.938   7.529  67.566  1.00  0.00    -0.228 C  
BRANCH  15  16
HETATM   16  C   UNL     1      -8.845   7.527  68.611  1.00  0.00    -0.127 C  
HETATM   17  O   UNL     1      -9.070   7.234  69.781  1.00  0.00    -0.142 OA 
HETATM   18  N   UNL     1      -7.599   7.851  68.126  1.00  0.00    -0.113 N  
HETATM   19  H   UNL     1      -7.517   8.030  67.126  1.00  0.00     0.000 HD 
BRANCH  18  20
HETATM   20  C   UNL     1      -6.380   7.959  68.932  1.00  0.00    -0.040 C  
BRANCH  20  21
HETATM   21  C   UNL     1      -5.894   9.370  69.278  1.00  0.00    -0.035 C  
BRANCH  21  22
HETATM   22  S   UNL     1      -7.210  10.546  69.777  1.00  0.00    -0.122 SA 
BRANCH  22  23
HETATM   23  S   UNL     1      -7.521  11.693  68.094  1.00  0.00    -0.111 SA 
BRANCH  23  24
HETATM   24  C   UNL     1      -8.901  12.757  68.629  1.00  0.00     0.060 C  
BRANCH  24  25
HETATM   25  C   UNL     1      -8.440  14.203  68.825  1.00  0.00    -0.069 C  
BRANCH  25  26
HETATM   26  N   UNL     1      -8.930  15.145  67.822  1.00  0.00    -0.176 N  
HETATM   27  H   UNL     1      -9.939  15.257  67.718  1.00  0.00     0.000 HD 
HETATM   28  C   UNL     1      -8.105  15.892  67.008  1.00  0.00    -0.230 C  
HETATM   29  O   UNL     1      -6.882  15.799  67.008  1.00  0.00    -0.230 OA 
BRANCH  28  30
HETATM   30  C   UNL     1      -8.827  16.884  66.125  1.00  0.00    -0.279 C  
BRANCH  30  31
HETATM   31  C   UNL     1     -10.297  16.958  66.525  1.00  0.00    -0.299 C  
BRANCH  31  32
HETATM   32  N   UNL     1     -11.033  15.773  66.126  1.00  0.00    -0.232 N  
HETATM   33  H   UNL     1     -11.124  15.005  66.791  1.00  0.00     0.000 HD 
HETATM   34  C   UNL     1     -11.611  15.648  64.884  1.00  0.00    -0.156 C  
HETATM   35  O   UNL     1     -11.478  16.476  63.988  1.00  0.00    -1.137 OA 
BRANCH  34  36
HETATM   36  C   UNL     1     -12.389  14.328  64.686  1.00  0.00    -0.415 C  
HETATM   37  O   UNL     1     -13.489  14.264  65.607  1.00  0.00    -0.688 OA 
HETATM   38  H   UNL     1     -13.967  13.452  65.485  1.00  0.00     0.000 HD 
BRANCH  36  39
HETATM   39  C   UNL     1     -11.501  13.060  64.823  1.00  0.00    -0.363 C  
HETATM   40  C   UNL     1     -11.516  12.514  66.266  1.00  0.00    -0.421 C  
HETATM   41  C   UNL     1     -12.071  11.952  63.906  1.00  0.00    -0.505 C  
BRANCH  39  42
HETATM   42  C   UNL     1     -10.050  13.382  64.392  1.00  0.00    -0.099 C  
HETATM   43  O   UNL     1      -9.585  12.484  63.389  1.00  0.00    -0.622 OA 
HETATM   44  H   UNL     1      -8.694  12.681  63.124  1.00  0.00     0.000 HD 
ENDBRANCH  39  42
ENDBRANCH  36  39
ENDBRANCH  34  36
ENDBRANCH  31  32
ENDBRANCH  30  31
ENDBRANCH  28  30
ENDBRANCH  25  26
ENDBRANCH  24  25
ENDBRANCH  23  24
ENDBRANCH  22  23
ENDBRANCH  21  22
ENDBRANCH  20  21
ENDBRANCH  18  20
ENDBRANCH  15  16
ENDBRANCH  14  15
ENDBRANCH  12  14
ENDBRANCH   7  10
ENDBRANCH   2   7
TORSDOF 19
ENDMDL
MODEL      325
REMARK 921   NORMALIZED FREE ENERGY PREDICTED BY IDOCK:   -2.78 KCAL/MOL
REMARK 922        TOTAL FREE ENERGY PREDICTED BY IDOCK:   -8.05 KCAL/MOL
REMARK 923 INTER-LIGAND FREE ENERGY PREDICTED BY IDOCK:   -6.60 KCAL/MOL
REMARK 924 INTRA-LIGAND FREE ENERGY PREDICTED BY IDOCK:   -1.45 KCAL/MOL
REMARK 927      BINDING AFFINITY PREDICTED BY RF-SCORE:    0.00 PKD
ROOT
HETATM    1  C   UNL     1     -11.017   4.580  64.895  1.00  0.00     0.018 C  
HETATM    2  C   UNL     1      -9.638   3.898  64.971  1.00  0.00    -0.181 C  
HETATM    3  C   UNL     1      -9.237   3.702  66.454  1.00  0.00    -0.177 C  
ENDROOT
BRANCH   2   4
HETATM    4  C   UNL     1      -9.740   2.488  64.351  1.00  0.00    -0.094 C  
HETATM    5  O   UNL     1     -11.056   2.226  63.870  1.00  0.00    -0.487 OA 
HETATM    6  H   UNL     1     -11.118   1.358  63.489  1.00  0.00     0.000 HD 
ENDBRANCH   2   4
BRANCH   2   7
HETATM    7  C   UNL     1      -8.551   4.727  64.217  1.00  0.00    -0.141 C  
HETATM    8  O   UNL     1      -9.020   5.255  62.965  1.00  0.00    -0.326 OA 
HETATM    9  H   UNL     1      -8.359   5.760  62.507  1.00  0.00     0.000 HD 
BRANCH   7  10
HETATM   10  C   UNL     1      -7.954   5.904  65.021  1.00  0.00    -0.123 C  
HETATM   11  O   UNL     1      -8.546   6.948  65.275  1.00  0.00    -0.105 OA 
HETATM   12  N   UNL     1      -6.691   5.642  65.503  1.00  0.00    -0.040 N  
HETATM   13  H   UNL     1      -6.207   4.791  65.214  1.00  0.00     0.000 HD 
BRANCH  12  14
HETATM   14  C   UNL     1      -6.040   6.558  66.413  1.00  0.00    -0.033 C  
BRANCH  14  15
HETATM   15  C   UNL     1      -6.380   6.296  67.877  1.00  0.00    -0.033 C  
BRANCH  15  16
HETATM   16  C   UNL     1      -7.224   7.442  68.390  1.00  0.00    -0.093 C  
HETATM   17  O   UNL     1      -7.888   7.347  69.417  1.00  0.00    -0.116 OA 
HETATM   18  N   UNL     1      -7.153   8.583  67.624  1.00  0.00    -0.078 N  
HETATM   19  H   UNL     1      -6.532   8.568  66.816  1.00  0.00     0.000 HD 
BRANCH  18  20
HETATM   20  C   UNL     1      -7.899   9.819  67.876  1.00  0.00    -0.090 C  
BRANCH  20  21
HETATM   21  C   UNL     1      -7.789  10.928  66.827  1.00  0.00    -0.141 C  
BRANCH  21  22
HETATM   22  S   UNL     1      -8.612  10.572  65.227  1.00  0.00    -0.171 SA 
BRANCH  22  23
HETATM   23  S   UNL     1     -10.578  10.230  65.742  1.00  0.00     0.116 SA 
BRANCH  23  24
HETATM   24  C   UNL     1     -11.405  11.677  65.004  1.00  0.00    -0.170 C  
BRANCH  24  25
HETATM   25  C   UNL     1     -10.411  12.545  64.227  1.00  0.00    -0.378 C  
BRANCH  25  26
HETATM   26  N   UNL     1     -10.235  13.896  64.753  1.00  0.00    -0.583 N  
HETATM   27  H   UNL     1      -9.364  14.116  65.236  1.00  0.00     0.000 HD 
HETATM   28  C   UNL     1     -11.182  14.892  64.631  1.00  0.00    -0.341 C  
HETATM   29  O   UNL     1     -12.285  14.725  64.120  1.00  0.00    -0.541 OA 
BRANCH  28  30
HETATM   30  C   UNL     1     -10.741  16.242  65.148  1.00  0.00    -0.350 C  
BRANCH  30  31
HETATM   31  C   UNL     1      -9.385  16.115  65.836  1.00  0.00    -0.281 C  
BRANCH  31  32
HETATM   32  N   UNL     1      -9.495  16.202  67.281  1.00  0.00    -0.225 N  
HETATM   33  H   UNL     1      -9.405  17.115  67.726  1.00  0.00     0.000 HD 
HETATM   34  C   UNL     1      -9.717  15.098  68.070  1.00  0.00    -0.209 C  
HETATM   35  O   UNL     1      -9.748  13.950  67.636  1.00  0.00    -0.217 OA 
BRANCH  34  36
HETATM   36  C   UNL     1      -9.852  15.420  69.575  1.00  0.00    -0.260 C  
HETATM   37  O   UNL     1      -8.768  14.823  70.304  1.00  0.00     0.010 OA 
HETATM   38  H   UNL     1      -8.851  15.021  71.229  1.00  0.00     0.000 HD 
BRANCH  36  39
HETATM   39  C   UNL     1     -11.213  14.979  70.182  1.00  0.00    -0.291 C  
HETATM   40  C   UNL     1     -11.479  13.479  69.938  1.00  0.00    -0.194 C  
HETATM   41  C   UNL     1     -11.168  15.195  71.713  1.00  0.00    -0.299 C  
BRANCH  39  42
HETATM   42  C   UNL     1     -12.360  15.827  69.582  1.00  0.00    -0.091 C  
HETATM   43  O   UNL     1     -11.868  16.844  68.715  1.00  0.00     0.112 OA 
HETATM   44  H   UNL     1     -12.572  17.364  68.346  1.00  0.00     0.000 HD 
ENDBRANCH  39  42
ENDBRANCH  36  39
ENDBRANCH  34  36
ENDBRANCH  31  32
ENDBRANCH  30  31
ENDBRANCH  28  30
ENDBRANCH  25  26
ENDBRANCH  24  25
ENDBRANCH  23  24
ENDBRANCH  22  23
ENDBRANCH  21  22
ENDBRANCH  20  21
ENDBRANCH  18  20
ENDBRANCH  15  16
ENDBRANCH  14  15
ENDBRANCH  12  14
ENDBRANCH   7  10
ENDBRANCH   2   7
TORSDOF 19
ENDMDL
MODEL      326
REMARK 921   NORMALIZED FREE ENERGY PREDICTED BY IDOCK:   -2.76 KCAL/MOL
REMARK 922        TOTAL FREE ENERGY PREDICTED BY IDOCK:   -8.01 KCAL/MOL
REMARK 923 INTER-LIGAND FREE ENERGY PREDICTED BY IDOCK:   -6.93 KCAL/MOL
REMARK 924 INTRA-LIGAND FREE ENERGY PREDICTED BY IDOCK:   -1.08 KCAL/MOL
REMARK 927      BINDING AFFINITY PREDICTED BY RF-SCORE:    0.00 PKD
ROOT
HETATM    1  C   UNL     1     -10.677  18.507  67.058  1.00  0.00    -0.363 C  
HETATM    2  C   UNL     1      -9.141  18.400  67.042  1.00  0.00    -0.274 C  
HETATM    3  C   UNL     1      -8.533  19.736  66.546  1.00  0.00    -0.380 C  
ENDROOT
BRANCH   2   4
HETATM    4  C   UNL     1      -8.636  18.194  68.485  1.00  0.00    -0.294 C  
HETATM    5  O   UNL     1      -7.294  18.652  68.636  1.00  0.00    -0.287 OA 
HETATM    6  H   UNL     1      -6.983  18.524  69.525  1.00  0.00     0.000 HD 
ENDBRANCH   2   4
BRANCH   2   7
HETATM    7  C   UNL     1      -8.663  17.217  66.142  1.00  0.00    -0.162 C  
HETATM    8  O   UNL     1      -7.416  16.652  66.581  1.00  0.00    -0.227 OA 
HETATM    9  H   UNL     1      -7.125  15.932  66.034  1.00  0.00     0.000 HD 
BRANCH   7  10
HETATM   10  C   UNL     1      -9.673  16.057  65.998  1.00  0.00    -0.344 C  
HETATM   11  O   UNL     1      -9.982  15.529  64.934  1.00  0.00    -0.311 OA 
HETATM   12  N   UNL     1     -10.154  15.607  67.207  1.00  0.00    -0.251 N  
HETATM   13  H   UNL     1      -9.925  16.116  68.062  1.00  0.00     0.000 HD 
BRANCH  12  14
HETATM   14  C   UNL     1     -10.981  14.423  67.281  1.00  0.00    -0.297 C  
BRANCH  14  15
HETATM   15  C   UNL     1     -10.328  13.280  68.052  1.00  0.00    -0.243 C  
BRANCH  15  16
HETATM   16  C   UNL     1      -9.989  12.173  67.079  1.00  0.00    -0.202 C  
HETATM   17  O   UNL     1      -9.357  12.387  66.049  1.00  0.00    -0.209 OA 
HETATM   18  N   UNL     1     -10.425  10.927  67.466  1.00  0.00    -0.202 N  
HETATM   19  H   UNL     1     -10.899  10.855  68.365  1.00  0.00     0.000 HD 
BRANCH  18  20
HETATM   20  C   UNL     1     -10.262   9.694  66.690  1.00  0.00    -0.232 C  
BRANCH  20  21
HETATM   21  C   UNL     1      -9.643   8.492  67.409  1.00  0.00    -0.160 C  
BRANCH  21  22
HETATM   22  S   UNL     1     -10.169   8.273  69.152  1.00  0.00    -0.219 SA 
BRANCH  22  23
HETATM   23  S   UNL     1      -8.735   9.280  70.237  1.00  0.00    -0.235 SA 
BRANCH  23  24
HETATM   24  C   UNL     1      -7.206   8.753  69.397  1.00  0.00    -0.061 C  
BRANCH  24  25
HETATM   25  C   UNL     1      -5.974   9.037  70.260  1.00  0.00    -0.034 C  
BRANCH  25  26
HETATM   26  N   UNL     1      -6.234   9.101  71.696  1.00  0.00    -0.077 N  
HETATM   27  H   UNL     1      -6.424  10.013  72.111  1.00  0.00     0.000 HD 
HETATM   28  C   UNL     1      -6.235   7.996  72.521  1.00  0.00    -0.064 C  
HETATM   29  O   UNL     1      -5.965   6.861  72.142  1.00  0.00    -0.038 OA 
BRANCH  28  30
HETATM   30  C   UNL     1      -6.640   8.281  73.950  1.00  0.00    -0.145 C  
BRANCH  30  31
HETATM   31  C   UNL     1      -8.152   8.147  74.095  1.00  0.00    -0.253 C  
BRANCH  31  32
HETATM   32  N   UNL     1      -8.688   7.076  73.277  1.00  0.00    -0.124 N  
HETATM   33  H   UNL     1      -8.040   6.471  72.773  1.00  0.00     0.000 HD 
HETATM   34  C   UNL     1     -10.039   6.847  73.156  1.00  0.00    -0.215 C  
HETATM   35  O   UNL     1     -10.896   7.574  73.648  1.00  0.00    -0.329 OA 
BRANCH  34  36
HETATM   36  C   UNL     1     -10.391   5.625  72.277  1.00  0.00    -0.206 C  
HETATM   37  O   UNL     1     -11.628   5.858  71.587  1.00  0.00    -0.241 OA 
HETATM   38  H   UNL     1     -11.844   5.107  71.047  1.00  0.00     0.000 HD 
BRANCH  36  39
HETATM   39  C   UNL     1     -10.465   4.293  73.073  1.00  0.00    -0.250 C  
HETATM   40  C   UNL     1     -10.096   4.500  74.557  1.00  0.00    -0.261 C  
HETATM   41  C   UNL     1     -11.919   3.767  73.029  1.00  0.00     0.457 C  
BRANCH  39  42
HETATM   42  C   UNL     1      -9.525   3.242  72.434  1.00  0.00    -0.121 C  
HETATM   43  O   UNL     1      -8.740   2.569  73.412  1.00  0.00    -0.073 OA 
HETATM   44  H   UNL     1      -8.162   1.925  73.020  1.00  0.00     0.000 HD 
ENDBRANCH  39  42
ENDBRANCH  36  39
ENDBRANCH  34  36
ENDBRANCH  31  32
ENDBRANCH  30  31
ENDBRANCH  28  30
ENDBRANCH  25  26
ENDBRANCH  24  25
ENDBRANCH  23  24
ENDBRANCH  22  23
ENDBRANCH  21  22
ENDBRANCH  20  21
ENDBRANCH  18  20
ENDBRANCH  15  16
ENDBRANCH  14  15
ENDBRANCH  12  14
ENDBRANCH   7  10
ENDBRANCH   2   7
TORSDOF 19
ENDMDL
MODEL      327
REMARK 921   NORMALIZED FREE ENERGY PREDICTED BY IDOCK:   -2.76 KCAL/MOL
REMARK 922        TOTAL FREE ENERGY PREDICTED BY IDOCK:   -8.00 KCAL/MOL
REMARK 923 INTER-LIGAND FREE ENERGY PREDICTED BY IDOCK:   -7.01 KCAL/MOL
REMARK 924 INTRA-LIGAND FREE ENERGY PREDICTED BY IDOCK:   -0.99 KCAL/MOL
REMARK 927      BINDING AFFINITY PREDICTED BY RF-SCORE:    0.00 PKD
ROOT
HETATM    1  C   UNL     1     -11.777   8.114  72.906  1.00  0.00    -0.194 C  
HETATM    2  C   UNL     1     -12.047   8.013  71.394  1.00  0.00    -0.332 C  
HETATM    3  C   UNL     1     -13.442   7.383  71.157  1.00  0.00    -0.244 C  
ENDROOT
BRANCH   2   4
HETATM    4  C   UNL     1     -12.097   9.434  70.795  1.00  0.00    -0.203 C  
HETATM    5  O   UNL     1     -13.423   9.789  70.411  1.00  0.00    -0.560 OA 
HETATM    6  H   UNL     1     -13.453  10.664  70.042  1.00  0.00     0.000 HD 
ENDBRANCH   2   4
BRANCH   2   7
HETATM    7  C   UNL     1     -10.943   7.176  70.674  1.00  0.00    -0.258 C  
HETATM    8  O   UNL     1     -11.159   5.759  70.779  1.00  0.00    -0.275 OA 
HETATM    9  H   UNL     1     -10.487   5.251  70.341  1.00  0.00     0.000 HD 
BRANCH   7  10
HETATM   10  C   UNL     1     -10.746   7.506  69.178  1.00  0.00    -0.151 C  
HETATM   11  O   UNL     1     -10.169   8.502  68.752  1.00  0.00    -0.193 OA 
HETATM   12  N   UNL     1     -11.224   6.522  68.341  1.00  0.00    -0.555 N  
HETATM   13  H   UNL     1     -11.756   5.744  68.731  1.00  0.00     0.000 HD 
BRANCH  12  14
HETATM   14  C   UNL     1     -10.982   6.578  66.917  1.00  0.00    -0.338 C  
BRANCH  14  15
HETATM   15  C   UNL     1      -9.647   5.964  66.508  1.00  0.00    -0.180 C  
BRANCH  15  16
HETATM   16  C   UNL     1      -9.659   4.496  66.871  1.00  0.00    -0.190 C  
HETATM   17  O   UNL     1      -9.733   3.619  66.017  1.00  0.00    -0.166 OA 
HETATM   18  N   UNL     1      -9.554   4.246  68.221  1.00  0.00    -0.153 N  
HETATM   19  H   UNL     1      -9.449   5.050  68.839  1.00  0.00     0.000 HD 
BRANCH  18  20
HETATM   20  C   UNL     1      -9.580   2.919  68.840  1.00  0.00     0.009 C  
BRANCH  20  21
HETATM   21  C   UNL     1      -8.507   2.617  69.890  1.00  0.00    -0.050 C  
BRANCH  21  22
HETATM   22  S   UNL     1      -6.777   2.767  69.302  1.00  0.00    -0.034 SA 
BRANCH  22  23
HETATM   23  S   UNL     1      -6.448   4.800  69.228  1.00  0.00    -0.037 SA 
BRANCH  23  24
HETATM   24  C   UNL     1      -6.333   5.214  70.999  1.00  0.00    -0.023 C  
BRANCH  24  25
HETATM   25  C   UNL     1      -5.484   6.468  71.219  1.00  0.00    -0.027 C  
BRANCH  25  26
HETATM   26  N   UNL     1      -6.185   7.731  70.998  1.00  0.00    -0.034 N  
HETATM   27  H   UNL     1      -5.804   8.379  70.309  1.00  0.00     0.000 HD 
HETATM   28  C   UNL     1      -7.334   8.094  71.670  1.00  0.00    -0.083 C  
HETATM   29  O   UNL     1      -7.847   7.419  72.557  1.00  0.00    -0.092 OA 
BRANCH  28  30
HETATM   30  C   UNL     1      -7.951   9.391  71.200  1.00  0.00     0.075 C  
BRANCH  30  31
HETATM   31  C   UNL     1      -7.498   9.693  69.775  1.00  0.00    -0.110 C  
BRANCH  31  32
HETATM   32  N   UNL     1      -8.200  10.829  69.207  1.00  0.00    -0.318 N  
HETATM   33  H   UNL     1      -9.120  11.072  69.576  1.00  0.00     0.000 HD 
HETATM   34  C   UNL     1      -7.672  11.588  68.190  1.00  0.00    -0.120 C  
HETATM   35  O   UNL     1      -6.618  11.318  67.621  1.00  0.00    -0.065 OA 
BRANCH  34  36
HETATM   36  C   UNL     1      -8.561  12.779  67.769  1.00  0.00    -0.184 C  
HETATM   37  O   UNL     1      -8.753  13.665  68.883  1.00  0.00    -0.371 OA 
HETATM   38  H   UNL     1      -9.300  14.397  68.624  1.00  0.00     0.000 HD 
BRANCH  36  39
HETATM   39  C   UNL     1      -9.936  12.348  67.185  1.00  0.00    -0.211 C  
HETATM   40  C   UNL     1      -9.837  10.996  66.448  1.00  0.00    -0.252 C  
HETATM   41  C   UNL     1     -10.936  12.165  68.351  1.00  0.00    -0.271 C  
BRANCH  39  42
HETATM   42  C   UNL     1     -10.467  13.440  66.225  1.00  0.00    -0.289 C  
HETATM   43  O   UNL     1     -10.001  13.246  64.894  1.00  0.00    -0.529 OA 
HETATM   44  H   UNL     1     -10.327  13.916  64.305  1.00  0.00     0.000 HD 
ENDBRANCH  39  42
ENDBRANCH  36  39
ENDBRANCH  34  36
ENDBRANCH  31  32
ENDBRANCH  30  31
ENDBRANCH  28  30
ENDBRANCH  25  26
ENDBRANCH  24  25
ENDBRANCH  23  24
ENDBRANCH  22  23
ENDBRANCH  21  22
ENDBRANCH  20  21
ENDBRANCH  18  20
ENDBRANCH  15  16
ENDBRANCH  14  15
ENDBRANCH  12  14
ENDBRANCH   7  10
ENDBRANCH   2   7
TORSDOF 19
ENDMDL
MODEL      328
REMARK 921   NORMALIZED FREE ENERGY PREDICTED BY IDOCK:   -2.75 KCAL/MOL
REMARK 922        TOTAL FREE ENERGY PREDICTED BY IDOCK:   -7.99 KCAL/MOL
REMARK 923 INTER-LIGAND FREE ENERGY PREDICTED BY IDOCK:   -6.83 KCAL/MOL
REMARK 924 INTRA-LIGAND FREE ENERGY PREDICTED BY IDOCK:   -1.16 KCAL/MOL
REMARK 927      BINDING AFFINITY PREDICTED BY RF-SCORE:    0.00 PKD
ROOT
HETATM    1  C   UNL     1      -8.458   9.636  64.809  1.00  0.00    -0.168 C  
HETATM    2  C   UNL     1      -8.412   8.344  65.645  1.00  0.00    -0.179 C  
HETATM    3  C   UNL     1      -9.715   8.215  66.472  1.00  0.00    -0.309 C  
ENDROOT
BRANCH   2   4
HETATM    4  C   UNL     1      -8.370   7.130  64.693  1.00  0.00     0.055 C  
HETATM    5  O   UNL     1      -9.448   6.233  64.948  1.00  0.00     0.095 OA 
HETATM    6  H   UNL     1      -9.422   5.486  64.362  1.00  0.00     0.000 HD 
ENDBRANCH   2   4
BRANCH   2   7
HETATM    7  C   UNL     1      -7.166   8.320  66.585  1.00  0.00    -0.081 C  
HETATM    8  O   UNL     1      -7.235   9.305  67.630  1.00  0.00    -0.082 OA 
HETATM    9  H   UNL     1      -6.478   9.290  68.202  1.00  0.00     0.000 HD 
BRANCH   7  10
HETATM   10  C   UNL     1      -6.879   6.956  67.253  1.00  0.00    -0.072 C  
HETATM   11  O   UNL     1      -6.775   5.892  66.651  1.00  0.00    -0.054 OA 
HETATM   12  N   UNL     1      -6.673   7.054  68.612  1.00  0.00    -0.061 N  
HETATM   13  H   UNL     1      -6.835   7.944  69.083  1.00  0.00     0.000 HD 
BRANCH  12  14
HETATM   14  C   UNL     1      -6.231   5.910  69.378  1.00  0.00    -0.033 C  
BRANCH  14  15
HETATM   15  C   UNL     1      -7.144   5.584  70.555  1.00  0.00    -0.062 C  
BRANCH  15  16
HETATM   16  C   UNL     1      -7.623   6.881  71.168  1.00  0.00    -0.087 C  
HETATM   17  O   UNL     1      -6.843   7.770  71.494  1.00  0.00    -0.048 OA 
HETATM   18  N   UNL     1      -8.990   6.975  71.297  1.00  0.00    -0.138 N  
HETATM   19  H   UNL     1      -9.548   6.196  70.949  1.00  0.00     0.000 HD 
BRANCH  18  20
HETATM   20  C   UNL     1      -9.708   8.105  71.893  1.00  0.00    -0.205 C  
BRANCH  20  21
HETATM   21  C   UNL     1     -10.987   7.786  72.672  1.00  0.00    -0.364 C  
BRANCH  21  22
HETATM   22  S   UNL     1     -12.377   7.149  71.661  1.00  0.00    -0.376 SA 
BRANCH  22  23
HETATM   23  S   UNL     1     -13.796   8.639  71.764  1.00  0.00    -0.427 SA 
BRANCH  23  24
HETATM   24  C   UNL     1     -13.236   9.767  70.446  1.00  0.00     0.255 C  
BRANCH  24  25
HETATM   25  C   UNL     1     -12.549  11.003  71.031  1.00  0.00    -0.411 C  
BRANCH  25  26
HETATM   26  N   UNL     1     -12.211  12.037  70.056  1.00  0.00    -0.245 N  
HETATM   27  H   UNL     1     -12.191  11.780  69.069  1.00  0.00     0.000 HD 
HETATM   28  C   UNL     1     -11.917  13.340  70.397  1.00  0.00    -0.275 C  
HETATM   29  O   UNL     1     -11.856  13.746  71.553  1.00  0.00     0.050 OA 
BRANCH  28  30
HETATM   30  C   UNL     1     -11.709  14.264  69.219  1.00  0.00    -0.363 C  
BRANCH  30  31
HETATM   31  C   UNL     1     -11.581  15.704  69.706  1.00  0.00    -0.352 C  
BRANCH  31  32
HETATM   32  N   UNL     1     -10.275  16.266  69.416  1.00  0.00    -0.260 N  
HETATM   33  H   UNL     1      -9.494  16.034  70.029  1.00  0.00     0.000 HD 
HETATM   34  C   UNL     1     -10.053  17.099  68.345  1.00  0.00    -0.314 C  
HETATM   35  O   UNL     1     -10.946  17.506  67.607  1.00  0.00    -0.294 OA 
BRANCH  34  36
HETATM   36  C   UNL     1      -8.581  17.542  68.190  1.00  0.00    -0.258 C  
HETATM   37  O   UNL     1      -7.774  16.924  69.204  1.00  0.00    -0.227 OA 
HETATM   38  H   UNL     1      -6.868  17.197  69.109  1.00  0.00     0.000 HD 
BRANCH  36  39
HETATM   39  C   UNL     1      -8.393  19.084  68.222  1.00  0.00    -0.369 C  
HETATM   40  C   UNL     1      -9.352  19.748  69.231  1.00  0.00    -0.056 C  
HETATM   41  C   UNL     1      -6.950  19.400  68.681  1.00  0.00    -0.351 C  
BRANCH  39  42
HETATM   42  C   UNL     1      -8.618  19.673  66.808  1.00  0.00    -0.320 C  
HETATM   43  O   UNL     1      -9.925  20.219  66.664  1.00  0.00    -0.442 OA 
HETATM   44  H   UNL     1     -10.063  20.580  65.796  1.00  0.00     0.000 HD 
ENDBRANCH  39  42
ENDBRANCH  36  39
ENDBRANCH  34  36
ENDBRANCH  31  32
ENDBRANCH  30  31
ENDBRANCH  28  30
ENDBRANCH  25  26
ENDBRANCH  24  25
ENDBRANCH  23  24
ENDBRANCH  22  23
ENDBRANCH  21  22
ENDBRANCH  20  21
ENDBRANCH  18  20
ENDBRANCH  15  16
ENDBRANCH  14  15
ENDBRANCH  12  14
ENDBRANCH   7  10
ENDBRANCH   2   7
TORSDOF 19
ENDMDL
MODEL      329
REMARK 921   NORMALIZED FREE ENERGY PREDICTED BY IDOCK:   -2.71 KCAL/MOL
REMARK 922        TOTAL FREE ENERGY PREDICTED BY IDOCK:   -7.90 KCAL/MOL
REMARK 923 INTER-LIGAND FREE ENERGY PREDICTED BY IDOCK:   -6.52 KCAL/MOL
REMARK 924 INTRA-LIGAND FREE ENERGY PREDICTED BY IDOCK:   -1.38 KCAL/MOL
REMARK 927      BINDING AFFINITY PREDICTED BY RF-SCORE:    0.00 PKD
ROOT
HETATM    1  C   UNL     1      -8.348   7.518  72.462  1.00  0.00    -0.138 C  
HETATM    2  C   UNL     1      -9.748   7.640  71.833  1.00  0.00    -0.203 C  
HETATM    3  C   UNL     1     -10.202   9.121  71.860  1.00  0.00    -0.221 C  
ENDROOT
BRANCH   2   4
HETATM    4  C   UNL     1      -9.669   7.229  70.347  1.00  0.00    -0.172 C  
HETATM    5  O   UNL     1     -10.659   7.899  69.570  1.00  0.00    -0.229 OA 
HETATM    6  H   UNL     1     -10.610   7.646  68.656  1.00  0.00     0.000 HD 
ENDBRANCH   2   4
BRANCH   2   7
HETATM    7  C   UNL     1     -10.785   6.738  72.573  1.00  0.00    -0.230 C  
HETATM    8  O   UNL     1     -11.907   6.384  71.747  1.00  0.00    -0.314 OA 
HETATM    9  H   UNL     1     -12.538   5.836  72.197  1.00  0.00     0.000 HD 
BRANCH   7  10
HETATM   10  C   UNL     1     -10.211   5.430  73.160  1.00  0.00    -0.190 C  
HETATM   11  O   UNL     1      -9.961   5.248  74.348  1.00  0.00    -0.182 OA 
HETATM   12  N   UNL     1     -10.069   4.433  72.220  1.00  0.00    -0.183 N  
HETATM   13  H   UNL     1     -10.224   4.645  71.234  1.00  0.00     0.000 HD 
BRANCH  12  14
HETATM   14  C   UNL     1      -9.702   3.091  72.614  1.00  0.00    -0.132 C  
BRANCH  14  15
HETATM   15  C   UNL     1      -8.708   2.435  71.661  1.00  0.00    -0.107 C  
BRANCH  15  16
HETATM   16  C   UNL     1      -8.799   3.124  70.318  1.00  0.00    -0.083 C  
HETATM   17  O   UNL     1      -9.878   3.389  69.799  1.00  0.00    -0.090 OA 
HETATM   18  N   UNL     1      -7.581   3.441  69.761  1.00  0.00    -0.044 N  
HETATM   19  H   UNL     1      -6.746   3.218  70.302  1.00  0.00     0.000 HD 
BRANCH  18  20
HETATM   20  C   UNL     1      -7.388   4.074  68.454  1.00  0.00    -0.059 C  
BRANCH  20  21
HETATM   21  C   UNL     1      -7.647   3.212  67.215  1.00  0.00    -0.074 C  
BRANCH  21  22
HETATM   22  S   UNL     1      -6.145   2.547  66.400  1.00  0.00    -0.024 SA 
BRANCH  22  23
HETATM   23  S   UNL     1      -5.169   4.223  65.704  1.00  0.00    -0.009 SA 
BRANCH  23  24
HETATM   24  C   UNL     1      -6.570   5.273  65.193  1.00  0.00    -0.040 C  
BRANCH  24  25
HETATM   25  C   UNL     1      -6.124   6.721  64.977  1.00  0.00    -0.035 C  
BRANCH  25  26
HETATM   26  N   UNL     1      -6.297   7.596  66.134  1.00  0.00    -0.042 N  
HETATM   27  H   UNL     1      -6.081   7.222  67.057  1.00  0.00     0.000 HD 
HETATM   28  C   UNL     1      -6.737   8.900  66.045  1.00  0.00    -0.069 C  
HETATM   29  O   UNL     1      -7.078   9.435  64.995  1.00  0.00    -0.095 OA 
BRANCH  28  30
HETATM   30  C   UNL     1      -6.732   9.653  67.356  1.00  0.00    -0.071 C  
BRANCH  30  31
HETATM   31  C   UNL     1      -8.164   9.951  67.787  1.00  0.00    -0.114 C  
BRANCH  31  32
HETATM   32  N   UNL     1      -8.838  10.847  66.866  1.00  0.00    -0.140 N  
HETATM   33  H   UNL     1      -9.236  10.463  66.010  1.00  0.00     0.000 HD 
HETATM   34  C   UNL     1      -8.959  12.196  67.106  1.00  0.00    -0.189 C  
HETATM   35  O   UNL     1      -8.435  12.764  68.060  1.00  0.00    -0.159 OA 
BRANCH  34  36
HETATM   36  C   UNL     1      -9.756  12.956  66.023  1.00  0.00    -0.223 C  
HETATM   37  O   UNL     1      -9.385  14.343  66.023  1.00  0.00    -0.475 OA 
HETATM   38  H   UNL     1      -9.875  14.811  65.357  1.00  0.00     0.000 HD 
BRANCH  36  39
HETATM   39  C   UNL     1     -11.296  12.815  66.176  1.00  0.00    -0.371 C  
HETATM   40  C   UNL     1     -11.666  11.626  67.087  1.00  0.00    -0.215 C  
HETATM   41  C   UNL     1     -11.849  14.096  66.843  1.00  0.00    -0.458 C  
BRANCH  39  42
HETATM   42  C   UNL     1     -11.952  12.642  64.784  1.00  0.00    -0.402 C  
HETATM   43  O   UNL     1     -13.368  12.779  64.846  1.00  0.00    -0.736 OA 
HETATM   44  H   UNL     1     -13.770  12.673  63.992  1.00  0.00     0.000 HD 
ENDBRANCH  39  42
ENDBRANCH  36  39
ENDBRANCH  34  36
ENDBRANCH  31  32
ENDBRANCH  30  31
ENDBRANCH  28  30
ENDBRANCH  25  26
ENDBRANCH  24  25
ENDBRANCH  23  24
ENDBRANCH  22  23
ENDBRANCH  21  22
ENDBRANCH  20  21
ENDBRANCH  18  20
ENDBRANCH  15  16
ENDBRANCH  14  15
ENDBRANCH  12  14
ENDBRANCH   7  10
ENDBRANCH   2   7
TORSDOF 19
ENDMDL
MODEL      330
REMARK 921   NORMALIZED FREE ENERGY PREDICTED BY IDOCK:   -2.68 KCAL/MOL
REMARK 922        TOTAL FREE ENERGY PREDICTED BY IDOCK:   -7.83 KCAL/MOL
REMARK 923 INTER-LIGAND FREE ENERGY PREDICTED BY IDOCK:   -6.85 KCAL/MOL
REMARK 924 INTRA-LIGAND FREE ENERGY PREDICTED BY IDOCK:   -0.98 KCAL/MOL
REMARK 927      BINDING AFFINITY PREDICTED BY RF-SCORE:    0.00 PKD
ROOT
HETATM    1  C   UNL     1      -6.927  12.936  67.379  1.00  0.00    -0.129 C  
HETATM    2  C   UNL     1      -7.093  14.321  68.032  1.00  0.00    -0.145 C  
HETATM    3  C   UNL     1      -6.789  14.219  69.548  1.00  0.00    -0.110 C  
ENDROOT
BRANCH   2   4
HETATM    4  C   UNL     1      -6.048  15.287  67.436  1.00  0.00     0.073 C  
HETATM    5  O   UNL     1      -6.669  16.434  66.862  1.00  0.00    -0.198 OA 
HETATM    6  H   UNL     1      -6.026  17.028  66.495  1.00  0.00     0.000 HD 
ENDBRANCH   2   4
BRANCH   2   7
HETATM    7  C   UNL     1      -8.528  14.890  67.801  1.00  0.00    -0.154 C  
HETATM    8  O   UNL     1      -9.492  13.867  67.498  1.00  0.00    -0.204 OA 
HETATM    9  H   UNL     1     -10.365  14.213  67.358  1.00  0.00     0.000 HD 
BRANCH   7  10
HETATM   10  C   UNL     1      -9.094  15.728  68.969  1.00  0.00    -0.245 C  
HETATM   11  O   UNL     1      -8.838  16.912  69.168  1.00  0.00    -0.210 OA 
HETATM   12  N   UNL     1      -9.991  15.031  69.748  1.00  0.00    -0.450 N  
HETATM   13  H   UNL     1     -10.125  14.032  69.592  1.00  0.00     0.000 HD 
BRANCH  12  14
HETATM   14  C   UNL     1     -10.746  15.698  70.786  1.00  0.00    -0.143 C  
BRANCH  14  15
HETATM   15  C   UNL     1     -12.233  15.812  70.470  1.00  0.00    -0.399 C  
BRANCH  15  16
HETATM   16  C   UNL     1     -12.993  14.866  71.373  1.00  0.00    -0.354 C  
HETATM   17  O   UNL     1     -13.874  15.261  72.129  1.00  0.00    -0.428 OA 
HETATM   18  N   UNL     1     -12.626  13.546  71.245  1.00  0.00    -0.358 N  
HETATM   19  H   UNL     1     -11.915  13.322  70.550  1.00  0.00     0.000 HD 
BRANCH  18  20
HETATM   20  C   UNL     1     -13.176  12.436  72.028  1.00  0.00    -0.409 C  
BRANCH  20  21
HETATM   21  C   UNL     1     -13.536  11.156  71.267  1.00  0.00     0.256 C  
BRANCH  21  22
HETATM   22  S   UNL     1     -12.111  10.095  70.810  1.00  0.00    -0.363 SA 
BRANCH  22  23
HETATM   23  S   UNL     1     -12.449   8.336  71.829  1.00  0.00    -0.347 SA 
BRANCH  23  24
HETATM   24  C   UNL     1     -11.342   7.187  70.947  1.00  0.00    -0.286 C  
BRANCH  24  25
HETATM   25  C   UNL     1     -10.419   7.937  69.985  1.00  0.00    -0.231 C  
BRANCH  25  26
HETATM   26  N   UNL     1     -10.002   7.172  68.812  1.00  0.00    -0.159 N  
HETATM   27  H   UNL     1      -9.508   6.293  68.962  1.00  0.00     0.000 HD 
HETATM   28  C   UNL     1     -10.240   7.574  67.515  1.00  0.00    -0.223 C  
HETATM   29  O   UNL     1     -10.775   8.637  67.217  1.00  0.00    -0.271 OA 
BRANCH  28  30
HETATM   30  C   UNL     1      -9.822   6.572  66.462  1.00  0.00    -0.169 C  
BRANCH  30  31
HETATM   31  C   UNL     1     -10.639   5.293  66.612  1.00  0.00    -0.270 C  
BRANCH  31  32
HETATM   32  N   UNL     1      -9.834   4.181  67.082  1.00  0.00    -0.187 N  
HETATM   33  H   UNL     1      -9.840   3.956  68.077  1.00  0.00     0.000 HD 
HETATM   34  C   UNL     1      -9.062   3.421  66.235  1.00  0.00    -0.155 C  
HETATM   35  O   UNL     1      -8.918   3.671  65.042  1.00  0.00    -0.122 OA 
BRANCH  34  36
HETATM   36  C   UNL     1      -8.325   2.257  66.934  1.00  0.00    -0.090 C  
HETATM   37  O   UNL     1      -9.254   1.483  67.710  1.00  0.00    -0.134 OA 
HETATM   38  H   UNL     1      -8.800   0.768  68.140  1.00  0.00     0.000 HD 
BRANCH  36  39
HETATM   39  C   UNL     1      -7.140   2.722  67.827  1.00  0.00    -0.049 C  
HETATM   40  C   UNL     1      -7.198   2.071  69.224  1.00  0.00    -0.043 C  
HETATM   41  C   UNL     1      -5.815   2.277  67.165  1.00  0.00    -0.019 C  
BRANCH  39  42
HETATM   42  C   UNL     1      -7.151   4.264  67.957  1.00  0.00    -0.060 C  
HETATM   43  O   UNL     1      -7.721   4.687  69.192  1.00  0.00    -0.066 OA 
HETATM   44  H   UNL     1      -7.728   5.633  69.272  1.00  0.00     0.000 HD 
ENDBRANCH  39  42
ENDBRANCH  36  39
ENDBRANCH  34  36
ENDBRANCH  31  32
ENDBRANCH  30  31
ENDBRANCH  28  30
ENDBRANCH  25  26
ENDBRANCH  24  25
ENDBRANCH  23  24
ENDBRANCH  22  23
ENDBRANCH  21  22
ENDBRANCH  20  21
ENDBRANCH  18  20
ENDBRANCH  15  16
ENDBRANCH  14  15
ENDBRANCH  12  14
ENDBRANCH   7  10
ENDBRANCH   2   7
TORSDOF 19
ENDMDL
MODEL      331
REMARK 921   NORMALIZED FREE ENERGY PREDICTED BY IDOCK:   -2.67 KCAL/MOL
REMARK 922        TOTAL FREE ENERGY PREDICTED BY IDOCK:   -7.81 KCAL/MOL
REMARK 923 INTER-LIGAND FREE ENERGY PREDICTED BY IDOCK:   -7.61 KCAL/MOL
REMARK 924 INTRA-LIGAND FREE ENERGY PREDICTED BY IDOCK:   -0.20 KCAL/MOL
REMARK 927      BINDING AFFINITY PREDICTED BY RF-SCORE:    0.00 PKD
ROOT
HETATM    1  C   UNL     1     -10.514   3.754  63.893  1.00  0.00    -0.265 C  
HETATM    2  C   UNL     1      -9.028   3.447  64.156  1.00  0.00    -0.101 C  
HETATM    3  C   UNL     1      -8.773   1.929  63.984  1.00  0.00    -0.087 C  
ENDROOT
BRANCH   2   4
HETATM    4  C   UNL     1      -8.171   4.162  63.089  1.00  0.00    -0.088 C  
HETATM    5  O   UNL     1      -8.452   5.559  63.048  1.00  0.00    -0.196 OA 
HETATM    6  H   UNL     1      -7.925   5.998  62.391  1.00  0.00     0.000 HD 
ENDBRANCH   2   4
BRANCH   2   7
HETATM    7  C   UNL     1      -8.593   3.915  65.580  1.00  0.00    -0.111 C  
HETATM    8  O   UNL     1      -7.228   4.364  65.628  1.00  0.00    -0.069 OA 
HETATM    9  H   UNL     1      -6.964   4.649  66.494  1.00  0.00     0.000 HD 
BRANCH   7  10
HETATM   10  C   UNL     1      -9.469   5.028  66.197  1.00  0.00    -0.160 C  
HETATM   11  O   UNL     1     -10.591   4.856  66.664  1.00  0.00    -0.256 OA 
HETATM   12  N   UNL     1      -8.835   6.250  66.244  1.00  0.00    -0.144 N  
HETATM   13  H   UNL     1      -7.932   6.367  65.785  1.00  0.00     0.000 HD 
BRANCH  12  14
HETATM   14  C   UNL     1      -9.435   7.370  66.935  1.00  0.00    -0.162 C  
BRANCH  14  15
HETATM   15  C   UNL     1      -9.710   7.091  68.408  1.00  0.00    -0.139 C  
BRANCH  15  16
HETATM   16  C   UNL     1      -8.388   6.953  69.130  1.00  0.00    -0.125 C  
HETATM   17  O   UNL     1      -8.314   6.482  70.260  1.00  0.00    -0.123 OA 
HETATM   18  N   UNL     1      -7.299   7.372  68.400  1.00  0.00    -0.100 N  
HETATM   19  H   UNL     1      -7.471   7.702  67.451  1.00  0.00     0.000 HD 
BRANCH  18  20
HETATM   20  C   UNL     1      -5.914   7.382  68.877  1.00  0.00    -0.026 C  
BRANCH  20  21
HETATM   21  C   UNL     1      -5.272   8.750  69.130  1.00  0.00    -0.036 C  
BRANCH  21  22
HETATM   22  S   UNL     1      -6.380  10.189  68.874  1.00  0.00    -0.044 SA 
BRANCH  22  23
HETATM   23  S   UNL     1      -6.175  10.627  66.870  1.00  0.00    -0.077 SA 
BRANCH  23  24
HETATM   24  C   UNL     1      -7.911  10.876  66.373  1.00  0.00    -0.157 C  
BRANCH  24  25
HETATM   25  C   UNL     1      -8.412  12.261  66.789  1.00  0.00    -0.119 C  
BRANCH  25  26
HETATM   26  N   UNL     1      -9.522  12.777  65.993  1.00  0.00    -0.427 N  
HETATM   27  H   UNL     1     -10.181  12.108  65.594  1.00  0.00     0.000 HD 
HETATM   28  C   UNL     1      -9.730  14.119  65.751  1.00  0.00    -0.217 C  
HETATM   29  O   UNL     1      -8.973  15.006  66.134  1.00  0.00    -0.261 OA 
BRANCH  28  30
HETATM   30  C   UNL     1     -11.003  14.431  64.999  1.00  0.00    -0.398 C  
BRANCH  30  31
HETATM   31  C   UNL     1     -12.212  14.061  65.853  1.00  0.00    -0.456 C  
BRANCH  31  32
HETATM   32  N   UNL     1     -12.078  14.525  67.221  1.00  0.00    -0.562 N  
HETATM   33  H   UNL     1     -12.080  15.529  67.402  1.00  0.00     0.000 HD 
HETATM   34  C   UNL     1     -11.950  13.660  68.283  1.00  0.00    -0.350 C  
HETATM   35  O   UNL     1     -11.846  12.444  68.157  1.00  0.00    -0.338 OA 
BRANCH  34  36
HETATM   36  C   UNL     1     -11.873  14.363  69.657  1.00  0.00    -0.321 C  
HETATM   37  O   UNL     1     -13.192  14.719  70.100  1.00  0.00    -0.578 OA 
HETATM   38  H   UNL     1     -13.144  15.151  70.945  1.00  0.00     0.000 HD 
BRANCH  36  39
HETATM   39  C   UNL     1     -10.951  15.614  69.661  1.00  0.00    -0.288 C  
HETATM   40  C   UNL     1      -9.480  15.231  69.397  1.00  0.00    -0.231 C  
HETATM   41  C   UNL     1     -11.392  16.560  68.520  1.00  0.00    -0.231 C  
BRANCH  39  42
HETATM   42  C   UNL     1     -11.072  16.356  71.014  1.00  0.00     0.040 C  
HETATM   43  O   UNL     1     -11.266  15.452  72.097  1.00  0.00    -0.404 OA 
HETATM   44  H   UNL     1     -11.341  15.907  72.928  1.00  0.00     0.000 HD 
ENDBRANCH  39  42
ENDBRANCH  36  39
ENDBRANCH  34  36
ENDBRANCH  31  32
ENDBRANCH  30  31
ENDBRANCH  28  30
ENDBRANCH  25  26
ENDBRANCH  24  25
ENDBRANCH  23  24
ENDBRANCH  22  23
ENDBRANCH  21  22
ENDBRANCH  20  21
ENDBRANCH  18  20
ENDBRANCH  15  16
ENDBRANCH  14  15
ENDBRANCH  12  14
ENDBRANCH   7  10
ENDBRANCH   2   7
TORSDOF 19
ENDMDL
MODEL      332
REMARK 921   NORMALIZED FREE ENERGY PREDICTED BY IDOCK:   -2.66 KCAL/MOL
REMARK 922        TOTAL FREE ENERGY PREDICTED BY IDOCK:   -7.79 KCAL/MOL
REMARK 923 INTER-LIGAND FREE ENERGY PREDICTED BY IDOCK:   -6.87 KCAL/MOL
REMARK 924 INTRA-LIGAND FREE ENERGY PREDICTED BY IDOCK:   -0.92 KCAL/MOL
REMARK 927      BINDING AFFINITY PREDICTED BY RF-SCORE:    0.00 PKD
ROOT
HETATM    1  C   UNL     1     -10.792   3.818  63.807  1.00  0.00    -0.189 C  
HETATM    2  C   UNL     1      -9.316   3.473  64.079  1.00  0.00    -0.132 C  
HETATM    3  C   UNL     1      -9.078   1.966  63.812  1.00  0.00    -0.095 C  
ENDROOT
BRANCH   2   4
HETATM    4  C   UNL     1      -8.427   4.244  63.080  1.00  0.00    -0.098 C  
HETATM    5  O   UNL     1      -8.670   5.647  63.144  1.00  0.00    -0.325 OA 
HETATM    6  H   UNL     1      -8.123   6.121  62.529  1.00  0.00     0.000 HD 
ENDBRANCH   2   4
BRANCH   2   7
HETATM    7  C   UNL     1      -8.906   3.840  65.540  1.00  0.00    -0.122 C  
HETATM    8  O   UNL     1      -7.527   4.233  65.650  1.00  0.00    -0.078 OA 
HETATM    9  H   UNL     1      -7.278   4.456  66.539  1.00  0.00     0.000 HD 
BRANCH   7  10
HETATM   10  C   UNL     1      -9.758   4.947  66.198  1.00  0.00    -0.190 C  
HETATM   11  O   UNL     1     -10.786   4.749  66.840  1.00  0.00    -0.096 OA 
HETATM   12  N   UNL     1      -9.211   6.203  66.060  1.00  0.00    -0.281 N  
HETATM   13  H   UNL     1      -8.394   6.334  65.463  1.00  0.00     0.000 HD 
BRANCH  12  14
HETATM   14  C   UNL     1      -9.780   7.340  66.750  1.00  0.00    -0.198 C  
BRANCH  14  15
HETATM   15  C   UNL     1      -9.710   7.219  68.269  1.00  0.00    -0.152 C  
BRANCH  15  16
HETATM   16  C   UNL     1      -8.256   7.174  68.683  1.00  0.00    -0.125 C  
HETATM   17  O   UNL     1      -7.874   6.498  69.633  1.00  0.00    -0.106 OA 
HETATM   18  N   UNL     1      -7.418   7.926  67.891  1.00  0.00    -0.102 N  
HETATM   19  H   UNL     1      -7.835   8.411  67.097  1.00  0.00     0.000 HD 
BRANCH  18  20
HETATM   20  C   UNL     1      -5.977   8.086  68.097  1.00  0.00    -0.041 C  
BRANCH  20  21
HETATM   21  C   UNL     1      -5.460   9.506  68.346  1.00  0.00    -0.036 C  
BRANCH  21  22
HETATM   22  S   UNL     1      -6.754  10.803  68.427  1.00  0.00    -0.061 SA 
BRANCH  22  23
HETATM   23  S   UNL     1      -7.049  11.338  66.459  1.00  0.00    -0.050 SA 
BRANCH  23  24
HETATM   24  C   UNL     1      -8.833  11.712  66.447  1.00  0.00    -0.182 C  
BRANCH  24  25
HETATM   25  C   UNL     1      -9.089  13.191  66.746  1.00  0.00    -0.209 C  
BRANCH  25  26
HETATM   26  N   UNL     1      -7.904  13.954  67.131  1.00  0.00    -0.363 N  
HETATM   27  H   UNL     1      -7.029  13.763  66.643  1.00  0.00     0.000 HD 
HETATM   28  C   UNL     1      -7.905  14.917  68.119  1.00  0.00    -0.122 C  
HETATM   29  O   UNL     1      -8.883  15.188  68.806  1.00  0.00    -0.176 OA 
BRANCH  28  30
HETATM   30  C   UNL     1      -6.596  15.658  68.270  1.00  0.00    -0.126 C  
BRANCH  30  31
HETATM   31  C   UNL     1      -6.289  16.432  66.993  1.00  0.00    -0.141 C  
BRANCH  31  32
HETATM   32  N   UNL     1      -7.071  17.650  66.889  1.00  0.00    -0.173 N  
HETATM   33  H   UNL     1      -6.736  18.490  67.361  1.00  0.00     0.000 HD 
HETATM   34  C   UNL     1      -8.247  17.712  66.179  1.00  0.00    -0.169 C  
HETATM   35  O   UNL     1      -8.775  16.735  65.656  1.00  0.00    -0.441 OA 
BRANCH  34  36
HETATM   36  C   UNL     1      -8.892  19.116  66.156  1.00  0.00    -0.212 C  
HETATM   37  O   UNL     1      -7.924  20.094  65.743  1.00  0.00    -0.503 OA 
HETATM   38  H   UNL     1      -8.321  20.957  65.730  1.00  0.00     0.000 HD 
BRANCH  36  39
HETATM   39  C   UNL     1      -9.523  19.528  67.515  1.00  0.00    -0.413 C  
HETATM   40  C   UNL     1      -8.523  19.358  68.677  1.00  0.00    -0.395 C  
HETATM   41  C   UNL     1      -9.904  21.026  67.452  1.00  0.00    -0.153 C  
BRANCH  39  42
HETATM   42  C   UNL     1     -10.797  18.690  67.782  1.00  0.00    -0.260 C  
HETATM   43  O   UNL     1     -10.481  17.357  68.168  1.00  0.00    -0.355 OA 
HETATM   44  H   UNL     1     -11.263  16.842  68.332  1.00  0.00     0.000 HD 
ENDBRANCH  39  42
ENDBRANCH  36  39
ENDBRANCH  34  36
ENDBRANCH  31  32
ENDBRANCH  30  31
ENDBRANCH  28  30
ENDBRANCH  25  26
ENDBRANCH  24  25
ENDBRANCH  23  24
ENDBRANCH  22  23
ENDBRANCH  21  22
ENDBRANCH  20  21
ENDBRANCH  18  20
ENDBRANCH  15  16
ENDBRANCH  14  15
ENDBRANCH  12  14
ENDBRANCH   7  10
ENDBRANCH   2   7
TORSDOF 19
ENDMDL
MODEL      333
REMARK 921   NORMALIZED FREE ENERGY PREDICTED BY IDOCK:   -2.50 KCAL/MOL
REMARK 922        TOTAL FREE ENERGY PREDICTED BY IDOCK:   -7.46 KCAL/MOL
REMARK 923 INTER-LIGAND FREE ENERGY PREDICTED BY IDOCK:   -6.31 KCAL/MOL
REMARK 924 INTRA-LIGAND FREE ENERGY PREDICTED BY IDOCK:   -1.15 KCAL/MOL
REMARK 927      BINDING AFFINITY PREDICTED BY RF-SCORE:    0.00 PKD
ROOT
HETATM    1  C   UNL     1      -9.950   8.547  72.235  1.00  0.00    -0.385 C  
HETATM    2  C   UNL     1     -10.658   7.255  71.785  1.00  0.00    -0.229 C  
HETATM    3  C   UNL     1     -10.945   6.365  73.020  1.00  0.00    -0.269 C  
ENDROOT
BRANCH   2   4
HETATM    4  C   UNL     1     -12.028   7.620  71.176  1.00  0.00    -0.297 C  
HETATM    5  O   UNL     1     -12.990   6.594  71.411  1.00  0.00    -0.250 OA 
HETATM    6  H   UNL     1     -13.834   6.819  71.036  1.00  0.00     0.000 HD 
ENDBRANCH   2   4
BRANCH   2   7
HETATM    7  C   UNL     1      -9.806   6.475  70.736  1.00  0.00    -0.184 C  
HETATM    8  O   UNL     1      -9.592   5.101  71.102  1.00  0.00    -0.153 OA 
HETATM    9  H   UNL     1      -9.074   4.626  70.464  1.00  0.00     0.000 HD 
BRANCH   7  10
HETATM   10  C   UNL     1     -10.368   6.489  69.297  1.00  0.00    -0.202 C  
HETATM   11  O   UNL     1     -11.126   5.642  68.835  1.00  0.00    -0.182 OA 
HETATM   12  N   UNL     1      -9.991   7.605  68.582  1.00  0.00    -0.169 N  
HETATM   13  H   UNL     1      -9.307   8.250  68.978  1.00  0.00     0.000 HD 
BRANCH  12  14
HETATM   14  C   UNL     1     -10.553   7.872  67.277  1.00  0.00    -0.295 C  
BRANCH  14  15
HETATM   15  C   UNL     1      -9.503   7.954  66.174  1.00  0.00    -0.158 C  
BRANCH  15  16
HETATM   16  C   UNL     1      -8.762   9.265  66.309  1.00  0.00    -0.142 C  
HETATM   17  O   UNL     1      -9.235  10.216  66.924  1.00  0.00    -0.144 OA 
HETATM   18  N   UNL     1      -7.521   9.278  65.713  1.00  0.00    -0.096 N  
HETATM   19  H   UNL     1      -7.206   8.416  65.271  1.00  0.00     0.000 HD 
BRANCH  18  20
HETATM   20  C   UNL     1      -6.618  10.431  65.664  1.00  0.00    -0.129 C  
BRANCH  20  21
HETATM   21  C   UNL     1      -5.658  10.616  66.842  1.00  0.00    -0.048 C  
BRANCH  21  22
HETATM   22  S   UNL     1      -5.151   9.069  67.685  1.00  0.00    -0.034 SA 
BRANCH  22  23
HETATM   23  S   UNL     1      -6.537   8.843  69.193  1.00  0.00    -0.047 SA 
BRANCH  23  24
HETATM   24  C   UNL     1      -6.317  10.394  70.125  1.00  0.00    -0.123 C  
BRANCH  24  25
HETATM   25  C   UNL     1      -7.401  11.413  69.765  1.00  0.00     0.301 C  
BRANCH  25  26
HETATM   26  N   UNL     1      -6.925  12.786  69.611  1.00  0.00    -0.333 N  
HETATM   27  H   UNL     1      -6.075  13.060  70.105  1.00  0.00     0.000 HD 
HETATM   28  C   UNL     1      -7.562  13.732  68.835  1.00  0.00    -0.040 C  
HETATM   29  O   UNL     1      -8.618  13.531  68.244  1.00  0.00    -0.166 OA 
BRANCH  28  30
HETATM   30  C   UNL     1      -6.831  15.051  68.731  1.00  0.00    -0.105 C  
BRANCH  30  31
HETATM   31  C   UNL     1      -7.334  16.008  69.808  1.00  0.00     0.094 C  
BRANCH  31  32
HETATM   32  N   UNL     1      -7.573  17.341  69.287  1.00  0.00    -0.087 N  
HETATM   33  H   UNL     1      -6.845  18.047  69.392  1.00  0.00     0.000 HD 
HETATM   34  C   UNL     1      -8.746  17.686  68.658  1.00  0.00    -0.266 C  
HETATM   35  O   UNL     1      -9.713  16.935  68.567  1.00  0.00    -0.243 OA 
BRANCH  34  36
HETATM   36  C   UNL     1      -8.772  19.140  68.136  1.00  0.00    -0.324 C  
HETATM   37  O   UNL     1      -9.887  19.846  68.704  1.00  0.00    -0.379 OA 
HETATM   38  H   UNL     1      -9.903  20.740  68.382  1.00  0.00     0.000 HD 
BRANCH  36  39
HETATM   39  C   UNL     1      -8.811  19.239  66.585  1.00  0.00    -0.359 C  
HETATM   40  C   UNL     1      -9.929  20.188  66.108  1.00  0.00    -0.532 C  
HETATM   41  C   UNL     1      -7.467  19.825  66.091  1.00  0.00    -0.321 C  
BRANCH  39  42
HETATM   42  C   UNL     1      -9.008  17.832  65.971  1.00  0.00     0.009 C  
HETATM   43  O   UNL     1      -7.821  17.356  65.345  1.00  0.00    -0.022 OA 
HETATM   44  H   UNL     1      -7.942  16.493  64.967  1.00  0.00     0.000 HD 
ENDBRANCH  39  42
ENDBRANCH  36  39
ENDBRANCH  34  36
ENDBRANCH  31  32
ENDBRANCH  30  31
ENDBRANCH  28  30
ENDBRANCH  25  26
ENDBRANCH  24  25
ENDBRANCH  23  24
ENDBRANCH  22  23
ENDBRANCH  21  22
ENDBRANCH  20  21
ENDBRANCH  18  20
ENDBRANCH  15  16
ENDBRANCH  14  15
ENDBRANCH  12  14
ENDBRANCH   7  10
ENDBRANCH   2   7
TORSDOF 19
ENDMDL
MODEL      334
REMARK 921   NORMALIZED FREE ENERGY PREDICTED BY IDOCK:   -2.50 KCAL/MOL
REMARK 922        TOTAL FREE ENERGY PREDICTED BY IDOCK:   -7.46 KCAL/MOL
REMARK 923 INTER-LIGAND FREE ENERGY PREDICTED BY IDOCK:   -7.20 KCAL/MOL
REMARK 924 INTRA-LIGAND FREE ENERGY PREDICTED BY IDOCK:   -0.25 KCAL/MOL
REMARK 927      BINDING AFFINITY PREDICTED BY RF-SCORE:    0.00 PKD
ROOT
HETATM    1  C   UNL     1      -6.966   6.077  73.951  1.00  0.00    -0.081 C  
HETATM    2  C   UNL     1      -7.966   5.590  72.887  1.00  0.00    -0.101 C  
HETATM    3  C   UNL     1      -9.343   6.259  73.123  1.00  0.00    -0.138 C  
ENDROOT
BRANCH   2   4
HETATM    4  C   UNL     1      -7.484   6.051  71.495  1.00  0.00    -0.094 C  
HETATM    5  O   UNL     1      -6.065   5.977  71.386  1.00  0.00    -0.036 OA 
HETATM    6  H   UNL     1      -5.769   6.261  70.529  1.00  0.00     0.000 HD 
ENDBRANCH   2   4
BRANCH   2   7
HETATM    7  C   UNL     1      -8.105   4.035  72.907  1.00  0.00    -0.088 C  
HETATM    8  O   UNL     1      -8.341   3.513  74.226  1.00  0.00    -0.080 OA 
HETATM    9  H   UNL     1      -8.426   2.568  74.238  1.00  0.00     0.000 HD 
BRANCH   7  10
HETATM   10  C   UNL     1      -9.201   3.465  71.980  1.00  0.00    -0.114 C  
HETATM   11  O   UNL     1     -10.381   3.332  72.292  1.00  0.00    -0.136 OA 
HETATM   12  N   UNL     1      -8.742   3.180  70.713  1.00  0.00    -0.071 N  
HETATM   13  H   UNL     1      -7.743   3.240  70.514  1.00  0.00     0.000 HD 
BRANCH  12  14
HETATM   14  C   UNL     1      -9.658   2.794  69.663  1.00  0.00     0.009 C  
BRANCH  14  15
HETATM   15  C   UNL     1      -8.966   2.138  68.472  1.00  0.00    -0.174 C  
BRANCH  15  16
HETATM   16  C   UNL     1      -8.864   3.152  67.354  1.00  0.00    -0.137 C  
HETATM   17  O   UNL     1      -8.394   2.861  66.259  1.00  0.00    -0.086 OA 
HETATM   18  N   UNL     1      -9.364   4.394  67.669  1.00  0.00    -0.144 N  
HETATM   19  H   UNL     1      -9.777   4.512  68.594  1.00  0.00     0.000 HD 
BRANCH  18  20
HETATM   20  C   UNL     1      -9.352   5.561  66.783  1.00  0.00    -0.132 C  
BRANCH  20  21
HETATM   21  C   UNL     1      -7.983   6.133  66.400  1.00  0.00    -0.106 C  
BRANCH  21  22
HETATM   22  S   UNL     1      -7.344   7.439  67.517  1.00  0.00    -0.105 SA 
BRANCH  22  23
HETATM   23  S   UNL     1      -8.194   9.173  66.797  1.00  0.00    -0.119 SA 
BRANCH  23  24
HETATM   24  C   UNL     1      -8.229  10.211  68.295  1.00  0.00    -0.110 C  
BRANCH  24  25
HETATM   25  C   UNL     1      -7.640  11.597  68.021  1.00  0.00    -0.117 C  
BRANCH  25  26
HETATM   26  N   UNL     1      -8.436  12.713  68.526  1.00  0.00    -0.326 N  
HETATM   27  H   UNL     1      -8.095  13.216  69.345  1.00  0.00     0.000 HD 
HETATM   28  C   UNL     1      -9.623  13.122  67.956  1.00  0.00    -0.220 C  
HETATM   29  O   UNL     1     -10.154  12.557  67.006  1.00  0.00    -0.214 OA 
BRANCH  28  30
HETATM   30  C   UNL     1     -10.217  14.368  68.574  1.00  0.00    -0.243 C  
BRANCH  30  31
HETATM   31  C   UNL     1     -11.147  15.049  67.574  1.00  0.00    -0.317 C  
BRANCH  31  32
HETATM   32  N   UNL     1     -10.597  16.296  67.077  1.00  0.00    -0.308 N  
HETATM   33  H   UNL     1     -10.274  16.340  66.111  1.00  0.00     0.000 HD 
HETATM   34  C   UNL     1     -10.496  17.420  67.862  1.00  0.00    -0.383 C  
HETATM   35  O   UNL     1     -10.772  17.439  69.058  1.00  0.00    -0.265 OA 
BRANCH  34  36
HETATM   36  C   UNL     1      -9.930  18.653  67.122  1.00  0.00    -0.331 C  
HETATM   37  O   UNL     1     -10.265  18.583  65.727  1.00  0.00    -0.568 OA 
HETATM   38  H   UNL     1      -9.916  19.341  65.271  1.00  0.00     0.000 HD 
BRANCH  36  39
HETATM   39  C   UNL     1      -8.395  18.827  67.295  1.00  0.00    -0.281 C  
HETATM   40  C   UNL     1      -8.026  19.153  68.757  1.00  0.00    -0.382 C  
HETATM   41  C   UNL     1      -7.699  17.494  66.931  1.00  0.00    -0.248 C  
BRANCH  39  42
HETATM   42  C   UNL     1      -7.880  19.944  66.355  1.00  0.00    -0.316 C  
HETATM   43  O   UNL     1      -7.834  21.207  67.010  1.00  0.00    -0.642 OA 
HETATM   44  H   UNL     1      -7.519  21.893  66.433  1.00  0.00     0.000 HD 
ENDBRANCH  39  42
ENDBRANCH  36  39
ENDBRANCH  34  36
ENDBRANCH  31  32
ENDBRANCH  30  31
ENDBRANCH  28  30
ENDBRANCH  25  26
ENDBRANCH  24  25
ENDBRANCH  23  24
ENDBRANCH  22  23
ENDBRANCH  21  22
ENDBRANCH  20  21
ENDBRANCH  18  20
ENDBRANCH  15  16
ENDBRANCH  14  15
ENDBRANCH  12  14
ENDBRANCH   7  10
ENDBRANCH   2   7
TORSDOF 19
ENDMDL
MODEL      335
REMARK 921   NORMALIZED FREE ENERGY PREDICTED BY IDOCK:   -2.44 KCAL/MOL
REMARK 922        TOTAL FREE ENERGY PREDICTED BY IDOCK:   -7.33 KCAL/MOL
REMARK 923 INTER-LIGAND FREE ENERGY PREDICTED BY IDOCK:   -8.02 KCAL/MOL
REMARK 924 INTRA-LIGAND FREE ENERGY PREDICTED BY IDOCK:    0.69 KCAL/MOL
REMARK 927      BINDING AFFINITY PREDICTED BY RF-SCORE:    0.00 PKD
ROOT
HETATM    1  C   UNL     1     -14.022  14.493  72.587  1.00  0.00    -0.400 C  
HETATM    2  C   UNL     1     -13.020  14.803  71.459  1.00  0.00    -0.410 C  
HETATM    3  C   UNL     1     -13.764  15.463  70.272  1.00  0.00     0.547 C  
ENDROOT
BRANCH   2   4
HETATM    4  C   UNL     1     -11.995  15.838  71.968  1.00  0.00    -0.479 C  
HETATM    5  O   UNL     1     -10.814  15.204  72.453  1.00  0.00    -0.211 OA 
HETATM    6  H   UNL     1     -10.183  15.841  72.767  1.00  0.00     0.000 HD 
ENDBRANCH   2   4
BRANCH   2   7
HETATM    7  C   UNL     1     -12.278  13.514  70.988  1.00  0.00    -0.262 C  
HETATM    8  O   UNL     1     -13.012  12.311  71.273  1.00  0.00    -0.322 OA 
HETATM    9  H   UNL     1     -12.560  11.527  70.986  1.00  0.00     0.000 HD 
BRANCH   7  10
HETATM   10  C   UNL     1     -11.906  13.485  69.489  1.00  0.00    -0.334 C  
HETATM   11  O   UNL     1     -11.925  14.462  68.746  1.00  0.00    -0.319 OA 
HETATM   12  N   UNL     1     -11.470  12.250  69.064  1.00  0.00    -0.275 N  
HETATM   13  H   UNL     1     -11.532  11.449  69.694  1.00  0.00     0.000 HD 
BRANCH  12  14
HETATM   14  C   UNL     1     -10.924  12.073  67.737  1.00  0.00    -0.232 C  
BRANCH  14  15
HETATM   15  C   UNL     1     -11.990  12.048  66.646  1.00  0.00    -0.082 C  
BRANCH  15  16
HETATM   16  C   UNL     1     -11.957  13.368  65.909  1.00  0.00    -0.409 C  
HETATM   17  O   UNL     1     -12.966  13.853  65.407  1.00  0.00    -0.722 OA 
HETATM   18  N   UNL     1     -10.721  13.971  65.882  1.00  0.00    -0.288 N  
HETATM   19  H   UNL     1      -9.960  13.502  66.373  1.00  0.00     0.000 HD 
BRANCH  18  20
HETATM   20  C   UNL     1     -10.408  15.231  65.203  1.00  0.00    -0.381 C  
BRANCH  20  21
HETATM   21  C   UNL     1      -9.629  16.280  66.002  1.00  0.00    -0.337 C  
BRANCH  21  22
HETATM   22  S   UNL     1     -10.443  16.846  67.545  1.00  0.00    -0.312 SA 
BRANCH  22  23
HETATM   23  S   UNL     1      -9.675  18.733  67.853  1.00  0.00    -0.345 SA 
BRANCH  23  24
HETATM   24  C   UNL     1      -8.099  18.353  68.688  1.00  0.00    -0.297 C  
BRANCH  24  25
HETATM   25  C   UNL     1      -7.414  17.143  68.050  1.00  0.00    -0.195 C  
BRANCH  25  26
HETATM   26  N   UNL     1      -7.420  15.933  68.868  1.00  0.00    -0.164 N  
HETATM   27  H   UNL     1      -8.282  15.389  68.917  1.00  0.00     0.000 HD 
HETATM   28  C   UNL     1      -6.325  15.485  69.577  1.00  0.00    -0.155 C  
HETATM   29  O   UNL     1      -5.258  16.087  69.635  1.00  0.00    -0.111 OA 
BRANCH  28  30
HETATM   30  C   UNL     1      -6.524  14.151  70.260  1.00  0.00    -0.071 C  
BRANCH  30  31
HETATM   31  C   UNL     1      -6.530  13.034  69.222  1.00  0.00    -0.103 C  
BRANCH  31  32
HETATM   32  N   UNL     1      -6.610  11.720  69.833  1.00  0.00    -0.328 N  
HETATM   33  H   UNL     1      -5.894  11.447  70.507  1.00  0.00     0.000 HD 
HETATM   34  C   UNL     1      -7.616  10.830  69.537  1.00  0.00    -0.088 C  
HETATM   35  O   UNL     1      -8.466  11.031  68.675  1.00  0.00    -0.145 OA 
BRANCH  34  36
HETATM   36  C   UNL     1      -7.541   9.511  70.337  1.00  0.00    -0.159 C  
HETATM   37  O   UNL     1      -6.194   9.282  70.781  1.00  0.00    -0.051 OA 
HETATM   38  H   UNL     1      -6.148   8.470  71.273  1.00  0.00     0.000 HD 
BRANCH  36  39
HETATM   39  C   UNL     1      -8.060   8.278  69.547  1.00  0.00    -0.114 C  
HETATM   40  C   UNL     1      -7.824   6.967  70.326  1.00  0.00    -0.105 C  
HETATM   41  C   UNL     1      -9.587   8.424  69.345  1.00  0.00    -0.170 C  
BRANCH  39  42
HETATM   42  C   UNL     1      -7.369   8.207  68.164  1.00  0.00    -0.096 C  
HETATM   43  O   UNL     1      -7.404   6.891  67.622  1.00  0.00    -0.091 OA 
HETATM   44  H   UNL     1      -6.979   6.847  66.773  1.00  0.00     0.000 HD 
ENDBRANCH  39  42
ENDBRANCH  36  39
ENDBRANCH  34  36
ENDBRANCH  31  32
ENDBRANCH  30  31
ENDBRANCH  28  30
ENDBRANCH  25  26
ENDBRANCH  24  25
ENDBRANCH  23  24
ENDBRANCH  22  23
ENDBRANCH  21  22
ENDBRANCH  20  21
ENDBRANCH  18  20
ENDBRANCH  15  16
ENDBRANCH  14  15
ENDBRANCH  12  14
ENDBRANCH   7  10
ENDBRANCH   2   7
TORSDOF 19
ENDMDL
MODEL      336
REMARK 921   NORMALIZED FREE ENERGY PREDICTED BY IDOCK:   -2.43 KCAL/MOL
REMARK 922        TOTAL FREE ENERGY PREDICTED BY IDOCK:   -7.31 KCAL/MOL
REMARK 923 INTER-LIGAND FREE ENERGY PREDICTED BY IDOCK:   -6.42 KCAL/MOL
REMARK 924 INTRA-LIGAND FREE ENERGY PREDICTED BY IDOCK:   -0.89 KCAL/MOL
REMARK 927      BINDING AFFINITY PREDICTED BY RF-SCORE:    0.00 PKD
ROOT
HETATM    1  C   UNL     1      -9.876   7.945  72.029  1.00  0.00    -0.250 C  
HETATM    2  C   UNL     1      -8.586   7.593  71.265  1.00  0.00    -0.124 C  
HETATM    3  C   UNL     1      -7.366   7.760  72.204  1.00  0.00    -0.083 C  
ENDROOT
BRANCH   2   4
HETATM    4  C   UNL     1      -8.632   6.105  70.860  1.00  0.00    -0.132 C  
HETATM    5  O   UNL     1      -9.948   5.711  70.480  1.00  0.00    -0.183 OA 
HETATM    6  H   UNL     1      -9.976   4.794  70.231  1.00  0.00     0.000 HD 
ENDBRANCH   2   4
BRANCH   2   7
HETATM    7  C   UNL     1      -8.419   8.481  69.992  1.00  0.00    -0.125 C  
HETATM    8  O   UNL     1      -7.204   9.248  70.002  1.00  0.00    -0.060 OA 
HETATM    9  H   UNL     1      -7.102   9.788  69.228  1.00  0.00     0.000 HD 
BRANCH   7  10
HETATM   10  C   UNL     1      -8.473   7.715  68.651  1.00  0.00    -0.129 C  
HETATM   11  O   UNL     1      -7.653   6.875  68.294  1.00  0.00    -0.102 OA 
HETATM   12  N   UNL     1      -9.590   8.014  67.903  1.00  0.00    -0.152 N  
HETATM   13  H   UNL     1     -10.211   8.766  68.203  1.00  0.00     0.000 HD 
BRANCH  12  14
HETATM   14  C   UNL     1      -9.894   7.275  66.698  1.00  0.00    -0.187 C  
BRANCH  14  15
HETATM   15  C   UNL     1     -10.685   5.998  66.958  1.00  0.00    -0.412 C  
BRANCH  15  16
HETATM   16  C   UNL     1     -10.349   4.993  65.878  1.00  0.00    -0.185 C  
HETATM   17  O   UNL     1     -11.119   4.756  64.953  1.00  0.00     0.045 OA 
HETATM   18  N   UNL     1      -9.112   4.405  66.017  1.00  0.00    -0.125 N  
HETATM   19  H   UNL     1      -8.533   4.712  66.798  1.00  0.00     0.000 HD 
BRANCH  18  20
HETATM   20  C   UNL     1      -8.561   3.375  65.134  1.00  0.00    -0.112 C  
BRANCH  20  21
HETATM   21  C   UNL     1      -7.392   3.780  64.231  1.00  0.00    -0.066 C  
BRANCH  21  22
HETATM   22  S   UNL     1      -5.811   4.101  65.103  1.00  0.00    -0.023 SA 
BRANCH  22  23
HETATM   23  S   UNL     1      -5.837   6.131  65.458  1.00  0.00    -0.026 SA 
BRANCH  23  24
HETATM   24  C   UNL     1      -6.183   6.787  63.792  1.00  0.00    -0.039 C  
BRANCH  24  25
HETATM   25  C   UNL     1      -7.672   7.089  63.615  1.00  0.00    -0.111 C  
BRANCH  25  26
HETATM   26  N   UNL     1      -7.966   8.350  62.939  1.00  0.00    -0.153 N  
HETATM   27  H   UNL     1      -8.753   8.377  62.290  1.00  0.00     0.000 HD 
HETATM   28  C   UNL     1      -7.238   9.506  63.130  1.00  0.00    -0.107 C  
HETATM   29  O   UNL     1      -6.242   9.575  63.841  1.00  0.00    -0.090 OA 
BRANCH  28  30
HETATM   30  C   UNL     1      -7.790  10.719  62.415  1.00  0.00    -0.195 C  
BRANCH  30  31
HETATM   31  C   UNL     1      -9.190  11.033  62.934  1.00  0.00    -0.345 C  
BRANCH  31  32
HETATM   32  N   UNL     1      -9.163  11.634  64.254  1.00  0.00    -0.421 N  
HETATM   33  H   UNL     1      -9.013  12.640  64.333  1.00  0.00     0.000 HD 
HETATM   34  C   UNL     1      -9.330  10.897  65.403  1.00  0.00    -0.208 C  
HETATM   35  O   UNL     1      -9.424   9.673  65.415  1.00  0.00    -0.242 OA 
BRANCH  34  36
HETATM   36  C   UNL     1      -9.317  11.741  66.697  1.00  0.00    -0.198 C  
HETATM   37  O   UNL     1      -8.529  11.086  67.703  1.00  0.00    -0.119 OA 
HETATM   38  H   UNL     1      -8.521  11.605  68.498  1.00  0.00     0.000 HD 
BRANCH  36  39
HETATM   39  C   UNL     1     -10.737  12.051  67.247  1.00  0.00    -0.269 C  
HETATM   40  C   UNL     1     -11.655  12.625  66.149  1.00  0.00    -0.445 C  
HETATM   41  C   UNL     1     -11.378  10.731  67.740  1.00  0.00    -0.354 C  
BRANCH  39  42
HETATM   42  C   UNL     1     -10.640  13.042  68.432  1.00  0.00    -0.251 C  
HETATM   43  O   UNL     1     -10.889  12.403  69.679  1.00  0.00    -0.447 OA 
HETATM   44  H   UNL     1     -10.830  13.011  70.406  1.00  0.00     0.000 HD 
ENDBRANCH  39  42
ENDBRANCH  36  39
ENDBRANCH  34  36
ENDBRANCH  31  32
ENDBRANCH  30  31
ENDBRANCH  28  30
ENDBRANCH  25  26
ENDBRANCH  24  25
ENDBRANCH  23  24
ENDBRANCH  22  23
ENDBRANCH  21  22
ENDBRANCH  20  21
ENDBRANCH  18  20
ENDBRANCH  15  16
ENDBRANCH  14  15
ENDBRANCH  12  14
ENDBRANCH   7  10
ENDBRANCH   2   7
TORSDOF 19
ENDMDL
MODEL      337
REMARK 921   NORMALIZED FREE ENERGY PREDICTED BY IDOCK:   -2.42 KCAL/MOL
REMARK 922        TOTAL FREE ENERGY PREDICTED BY IDOCK:   -7.30 KCAL/MOL
REMARK 923 INTER-LIGAND FREE ENERGY PREDICTED BY IDOCK:   -5.78 KCAL/MOL
REMARK 924 INTRA-LIGAND FREE ENERGY PREDICTED BY IDOCK:   -1.52 KCAL/MOL
REMARK 927      BINDING AFFINITY PREDICTED BY RF-SCORE:    0.00 PKD
ROOT
HETATM    1  C   UNL     1      -6.411  10.319  70.295  1.00  0.00    -0.123 C  
HETATM    2  C   UNL     1      -6.274   9.362  69.096  1.00  0.00    -0.041 C  
HETATM    3  C   UNL     1      -5.722   7.998  69.581  1.00  0.00    -0.026 C  
ENDROOT
BRANCH   2   4
HETATM    4  C   UNL     1      -7.675   9.087  68.509  1.00  0.00    -0.097 C  
HETATM    5  O   UNL     1      -7.965   7.692  68.489  1.00  0.00    -0.119 OA 
HETATM    6  H   UNL     1      -8.827   7.523  68.128  1.00  0.00     0.000 HD 
ENDBRANCH   2   4
BRANCH   2   7
HETATM    7  C   UNL     1      -5.350   9.963  67.991  1.00  0.00    -0.039 C  
HETATM    8  O   UNL     1      -5.128   9.058  66.896  1.00  0.00    -0.034 OA 
HETATM    9  H   UNL     1      -4.566   9.424  66.224  1.00  0.00     0.000 HD 
BRANCH   7  10
HETATM   10  C   UNL     1      -5.832  11.303  67.394  1.00  0.00    -0.061 C  
HETATM   11  O   UNL     1      -6.635  11.409  66.472  1.00  0.00    -0.129 OA 
HETATM   12  N   UNL     1      -5.325  12.401  68.052  1.00  0.00    -0.065 N  
HETATM   13  H   UNL     1      -4.609  12.273  68.769  1.00  0.00     0.000 HD 
BRANCH  12  14
HETATM   14  C   UNL     1      -5.792  13.734  67.741  1.00  0.00    -0.095 C  
BRANCH  14  15
HETATM   15  C   UNL     1      -7.311  13.867  67.794  1.00  0.00    -0.170 C  
BRANCH  15  16
HETATM   16  C   UNL     1      -7.702  14.402  69.153  1.00  0.00    -0.050 C  
HETATM   17  O   UNL     1      -6.910  14.429  70.090  1.00  0.00    -0.111 OA 
HETATM   18  N   UNL     1      -8.993  14.871  69.227  1.00  0.00    -0.383 N  
HETATM   19  H   UNL     1      -9.550  14.845  68.373  1.00  0.00     0.000 HD 
BRANCH  18  20
HETATM   20  C   UNL     1      -9.633  15.404  70.432  1.00  0.00     0.587 C  
BRANCH  20  21
HETATM   21  C   UNL     1     -11.128  15.125  70.612  1.00  0.00    -0.263 C  
BRANCH  21  22
HETATM   22  S   UNL     1     -11.938  14.283  69.198  1.00  0.00    -0.317 SA 
BRANCH  22  23
HETATM   23  S   UNL     1     -12.282  12.371  69.884  1.00  0.00    -0.090 SA 
BRANCH  23  24
HETATM   24  C   UNL     1     -10.643  11.605  69.665  1.00  0.00     0.268 C  
BRANCH  24  25
HETATM   25  C   UNL     1     -10.439  11.139  68.222  1.00  0.00    -0.191 C  
BRANCH  25  26
HETATM   26  N   UNL     1     -11.484  11.555  67.289  1.00  0.00    -0.295 N  
HETATM   27  H   UNL     1     -12.450  11.317  67.511  1.00  0.00     0.000 HD 
HETATM   28  C   UNL     1     -11.234  12.252  66.126  1.00  0.00    -0.328 C  
HETATM   29  O   UNL     1     -10.109  12.542  65.732  1.00  0.00    -0.256 OA 
BRANCH  28  30
HETATM   30  C   UNL     1     -12.474  12.678  65.372  1.00  0.00    -0.421 C  
BRANCH  30  31
HETATM   31  C   UNL     1     -12.746  14.159  65.617  1.00  0.00    -0.441 C  
BRANCH  31  32
HETATM   32  N   UNL     1     -11.522  14.933  65.700  1.00  0.00    -0.325 N  
HETATM   33  H   UNL     1     -10.818  14.668  66.388  1.00  0.00     0.000 HD 
HETATM   34  C   UNL     1     -11.276  16.012  64.883  1.00  0.00    -0.312 C  
HETATM   35  O   UNL     1     -12.098  16.463  64.090  1.00  0.00    -0.802 OA 
BRANCH  34  36
HETATM   36  C   UNL     1      -9.892  16.662  65.103  1.00  0.00     0.696 C  
HETATM   37  O   UNL     1      -8.939  15.664  65.501  1.00  0.00    -0.233 OA 
HETATM   38  H   UNL     1      -8.088  16.064  65.636  1.00  0.00     0.000 HD 
BRANCH  36  39
HETATM   39  C   UNL     1      -9.911  17.825  66.134  1.00  0.00    -0.283 C  
HETATM   40  C   UNL     1     -10.689  19.044  65.595  1.00  0.00    -0.252 C  
HETATM   41  C   UNL     1     -10.638  17.344  67.412  1.00  0.00    -0.308 C  
BRANCH  39  42
HETATM   42  C   UNL     1      -8.463  18.235  66.495  1.00  0.00    -0.268 C  
HETATM   43  O   UNL     1      -7.909  19.123  65.530  1.00  0.00    -0.401 OA 
HETATM   44  H   UNL     1      -7.020  19.375  65.752  1.00  0.00     0.000 HD 
ENDBRANCH  39  42
ENDBRANCH  36  39
ENDBRANCH  34  36
ENDBRANCH  31  32
ENDBRANCH  30  31
ENDBRANCH  28  30
ENDBRANCH  25  26
ENDBRANCH  24  25
ENDBRANCH  23  24
ENDBRANCH  22  23
ENDBRANCH  21  22
ENDBRANCH  20  21
ENDBRANCH  18  20
ENDBRANCH  15  16
ENDBRANCH  14  15
ENDBRANCH  12  14
ENDBRANCH   7  10
ENDBRANCH   2   7
TORSDOF 19
ENDMDL
MODEL      338
REMARK 921   NORMALIZED FREE ENERGY PREDICTED BY IDOCK:   -2.31 KCAL/MOL
REMARK 922        TOTAL FREE ENERGY PREDICTED BY IDOCK:   -7.05 KCAL/MOL
REMARK 923 INTER-LIGAND FREE ENERGY PREDICTED BY IDOCK:   -8.43 KCAL/MOL
REMARK 924 INTRA-LIGAND FREE ENERGY PREDICTED BY IDOCK:    1.39 KCAL/MOL
REMARK 927      BINDING AFFINITY PREDICTED BY RF-SCORE:    0.00 PKD
ROOT
HETATM    1  C   UNL     1     -10.029  19.942  69.205  1.00  0.00    -0.336 C  
HETATM    2  C   UNL     1      -9.749  18.819  68.189  1.00  0.00    -0.384 C  
HETATM    3  C   UNL     1     -10.733  18.939  66.998  1.00  0.00    -0.477 C  
ENDROOT
BRANCH   2   4
HETATM    4  C   UNL     1      -8.331  19.007  67.610  1.00  0.00    -0.287 C  
HETATM    5  O   UNL     1      -7.438  19.540  68.586  1.00  0.00    -0.323 OA 
HETATM    6  H   UNL     1      -6.565  19.656  68.229  1.00  0.00     0.000 HD 
ENDBRANCH   2   4
BRANCH   2   7
HETATM    7  C   UNL     1      -9.864  17.410  68.852  1.00  0.00    -0.286 C  
HETATM    8  O   UNL     1     -11.210  17.084  69.237  1.00  0.00    -0.254 OA 
HETATM    9  H   UNL     1     -11.280  16.227  69.640  1.00  0.00     0.000 HD 
BRANCH   7  10
HETATM   10  C   UNL     1      -9.330  16.241  67.996  1.00  0.00    -0.214 C  
HETATM   11  O   UNL     1      -8.203  15.763  68.091  1.00  0.00    -0.139 OA 
HETATM   12  N   UNL     1     -10.277  15.719  67.144  1.00  0.00    -0.273 N  
HETATM   13  H   UNL     1     -11.179  16.186  67.046  1.00  0.00     0.000 HD 
BRANCH  12  14
HETATM   14  C   UNL     1     -10.010  14.517  66.385  1.00  0.00    -0.292 C  
BRANCH  14  15
HETATM   15  C   UNL     1      -8.883  13.673  66.971  1.00  0.00    -0.233 C  
BRANCH  15  16
HETATM   16  C   UNL     1      -9.085  12.236  66.547  1.00  0.00    -0.188 C  
HETATM   17  O   UNL     1      -8.457  11.315  67.061  1.00  0.00    -0.140 OA 
HETATM   18  N   UNL     1     -10.040  12.062  65.572  1.00  0.00    -0.247 N  
HETATM   19  H   UNL     1     -10.536  12.892  65.249  1.00  0.00     0.000 HD 
BRANCH  18  20
HETATM   20  C   UNL     1     -10.400  10.781  64.959  1.00  0.00    -0.287 C  
BRANCH  20  21
HETATM   21  C   UNL     1     -10.000  10.569  63.496  1.00  0.00    -0.214 C  
BRANCH  21  22
HETATM   22  S   UNL     1      -8.226  10.194  63.220  1.00  0.00    -0.169 SA 
BRANCH  22  23
HETATM   23  S   UNL     1      -8.061   8.192  63.678  1.00  0.00    -0.067 SA 
BRANCH  23  24
HETATM   24  C   UNL     1      -7.941   8.244  65.497  1.00  0.00    -0.120 C  
BRANCH  24  25
HETATM   25  C   UNL     1      -6.952   7.197  66.015  1.00  0.00    -0.065 C  
BRANCH  25  26
HETATM   26  N   UNL     1      -7.402   6.457  67.192  1.00  0.00    -0.082 N  
HETATM   27  H   UNL     1      -7.261   6.880  68.110  1.00  0.00     0.000 HD 
HETATM   28  C   UNL     1      -8.007   5.220  67.130  1.00  0.00    -0.101 C  
HETATM   29  O   UNL     1      -8.176   4.595  66.088  1.00  0.00    -0.106 OA 
BRANCH  28  30
HETATM   30  C   UNL     1      -8.492   4.693  68.461  1.00  0.00    -0.095 C  
BRANCH  30  31
HETATM   31  C   UNL     1      -7.925   5.544  69.593  1.00  0.00    -0.093 C  
BRANCH  31  32
HETATM   32  N   UNL     1      -8.959   6.283  70.292  1.00  0.00    -0.152 N  
HETATM   33  H   UNL     1      -8.687   6.911  71.049  1.00  0.00     0.000 HD 
HETATM   34  C   UNL     1     -10.291   6.169  69.972  1.00  0.00    -0.209 C  
HETATM   35  O   UNL     1     -10.723   5.374  69.142  1.00  0.00    -0.220 OA 
BRANCH  34  36
HETATM   36  C   UNL     1     -11.217   7.082  70.806  1.00  0.00    -0.285 C  
HETATM   37  O   UNL     1     -12.587   6.860  70.438  1.00  0.00    -0.593 OA 
HETATM   38  H   UNL     1     -13.156   7.422  70.950  1.00  0.00     0.000 HD 
BRANCH  36  39
HETATM   39  C   UNL     1     -10.869   8.592  70.684  1.00  0.00    -0.255 C  
HETATM   40  C   UNL     1     -11.942   9.474  71.355  1.00  0.00    -0.464 C  
HETATM   41  C   UNL     1      -9.532   8.855  71.418  1.00  0.00    -0.344 C  
BRANCH  39  42
HETATM   42  C   UNL     1     -10.716   8.980  69.194  1.00  0.00    -0.157 C  
HETATM   43  O   UNL     1     -11.243  10.276  68.928  1.00  0.00    -0.282 OA 
HETATM   44  H   UNL     1     -11.149  10.515  68.013  1.00  0.00     0.000 HD 
ENDBRANCH  39  42
ENDBRANCH  36  39
ENDBRANCH  34  36
ENDBRANCH  31  32
ENDBRANCH  30  31
ENDBRANCH  28  30
ENDBRANCH  25  26
ENDBRANCH  24  25
ENDBRANCH  23  24
ENDBRANCH  22  23
ENDBRANCH  21  22
ENDBRANCH  20  21
ENDBRANCH  18  20
ENDBRANCH  15  16
ENDBRANCH  14  15
ENDBRANCH  12  14
ENDBRANCH   7  10
ENDBRANCH   2   7
TORSDOF 19
ENDMDL
MODEL      339
REMARK 921   NORMALIZED FREE ENERGY PREDICTED BY IDOCK:   -2.30 KCAL/MOL
REMARK 922        TOTAL FREE ENERGY PREDICTED BY IDOCK:   -7.03 KCAL/MOL
REMARK 923 INTER-LIGAND FREE ENERGY PREDICTED BY IDOCK:   -7.01 KCAL/MOL
REMARK 924 INTRA-LIGAND FREE ENERGY PREDICTED BY IDOCK:   -0.01 KCAL/MOL
REMARK 927      BINDING AFFINITY PREDICTED BY RF-SCORE:    0.00 PKD
ROOT
HETATM    1  C   UNL     1      -8.261   4.645  69.501  1.00  0.00    -0.070 C  
HETATM    2  C   UNL     1      -8.066   6.087  68.997  1.00  0.00    -0.107 C  
HETATM    3  C   UNL     1      -9.425   6.661  68.527  1.00  0.00    -0.123 C  
ENDROOT
BRANCH   2   4
HETATM    4  C   UNL     1      -7.596   6.971  70.172  1.00  0.00    -0.095 C  
HETATM    5  O   UNL     1      -8.666   7.247  71.074  1.00  0.00    -0.137 OA 
HETATM    6  H   UNL     1      -8.377   7.791  71.797  1.00  0.00     0.000 HD 
ENDBRANCH   2   4
BRANCH   2   7
HETATM    7  C   UNL     1      -7.019   6.150  67.841  1.00  0.00    -0.076 C  
HETATM    8  O   UNL     1      -5.741   5.608  68.216  1.00  0.00    -0.011 OA 
HETATM    9  H   UNL     1      -5.104   5.646  67.513  1.00  0.00     0.000 HD 
BRANCH   7  10
HETATM   10  C   UNL     1      -7.450   5.453  66.531  1.00  0.00    -0.087 C  
HETATM   11  O   UNL     1      -7.932   4.326  66.465  1.00  0.00    -0.097 OA 
HETATM   12  N   UNL     1      -7.311   6.257  65.422  1.00  0.00    -0.074 N  
HETATM   13  H   UNL     1      -6.844   7.160  65.509  1.00  0.00     0.000 HD 
BRANCH  12  14
HETATM   14  C   UNL     1      -7.816   5.836  64.134  1.00  0.00    -0.118 C  
BRANCH  14  15
HETATM   15  C   UNL     1      -7.530   6.837  63.019  1.00  0.00    -0.082 C  
BRANCH  15  16
HETATM   16  C   UNL     1      -7.755   8.233  63.553  1.00  0.00    -0.142 C  
HETATM   17  O   UNL     1      -6.925   8.797  64.260  1.00  0.00    -0.087 OA 
HETATM   18  N   UNL     1      -8.940   8.808  63.155  1.00  0.00    -0.370 N  
HETATM   19  H   UNL     1      -9.534   8.268  62.527  1.00  0.00     0.000 HD 
BRANCH  18  20
HETATM   20  C   UNL     1      -9.417  10.132  63.562  1.00  0.00    -0.260 C  
BRANCH  20  21
HETATM   21  C   UNL     1      -8.490  10.966  64.452  1.00  0.00     0.101 C  
BRANCH  21  22
HETATM   22  S   UNL     1      -9.221  11.508  66.044  1.00  0.00    -0.200 SA 
BRANCH  22  23
HETATM   23  S   UNL     1     -11.241  11.178  65.807  1.00  0.00     0.195 SA 
BRANCH  23  24
HETATM   24  C   UNL     1     -11.854  12.869  65.512  1.00  0.00    -0.411 C  
BRANCH  24  25
HETATM   25  C   UNL     1     -10.841  13.692  64.712  1.00  0.00    -0.394 C  
BRANCH  25  26
HETATM   26  N   UNL     1     -10.570  15.023  65.249  1.00  0.00    -0.365 N  
HETATM   27  H   UNL     1      -9.872  15.112  65.988  1.00  0.00     0.000 HD 
HETATM   28  C   UNL     1     -11.207  16.166  64.813  1.00  0.00    -0.304 C  
HETATM   29  O   UNL     1     -12.100  16.171  63.972  1.00  0.00    -0.889 OA 
BRANCH  28  30
HETATM   30  C   UNL     1     -10.688  17.446  65.429  1.00  0.00    -0.040 C  
BRANCH  30  31
HETATM   31  C   UNL     1      -9.814  17.121  66.636  1.00  0.00    -0.289 C  
BRANCH  31  32
HETATM   32  N   UNL     1      -8.443  17.558  66.452  1.00  0.00    -0.261 N  
HETATM   33  H   UNL     1      -7.991  17.393  65.553  1.00  0.00     0.000 HD 
HETATM   34  C   UNL     1      -7.730  18.187  67.446  1.00  0.00    -0.217 C  
HETATM   35  O   UNL     1      -8.155  18.347  68.587  1.00  0.00    -0.314 OA 
BRANCH  34  36
HETATM   36  C   UNL     1      -6.307  18.614  67.023  1.00  0.00    -0.182 C  
HETATM   37  O   UNL     1      -5.548  19.005  68.178  1.00  0.00    -0.189 OA 
HETATM   38  H   UNL     1      -4.673  19.268  67.917  1.00  0.00     0.000 HD 
BRANCH  36  39
HETATM   39  C   UNL     1      -6.292  19.751  65.963  1.00  0.00    -0.206 C  
HETATM   40  C   UNL     1      -5.172  20.772  66.247  1.00  0.00    -0.216 C  
HETATM   41  C   UNL     1      -6.010  19.131  64.574  1.00  0.00    -0.298 C  
BRANCH  39  42
HETATM   42  C   UNL     1      -7.666  20.463  65.933  1.00  0.00    -0.043 C  
HETATM   43  O   UNL     1      -7.971  21.077  67.181  1.00  0.00    -0.559 OA 
HETATM   44  H   UNL     1      -8.815  21.514  67.163  1.00  0.00     0.000 HD 
ENDBRANCH  39  42
ENDBRANCH  36  39
ENDBRANCH  34  36
ENDBRANCH  31  32
ENDBRANCH  30  31
ENDBRANCH  28  30
ENDBRANCH  25  26
ENDBRANCH  24  25
ENDBRANCH  23  24
ENDBRANCH  22  23
ENDBRANCH  21  22
ENDBRANCH  20  21
ENDBRANCH  18  20
ENDBRANCH  15  16
ENDBRANCH  14  15
ENDBRANCH  12  14
ENDBRANCH   7  10
ENDBRANCH   2   7
TORSDOF 19
ENDMDL
MODEL      340
REMARK 921   NORMALIZED FREE ENERGY PREDICTED BY IDOCK:   -2.29 KCAL/MOL
REMARK 922        TOTAL FREE ENERGY PREDICTED BY IDOCK:   -7.01 KCAL/MOL
REMARK 923 INTER-LIGAND FREE ENERGY PREDICTED BY IDOCK:   -6.41 KCAL/MOL
REMARK 924 INTRA-LIGAND FREE ENERGY PREDICTED BY IDOCK:   -0.60 KCAL/MOL
REMARK 927      BINDING AFFINITY PREDICTED BY RF-SCORE:    0.00 PKD
ROOT
HETATM    1  C   UNL     1      -8.465   4.662  69.373  1.00  0.00    -0.094 C  
HETATM    2  C   UNL     1      -8.097   5.820  68.427  1.00  0.00    -0.108 C  
HETATM    3  C   UNL     1      -9.022   5.791  67.185  1.00  0.00    -0.113 C  
ENDROOT
BRANCH   2   4
HETATM    4  C   UNL     1      -8.363   7.160  69.145  1.00  0.00    -0.129 C  
HETATM    5  O   UNL     1      -7.150   7.867  69.393  1.00  0.00    -0.061 OA 
HETATM    6  H   UNL     1      -7.315   8.691  69.835  1.00  0.00     0.000 HD 
ENDBRANCH   2   4
BRANCH   2   7
HETATM    7  C   UNL     1      -6.599   5.745  67.993  1.00  0.00    -0.052 C  
HETATM    8  O   UNL     1      -5.719   5.409  69.079  1.00  0.00    -0.016 OA 
HETATM    9  H   UNL     1      -4.809   5.363  68.814  1.00  0.00     0.000 HD 
BRANCH   7  10
HETATM   10  C   UNL     1      -6.304   4.764  66.836  1.00  0.00    -0.037 C  
HETATM   11  O   UNL     1      -6.466   3.548  66.893  1.00  0.00    -0.035 OA 
HETATM   12  N   UNL     1      -5.899   5.396  65.682  1.00  0.00    -0.020 N  
HETATM   13  H   UNL     1      -5.712   6.399  65.696  1.00  0.00     0.000 HD 
BRANCH  12  14
HETATM   14  C   UNL     1      -5.737   4.657  64.450  1.00  0.00    -0.014 C  
BRANCH  14  15
HETATM   15  C   UNL     1      -5.246   5.518  63.291  1.00  0.00    -0.013 C  
BRANCH  15  16
HETATM   16  C   UNL     1      -5.931   6.864  63.364  1.00  0.00    -0.039 C  
HETATM   17  O   UNL     1      -5.390   7.838  63.878  1.00  0.00    -0.036 OA 
HETATM   18  N   UNL     1      -7.180   6.895  62.787  1.00  0.00    -0.058 N  
HETATM   19  H   UNL     1      -7.513   6.039  62.345  1.00  0.00     0.000 HD 
BRANCH  18  20
HETATM   20  C   UNL     1      -8.069   8.059  62.756  1.00  0.00    -0.139 C  
BRANCH  20  21
HETATM   21  C   UNL     1      -7.414   9.435  62.604  1.00  0.00    -0.102 C  
BRANCH  21  22
HETATM   22  S   UNL     1      -7.280  10.410  64.151  1.00  0.00     0.101 SA 
BRANCH  22  23
HETATM   23  S   UNL     1      -8.542   9.443  65.462  1.00  0.00    -0.161 SA 
BRANCH  23  24
HETATM   24  C   UNL     1      -9.930  10.620  65.566  1.00  0.00    -0.272 C  
BRANCH  24  25
HETATM   25  C   UNL     1     -10.308  11.153  64.182  1.00  0.00    -0.361 C  
BRANCH  25  26
HETATM   26  N   UNL     1     -10.665  12.569  64.146  1.00  0.00    -0.360 N  
HETATM   27  H   UNL     1      -9.919  13.250  64.003  1.00  0.00     0.000 HD 
HETATM   28  C   UNL     1     -11.954  13.035  64.294  1.00  0.00    -0.402 C  
HETATM   29  O   UNL     1     -12.918  12.313  64.526  1.00  0.00    -0.738 OA 
BRANCH  28  30
HETATM   30  C   UNL     1     -12.106  14.528  64.108  1.00  0.00    -0.377 C  
BRANCH  30  31
HETATM   31  C   UNL     1     -10.933  15.252  64.761  1.00  0.00    -0.386 C  
BRANCH  31  32
HETATM   32  N   UNL     1     -11.047  15.285  66.207  1.00  0.00    -0.311 N  
HETATM   33  H   UNL     1     -11.937  15.557  66.624  1.00  0.00     0.000 HD 
HETATM   34  C   UNL     1      -9.998  14.962  67.036  1.00  0.00    -0.240 C  
HETATM   35  O   UNL     1      -8.867  14.712  66.631  1.00  0.00    -0.252 OA 
BRANCH  34  36
HETATM   36  C   UNL     1     -10.350  15.013  68.540  1.00  0.00    -0.230 C  
HETATM   37  O   UNL     1      -9.182  14.729  69.326  1.00  0.00    -0.353 OA 
HETATM   38  H   UNL     1      -9.398  14.760  70.251  1.00  0.00     0.000 HD 
BRANCH  36  39
HETATM   39  C   UNL     1     -11.508  14.055  68.937  1.00  0.00    -0.331 C  
HETATM   40  C   UNL     1     -10.988  12.843  69.738  1.00  0.00     0.262 C  
HETATM   41  C   UNL     1     -12.495  14.820  69.849  1.00  0.00    -0.283 C  
BRANCH  39  42
HETATM   42  C   UNL     1     -12.254  13.574  67.669  1.00  0.00    -0.175 C  
HETATM   43  O   UNL     1     -12.260  12.154  67.565  1.00  0.00    -0.474 OA 
HETATM   44  H   UNL     1     -12.718  11.859  66.787  1.00  0.00     0.000 HD 
ENDBRANCH  39  42
ENDBRANCH  36  39
ENDBRANCH  34  36
ENDBRANCH  31  32
ENDBRANCH  30  31
ENDBRANCH  28  30
ENDBRANCH  25  26
ENDBRANCH  24  25
ENDBRANCH  23  24
ENDBRANCH  22  23
ENDBRANCH  21  22
ENDBRANCH  20  21
ENDBRANCH  18  20
ENDBRANCH  15  16
ENDBRANCH  14  15
ENDBRANCH  12  14
ENDBRANCH   7  10
ENDBRANCH   2   7
TORSDOF 19
ENDMDL
MODEL      341
REMARK 921   NORMALIZED FREE ENERGY PREDICTED BY IDOCK:   -2.26 KCAL/MOL
REMARK 922        TOTAL FREE ENERGY PREDICTED BY IDOCK:   -6.95 KCAL/MOL
REMARK 923 INTER-LIGAND FREE ENERGY PREDICTED BY IDOCK:   -5.72 KCAL/MOL
REMARK 924 INTRA-LIGAND FREE ENERGY PREDICTED BY IDOCK:   -1.23 KCAL/MOL
REMARK 927      BINDING AFFINITY PREDICTED BY RF-SCORE:    0.00 PKD
ROOT
HETATM    1  C   UNL     1     -10.197   3.740  72.235  1.00  0.00    -0.201 C  
HETATM    2  C   UNL     1      -8.693   3.409  72.240  1.00  0.00    -0.107 C  
HETATM    3  C   UNL     1      -7.873   4.723  72.230  1.00  0.00    -0.098 C  
ENDROOT
BRANCH   2   4
HETATM    4  C   UNL     1      -8.343   2.681  73.555  1.00  0.00    -0.068 C  
HETATM    5  O   UNL     1      -7.017   2.159  73.522  1.00  0.00    -0.022 OA 
HETATM    6  H   UNL     1      -6.802   1.711  74.331  1.00  0.00     0.000 HD 
ENDBRANCH   2   4
BRANCH   2   7
HETATM    7  C   UNL     1      -8.304   2.514  71.022  1.00  0.00    -0.053 C  
HETATM    8  O   UNL     1      -9.322   2.478  70.008  1.00  0.00    -0.125 OA 
HETATM    9  H   UNL     1      -9.085   1.934  69.267  1.00  0.00     0.000 HD 
BRANCH   7  10
HETATM   10  C   UNL     1      -6.975   2.893  70.332  1.00  0.00    -0.034 C  
HETATM   11  O   UNL     1      -5.878   2.900  70.883  1.00  0.00    -0.013 OA 
HETATM   12  N   UNL     1      -7.121   3.159  68.988  1.00  0.00    -0.048 N  
HETATM   13  H   UNL     1      -8.057   3.208  68.583  1.00  0.00     0.000 HD 
BRANCH  12  14
HETATM   14  C   UNL     1      -5.966   3.370  68.145  1.00  0.00    -0.027 C  
BRANCH  14  15
HETATM   15  C   UNL     1      -6.053   4.646  67.313  1.00  0.00    -0.031 C  
BRANCH  15  16
HETATM   16  C   UNL     1      -7.510   5.019  67.152  1.00  0.00    -0.087 C  
HETATM   17  O   UNL     1      -8.212   4.522  66.278  1.00  0.00    -0.106 OA 
HETATM   18  N   UNL     1      -7.966   5.930  68.078  1.00  0.00    -0.104 N  
HETATM   19  H   UNL     1      -7.308   6.242  68.791  1.00  0.00     0.000 HD 
BRANCH  18  20
HETATM   20  C   UNL     1      -9.320   6.486  68.121  1.00  0.00    -0.109 C  
BRANCH  20  21
HETATM   21  C   UNL     1      -9.560   7.799  67.370  1.00  0.00    -0.151 C  
BRANCH  21  22
HETATM   22  S   UNL     1      -9.964   9.240  68.430  1.00  0.00    -0.182 SA 
BRANCH  22  23
HETATM   23  S   UNL     1     -10.844  10.582  67.137  1.00  0.00    -0.221 SA 
BRANCH  23  24
HETATM   24  C   UNL     1      -9.432  11.051  66.083  1.00  0.00    -0.203 C  
BRANCH  24  25
HETATM   25  C   UNL     1      -8.263  11.568  66.924  1.00  0.00    -0.167 C  
BRANCH  25  26
HETATM   26  N   UNL     1      -7.890  12.957  66.669  1.00  0.00    -0.299 N  
HETATM   27  H   UNL     1      -7.773  13.254  65.700  1.00  0.00     0.000 HD 
HETATM   28  C   UNL     1      -7.688  13.889  67.665  1.00  0.00    -0.184 C  
HETATM   29  O   UNL     1      -7.747  13.630  68.863  1.00  0.00    -0.096 OA 
BRANCH  28  30
HETATM   30  C   UNL     1      -7.421  15.291  67.167  1.00  0.00    -0.202 C  
BRANCH  30  31
HETATM   31  C   UNL     1      -8.666  15.841  66.478  1.00  0.00    -0.319 C  
BRANCH  31  32
HETATM   32  N   UNL     1      -9.730  16.131  67.421  1.00  0.00    -0.231 N  
HETATM   33  H   UNL     1      -9.673  16.982  67.980  1.00  0.00     0.000 HD 
HETATM   34  C   UNL     1     -10.813  15.300  67.588  1.00  0.00    -0.295 C  
HETATM   35  O   UNL     1     -10.925  14.213  67.029  1.00  0.00    -0.292 OA 
BRANCH  34  36
HETATM   36  C   UNL     1     -11.853  15.822  68.604  1.00  0.00    -0.275 C  
HETATM   37  O   UNL     1     -11.644  17.222  68.844  1.00  0.00     0.141 OA 
HETATM   38  H   UNL     1     -12.283  17.543  69.470  1.00  0.00     0.000 HD 
BRANCH  36  39
HETATM   39  C   UNL     1     -11.850  15.042  69.948  1.00  0.00    -0.362 C  
HETATM   40  C   UNL     1     -10.498  15.183  70.679  1.00  0.00     0.025 C  
HETATM   41  C   UNL     1     -12.937  15.638  70.872  1.00  0.00    -0.471 C  
BRANCH  39  42
HETATM   42  C   UNL     1     -12.162  13.548  69.693  1.00  0.00    -0.247 C  
HETATM   43  O   UNL     1     -10.980  12.754  69.682  1.00  0.00    -0.458 OA 
HETATM   44  H   UNL     1     -11.172  11.837  69.525  1.00  0.00     0.000 HD 
ENDBRANCH  39  42
ENDBRANCH  36  39
ENDBRANCH  34  36
ENDBRANCH  31  32
ENDBRANCH  30  31
ENDBRANCH  28  30
ENDBRANCH  25  26
ENDBRANCH  24  25
ENDBRANCH  23  24
ENDBRANCH  22  23
ENDBRANCH  21  22
ENDBRANCH  20  21
ENDBRANCH  18  20
ENDBRANCH  15  16
ENDBRANCH  14  15
ENDBRANCH  12  14
ENDBRANCH   7  10
ENDBRANCH   2   7
TORSDOF 19
ENDMDL
MODEL      342
REMARK 921   NORMALIZED FREE ENERGY PREDICTED BY IDOCK:   -2.26 KCAL/MOL
REMARK 922        TOTAL FREE ENERGY PREDICTED BY IDOCK:   -6.95 KCAL/MOL
REMARK 923 INTER-LIGAND FREE ENERGY PREDICTED BY IDOCK:   -5.69 KCAL/MOL
REMARK 924 INTRA-LIGAND FREE ENERGY PREDICTED BY IDOCK:   -1.26 KCAL/MOL
REMARK 927      BINDING AFFINITY PREDICTED BY RF-SCORE:    0.00 PKD
ROOT
HETATM    1  C   UNL     1     -10.847   4.082  64.850  1.00  0.00    -0.048 C  
HETATM    2  C   UNL     1      -9.448   3.458  64.697  1.00  0.00    -0.154 C  
HETATM    3  C   UNL     1      -9.252   2.355  65.767  1.00  0.00    -0.035 C  
ENDROOT
BRANCH   2   4
HETATM    4  C   UNL     1      -9.355   2.762  63.323  1.00  0.00    -0.094 C  
HETATM    5  O   UNL     1      -8.148   3.106  62.647  1.00  0.00    -0.070 OA 
HETATM    6  H   UNL     1      -8.091   2.678  61.801  1.00  0.00     0.000 HD 
ENDBRANCH   2   4
BRANCH   2   7
HETATM    7  C   UNL     1      -8.327   4.538  64.817  1.00  0.00    -0.116 C  
HETATM    8  O   UNL     1      -8.522   5.646  63.921  1.00  0.00    -0.264 OA 
HETATM    9  H   UNL     1      -7.841   6.303  63.994  1.00  0.00     0.000 HD 
BRANCH   7  10
HETATM   10  C   UNL     1      -8.129   5.119  66.235  1.00  0.00    -0.108 C  
HETATM   11  O   UNL     1      -8.975   5.759  66.852  1.00  0.00    -0.113 OA 
HETATM   12  N   UNL     1      -6.913   4.784  66.789  1.00  0.00    -0.065 N  
HETATM   13  H   UNL     1      -6.213   4.310  66.220  1.00  0.00     0.000 HD 
BRANCH  12  14
HETATM   14  C   UNL     1      -6.617   5.098  68.169  1.00  0.00    -0.049 C  
BRANCH  14  15
HETATM   15  C   UNL     1      -7.107   4.035  69.148  1.00  0.00    -0.047 C  
BRANCH  15  16
HETATM   16  C   UNL     1      -8.187   4.639  70.016  1.00  0.00    -0.067 C  
HETATM   17  O   UNL     1      -8.965   3.941  70.660  1.00  0.00    -0.080 OA 
HETATM   18  N   UNL     1      -8.195   6.015  70.035  1.00  0.00    -0.120 N  
HETATM   19  H   UNL     1      -7.472   6.495  69.501  1.00  0.00     0.000 HD 
BRANCH  18  20
HETATM   20  C   UNL     1      -9.159   6.846  70.762  1.00  0.00    -0.154 C  
BRANCH  20  21
HETATM   21  C   UNL     1      -9.145   8.349  70.471  1.00  0.00    -0.150 C  
BRANCH  21  22
HETATM   22  S   UNL     1      -7.818   8.910  69.337  1.00  0.00    -0.101 SA 
BRANCH  22  23
HETATM   23  S   UNL     1      -8.687   8.834  67.470  1.00  0.00    -0.135 SA 
BRANCH  23  24
HETATM   24  C   UNL     1      -8.482  10.554  66.902  1.00  0.00    -0.125 C  
BRANCH  24  25
HETATM   25  C   UNL     1      -8.502  11.531  68.080  1.00  0.00    -0.154 C  
BRANCH  25  26
HETATM   26  N   UNL     1      -8.976  12.874  67.755  1.00  0.00    -0.181 N  
HETATM   27  H   UNL     1      -8.284  13.617  67.650  1.00  0.00     0.000 HD 
HETATM   28  C   UNL     1     -10.307  13.193  67.582  1.00  0.00    -0.223 C  
HETATM   29  O   UNL     1     -11.225  12.395  67.738  1.00  0.00    -0.241 OA 
BRANCH  28  30
HETATM   30  C   UNL     1     -10.557  14.616  67.138  1.00  0.00    -0.282 C  
BRANCH  30  31
HETATM   31  C   UNL     1      -9.246  15.258  66.695  1.00  0.00    -0.274 C  
BRANCH  31  32
HETATM   32  N   UNL     1      -8.817  16.308  67.600  1.00  0.00    -0.189 N  
HETATM   33  H   UNL     1      -8.222  16.062  68.391  1.00  0.00     0.000 HD 
HETATM   34  C   UNL     1      -9.183  17.622  67.430  1.00  0.00    -0.247 C  
HETATM   35  O   UNL     1      -9.968  18.000  66.564  1.00  0.00    -0.334 OA 
BRANCH  34  36
HETATM   36  C   UNL     1      -8.575  18.583  68.476  1.00  0.00    -0.324 C  
HETATM   37  O   UNL     1      -9.577  19.501  68.939  1.00  0.00    -0.397 OA 
HETATM   38  H   UNL     1      -9.202  20.092  69.582  1.00  0.00     0.000 HD 
BRANCH  36  39
HETATM   39  C   UNL     1      -7.336  19.362  67.953  1.00  0.00    -0.295 C  
HETATM   40  C   UNL     1      -6.933  18.897  66.538  1.00  0.00    -0.231 C  
HETATM   41  C   UNL     1      -7.696  20.863  67.859  1.00  0.00     0.028 C  
BRANCH  39  42
HETATM   42  C   UNL     1      -6.149  19.183  68.930  1.00  0.00    -0.233 C  
HETATM   43  O   UNL     1      -6.584  19.106  70.283  1.00  0.00    -0.014 OA 
HETATM   44  H   UNL     1      -5.856  18.997  70.883  1.00  0.00     0.000 HD 
ENDBRANCH  39  42
ENDBRANCH  36  39
ENDBRANCH  34  36
ENDBRANCH  31  32
ENDBRANCH  30  31
ENDBRANCH  28  30
ENDBRANCH  25  26
ENDBRANCH  24  25
ENDBRANCH  23  24
ENDBRANCH  22  23
ENDBRANCH  21  22
ENDBRANCH  20  21
ENDBRANCH  18  20
ENDBRANCH  15  16
ENDBRANCH  14  15
ENDBRANCH  12  14
ENDBRANCH   7  10
ENDBRANCH   2   7
TORSDOF 19
ENDMDL
MODEL      343
REMARK 921   NORMALIZED FREE ENERGY PREDICTED BY IDOCK:   -2.23 KCAL/MOL
REMARK 922        TOTAL FREE ENERGY PREDICTED BY IDOCK:   -6.88 KCAL/MOL
REMARK 923 INTER-LIGAND FREE ENERGY PREDICTED BY IDOCK:   -6.69 KCAL/MOL
REMARK 924 INTRA-LIGAND FREE ENERGY PREDICTED BY IDOCK:   -0.20 KCAL/MOL
REMARK 927      BINDING AFFINITY PREDICTED BY RF-SCORE:    0.00 PKD
ROOT
HETATM    1  C   UNL     1     -11.088  16.691  68.034  1.00  0.00    -0.255 C  
HETATM    2  C   UNL     1     -10.390  15.354  67.722  1.00  0.00    -0.253 C  
HETATM    3  C   UNL     1      -9.603  15.477  66.393  1.00  0.00    -0.317 C  
ENDROOT
BRANCH   2   4
HETATM    4  C   UNL     1      -9.351  15.060  68.825  1.00  0.00    -0.200 C  
HETATM    5  O   UNL     1      -8.904  16.261  69.450  1.00  0.00    -0.204 OA 
HETATM    6  H   UNL     1      -8.264  16.080  70.129  1.00  0.00     0.000 HD 
ENDBRANCH   2   4
BRANCH   2   7
HETATM    7  C   UNL     1     -11.417  14.182  67.641  1.00  0.00    -0.338 C  
HETATM    8  O   UNL     1     -12.745  14.625  67.313  1.00  0.00    -0.281 OA 
HETATM    9  H   UNL     1     -13.370  13.912  67.263  1.00  0.00     0.000 HD 
BRANCH   7  10
HETATM   10  C   UNL     1     -11.046  13.056  66.650  1.00  0.00    -0.289 C  
HETATM   11  O   UNL     1     -10.175  12.214  66.844  1.00  0.00    -0.207 OA 
HETATM   12  N   UNL     1     -11.849  13.036  65.532  1.00  0.00    -0.371 N  
HETATM   13  H   UNL     1     -12.517  13.792  65.376  1.00  0.00     0.000 HD 
BRANCH  12  14
HETATM   14  C   UNL     1     -11.759  11.956  64.574  1.00  0.00    -0.248 C  
BRANCH  14  15
HETATM   15  C   UNL     1     -10.922  12.306  63.348  1.00  0.00    -0.467 C  
BRANCH  15  16
HETATM   16  C   UNL     1      -9.678  11.446  63.351  1.00  0.00    -0.365 C  
HETATM   17  O   UNL     1      -8.826  11.539  62.473  1.00  0.00    -0.319 OA 
HETATM   18  N   UNL     1      -9.584  10.590  64.424  1.00  0.00    -0.272 N  
HETATM   19  H   UNL     1     -10.327  10.630  65.121  1.00  0.00     0.000 HD 
BRANCH  18  20
HETATM   20  C   UNL     1      -8.503   9.626  64.645  1.00  0.00    -0.174 C  
BRANCH  20  21
HETATM   21  C   UNL     1      -7.229  10.146  65.317  1.00  0.00    -0.141 C  
BRANCH  21  22
HETATM   22  S   UNL     1      -6.107   8.851  65.968  1.00  0.00    -0.052 SA 
BRANCH  22  23
HETATM   23  S   UNL     1      -6.203   9.086  68.013  1.00  0.00    -0.051 SA 
BRANCH  23  24
HETATM   24  C   UNL     1      -7.762  10.013  68.200  1.00  0.00    -0.085 C  
BRANCH  24  25
HETATM   25  C   UNL     1      -8.826   9.168  68.906  1.00  0.00    -0.139 C  
BRANCH  25  26
HETATM   26  N   UNL     1      -9.692   8.400  68.015  1.00  0.00    -0.154 N  
HETATM   27  H   UNL     1     -10.457   8.888  67.549  1.00  0.00     0.000 HD 
HETATM   28  C   UNL     1      -9.530   7.053  67.768  1.00  0.00    -0.124 C  
HETATM   29  O   UNL     1      -8.681   6.357  68.315  1.00  0.00    -0.118 OA 
BRANCH  28  30
HETATM   30  C   UNL     1     -10.470   6.491  66.726  1.00  0.00    -0.300 C  
BRANCH  30  31
HETATM   31  C   UNL     1     -10.606   4.983  66.912  1.00  0.00    -0.117 C  
BRANCH  31  32
HETATM   32  N   UNL     1      -9.707   4.241  66.047  1.00  0.00    -0.193 N  
HETATM   33  H   UNL     1      -9.831   3.233  65.959  1.00  0.00     0.000 HD 
HETATM   34  C   UNL     1      -8.695   4.849  65.342  1.00  0.00    -0.143 C  
HETATM   35  O   UNL     1      -8.411   6.038  65.454  1.00  0.00    -0.141 OA 
BRANCH  34  36
HETATM   36  C   UNL     1      -7.890   3.884  64.444  1.00  0.00    -0.085 C  
HETATM   37  O   UNL     1      -8.769   3.229  63.516  1.00  0.00    -0.089 OA 
HETATM   38  H   UNL     1      -8.274   2.636  62.964  1.00  0.00     0.000 HD 
BRANCH  36  39
HETATM   39  C   UNL     1      -7.074   2.830  65.243  1.00  0.00    -0.057 C  
HETATM   40  C   UNL     1      -6.547   3.413  66.571  1.00  0.00    -0.041 C  
HETATM   41  C   UNL     1      -8.005   1.646  65.597  1.00  0.00    -0.073 C  
BRANCH  39  42
HETATM   42  C   UNL     1      -5.896   2.312  64.385  1.00  0.00    -0.013 C  
HETATM   43  O   UNL     1      -5.764   3.043  63.170  1.00  0.00    -0.009 OA 
HETATM   44  H   UNL     1      -5.041   2.725  62.643  1.00  0.00     0.000 HD 
ENDBRANCH  39  42
ENDBRANCH  36  39
ENDBRANCH  34  36
ENDBRANCH  31  32
ENDBRANCH  30  31
ENDBRANCH  28  30
ENDBRANCH  25  26
ENDBRANCH  24  25
ENDBRANCH  23  24
ENDBRANCH  22  23
ENDBRANCH  21  22
ENDBRANCH  20  21
ENDBRANCH  18  20
ENDBRANCH  15  16
ENDBRANCH  14  15
ENDBRANCH  12  14
ENDBRANCH   7  10
ENDBRANCH   2   7
TORSDOF 19
ENDMDL
MODEL      344
REMARK 921   NORMALIZED FREE ENERGY PREDICTED BY IDOCK:   -2.21 KCAL/MOL
REMARK 922        TOTAL FREE ENERGY PREDICTED BY IDOCK:   -6.85 KCAL/MOL
REMARK 923 INTER-LIGAND FREE ENERGY PREDICTED BY IDOCK:   -5.96 KCAL/MOL
REMARK 924 INTRA-LIGAND FREE ENERGY PREDICTED BY IDOCK:   -0.90 KCAL/MOL
REMARK 927      BINDING AFFINITY PREDICTED BY RF-SCORE:    0.00 PKD
ROOT
HETATM    1  C   UNL     1      -9.302   6.276  73.673  1.00  0.00    -0.143 C  
HETATM    2  C   UNL     1     -10.098   5.472  72.628  1.00  0.00    -0.211 C  
HETATM    3  C   UNL     1     -11.450   5.025  73.238  1.00  0.00    -0.339 C  
ENDROOT
BRANCH   2   4
HETATM    4  C   UNL     1     -10.434   6.392  71.435  1.00  0.00    -0.218 C  
HETATM    5  O   UNL     1     -10.586   7.747  71.851  1.00  0.00    -0.211 OA 
HETATM    6  H   UNL     1     -10.793   8.313  71.117  1.00  0.00     0.000 HD 
ENDBRANCH   2   4
BRANCH   2   7
HETATM    7  C   UNL     1      -9.290   4.234  72.127  1.00  0.00    -0.127 C  
HETATM    8  O   UNL     1      -9.967   2.989  72.374  1.00  0.00    -0.147 OA 
HETATM    9  H   UNL     1      -9.476   2.236  72.069  1.00  0.00     0.000 HD 
BRANCH   7  10
HETATM   10  C   UNL     1      -8.909   4.265  70.630  1.00  0.00    -0.088 C  
HETATM   11  O   UNL     1      -7.941   4.861  70.168  1.00  0.00    -0.071 OA 
HETATM   12  N   UNL     1      -9.732   3.485  69.848  1.00  0.00    -0.140 N  
HETATM   13  H   UNL     1     -10.564   3.061  70.258  1.00  0.00     0.000 HD 
BRANCH  12  14
HETATM   14  C   UNL     1      -9.431   3.261  68.451  1.00  0.00    -0.144 C  
BRANCH  14  15
HETATM   15  C   UNL     1      -8.674   1.960  68.200  1.00  0.00    -0.119 C  
BRANCH  15  16
HETATM   16  C   UNL     1      -7.310   2.295  67.641  1.00  0.00    -0.056 C  
HETATM   17  O   UNL     1      -6.291   2.197  68.318  1.00  0.00    -0.028 OA 
HETATM   18  N   UNL     1      -7.319   2.685  66.321  1.00  0.00    -0.065 N  
HETATM   19  H   UNL     1      -8.217   2.684  65.839  1.00  0.00     0.000 HD 
BRANCH  18  20
HETATM   20  C   UNL     1      -6.142   3.099  65.553  1.00  0.00    -0.023 C  
BRANCH  20  21
HETATM   21  C   UNL     1      -5.477   4.419  65.952  1.00  0.00    -0.013 C  
BRANCH  21  22
HETATM   22  S   UNL     1      -5.905   5.858  64.898  1.00  0.00    -0.025 SA 
BRANCH  22  23
HETATM   23  S   UNL     1      -7.879   5.543  64.400  1.00  0.00    -0.116 SA 
BRANCH  23  24
HETATM   24  C   UNL     1      -8.731   6.120  65.904  1.00  0.00    -0.154 C  
BRANCH  24  25
HETATM   25  C   UNL     1      -7.883   7.146  66.660  1.00  0.00    -0.109 C  
BRANCH  25  26
HETATM   26  N   UNL     1      -8.644   8.089  67.476  1.00  0.00    -0.126 N  
HETATM   27  H   UNL     1      -8.704   7.919  68.480  1.00  0.00     0.000 HD 
HETATM   28  C   UNL     1      -9.285   9.198  66.963  1.00  0.00    -0.135 C  
HETATM   29  O   UNL     1      -9.326   9.470  65.768  1.00  0.00    -0.194 OA 
BRANCH  28  30
HETATM   30  C   UNL     1      -9.914  10.095  68.004  1.00  0.00    -0.173 C  
BRANCH  30  31
HETATM   31  C   UNL     1      -8.857  11.022  68.595  1.00  0.00    -0.164 C  
BRANCH  31  32
HETATM   32  N   UNL     1      -9.319  12.395  68.678  1.00  0.00    -0.399 N  
HETATM   33  H   UNL     1      -9.469  12.808  69.599  1.00  0.00     0.000 HD 
HETATM   34  C   UNL     1      -9.561  13.160  67.561  1.00  0.00    -0.208 C  
HETATM   35  O   UNL     1      -9.497  12.724  66.415  1.00  0.00    -0.246 OA 
BRANCH  34  36
HETATM   36  C   UNL     1      -9.996  14.609  67.876  1.00  0.00    -0.221 C  
HETATM   37  O   UNL     1     -11.323  14.841  67.378  1.00  0.00    -0.327 OA 
HETATM   38  H   UNL     1     -11.590  15.733  67.571  1.00  0.00     0.000 HD 
BRANCH  36  39
HETATM   39  C   UNL     1      -9.020  15.682  67.318  1.00  0.00    -0.214 C  
HETATM   40  C   UNL     1      -7.585  15.129  67.194  1.00  0.00    -0.204 C  
HETATM   41  C   UNL     1      -9.482  16.085  65.898  1.00  0.00    -0.351 C  
BRANCH  39  42
HETATM   42  C   UNL     1      -9.031  16.932  68.231  1.00  0.00    -0.235 C  
HETATM   43  O   UNL     1      -7.965  16.907  69.174  1.00  0.00    -0.213 OA 
HETATM   44  H   UNL     1      -7.971  17.674  69.735  1.00  0.00     0.000 HD 
ENDBRANCH  39  42
ENDBRANCH  36  39
ENDBRANCH  34  36
ENDBRANCH  31  32
ENDBRANCH  30  31
ENDBRANCH  28  30
ENDBRANCH  25  26
ENDBRANCH  24  25
ENDBRANCH  23  24
ENDBRANCH  22  23
ENDBRANCH  21  22
ENDBRANCH  20  21
ENDBRANCH  18  20
ENDBRANCH  15  16
ENDBRANCH  14  15
ENDBRANCH  12  14
ENDBRANCH   7  10
ENDBRANCH   2   7
TORSDOF 19
ENDMDL
MODEL      345
REMARK 921   NORMALIZED FREE ENERGY PREDICTED BY IDOCK:   -2.18 KCAL/MOL
REMARK 922        TOTAL FREE ENERGY PREDICTED BY IDOCK:   -6.78 KCAL/MOL
REMARK 923 INTER-LIGAND FREE ENERGY PREDICTED BY IDOCK:   -6.57 KCAL/MOL
REMARK 924 INTRA-LIGAND FREE ENERGY PREDICTED BY IDOCK:   -0.21 KCAL/MOL
REMARK 927      BINDING AFFINITY PREDICTED BY RF-SCORE:    0.00 PKD
ROOT
HETATM    1  C   UNL     1     -11.031   4.509  64.880  1.00  0.00     0.018 C  
HETATM    2  C   UNL     1      -9.665   3.798  64.914  1.00  0.00    -0.183 C  
HETATM    3  C   UNL     1      -9.330   3.387  66.369  1.00  0.00    -0.164 C  
ENDROOT
BRANCH   2   4
HETATM    4  C   UNL     1      -9.757   2.493  64.096  1.00  0.00    -0.138 C  
HETATM    5  O   UNL     1      -8.570   2.271  63.337  1.00  0.00    -0.084 OA 
HETATM    6  H   UNL     1      -8.627   1.467  62.834  1.00  0.00     0.000 HD 
ENDBRANCH   2   4
BRANCH   2   7
HETATM    7  C   UNL     1      -8.537   4.706  64.331  1.00  0.00    -0.142 C  
HETATM    8  O   UNL     1      -8.945   5.413  63.147  1.00  0.00    -0.338 OA 
HETATM    9  H   UNL     1      -8.259   5.965  62.793  1.00  0.00     0.000 HD 
BRANCH   7  10
HETATM   10  C   UNL     1      -7.962   5.748  65.317  1.00  0.00    -0.120 C  
HETATM   11  O   UNL     1      -8.528   6.787  65.643  1.00  0.00    -0.143 OA 
HETATM   12  N   UNL     1      -6.760   5.363  65.868  1.00  0.00    -0.055 N  
HETATM   13  H   UNL     1      -6.291   4.526  65.520  1.00  0.00     0.000 HD 
BRANCH  12  14
HETATM   14  C   UNL     1      -6.154   6.131  66.932  1.00  0.00    -0.025 C  
BRANCH  14  15
HETATM   15  C   UNL     1      -6.655   5.739  68.318  1.00  0.00    -0.052 C  
BRANCH  15  16
HETATM   16  C   UNL     1      -7.502   6.867  68.863  1.00  0.00    -0.096 C  
HETATM   17  O   UNL     1      -8.273   6.702  69.803  1.00  0.00    -0.123 OA 
HETATM   18  N   UNL     1      -7.309   8.075  68.233  1.00  0.00    -0.093 N  
HETATM   19  H   UNL     1      -6.607   8.111  67.494  1.00  0.00     0.000 HD 
BRANCH  18  20
HETATM   20  C   UNL     1      -8.029   9.314  68.539  1.00  0.00    -0.101 C  
BRANCH  20  21
HETATM   21  C   UNL     1      -7.741  10.527  67.650  1.00  0.00    -0.097 C  
BRANCH  21  22
HETATM   22  S   UNL     1      -8.403  10.417  65.943  1.00  0.00    -0.156 SA 
BRANCH  22  23
HETATM   23  S   UNL     1     -10.440  10.261  66.205  1.00  0.00    -0.092 SA 
BRANCH  23  24
HETATM   24  C   UNL     1     -11.017  11.853  65.529  1.00  0.00    -0.297 C  
BRANCH  24  25
HETATM   25  C   UNL     1      -9.840  12.718  65.071  1.00  0.00    -0.056 C  
BRANCH  25  26
HETATM   26  N   UNL     1      -9.771  14.038  65.692  1.00  0.00    -0.516 N  
HETATM   27  H   UNL     1      -9.794  14.858  65.084  1.00  0.00     0.000 HD 
HETATM   28  C   UNL     1      -9.677  14.238  67.053  1.00  0.00    -0.253 C  
HETATM   29  O   UNL     1      -9.586  13.329  67.871  1.00  0.00    -0.203 OA 
BRANCH  28  30
HETATM   30  C   UNL     1      -9.735  15.687  67.479  1.00  0.00    -0.222 C  
BRANCH  30  31
HETATM   31  C   UNL     1      -9.576  16.591  66.260  1.00  0.00    -0.306 C  
BRANCH  31  32
HETATM   32  N   UNL     1      -8.353  17.370  66.312  1.00  0.00    -0.256 N  
HETATM   33  H   UNL     1      -7.830  17.521  65.449  1.00  0.00     0.000 HD 
HETATM   34  C   UNL     1      -7.873  17.910  67.481  1.00  0.00    -0.212 C  
HETATM   35  O   UNL     1      -8.380  17.707  68.580  1.00  0.00    -0.286 OA 
BRANCH  34  36
HETATM   36  C   UNL     1      -6.585  18.745  67.303  1.00  0.00    -0.200 C  
HETATM   37  O   UNL     1      -5.448  17.997  67.763  1.00  0.00    -0.146 OA 
HETATM   38  H   UNL     1      -4.656  18.510  67.653  1.00  0.00     0.000 HD 
BRANCH  36  39
HETATM   39  C   UNL     1      -6.640  20.126  68.015  1.00  0.00    -0.307 C  
HETATM   40  C   UNL     1      -7.059  19.982  69.493  1.00  0.00    -0.148 C  
HETATM   41  C   UNL     1      -5.225  20.751  67.996  1.00  0.00    -0.289 C  
BRANCH  39  42
HETATM   42  C   UNL     1      -7.621  21.064  67.272  1.00  0.00    -0.167 C  
HETATM   43  O   UNL     1      -8.070  20.497  66.046  1.00  0.00    -0.521 OA 
HETATM   44  H   UNL     1      -8.672  21.073  65.590  1.00  0.00     0.000 HD 
ENDBRANCH  39  42
ENDBRANCH  36  39
ENDBRANCH  34  36
ENDBRANCH  31  32
ENDBRANCH  30  31
ENDBRANCH  28  30
ENDBRANCH  25  26
ENDBRANCH  24  25
ENDBRANCH  23  24
ENDBRANCH  22  23
ENDBRANCH  21  22
ENDBRANCH  20  21
ENDBRANCH  18  20
ENDBRANCH  15  16
ENDBRANCH  14  15
ENDBRANCH  12  14
ENDBRANCH   7  10
ENDBRANCH   2   7
TORSDOF 19
ENDMDL
MODEL      346
REMARK 921   NORMALIZED FREE ENERGY PREDICTED BY IDOCK:   -2.17 KCAL/MOL
REMARK 922        TOTAL FREE ENERGY PREDICTED BY IDOCK:   -6.76 KCAL/MOL
REMARK 923 INTER-LIGAND FREE ENERGY PREDICTED BY IDOCK:   -6.05 KCAL/MOL
REMARK 924 INTRA-LIGAND FREE ENERGY PREDICTED BY IDOCK:   -0.70 KCAL/MOL
REMARK 927      BINDING AFFINITY PREDICTED BY RF-SCORE:    0.00 PKD
ROOT
HETATM    1  C   UNL     1      -7.096  16.357  69.516  1.00  0.00    -0.117 C  
HETATM    2  C   UNL     1      -7.485  17.193  68.283  1.00  0.00    -0.217 C  
HETATM    3  C   UNL     1      -8.467  18.314  68.705  1.00  0.00    -0.241 C  
ENDROOT
BRANCH   2   4
HETATM    4  C   UNL     1      -6.226  17.894  67.731  1.00  0.00    -0.165 C  
HETATM    5  O   UNL     1      -5.508  18.561  68.766  1.00  0.00    -0.185 OA 
HETATM    6  H   UNL     1      -4.733  18.993  68.427  1.00  0.00     0.000 HD 
ENDBRANCH   2   4
BRANCH   2   7
HETATM    7  C   UNL     1      -8.122  16.302  67.170  1.00  0.00    -0.188 C  
HETATM    8  O   UNL     1      -8.033  16.893  65.863  1.00  0.00    -0.427 OA 
HETATM    9  H   UNL     1      -8.420  16.351  65.186  1.00  0.00     0.000 HD 
BRANCH   7  10
HETATM   10  C   UNL     1      -7.548  14.871  67.072  1.00  0.00     0.008 C  
HETATM   11  O   UNL     1      -6.352  14.595  67.097  1.00  0.00    -0.233 OA 
HETATM   12  N   UNL     1      -8.524  13.900  67.024  1.00  0.00    -0.361 N  
HETATM   13  H   UNL     1      -9.503  14.174  66.936  1.00  0.00     0.000 HD 
BRANCH  12  14
HETATM   14  C   UNL     1      -8.178  12.498  67.096  1.00  0.00    -0.168 C  
BRANCH  14  15
HETATM   15  C   UNL     1      -7.903  12.017  68.517  1.00  0.00    -0.129 C  
BRANCH  15  16
HETATM   16  C   UNL     1      -6.685  11.121  68.496  1.00  0.00    -0.062 C  
HETATM   17  O   UNL     1      -6.058  10.905  67.464  1.00  0.00    -0.047 OA 
HETATM   18  N   UNL     1      -6.341  10.606  69.725  1.00  0.00    -0.083 N  
HETATM   19  H   UNL     1      -6.904  10.889  70.526  1.00  0.00     0.000 HD 
BRANCH  18  20
HETATM   20  C   UNL     1      -5.232   9.682  69.975  1.00  0.00    -0.032 C  
BRANCH  20  21
HETATM   21  C   UNL     1      -5.129   8.452  69.069  1.00  0.00    -0.031 C  
BRANCH  21  22
HETATM   22  S   UNL     1      -6.074   6.986  69.635  1.00  0.00    -0.031 SA 
BRANCH  22  23
HETATM   23  S   UNL     1      -6.946   7.603  71.397  1.00  0.00    -0.055 SA 
BRANCH  23  24
HETATM   24  C   UNL     1      -5.606   7.293  72.595  1.00  0.00    -0.037 C  
BRANCH  24  25
HETATM   25  C   UNL     1      -5.870   6.019  73.401  1.00  0.00    -0.049 C  
BRANCH  25  26
HETATM   26  N   UNL     1      -6.772   5.064  72.762  1.00  0.00    -0.063 N  
HETATM   27  H   UNL     1      -6.423   4.531  71.965  1.00  0.00     0.000 HD 
HETATM   28  C   UNL     1      -8.068   4.843  73.178  1.00  0.00    -0.101 C  
HETATM   29  O   UNL     1      -8.608   5.465  74.086  1.00  0.00    -0.114 OA 
BRANCH  28  30
HETATM   30  C   UNL     1      -8.779   3.729  72.444  1.00  0.00    -0.109 C  
BRANCH  30  31
HETATM   31  C   UNL     1      -9.670   4.315  71.353  1.00  0.00    -0.181 C  
BRANCH  31  32
HETATM   32  N   UNL     1     -10.359   5.513  71.793  1.00  0.00    -0.209 N  
HETATM   33  H   UNL     1     -10.388   5.725  72.790  1.00  0.00     0.000 HD 
HETATM   34  C   UNL     1     -10.975   6.373  70.915  1.00  0.00    -0.280 C  
HETATM   35  O   UNL     1     -11.073   6.157  69.711  1.00  0.00    -0.351 OA 
BRANCH  34  36
HETATM   36  C   UNL     1     -11.604   7.613  71.589  1.00  0.00    -0.267 C  
HETATM   37  O   UNL     1     -12.931   7.827  71.082  1.00  0.00    -0.504 OA 
HETATM   38  H   UNL     1     -13.317   8.590  71.497  1.00  0.00     0.000 HD 
BRANCH  36  39
HETATM   39  C   UNL     1     -10.754   8.904  71.426  1.00  0.00    -0.382 C  
HETATM   40  C   UNL     1     -11.570  10.165  71.778  1.00  0.00     0.199 C  
HETATM   41  C   UNL     1      -9.560   8.839  72.408  1.00  0.00    -0.197 C  
BRANCH  39  42
HETATM   42  C   UNL     1     -10.218   9.004  69.978  1.00  0.00    -0.203 C  
HETATM   43  O   UNL     1     -11.274   9.094  69.028  1.00  0.00    -0.441 OA 
HETATM   44  H   UNL     1     -10.945   9.155  68.138  1.00  0.00     0.000 HD 
ENDBRANCH  39  42
ENDBRANCH  36  39
ENDBRANCH  34  36
ENDBRANCH  31  32
ENDBRANCH  30  31
ENDBRANCH  28  30
ENDBRANCH  25  26
ENDBRANCH  24  25
ENDBRANCH  23  24
ENDBRANCH  22  23
ENDBRANCH  21  22
ENDBRANCH  20  21
ENDBRANCH  18  20
ENDBRANCH  15  16
ENDBRANCH  14  15
ENDBRANCH  12  14
ENDBRANCH   7  10
ENDBRANCH   2   7
TORSDOF 19
ENDMDL
MODEL      347
REMARK 921   NORMALIZED FREE ENERGY PREDICTED BY IDOCK:   -2.13 KCAL/MOL
REMARK 922        TOTAL FREE ENERGY PREDICTED BY IDOCK:   -6.68 KCAL/MOL
REMARK 923 INTER-LIGAND FREE ENERGY PREDICTED BY IDOCK:   -6.63 KCAL/MOL
REMARK 924 INTRA-LIGAND FREE ENERGY PREDICTED BY IDOCK:   -0.06 KCAL/MOL
REMARK 927      BINDING AFFINITY PREDICTED BY RF-SCORE:    0.00 PKD
ROOT
HETATM    1  C   UNL     1     -10.184   4.254  65.483  1.00  0.00    -0.224 C  
HETATM    2  C   UNL     1      -9.113   3.621  66.392  1.00  0.00    -0.162 C  
HETATM    3  C   UNL     1      -9.327   4.094  67.851  1.00  0.00    -0.210 C  
ENDROOT
BRANCH   2   4
HETATM    4  C   UNL     1      -9.295   2.089  66.392  1.00  0.00     0.131 C  
HETATM    5  O   UNL     1     -10.006   1.651  67.548  1.00  0.00    -0.291 OA 
HETATM    6  H   UNL     1     -10.117   0.708  67.548  1.00  0.00     0.000 HD 
ENDBRANCH   2   4
BRANCH   2   7
HETATM    7  C   UNL     1      -7.673   3.980  65.908  1.00  0.00    -0.090 C  
HETATM    8  O   UNL     1      -7.520   3.869  64.483  1.00  0.00    -0.073 OA 
HETATM    9  H   UNL     1      -6.644   4.087  64.188  1.00  0.00     0.000 HD 
BRANCH   7  10
HETATM   10  C   UNL     1      -7.178   5.385  66.319  1.00  0.00    -0.077 C  
HETATM   11  O   UNL     1      -7.901   6.365  66.468  1.00  0.00    -0.100 OA 
HETATM   12  N   UNL     1      -5.826   5.425  66.581  1.00  0.00    -0.018 N  
HETATM   13  H   UNL     1      -5.250   4.607  66.381  1.00  0.00     0.000 HD 
BRANCH  12  14
HETATM   14  C   UNL     1      -5.214   6.611  67.137  1.00  0.00    -0.009 C  
BRANCH  14  15
HETATM   15  C   UNL     1      -5.437   6.757  68.638  1.00  0.00    -0.017 C  
BRANCH  15  16
HETATM   16  C   UNL     1      -6.293   7.980  68.883  1.00  0.00    -0.040 C  
HETATM   17  O   UNL     1      -6.707   8.267  70.001  1.00  0.00    -0.041 OA 
HETATM   18  N   UNL     1      -6.532   8.737  67.758  1.00  0.00    -0.060 N  
HETATM   19  H   UNL     1      -6.099   8.432  66.888  1.00  0.00     0.000 HD 
BRANCH  18  20
HETATM   20  C   UNL     1      -7.360   9.945  67.712  1.00  0.00    -0.089 C  
BRANCH  20  21
HETATM   21  C   UNL     1      -7.229  10.927  68.881  1.00  0.00    -0.095 C  
BRANCH  21  22
HETATM   22  S   UNL     1      -5.529  11.541  69.195  1.00  0.00    -0.048 SA 
BRANCH  22  23
HETATM   23  S   UNL     1      -5.166  12.831  67.630  1.00  0.00    -0.073 SA 
BRANCH  23  24
HETATM   24  C   UNL     1      -6.077  14.317  68.165  1.00  0.00    -0.137 C  
BRANCH  24  25
HETATM   25  C   UNL     1      -6.727  14.104  69.534  1.00  0.00    -0.112 C  
BRANCH  25  26
HETATM   26  N   UNL     1      -8.188  14.093  69.523  1.00  0.00    -0.201 N  
HETATM   27  H   UNL     1      -8.665  13.205  69.682  1.00  0.00     0.000 HD 
HETATM   28  C   UNL     1      -8.958  15.218  69.311  1.00  0.00    -0.241 C  
HETATM   29  O   UNL     1      -8.493  16.324  69.055  1.00  0.00    -0.239 OA 
BRANCH  28  30
HETATM   30  C   UNL     1     -10.446  14.995  69.457  1.00  0.00    -0.245 C  
BRANCH  30  31
HETATM   31  C   UNL     1     -11.154  15.355  68.155  1.00  0.00    -0.309 C  
BRANCH  31  32
HETATM   32  N   UNL     1     -11.129  16.782  67.895  1.00  0.00    -0.253 N  
HETATM   33  H   UNL     1     -11.583  17.410  68.558  1.00  0.00     0.000 HD 
HETATM   34  C   UNL     1     -10.516  17.318  66.787  1.00  0.00    -0.261 C  
HETATM   35  O   UNL     1     -10.025  16.640  65.889  1.00  0.00    -0.392 OA 
BRANCH  34  36
HETATM   36  C   UNL     1     -10.562  18.862  66.731  1.00  0.00    -0.405 C  
HETATM   37  O   UNL     1     -10.604  19.302  65.364  1.00  0.00    -0.492 OA 
HETATM   38  H   UNL     1     -10.632  20.251  65.330  1.00  0.00     0.000 HD 
BRANCH  36  39
HETATM   39  C   UNL     1      -9.381  19.543  67.476  1.00  0.00    -0.403 C  
HETATM   40  C   UNL     1      -9.355  21.064  67.220  1.00  0.00    -0.210 C  
HETATM   41  C   UNL     1      -9.567  19.335  68.998  1.00  0.00    -0.424 C  
BRANCH  39  42
HETATM   42  C   UNL     1      -8.041  18.907  67.036  1.00  0.00    -0.261 C  
HETATM   43  O   UNL     1      -8.026  18.616  65.642  1.00  0.00    -0.454 OA 
HETATM   44  H   UNL     1      -7.203  18.225  65.372  1.00  0.00     0.000 HD 
ENDBRANCH  39  42
ENDBRANCH  36  39
ENDBRANCH  34  36
ENDBRANCH  31  32
ENDBRANCH  30  31
ENDBRANCH  28  30
ENDBRANCH  25  26
ENDBRANCH  24  25
ENDBRANCH  23  24
ENDBRANCH  22  23
ENDBRANCH  21  22
ENDBRANCH  20  21
ENDBRANCH  18  20
ENDBRANCH  15  16
ENDBRANCH  14  15
ENDBRANCH  12  14
ENDBRANCH   7  10
ENDBRANCH   2   7
TORSDOF 19
ENDMDL
MODEL      348
REMARK 921   NORMALIZED FREE ENERGY PREDICTED BY IDOCK:   -2.12 KCAL/MOL
REMARK 922        TOTAL FREE ENERGY PREDICTED BY IDOCK:   -6.65 KCAL/MOL
REMARK 923 INTER-LIGAND FREE ENERGY PREDICTED BY IDOCK:   -6.92 KCAL/MOL
REMARK 924 INTRA-LIGAND FREE ENERGY PREDICTED BY IDOCK:    0.27 KCAL/MOL
REMARK 927      BINDING AFFINITY PREDICTED BY RF-SCORE:    0.00 PKD
ROOT
HETATM    1  C   UNL     1      -7.130  12.667  67.142  1.00  0.00    -0.035 C  
HETATM    2  C   UNL     1      -7.655  13.943  67.824  1.00  0.00    -0.175 C  
HETATM    3  C   UNL     1      -7.180  13.978  69.298  1.00  0.00    -0.016 C  
ENDROOT
BRANCH   2   4
HETATM    4  C   UNL     1      -7.035  15.175  67.131  1.00  0.00     0.054 C  
HETATM    5  O   UNL     1      -5.612  15.097  67.109  1.00  0.00    -0.263 OA 
HETATM    6  H   UNL     1      -5.231  15.855  66.683  1.00  0.00     0.000 HD 
ENDBRANCH   2   4
BRANCH   2   7
HETATM    7  C   UNL     1      -9.212  14.027  67.751  1.00  0.00    -0.195 C  
HETATM    8  O   UNL     1      -9.857  12.824  68.203  1.00  0.00    -0.216 OA 
HETATM    9  H   UNL     1     -10.804  12.874  68.159  1.00  0.00     0.000 HD 
BRANCH   7  10
HETATM   10  C   UNL     1      -9.840  15.207  68.526  1.00  0.00    -0.220 C  
HETATM   11  O   UNL     1      -9.939  16.352  68.094  1.00  0.00    -0.233 OA 
HETATM   12  N   UNL     1     -10.357  14.837  69.747  1.00  0.00    -0.439 N  
HETATM   13  H   UNL     1     -10.195  13.893  70.098  1.00  0.00     0.000 HD 
BRANCH  12  14
HETATM   14  C   UNL     1     -11.128  15.770  70.539  1.00  0.00    -0.365 C  
BRANCH  14  15
HETATM   15  C   UNL     1     -12.622  15.728  70.236  1.00  0.00    -0.226 C  
BRANCH  15  16
HETATM   16  C   UNL     1     -13.281  14.757  71.190  1.00  0.00    -0.393 C  
HETATM   17  O   UNL     1     -14.374  14.990  71.697  1.00  0.00    -0.482 OA 
HETATM   18  N   UNL     1     -12.565  13.602  71.406  1.00  0.00    -0.349 N  
HETATM   19  H   UNL     1     -11.690  13.490  70.895  1.00  0.00     0.000 HD 
BRANCH  18  20
HETATM   20  C   UNL     1     -12.959  12.520  72.312  1.00  0.00    -0.111 C  
BRANCH  20  21
HETATM   21  C   UNL     1     -13.329  11.176  71.676  1.00  0.00    -0.217 C  
BRANCH  21  22
HETATM   22  S   UNL     1     -12.041  10.445  70.595  1.00  0.00    -0.376 SA 
BRANCH  22  23
HETATM   23  S   UNL     1     -11.140   9.022  71.782  1.00  0.00    -0.361 SA 
BRANCH  23  24
HETATM   24  C   UNL     1      -9.506   8.868  70.989  1.00  0.00    -0.252 C  
BRANCH  24  25
HETATM   25  C   UNL     1      -9.492   9.543  69.616  1.00  0.00    -0.199 C  
BRANCH  25  26
HETATM   26  N   UNL     1      -8.606   8.921  68.635  1.00  0.00    -0.132 N  
HETATM   27  H   UNL     1      -7.705   8.567  68.956  1.00  0.00     0.000 HD 
HETATM   28  C   UNL     1      -8.922   8.787  67.299  1.00  0.00    -0.132 C  
HETATM   29  O   UNL     1      -9.950   9.225  66.794  1.00  0.00    -0.205 OA 
BRANCH  28  30
HETATM   30  C   UNL     1      -7.906   8.011  66.491  1.00  0.00    -0.097 C  
BRANCH  30  31
HETATM   31  C   UNL     1      -8.417   6.595  66.241  1.00  0.00    -0.130 C  
BRANCH  31  32
HETATM   32  N   UNL     1      -8.569   5.843  67.472  1.00  0.00    -0.103 N  
HETATM   33  H   UNL     1      -9.502   5.536  67.748  1.00  0.00     0.000 HD 
HETATM   34  C   UNL     1      -7.501   5.529  68.280  1.00  0.00    -0.073 C  
HETATM   35  O   UNL     1      -6.359   5.931  68.080  1.00  0.00    -0.037 OA 
BRANCH  34  36
HETATM   36  C   UNL     1      -7.878   4.679  69.514  1.00  0.00    -0.062 C  
HETATM   37  O   UNL     1      -7.069   3.493  69.559  1.00  0.00    -0.041 OA 
HETATM   38  H   UNL     1      -7.301   2.971  70.318  1.00  0.00     0.000 HD 
BRANCH  36  39
HETATM   39  C   UNL     1      -9.385   4.300  69.568  1.00  0.00    -0.232 C  
HETATM   40  C   UNL     1     -10.283   5.555  69.539  1.00  0.00    -0.331 C  
HETATM   41  C   UNL     1      -9.730   3.458  68.317  1.00  0.00    -0.039 C  
BRANCH  39  42
HETATM   42  C   UNL     1      -9.675   3.467  70.839  1.00  0.00    -0.143 C  
HETATM   43  O   UNL     1      -8.770   3.777  71.893  1.00  0.00    -0.092 OA 
HETATM   44  H   UNL     1      -8.948   3.265  72.674  1.00  0.00     0.000 HD 
ENDBRANCH  39  42
ENDBRANCH  36  39
ENDBRANCH  34  36
ENDBRANCH  31  32
ENDBRANCH  30  31
ENDBRANCH  28  30
ENDBRANCH  25  26
ENDBRANCH  24  25
ENDBRANCH  23  24
ENDBRANCH  22  23
ENDBRANCH  21  22
ENDBRANCH  20  21
ENDBRANCH  18  20
ENDBRANCH  15  16
ENDBRANCH  14  15
ENDBRANCH  12  14
ENDBRANCH   7  10
ENDBRANCH   2   7
TORSDOF 19
ENDMDL
MODEL      349
REMARK 921   NORMALIZED FREE ENERGY PREDICTED BY IDOCK:   -2.10 KCAL/MOL
REMARK 922        TOTAL FREE ENERGY PREDICTED BY IDOCK:   -6.62 KCAL/MOL
REMARK 923 INTER-LIGAND FREE ENERGY PREDICTED BY IDOCK:   -7.29 KCAL/MOL
REMARK 924 INTRA-LIGAND FREE ENERGY PREDICTED BY IDOCK:    0.67 KCAL/MOL
REMARK 927      BINDING AFFINITY PREDICTED BY RF-SCORE:    0.00 PKD
ROOT
HETATM    1  C   UNL     1      -7.206   7.804  72.470  1.00  0.00    -0.094 C  
HETATM    2  C   UNL     1      -8.035   7.713  71.176  1.00  0.00    -0.091 C  
HETATM    3  C   UNL     1      -8.682   9.088  70.876  1.00  0.00    -0.280 C  
ENDROOT
BRANCH   2   4
HETATM    4  C   UNL     1      -7.092   7.402  69.994  1.00  0.00    -0.065 C  
HETATM    5  O   UNL     1      -7.029   8.494  69.079  1.00  0.00    -0.061 OA 
HETATM    6  H   UNL     1      -6.449   8.303  68.352  1.00  0.00     0.000 HD 
ENDBRANCH   2   4
BRANCH   2   7
HETATM    7  C   UNL     1      -9.131   6.606  71.279  1.00  0.00    -0.151 C  
HETATM    8  O   UNL     1      -9.791   6.355  70.027  1.00  0.00    -0.166 OA 
HETATM    9  H   UNL     1     -10.457   5.681  70.090  1.00  0.00     0.000 HD 
BRANCH   7  10
HETATM   10  C   UNL     1      -8.637   5.247  71.824  1.00  0.00    -0.130 C  
HETATM   11  O   UNL     1      -8.270   5.049  72.978  1.00  0.00    -0.104 OA 
HETATM   12  N   UNL     1      -8.715   4.233  70.895  1.00  0.00    -0.086 N  
HETATM   13  H   UNL     1      -8.960   4.452  69.929  1.00  0.00     0.000 HD 
BRANCH  12  14
HETATM   14  C   UNL     1      -8.452   2.862  71.272  1.00  0.00    -0.063 C  
BRANCH  14  15
HETATM   15  C   UNL     1      -7.918   2.014  70.122  1.00  0.00    -0.052 C  
BRANCH  15  16
HETATM   16  C   UNL     1      -8.304   2.672  68.816  1.00  0.00    -0.064 C  
HETATM   17  O   UNL     1      -9.471   2.933  68.543  1.00  0.00    -0.189 OA 
HETATM   18  N   UNL     1      -7.239   2.968  67.996  1.00  0.00    -0.050 N  
HETATM   19  H   UNL     1      -6.306   2.751  68.343  1.00  0.00     0.000 HD 
BRANCH  18  20
HETATM   20  C   UNL     1      -7.340   3.569  66.663  1.00  0.00    -0.075 C  
BRANCH  20  21
HETATM   21  C   UNL     1      -8.612   3.280  65.861  1.00  0.00    -0.120 C  
BRANCH  21  22
HETATM   22  S   UNL     1      -8.382   2.192  64.402  1.00  0.00    -0.084 SA 
BRANCH  22  23
HETATM   23  S   UNL     1      -7.516   3.420  62.992  1.00  0.00    -0.055 SA 
BRANCH  23  24
HETATM   24  C   UNL     1      -8.695   4.811  62.949  1.00  0.00    -0.126 C  
BRANCH  24  25
HETATM   25  C   UNL     1      -7.963   6.152  62.852  1.00  0.00    -0.101 C  
BRANCH  25  26
HETATM   26  N   UNL     1      -8.234   7.079  63.948  1.00  0.00    -0.337 N  
HETATM   27  H   UNL     1      -8.394   6.692  64.878  1.00  0.00     0.000 HD 
HETATM   28  C   UNL     1      -8.284   8.449  63.794  1.00  0.00    -0.105 C  
HETATM   29  O   UNL     1      -8.162   9.018  62.715  1.00  0.00    -0.162 OA 
BRANCH  28  30
HETATM   30  C   UNL     1      -8.464   9.217  65.083  1.00  0.00    -0.173 C  
BRANCH  30  31
HETATM   31  C   UNL     1      -9.830   9.897  65.093  1.00  0.00    -0.278 C  
BRANCH  31  32
HETATM   32  N   UNL     1      -9.723  11.341  65.002  1.00  0.00    -0.243 N  
HETATM   33  H   UNL     1      -8.863  11.748  64.634  1.00  0.00     0.000 HD 
HETATM   34  C   UNL     1     -10.738  12.181  65.395  1.00  0.00    -0.284 C  
HETATM   35  O   UNL     1     -11.770  11.791  65.934  1.00  0.00    -0.397 OA 
BRANCH  34  36
HETATM   36  C   UNL     1     -10.437  13.679  65.165  1.00  0.00    -0.374 C  
HETATM   37  O   UNL     1      -9.271  14.065  65.911  1.00  0.00    -0.501 OA 
HETATM   38  H   UNL     1      -9.086  14.986  65.769  1.00  0.00     0.000 HD 
BRANCH  36  39
HETATM   39  C   UNL     1     -11.630  14.611  65.517  1.00  0.00    -0.335 C  
HETATM   40  C   UNL     1     -12.893  13.800  65.873  1.00  0.00    -0.369 C  
HETATM   41  C   UNL     1     -11.255  15.450  66.762  1.00  0.00    -0.197 C  
BRANCH  39  42
HETATM   42  C   UNL     1     -11.925  15.562  64.332  1.00  0.00    -0.183 C  
HETATM   43  O   UNL     1     -11.026  16.667  64.304  1.00  0.00    -1.150 OA 
HETATM   44  H   UNL     1     -11.207  17.251  63.577  1.00  0.00     0.000 HD 
ENDBRANCH  39  42
ENDBRANCH  36  39
ENDBRANCH  34  36
ENDBRANCH  31  32
ENDBRANCH  30  31
ENDBRANCH  28  30
ENDBRANCH  25  26
ENDBRANCH  24  25
ENDBRANCH  23  24
ENDBRANCH  22  23
ENDBRANCH  21  22
ENDBRANCH  20  21
ENDBRANCH  18  20
ENDBRANCH  15  16
ENDBRANCH  14  15
ENDBRANCH  12  14
ENDBRANCH   7  10
ENDBRANCH   2   7
TORSDOF 19
ENDMDL
MODEL      350
REMARK 921   NORMALIZED FREE ENERGY PREDICTED BY IDOCK:   -2.02 KCAL/MOL
REMARK 922        TOTAL FREE ENERGY PREDICTED BY IDOCK:   -6.44 KCAL/MOL
REMARK 923 INTER-LIGAND FREE ENERGY PREDICTED BY IDOCK:   -5.42 KCAL/MOL
REMARK 924 INTRA-LIGAND FREE ENERGY PREDICTED BY IDOCK:   -1.02 KCAL/MOL
REMARK 927      BINDING AFFINITY PREDICTED BY RF-SCORE:    0.00 PKD
ROOT
HETATM    1  C   UNL     1      -9.124   9.130  64.969  1.00  0.00    -0.215 C  
HETATM    2  C   UNL     1      -9.015  10.608  64.549  1.00  0.00    -0.214 C  
HETATM    3  C   UNL     1      -7.942  10.755  63.442  1.00  0.00     0.120 C  
ENDROOT
BRANCH   2   4
HETATM    4  C   UNL     1     -10.355  11.054  63.927  1.00  0.00    -0.372 C  
HETATM    5  O   UNL     1     -10.368  10.844  62.517  1.00  0.00    -0.730 OA 
HETATM    6  H   UNL     1     -11.193  11.120  62.135  1.00  0.00     0.000 HD 
ENDBRANCH   2   4
BRANCH   2   7
HETATM    7  C   UNL     1      -8.670  11.521  65.768  1.00  0.00    -0.007 C  
HETATM    8  O   UNL     1      -9.786  11.714  66.654  1.00  0.00    -0.195 OA 
HETATM    9  H   UNL     1      -9.576  12.269  67.395  1.00  0.00     0.000 HD 
BRANCH   7  10
HETATM   10  C   UNL     1      -7.476  11.043  66.624  1.00  0.00    -0.146 C  
HETATM   11  O   UNL     1      -7.393  11.173  67.842  1.00  0.00    -0.087 OA 
HETATM   12  N   UNL     1      -6.520  10.376  65.891  1.00  0.00    -0.114 N  
HETATM   13  H   UNL     1      -6.592  10.348  64.874  1.00  0.00     0.000 HD 
BRANCH  12  14
HETATM   14  C   UNL     1      -5.413   9.715  66.546  1.00  0.00    -0.045 C  
BRANCH  14  15
HETATM   15  C   UNL     1      -5.714   8.269  66.925  1.00  0.00    -0.041 C  
BRANCH  15  16
HETATM   16  C   UNL     1      -5.431   8.087  68.400  1.00  0.00    -0.032 C  
HETATM   17  O   UNL     1      -5.239   6.979  68.890  1.00  0.00    -0.013 OA 
HETATM   18  N   UNL     1      -5.383   9.261  69.116  1.00  0.00    -0.036 N  
HETATM   19  H   UNL     1      -5.509  10.131  68.599  1.00  0.00     0.000 HD 
BRANCH  18  20
HETATM   20  C   UNL     1      -5.166   9.363  70.561  1.00  0.00    -0.031 C  
BRANCH  20  21
HETATM   21  C   UNL     1      -6.282   8.847  71.473  1.00  0.00    -0.069 C  
BRANCH  21  22
HETATM   22  S   UNL     1      -5.787   7.517  72.635  1.00  0.00    -0.040 SA 
BRANCH  22  23
HETATM   23  S   UNL     1      -6.725   5.836  71.900  1.00  0.00    -0.061 SA 
BRANCH  23  24
HETATM   24  C   UNL     1      -8.451   6.409  71.770  1.00  0.00    -0.124 C  
BRANCH  24  25
HETATM   25  C   UNL     1      -8.632   7.350  70.576  1.00  0.00    -0.139 C  
BRANCH  25  26
HETATM   26  N   UNL     1      -9.476   6.826  69.505  1.00  0.00    -0.149 N  
HETATM   27  H   UNL     1      -9.026   6.314  68.745  1.00  0.00     0.000 HD 
HETATM   28  C   UNL     1     -10.845   6.984  69.465  1.00  0.00    -0.238 C  
HETATM   29  O   UNL     1     -11.481   7.627  70.293  1.00  0.00    -0.237 OA 
BRANCH  28  30
HETATM   30  C   UNL     1     -11.526   6.262  68.324  1.00  0.00     0.192 C  
BRANCH  30  31
HETATM   31  C   UNL     1     -10.835   6.607  67.008  1.00  0.00    -0.397 C  
BRANCH  31  32
HETATM   32  N   UNL     1     -10.698   5.450  66.143  1.00  0.00    -0.633 N  
HETATM   33  H   UNL     1     -11.332   5.351  65.351  1.00  0.00     0.000 HD 
HETATM   34  C   UNL     1      -9.745   4.482  66.354  1.00  0.00    -0.208 C  
HETATM   35  O   UNL     1      -8.999   4.466  67.329  1.00  0.00    -0.112 OA 
BRANCH  34  36
HETATM   36  C   UNL     1      -9.739   3.365  65.287  1.00  0.00    -0.075 C  
HETATM   37  O   UNL     1      -9.441   2.101  65.900  1.00  0.00    -0.346 OA 
HETATM   38  H   UNL     1      -9.438   1.414  65.244  1.00  0.00     0.000 HD 
BRANCH  36  39
HETATM   39  C   UNL     1      -8.755   3.635  64.114  1.00  0.00    -0.101 C  
HETATM   40  C   UNL     1      -7.479   4.351  64.602  1.00  0.00    -0.072 C  
HETATM   41  C   UNL     1      -8.320   2.280  63.508  1.00  0.00    -0.081 C  
BRANCH  39  42
HETATM   42  C   UNL     1      -9.455   4.480  63.022  1.00  0.00    -0.034 C  
HETATM   43  O   UNL     1      -8.891   5.784  62.920  1.00  0.00    -0.341 OA 
HETATM   44  H   UNL     1      -9.320   6.303  62.249  1.00  0.00     0.000 HD 
ENDBRANCH  39  42
ENDBRANCH  36  39
ENDBRANCH  34  36
ENDBRANCH  31  32
ENDBRANCH  30  31
ENDBRANCH  28  30
ENDBRANCH  25  26
ENDBRANCH  24  25
ENDBRANCH  23  24
ENDBRANCH  22  23
ENDBRANCH  21  22
ENDBRANCH  20  21
ENDBRANCH  18  20
ENDBRANCH  15  16
ENDBRANCH  14  15
ENDBRANCH  12  14
ENDBRANCH   7  10
ENDBRANCH   2   7
TORSDOF 19
ENDMDL
MODEL      351
REMARK 921   NORMALIZED FREE ENERGY PREDICTED BY IDOCK:   -2.01 KCAL/MOL
REMARK 922        TOTAL FREE ENERGY PREDICTED BY IDOCK:   -6.42 KCAL/MOL
REMARK 923 INTER-LIGAND FREE ENERGY PREDICTED BY IDOCK:   -6.70 KCAL/MOL
REMARK 924 INTRA-LIGAND FREE ENERGY PREDICTED BY IDOCK:    0.28 KCAL/MOL
REMARK 927      BINDING AFFINITY PREDICTED BY RF-SCORE:    0.00 PKD
ROOT
HETATM    1  C   UNL     1      -7.475   5.454  74.365  1.00  0.00    -0.085 C  
HETATM    2  C   UNL     1      -8.434   4.900  73.296  1.00  0.00    -0.103 C  
HETATM    3  C   UNL     1      -9.852   5.482  73.519  1.00  0.00    -0.173 C  
ENDROOT
BRANCH   2   4
HETATM    4  C   UNL     1      -7.972   5.385  71.905  1.00  0.00    -0.113 C  
HETATM    5  O   UNL     1      -9.079   5.581  71.029  1.00  0.00    -0.141 OA 
HETATM    6  H   UNL     1      -8.794   5.879  70.173  1.00  0.00     0.000 HD 
ENDBRANCH   2   4
BRANCH   2   7
HETATM    7  C   UNL     1      -8.475   3.340  73.322  1.00  0.00    -0.078 C  
HETATM    8  O   UNL     1      -9.202   2.820  74.448  1.00  0.00    -0.080 OA 
HETATM    9  H   UNL     1      -9.228   1.871  74.464  1.00  0.00     0.000 HD 
BRANCH   7  10
HETATM   10  C   UNL     1      -9.056   2.681  72.051  1.00  0.00    -0.088 C  
HETATM   11  O   UNL     1     -10.225   2.331  71.918  1.00  0.00    -0.157 OA 
HETATM   12  N   UNL     1      -8.140   2.583  71.028  1.00  0.00    -0.049 N  
HETATM   13  H   UNL     1      -7.164   2.822  71.200  1.00  0.00     0.000 HD 
BRANCH  12  14
HETATM   14  C   UNL     1      -8.545   2.144  69.710  1.00  0.00    -0.052 C  
BRANCH  14  15
HETATM   15  C   UNL     1      -7.423   1.470  68.929  1.00  0.00    -0.042 C  
BRANCH  15  16
HETATM   16  C   UNL     1      -7.023   2.372  67.782  1.00  0.00    -0.047 C  
HETATM   17  O   UNL     1      -6.098   2.088  67.028  1.00  0.00    -0.019 OA 
HETATM   18  N   UNL     1      -7.798   3.502  67.654  1.00  0.00    -0.077 N  
HETATM   19  H   UNL     1      -8.572   3.615  68.307  1.00  0.00     0.000 HD 
BRANCH  18  20
HETATM   20  C   UNL     1      -7.599   4.555  66.656  1.00  0.00    -0.086 C  
BRANCH  20  21
HETATM   21  C   UNL     1      -6.259   5.295  66.678  1.00  0.00    -0.035 C  
BRANCH  21  22
HETATM   22  S   UNL     1      -6.314   6.984  67.391  1.00  0.00    -0.043 SA 
BRANCH  22  23
HETATM   23  S   UNL     1      -7.071   8.146  65.867  1.00  0.00    -0.065 SA 
BRANCH  23  24
HETATM   24  C   UNL     1      -7.770   9.552  66.794  1.00  0.00    -0.098 C  
BRANCH  24  25
HETATM   25  C   UNL     1      -7.557  10.869  66.044  1.00  0.00    -0.094 C  
BRANCH  25  26
HETATM   26  N   UNL     1      -8.784  11.572  65.678  1.00  0.00    -0.396 N  
HETATM   27  H   UNL     1      -8.759  12.591  65.629  1.00  0.00     0.000 HD 
HETATM   28  C   UNL     1      -9.974  10.935  65.396  1.00  0.00    -0.263 C  
HETATM   29  O   UNL     1     -10.133   9.722  65.478  1.00  0.00    -0.301 OA 
BRANCH  28  30
HETATM   30  C   UNL     1     -11.081  11.853  64.930  1.00  0.00    -0.363 C  
BRANCH  30  31
HETATM   31  C   UNL     1     -10.495  12.989  64.097  1.00  0.00    -0.372 C  
BRANCH  31  32
HETATM   32  N   UNL     1     -10.100  14.120  64.916  1.00  0.00    -0.575 N  
HETATM   33  H   UNL     1      -9.125  14.419  64.903  1.00  0.00     0.000 HD 
HETATM   34  C   UNL     1     -10.993  14.802  65.709  1.00  0.00    -0.334 C  
HETATM   35  O   UNL     1     -12.162  14.462  65.861  1.00  0.00    -0.392 OA 
BRANCH  34  36
HETATM   36  C   UNL     1     -10.374  16.004  66.457  1.00  0.00    -0.299 C  
HETATM   37  O   UNL     1      -9.194  16.454  65.773  1.00  0.00    -0.464 OA 
HETATM   38  H   UNL     1      -8.813  17.192  66.234  1.00  0.00     0.000 HD 
BRANCH  36  39
HETATM   39  C   UNL     1     -10.047  15.703  67.947  1.00  0.00    -0.225 C  
HETATM   40  C   UNL     1      -8.920  16.616  68.473  1.00  0.00    -0.235 C  
HETATM   41  C   UNL     1     -11.305  15.987  68.800  1.00  0.00    -0.380 C  
BRANCH  39  42
HETATM   42  C   UNL     1      -9.646  14.217  68.110  1.00  0.00    -0.218 C  
HETATM   43  O   UNL     1      -8.338  13.963  67.607  1.00  0.00    -0.155 OA 
HETATM   44  H   UNL     1      -8.092  13.051  67.707  1.00  0.00     0.000 HD 
ENDBRANCH  39  42
ENDBRANCH  36  39
ENDBRANCH  34  36
ENDBRANCH  31  32
ENDBRANCH  30  31
ENDBRANCH  28  30
ENDBRANCH  25  26
ENDBRANCH  24  25
ENDBRANCH  23  24
ENDBRANCH  22  23
ENDBRANCH  21  22
ENDBRANCH  20  21
ENDBRANCH  18  20
ENDBRANCH  15  16
ENDBRANCH  14  15
ENDBRANCH  12  14
ENDBRANCH   7  10
ENDBRANCH   2   7
TORSDOF 19
ENDMDL
MODEL      352
REMARK 921   NORMALIZED FREE ENERGY PREDICTED BY IDOCK:   -2.00 KCAL/MOL
REMARK 922        TOTAL FREE ENERGY PREDICTED BY IDOCK:   -6.39 KCAL/MOL
REMARK 923 INTER-LIGAND FREE ENERGY PREDICTED BY IDOCK:   -6.65 KCAL/MOL
REMARK 924 INTRA-LIGAND FREE ENERGY PREDICTED BY IDOCK:    0.26 KCAL/MOL
REMARK 927      BINDING AFFINITY PREDICTED BY RF-SCORE:    0.00 PKD
ROOT
HETATM    1  C   UNL     1      -7.542  12.788  69.160  1.00  0.00     0.258 C  
HETATM    2  C   UNL     1      -7.266  14.300  69.058  1.00  0.00    -0.118 C  
HETATM    3  C   UNL     1      -8.584  15.084  69.274  1.00  0.00    -0.167 C  
ENDROOT
BRANCH   2   4
HETATM    4  C   UNL     1      -6.313  14.715  70.199  1.00  0.00    -0.173 C  
HETATM    5  O   UNL     1      -6.192  16.133  70.283  1.00  0.00    -0.114 OA 
HETATM    6  H   UNL     1      -5.605  16.388  70.985  1.00  0.00     0.000 HD 
ENDBRANCH   2   4
BRANCH   2   7
HETATM    7  C   UNL     1      -6.631  14.670  67.681  1.00  0.00    -0.155 C  
HETATM    8  O   UNL     1      -6.414  13.524  66.840  1.00  0.00    -0.323 OA 
HETATM    9  H   UNL     1      -6.028  13.750  66.002  1.00  0.00     0.000 HD 
BRANCH   7  10
HETATM   10  C   UNL     1      -7.424  15.707  66.854  1.00  0.00    -0.134 C  
HETATM   11  O   UNL     1      -8.298  15.430  66.038  1.00  0.00     0.095 OA 
HETATM   12  N   UNL     1      -7.107  17.009  67.174  1.00  0.00    -0.160 N  
HETATM   13  H   UNL     1      -6.329  17.197  67.807  1.00  0.00     0.000 HD 
BRANCH  12  14
HETATM   14  C   UNL     1      -7.862  18.112  66.624  1.00  0.00    -0.242 C  
BRANCH  14  15
HETATM   15  C   UNL     1      -9.076  18.490  67.465  1.00  0.00    -0.289 C  
BRANCH  15  16
HETATM   16  C   UNL     1     -10.240  17.616  67.055  1.00  0.00    -0.332 C  
HETATM   17  O   UNL     1     -11.049  17.190  67.873  1.00  0.00    -0.288 OA 
HETATM   18  N   UNL     1     -10.316  17.374  65.702  1.00  0.00    -0.229 N  
HETATM   19  H   UNL     1      -9.618  17.818  65.107  1.00  0.00     0.000 HD 
BRANCH  18  20
HETATM   20  C   UNL     1     -11.320  16.530  65.049  1.00  0.00     0.038 C  
BRANCH  20  21
HETATM   21  C   UNL     1     -11.583  15.153  65.665  1.00  0.00    -0.118 C  
BRANCH  21  22
HETATM   22  S   UNL     1     -10.769  13.749  64.811  1.00  0.00    -0.422 SA 
BRANCH  22  23
HETATM   23  S   UNL     1     -10.079  12.561  66.347  1.00  0.00    -0.247 SA 
BRANCH  23  24
HETATM   24  C   UNL     1     -11.640  12.035  67.129  1.00  0.00    -0.316 C  
BRANCH  24  25
HETATM   25  C   UNL     1     -11.654  12.378  68.620  1.00  0.00    -0.319 C  
BRANCH  25  26
HETATM   26  N   UNL     1     -11.575  11.227  69.516  1.00  0.00    -0.297 N  
HETATM   27  H   UNL     1     -11.846  11.356  70.491  1.00  0.00     0.000 HD 
HETATM   28  C   UNL     1     -11.154   9.976  69.116  1.00  0.00    -0.190 C  
HETATM   29  O   UNL     1     -10.753   9.721  67.985  1.00  0.00    -0.237 OA 
BRANCH  28  30
HETATM   30  C   UNL     1     -11.261   8.909  70.181  1.00  0.00    -0.175 C  
BRANCH  30  31
HETATM   31  C   UNL     1     -11.234   9.553  71.564  1.00  0.00    -0.367 C  
BRANCH  31  32
HETATM   32  N   UNL     1     -10.590   8.706  72.550  1.00  0.00    -0.240 N  
HETATM   33  H   UNL     1     -11.149   8.335  73.318  1.00  0.00     0.000 HD 
HETATM   34  C   UNL     1      -9.254   8.386  72.486  1.00  0.00    -0.268 C  
HETATM   35  O   UNL     1      -8.484   8.856  71.654  1.00  0.00    -0.282 OA 
BRANCH  34  36
HETATM   36  C   UNL     1      -8.785   7.430  73.605  1.00  0.00    -0.185 C  
HETATM   37  O   UNL     1      -7.875   8.112  74.483  1.00  0.00    -0.219 OA 
HETATM   38  H   UNL     1      -7.586   7.524  75.171  1.00  0.00     0.000 HD 
BRANCH  36  39
HETATM   39  C   UNL     1      -8.135   6.124  73.071  1.00  0.00    -0.112 C  
HETATM   40  C   UNL     1      -8.561   4.899  73.907  1.00  0.00    -0.103 C  
HETATM   41  C   UNL     1      -8.620   5.884  71.622  1.00  0.00    -0.132 C  
BRANCH  39  42
HETATM   42  C   UNL     1      -6.593   6.260  73.075  1.00  0.00    -0.069 C  
HETATM   43  O   UNL     1      -5.953   5.040  72.718  1.00  0.00    -0.023 OA 
HETATM   44  H   UNL     1      -5.006   5.124  72.721  1.00  0.00     0.000 HD 
ENDBRANCH  39  42
ENDBRANCH  36  39
ENDBRANCH  34  36
ENDBRANCH  31  32
ENDBRANCH  30  31
ENDBRANCH  28  30
ENDBRANCH  25  26
ENDBRANCH  24  25
ENDBRANCH  23  24
ENDBRANCH  22  23
ENDBRANCH  21  22
ENDBRANCH  20  21
ENDBRANCH  18  20
ENDBRANCH  15  16
ENDBRANCH  14  15
ENDBRANCH  12  14
ENDBRANCH   7  10
ENDBRANCH   2   7
TORSDOF 19
ENDMDL
MODEL      353
REMARK 921   NORMALIZED FREE ENERGY PREDICTED BY IDOCK:   -1.99 KCAL/MOL
REMARK 922        TOTAL FREE ENERGY PREDICTED BY IDOCK:   -6.39 KCAL/MOL
REMARK 923 INTER-LIGAND FREE ENERGY PREDICTED BY IDOCK:   -4.58 KCAL/MOL
REMARK 924 INTRA-LIGAND FREE ENERGY PREDICTED BY IDOCK:   -1.81 KCAL/MOL
REMARK 927      BINDING AFFINITY PREDICTED BY RF-SCORE:    0.00 PKD
ROOT
HETATM    1  C   UNL     1      -7.913   7.187  70.250  1.00  0.00    -0.116 C  
HETATM    2  C   UNL     1      -7.115   7.653  71.483  1.00  0.00    -0.062 C  
HETATM    3  C   UNL     1      -7.766   7.082  72.767  1.00  0.00    -0.092 C  
ENDROOT
BRANCH   2   4
HETATM    4  C   UNL     1      -5.690   7.065  71.411  1.00  0.00    -0.036 C  
HETATM    5  O   UNL     1      -5.226   6.670  72.700  1.00  0.00    -0.035 OA 
HETATM    6  H   UNL     1      -4.349   6.309  72.656  1.00  0.00     0.000 HD 
ENDBRANCH   2   4
BRANCH   2   7
HETATM    7  C   UNL     1      -7.040   9.210  71.555  1.00  0.00     0.046 C  
HETATM    8  O   UNL     1      -5.988   9.678  72.417  1.00  0.00    -0.292 OA 
HETATM    9  H   UNL     1      -5.942  10.625  72.461  1.00  0.00     0.000 HD 
BRANCH   7  10
HETATM   10  C   UNL     1      -6.873   9.920  70.193  1.00  0.00    -0.125 C  
HETATM   11  O   UNL     1      -5.838   9.933  69.535  1.00  0.00    -0.037 OA 
HETATM   12  N   UNL     1      -8.040  10.490  69.736  1.00  0.00    -0.374 N  
HETATM   13  H   UNL     1      -8.860  10.516  70.342  1.00  0.00     0.000 HD 
BRANCH  12  14
HETATM   14  C   UNL     1      -8.118  11.054  68.407  1.00  0.00    -0.134 C  
BRANCH  14  15
HETATM   15  C   UNL     1      -8.589  12.504  68.394  1.00  0.00    -0.123 C  
BRANCH  15  16
HETATM   16  C   UNL     1     -10.084  12.525  68.166  1.00  0.00    -0.225 C  
HETATM   17  O   UNL     1     -10.838  11.751  68.748  1.00  0.00    -0.211 OA 
HETATM   18  N   UNL     1     -10.509  13.492  67.285  1.00  0.00    -0.248 N  
HETATM   19  H   UNL     1      -9.801  14.114  66.895  1.00  0.00     0.000 HD 
BRANCH  18  20
HETATM   20  C   UNL     1     -11.896  13.700  66.861  1.00  0.00    -0.411 C  
BRANCH  20  21
HETATM   21  C   UNL     1     -12.211  13.493  65.376  1.00  0.00    -0.447 C  
BRANCH  21  22
HETATM   22  S   UNL     1     -11.916  11.797  64.746  1.00  0.00     0.083 SA 
BRANCH  22  23
HETATM   23  S   UNL     1      -9.899  11.763  64.325  1.00  0.00    -0.169 SA 
BRANCH  23  24
HETATM   24  C   UNL     1      -9.341  10.346  65.327  1.00  0.00    -0.214 C  
BRANCH  24  25
HETATM   25  C   UNL     1     -10.530   9.537  65.849  1.00  0.00     0.193 C  
BRANCH  25  26
HETATM   26  N   UNL     1     -10.315   8.897  67.145  1.00  0.00    -0.271 N  
HETATM   27  H   UNL     1      -9.873   9.443  67.884  1.00  0.00     0.000 HD 
HETATM   28  C   UNL     1     -10.678   7.596  67.423  1.00  0.00    -0.248 C  
HETATM   29  O   UNL     1     -11.164   6.832  66.596  1.00  0.00    -0.205 OA 
BRANCH  28  30
HETATM   30  C   UNL     1     -10.465   7.180  68.860  1.00  0.00    -0.218 C  
BRANCH  30  31
HETATM   31  C   UNL     1     -11.243   5.900  69.150  1.00  0.00    -0.147 C  
BRANCH  31  32
HETATM   32  N   UNL     1     -10.455   4.710  68.888  1.00  0.00     0.181 N  
HETATM   33  H   UNL     1     -10.383   4.370  67.929  1.00  0.00     0.000 HD 
HETATM   34  C   UNL     1      -9.804   4.024  69.886  1.00  0.00    -0.115 C  
HETATM   35  O   UNL     1      -9.906   4.301  71.077  1.00  0.00    -0.178 OA 
BRANCH  34  36
HETATM   36  C   UNL     1      -8.982   2.817  69.382  1.00  0.00    -0.110 C  
HETATM   37  O   UNL     1      -9.715   1.600  69.595  1.00  0.00    -0.038 OA 
HETATM   38  H   UNL     1      -9.209   0.858  69.285  1.00  0.00     0.000 HD 
BRANCH  36  39
HETATM   39  C   UNL     1      -7.574   2.713  70.033  1.00  0.00    -0.043 C  
HETATM   40  C   UNL     1      -6.699   1.662  69.319  1.00  0.00    -0.029 C  
HETATM   41  C   UNL     1      -6.860   4.078  69.893  1.00  0.00    -0.041 C  
BRANCH  39  42
HETATM   42  C   UNL     1      -7.710   2.361  71.534  1.00  0.00    -0.041 C  
HETATM   43  O   UNL     1      -7.456   3.487  72.367  1.00  0.00    -0.051 OA 
HETATM   44  H   UNL     1      -7.539   3.271  73.288  1.00  0.00     0.000 HD 
ENDBRANCH  39  42
ENDBRANCH  36  39
ENDBRANCH  34  36
ENDBRANCH  31  32
ENDBRANCH  30  31
ENDBRANCH  28  30
ENDBRANCH  25  26
ENDBRANCH  24  25
ENDBRANCH  23  24
ENDBRANCH  22  23
ENDBRANCH  21  22
ENDBRANCH  20  21
ENDBRANCH  18  20
ENDBRANCH  15  16
ENDBRANCH  14  15
ENDBRANCH  12  14
ENDBRANCH   7  10
ENDBRANCH   2   7
TORSDOF 19
ENDMDL
MODEL      354
REMARK 921   NORMALIZED FREE ENERGY PREDICTED BY IDOCK:   -1.96 KCAL/MOL
REMARK 922        TOTAL FREE ENERGY PREDICTED BY IDOCK:   -6.32 KCAL/MOL
REMARK 923 INTER-LIGAND FREE ENERGY PREDICTED BY IDOCK:   -4.44 KCAL/MOL
REMARK 924 INTRA-LIGAND FREE ENERGY PREDICTED BY IDOCK:   -1.88 KCAL/MOL
REMARK 927      BINDING AFFINITY PREDICTED BY RF-SCORE:    0.00 PKD
ROOT
HETATM    1  C   UNL     1      -9.838   3.487  70.775  1.00  0.00    -0.114 C  
HETATM    2  C   UNL     1      -8.348   3.781  70.518  1.00  0.00    -0.084 C  
HETATM    3  C   UNL     1      -8.176   5.266  70.112  1.00  0.00    -0.091 C  
ENDROOT
BRANCH   2   4
HETATM    4  C   UNL     1      -7.563   3.589  71.832  1.00  0.00    -0.057 C  
HETATM    5  O   UNL     1      -8.405   3.100  72.873  1.00  0.00    -0.077 OA 
HETATM    6  H   UNL     1      -7.922   2.981  73.682  1.00  0.00     0.000 HD 
ENDBRANCH   2   4
BRANCH   2   7
HETATM    7  C   UNL     1      -7.766   2.843  69.414  1.00  0.00    -0.043 C  
HETATM    8  O   UNL     1      -8.695   1.827  68.998  1.00  0.00    -0.056 OA 
HETATM    9  H   UNL     1      -8.341   1.257  68.327  1.00  0.00     0.000 HD 
BRANCH   7  10
HETATM   10  C   UNL     1      -7.267   3.564  68.142  1.00  0.00    -0.051 C  
HETATM   11  O   UNL     1      -6.222   4.204  68.065  1.00  0.00    -0.033 OA 
HETATM   12  N   UNL     1      -8.083   3.360  67.051  1.00  0.00    -0.083 N  
HETATM   13  H   UNL     1      -8.975   2.880  67.172  1.00  0.00     0.000 HD 
BRANCH  12  14
HETATM   14  C   UNL     1      -7.692   3.819  65.737  1.00  0.00    -0.089 C  
BRANCH  14  15
HETATM   15  C   UNL     1      -8.548   4.971  65.221  1.00  0.00    -0.145 C  
BRANCH  15  16
HETATM   16  C   UNL     1      -9.522   5.372  66.305  1.00  0.00    -0.157 C  
HETATM   17  O   UNL     1     -10.514   4.697  66.566  1.00  0.00    -0.250 OA 
HETATM   18  N   UNL     1      -9.182   6.525  66.974  1.00  0.00    -0.130 N  
HETATM   19  H   UNL     1      -8.309   6.980  66.708  1.00  0.00     0.000 HD 
BRANCH  18  20
HETATM   20  C   UNL     1      -9.971   7.151  68.038  1.00  0.00    -0.158 C  
BRANCH  20  21
HETATM   21  C   UNL     1     -10.583   8.523  67.739  1.00  0.00    -0.175 C  
BRANCH  21  22
HETATM   22  S   UNL     1     -10.020   9.882  68.834  1.00  0.00    -0.192 SA 
BRANCH  22  23
HETATM   23  S   UNL     1     -10.677  11.591  67.889  1.00  0.00    -0.214 SA 
BRANCH  23  24
HETATM   24  C   UNL     1     -10.350  11.189  66.141  1.00  0.00    -0.250 C  
BRANCH  24  25
HETATM   25  C   UNL     1      -8.852  11.016  65.885  1.00  0.00    -0.195 C  
BRANCH  25  26
HETATM   26  N   UNL     1      -7.985  11.808  66.754  1.00  0.00    -0.270 N  
HETATM   27  H   UNL     1      -8.323  12.716  67.073  1.00  0.00     0.000 HD 
HETATM   28  C   UNL     1      -6.736  11.395  67.167  1.00  0.00    -0.121 C  
HETATM   29  O   UNL     1      -6.207  10.350  66.802  1.00  0.00    -0.063 OA 
BRANCH  28  30
HETATM   30  C   UNL     1      -6.064  12.323  68.154  1.00  0.00    -0.058 C  
BRANCH  30  31
HETATM   31  C   UNL     1      -6.486  11.961  69.575  1.00  0.00    -0.113 C  
BRANCH  31  32
HETATM   32  N   UNL     1      -6.152  10.590  69.912  1.00  0.00    -0.066 N  
HETATM   33  H   UNL     1      -6.339   9.856  69.228  1.00  0.00     0.000 HD 
HETATM   34  C   UNL     1      -5.593  10.244  71.120  1.00  0.00    -0.062 C  
HETATM   35  O   UNL     1      -5.417  11.040  72.038  1.00  0.00    -0.319 OA 
BRANCH  34  36
HETATM   36  C   UNL     1      -5.269   8.739  71.252  1.00  0.00    -0.033 C  
HETATM   37  O   UNL     1      -5.663   8.045  70.058  1.00  0.00    -0.023 OA 
HETATM   38  H   UNL     1      -5.465   7.120  70.140  1.00  0.00     0.000 HD 
BRANCH  36  39
HETATM   39  C   UNL     1      -5.921   8.074  72.497  1.00  0.00    -0.046 C  
HETATM   40  C   UNL     1      -7.450   8.279  72.510  1.00  0.00    -0.152 C  
HETATM   41  C   UNL     1      -5.662   6.550  72.439  1.00  0.00    -0.038 C  
BRANCH  39  42
HETATM   42  C   UNL     1      -5.296   8.648  73.791  1.00  0.00    -0.086 C  
HETATM   43  O   UNL     1      -6.220   9.454  74.513  1.00  0.00    -0.347 OA 
HETATM   44  H   UNL     1      -5.837   9.807  75.307  1.00  0.00     0.000 HD 
ENDBRANCH  39  42
ENDBRANCH  36  39
ENDBRANCH  34  36
ENDBRANCH  31  32
ENDBRANCH  30  31
ENDBRANCH  28  30
ENDBRANCH  25  26
ENDBRANCH  24  25
ENDBRANCH  23  24
ENDBRANCH  22  23
ENDBRANCH  21  22
ENDBRANCH  20  21
ENDBRANCH  18  20
ENDBRANCH  15  16
ENDBRANCH  14  15
ENDBRANCH  12  14
ENDBRANCH   7  10
ENDBRANCH   2   7
TORSDOF 19
ENDMDL
MODEL      355
REMARK 921   NORMALIZED FREE ENERGY PREDICTED BY IDOCK:   -1.92 KCAL/MOL
REMARK 922        TOTAL FREE ENERGY PREDICTED BY IDOCK:   -6.23 KCAL/MOL
REMARK 923 INTER-LIGAND FREE ENERGY PREDICTED BY IDOCK:   -5.50 KCAL/MOL
REMARK 924 INTRA-LIGAND FREE ENERGY PREDICTED BY IDOCK:   -0.73 KCAL/MOL
REMARK 927      BINDING AFFINITY PREDICTED BY RF-SCORE:    0.00 PKD
ROOT
HETATM    1  C   UNL     1      -6.621   8.873  72.926  1.00  0.00     0.109 C  
HETATM    2  C   UNL     1      -7.046   8.443  71.510  1.00  0.00    -0.087 C  
HETATM    3  C   UNL     1      -7.629   9.660  70.750  1.00  0.00    -0.031 C  
ENDROOT
BRANCH   2   4
HETATM    4  C   UNL     1      -5.796   7.990  70.725  1.00  0.00    -0.033 C  
HETATM    5  O   UNL     1      -6.023   8.033  69.319  1.00  0.00    -0.033 OA 
HETATM    6  H   UNL     1      -5.253   7.754  68.836  1.00  0.00     0.000 HD 
ENDBRANCH   2   4
BRANCH   2   7
HETATM    7  C   UNL     1      -8.086   7.280  71.557  1.00  0.00    -0.101 C  
HETATM    8  O   UNL     1      -7.635   6.098  70.874  1.00  0.00    -0.092 OA 
HETATM    9  H   UNL     1      -8.268   5.391  70.903  1.00  0.00     0.000 HD 
BRANCH   7  10
HETATM   10  C   UNL     1      -8.527   6.856  72.976  1.00  0.00    -0.114 C  
HETATM   11  O   UNL     1      -9.208   7.543  73.731  1.00  0.00    -0.236 OA 
HETATM   12  N   UNL     1      -8.138   5.575  73.301  1.00  0.00    -0.114 N  
HETATM   13  H   UNL     1      -7.517   5.062  72.675  1.00  0.00     0.000 HD 
BRANCH  12  14
HETATM   14  C   UNL     1      -8.600   4.947  74.519  1.00  0.00    -0.109 C  
BRANCH  14  15
HETATM   15  C   UNL     1      -9.870   4.124  74.329  1.00  0.00    -0.166 C  
BRANCH  15  16
HETATM   16  C   UNL     1      -9.936   3.665  72.890  1.00  0.00    -0.148 C  
HETATM   17  O   UNL     1     -10.411   4.371  72.006  1.00  0.00    -0.155 OA 
HETATM   18  N   UNL     1      -9.400   2.417  72.669  1.00  0.00    -0.082 N  
HETATM   19  H   UNL     1      -8.987   1.936  73.467  1.00  0.00     0.000 HD 
BRANCH  18  20
HETATM   20  C   UNL     1      -9.373   1.724  71.378  1.00  0.00    -0.110 C  
BRANCH  20  21
HETATM   21  C   UNL     1      -8.000   1.474  70.748  1.00  0.00    -0.038 C  
BRANCH  21  22
HETATM   22  S   UNL     1      -7.016   2.982  70.399  1.00  0.00    -0.034 SA 
BRANCH  22  23
HETATM   23  S   UNL     1      -7.168   3.216  68.357  1.00  0.00    -0.050 SA 
BRANCH  23  24
HETATM   24  C   UNL     1      -8.912   2.770  68.068  1.00  0.00    -0.156 C  
BRANCH  24  25
HETATM   25  C   UNL     1      -9.704   3.962  67.526  1.00  0.00    -0.112 C  
BRANCH  25  26
HETATM   26  N   UNL     1      -9.675   5.154  68.371  1.00  0.00    -0.139 N  
HETATM   27  H   UNL     1      -9.156   5.109  69.248  1.00  0.00     0.000 HD 
HETATM   28  C   UNL     1     -10.309   6.335  68.047  1.00  0.00    -0.192 C  
HETATM   29  O   UNL     1     -11.005   6.483  67.048  1.00  0.00    -0.368 OA 
BRANCH  28  30
HETATM   30  C   UNL     1     -10.050   7.470  69.011  1.00  0.00    -0.192 C  
BRANCH  30  31
HETATM   31  C   UNL     1     -11.142   8.525  68.873  1.00  0.00     0.277 C  
BRANCH  31  32
HETATM   32  N   UNL     1     -10.770   9.582  67.951  1.00  0.00    -0.373 N  
HETATM   33  H   UNL     1     -10.074   9.384  67.233  1.00  0.00     0.000 HD 
HETATM   34  C   UNL     1     -11.322  10.840  68.011  1.00  0.00    -0.307 C  
HETATM   35  O   UNL     1     -12.096  11.199  68.894  1.00  0.00    -0.475 OA 
BRANCH  34  36
HETATM   36  C   UNL     1     -10.823  11.796  66.905  1.00  0.00    -0.271 C  
HETATM   37  O   UNL     1      -9.392  11.910  66.963  1.00  0.00    -0.179 OA 
HETATM   38  H   UNL     1      -9.086  12.498  66.282  1.00  0.00     0.000 HD 
BRANCH  36  39
HETATM   39  C   UNL     1     -11.474  13.206  66.967  1.00  0.00    -0.379 C  
HETATM   40  C   UNL     1     -12.712  13.296  66.050  1.00  0.00    -0.135 C  
HETATM   41  C   UNL     1     -11.953  13.470  68.414  1.00  0.00    -0.378 C  
BRANCH  39  42
HETATM   42  C   UNL     1     -10.438  14.285  66.569  1.00  0.00    -0.287 C  
HETATM   43  O   UNL     1      -9.581  14.621  67.656  1.00  0.00    -0.209 OA 
HETATM   44  H   UNL     1      -8.945  15.284  67.412  1.00  0.00     0.000 HD 
ENDBRANCH  39  42
ENDBRANCH  36  39
ENDBRANCH  34  36
ENDBRANCH  31  32
ENDBRANCH  30  31
ENDBRANCH  28  30
ENDBRANCH  25  26
ENDBRANCH  24  25
ENDBRANCH  23  24
ENDBRANCH  22  23
ENDBRANCH  21  22
ENDBRANCH  20  21
ENDBRANCH  18  20
ENDBRANCH  15  16
ENDBRANCH  14  15
ENDBRANCH  12  14
ENDBRANCH   7  10
ENDBRANCH   2   7
TORSDOF 19
ENDMDL
MODEL      356
REMARK 921   NORMALIZED FREE ENERGY PREDICTED BY IDOCK:   -1.90 KCAL/MOL
REMARK 922        TOTAL FREE ENERGY PREDICTED BY IDOCK:   -6.19 KCAL/MOL
REMARK 923 INTER-LIGAND FREE ENERGY PREDICTED BY IDOCK:   -7.10 KCAL/MOL
REMARK 924 INTRA-LIGAND FREE ENERGY PREDICTED BY IDOCK:    0.90 KCAL/MOL
REMARK 927      BINDING AFFINITY PREDICTED BY RF-SCORE:    0.00 PKD
ROOT
HETATM    1  C   UNL     1      -8.452   3.225  69.772  1.00  0.00    -0.095 C  
HETATM    2  C   UNL     1      -8.460   3.514  68.260  1.00  0.00    -0.106 C  
HETATM    3  C   UNL     1      -9.556   4.560  67.937  1.00  0.00    -0.208 C  
ENDROOT
BRANCH   2   4
HETATM    4  C   UNL     1      -7.111   4.151  67.862  1.00  0.00    -0.059 C  
HETATM    5  O   UNL     1      -7.303   5.389  67.181  1.00  0.00    -0.080 OA 
HETATM    6  H   UNL     1      -6.472   5.781  66.936  1.00  0.00     0.000 HD 
ENDBRANCH   2   4
BRANCH   2   7
HETATM    7  C   UNL     1      -8.691   2.211  67.433  1.00  0.00    -0.117 C  
HETATM    8  O   UNL     1      -9.894   1.519  67.806  1.00  0.00    -0.407 OA 
HETATM    9  H   UNL     1     -10.034   0.726  67.303  1.00  0.00     0.000 HD 
BRANCH   7  10
HETATM   10  C   UNL     1      -8.726   2.407  65.901  1.00  0.00    -0.122 C  
HETATM   11  O   UNL     1      -9.713   2.763  65.264  1.00  0.00    -0.022 OA 
HETATM   12  N   UNL     1      -7.500   2.213  65.304  1.00  0.00    -0.065 N  
HETATM   13  H   UNL     1      -6.721   1.853  65.856  1.00  0.00     0.000 HD 
BRANCH  12  14
HETATM   14  C   UNL     1      -7.302   2.513  63.903  1.00  0.00    -0.057 C  
BRANCH  14  15
HETATM   15  C   UNL     1      -8.465   3.279  63.281  1.00  0.00    -0.089 C  
BRANCH  15  16
HETATM   16  C   UNL     1      -8.056   4.725  63.112  1.00  0.00    -0.091 C  
HETATM   17  O   UNL     1      -8.683   5.495  62.392  1.00  0.00    -0.105 OA 
HETATM   18  N   UNL     1      -6.954   5.091  63.851  1.00  0.00    -0.047 N  
HETATM   19  H   UNL     1      -6.539   4.383  64.455  1.00  0.00     0.000 HD 
BRANCH  18  20
HETATM   20  C   UNL     1      -6.330   6.417  63.840  1.00  0.00    -0.030 C  
BRANCH  20  21
HETATM   21  C   UNL     1      -6.279   7.153  62.498  1.00  0.00    -0.052 C  
BRANCH  21  22
HETATM   22  S   UNL     1      -6.424   8.979  62.606  1.00  0.00    -0.093 SA 
BRANCH  22  23
HETATM   23  S   UNL     1      -8.452   9.311  62.754  1.00  0.00    -0.218 SA 
BRANCH  23  24
HETATM   24  C   UNL     1      -8.567  10.147  64.370  1.00  0.00    -0.191 C  
BRANCH  24  25
HETATM   25  C   UNL     1     -10.022  10.267  64.829  1.00  0.00    -0.321 C  
BRANCH  25  26
HETATM   26  N   UNL     1     -10.342  11.502  65.540  1.00  0.00    -0.263 N  
HETATM   27  H   UNL     1     -10.340  11.485  66.560  1.00  0.00     0.000 HD 
HETATM   28  C   UNL     1     -10.645  12.690  64.908  1.00  0.00    -0.307 C  
HETATM   29  O   UNL     1     -10.730  12.812  63.691  1.00  0.00    -0.407 OA 
BRANCH  28  30
HETATM   30  C   UNL     1     -10.831  13.865  65.840  1.00  0.00    -0.287 C  
BRANCH  30  31
HETATM   31  C   UNL     1      -9.494  14.565  66.064  1.00  0.00    -0.229 C  
BRANCH  31  32
HETATM   32  N   UNL     1      -9.613  15.700  66.959  1.00  0.00    -0.220 N  
HETATM   33  H   UNL     1     -10.410  15.744  67.594  1.00  0.00     0.000 HD 
HETATM   34  C   UNL     1      -8.691  16.720  66.982  1.00  0.00    -0.204 C  
HETATM   35  O   UNL     1      -7.752  16.803  66.196  1.00  0.00    -0.302 OA 
BRANCH  34  36
HETATM   36  C   UNL     1      -8.981  17.803  68.045  1.00  0.00    -0.263 C  
HETATM   37  O   UNL     1      -9.875  17.285  69.043  1.00  0.00    -0.280 OA 
HETATM   38  H   UNL     1     -10.053  17.951  69.696  1.00  0.00     0.000 HD 
BRANCH  36  39
HETATM   39  C   UNL     1      -9.553  19.119  67.447  1.00  0.00    -0.373 C  
HETATM   40  C   UNL     1      -9.944  20.119  68.555  1.00  0.00    -0.373 C  
HETATM   41  C   UNL     1      -8.458  19.791  66.585  1.00  0.00    -0.371 C  
BRANCH  39  42
HETATM   42  C   UNL     1     -10.780  18.805  66.557  1.00  0.00    -0.268 C  
HETATM   43  O   UNL     1     -10.395  18.444  65.234  1.00  0.00    -0.373 OA 
HETATM   44  H   UNL     1     -11.148  18.251  64.688  1.00  0.00     0.000 HD 
ENDBRANCH  39  42
ENDBRANCH  36  39
ENDBRANCH  34  36
ENDBRANCH  31  32
ENDBRANCH  30  31
ENDBRANCH  28  30
ENDBRANCH  25  26
ENDBRANCH  24  25
ENDBRANCH  23  24
ENDBRANCH  22  23
ENDBRANCH  21  22
ENDBRANCH  20  21
ENDBRANCH  18  20
ENDBRANCH  15  16
ENDBRANCH  14  15
ENDBRANCH  12  14
ENDBRANCH   7  10
ENDBRANCH   2   7
TORSDOF 19
ENDMDL
MODEL      357
REMARK 921   NORMALIZED FREE ENERGY PREDICTED BY IDOCK:   -1.90 KCAL/MOL
REMARK 922        TOTAL FREE ENERGY PREDICTED BY IDOCK:   -6.19 KCAL/MOL
REMARK 923 INTER-LIGAND FREE ENERGY PREDICTED BY IDOCK:   -6.38 KCAL/MOL
REMARK 924 INTRA-LIGAND FREE ENERGY PREDICTED BY IDOCK:    0.19 KCAL/MOL
REMARK 927      BINDING AFFINITY PREDICTED BY RF-SCORE:    0.00 PKD
ROOT
HETATM    1  C   UNL     1     -11.251  10.155  67.277  1.00  0.00    -0.024 C  
HETATM    2  C   UNL     1     -11.029  11.677  67.197  1.00  0.00    -0.330 C  
HETATM    3  C   UNL     1     -11.741  12.240  65.942  1.00  0.00    -0.451 C  
ENDROOT
BRANCH   2   4
HETATM    4  C   UNL     1     -11.693  12.346  68.419  1.00  0.00    -0.336 C  
HETATM    5  O   UNL     1     -11.726  13.765  68.279  1.00  0.00    -0.318 OA 
HETATM    6  H   UNL     1     -12.134  14.177  69.032  1.00  0.00     0.000 HD 
ENDBRANCH   2   4
BRANCH   2   7
HETATM    7  C   UNL     1      -9.509  12.029  67.165  1.00  0.00    -0.187 C  
HETATM    8  O   UNL     1      -8.953  12.223  68.477  1.00  0.00    -0.302 OA 
HETATM    9  H   UNL     1      -8.028  12.436  68.457  1.00  0.00     0.000 HD 
BRANCH   7  10
HETATM   10  C   UNL     1      -8.617  11.003  66.431  1.00  0.00    -0.165 C  
HETATM   11  O   UNL     1      -7.840  10.230  66.984  1.00  0.00    -0.105 OA 
HETATM   12  N   UNL     1      -8.828  10.981  65.070  1.00  0.00    -0.345 N  
HETATM   13  H   UNL     1      -9.431  11.684  64.642  1.00  0.00     0.000 HD 
BRANCH  12  14
HETATM   14  C   UNL     1      -8.204   9.974  64.240  1.00  0.00    -0.166 C  
BRANCH  14  15
HETATM   15  C   UNL     1      -6.684   9.957  64.353  1.00  0.00    -0.125 C  
BRANCH  15  16
HETATM   16  C   UNL     1      -6.265   8.681  65.049  1.00  0.00    -0.060 C  
HETATM   17  O   UNL     1      -5.135   8.533  65.504  1.00  0.00    -0.033 OA 
HETATM   18  N   UNL     1      -7.261   7.736  65.144  1.00  0.00    -0.063 N  
HETATM   19  H   UNL     1      -8.178   7.983  64.774  1.00  0.00     0.000 HD 
BRANCH  18  20
HETATM   20  C   UNL     1      -7.109   6.404  65.735  1.00  0.00    -0.062 C  
BRANCH  20  21
HETATM   21  C   UNL     1      -6.324   6.306  67.046  1.00  0.00    -0.041 C  
BRANCH  21  22
HETATM   22  S   UNL     1      -7.112   7.120  68.488  1.00  0.00    -0.083 SA 
BRANCH  22  23
HETATM   23  S   UNL     1      -5.612   8.284  69.288  1.00  0.00    -0.031 SA 
BRANCH  23  24
HETATM   24  C   UNL     1      -6.547   9.743  69.856  1.00  0.00    -0.071 C  
BRANCH  24  25
HETATM   25  C   UNL     1      -5.821  10.452  71.002  1.00  0.00    -0.027 C  
BRANCH  25  26
HETATM   26  N   UNL     1      -5.596  11.880  70.795  1.00  0.00    -0.146 N  
HETATM   27  H   UNL     1      -5.424  12.465  71.613  1.00  0.00     0.000 HD 
HETATM   28  C   UNL     1      -5.602  12.482  69.553  1.00  0.00    -0.089 C  
HETATM   29  O   UNL     1      -5.852  11.888  68.510  1.00  0.00    -0.049 OA 
BRANCH  28  30
HETATM   30  C   UNL     1      -5.233  13.948  69.566  1.00  0.00    -0.083 C  
BRANCH  30  31
HETATM   31  C   UNL     1      -6.319  14.749  70.278  1.00  0.00    -0.162 C  
BRANCH  31  32
HETATM   32  N   UNL     1      -6.870  15.793  69.434  1.00  0.00    -0.179 N  
HETATM   33  H   UNL     1      -6.236  16.482  69.029  1.00  0.00     0.000 HD 
HETATM   34  C   UNL     1      -8.214  15.887  69.162  1.00  0.00    -0.240 C  
HETATM   35  O   UNL     1      -9.062  15.163  69.676  1.00  0.00    -0.183 OA 
BRANCH  34  36
HETATM   36  C   UNL     1      -8.580  17.041  68.202  1.00  0.00    -0.228 C  
HETATM   37  O   UNL     1      -8.677  18.274  68.932  1.00  0.00    -0.243 OA 
HETATM   38  H   UNL     1      -8.902  18.984  68.341  1.00  0.00     0.000 HD 
BRANCH  36  39
HETATM   39  C   UNL     1      -9.889  16.788  67.402  1.00  0.00    -0.252 C  
HETATM   40  C   UNL     1     -11.122  16.777  68.328  1.00  0.00    -0.259 C  
HETATM   41  C   UNL     1     -10.083  17.942  66.390  1.00  0.00    -0.369 C  
BRANCH  39  42
HETATM   42  C   UNL     1      -9.788  15.449  66.634  1.00  0.00    -0.255 C  
HETATM   43  O   UNL     1      -9.694  15.651  65.227  1.00  0.00    -0.320 OA 
HETATM   44  H   UNL     1      -9.632  14.829  64.755  1.00  0.00     0.000 HD 
ENDBRANCH  39  42
ENDBRANCH  36  39
ENDBRANCH  34  36
ENDBRANCH  31  32
ENDBRANCH  30  31
ENDBRANCH  28  30
ENDBRANCH  25  26
ENDBRANCH  24  25
ENDBRANCH  23  24
ENDBRANCH  22  23
ENDBRANCH  21  22
ENDBRANCH  20  21
ENDBRANCH  18  20
ENDBRANCH  15  16
ENDBRANCH  14  15
ENDBRANCH  12  14
ENDBRANCH   7  10
ENDBRANCH   2   7
TORSDOF 19
ENDMDL
MODEL      358
REMARK 921   NORMALIZED FREE ENERGY PREDICTED BY IDOCK:   -1.83 KCAL/MOL
REMARK 922        TOTAL FREE ENERGY PREDICTED BY IDOCK:   -6.04 KCAL/MOL
REMARK 923 INTER-LIGAND FREE ENERGY PREDICTED BY IDOCK:   -5.18 KCAL/MOL
REMARK 924 INTRA-LIGAND FREE ENERGY PREDICTED BY IDOCK:   -0.86 KCAL/MOL
REMARK 927      BINDING AFFINITY PREDICTED BY RF-SCORE:    0.00 PKD
ROOT
HETATM    1  C   UNL     1      -6.520   2.799  70.693  1.00  0.00    -0.027 C  
HETATM    2  C   UNL     1      -7.900   3.372  71.067  1.00  0.00    -0.051 C  
HETATM    3  C   UNL     1      -8.646   3.809  69.782  1.00  0.00    -0.106 C  
ENDROOT
BRANCH   2   4
HETATM    4  C   UNL     1      -8.750   2.256  71.713  1.00  0.00    -0.068 C  
HETATM    5  O   UNL     1      -9.736   1.765  70.808  1.00  0.00    -0.115 OA 
HETATM    6  H   UNL     1     -10.258   1.079  71.205  1.00  0.00     0.000 HD 
ENDBRANCH   2   4
BRANCH   2   7
HETATM    7  C   UNL     1      -7.769   4.572  72.056  1.00  0.00    -0.089 C  
HETATM    8  O   UNL     1      -7.495   4.157  73.405  1.00  0.00    -0.072 OA 
HETATM    9  H   UNL     1      -7.414   4.887  74.006  1.00  0.00     0.000 HD 
BRANCH   7  10
HETATM   10  C   UNL     1      -6.704   5.623  71.669  1.00  0.00    -0.058 C  
HETATM   11  O   UNL     1      -5.718   5.900  72.346  1.00  0.00    -0.029 OA 
HETATM   12  N   UNL     1      -6.925   6.185  70.432  1.00  0.00    -0.057 N  
HETATM   13  H   UNL     1      -7.790   5.978  69.931  1.00  0.00     0.000 HD 
BRANCH  12  14
HETATM   14  C   UNL     1      -5.947   7.065  69.832  1.00  0.00    -0.024 C  
BRANCH  14  15
HETATM   15  C   UNL     1      -6.438   7.726  68.548  1.00  0.00    -0.052 C  
BRANCH  15  16
HETATM   16  C   UNL     1      -6.089   6.830  67.380  1.00  0.00    -0.032 C  
HETATM   17  O   UNL     1      -5.633   5.703  67.543  1.00  0.00    -0.011 OA 
HETATM   18  N   UNL     1      -6.353   7.381  66.147  1.00  0.00    -0.041 N  
HETATM   19  H   UNL     1      -6.777   8.307  66.129  1.00  0.00     0.000 HD 
BRANCH  18  20
HETATM   20  C   UNL     1      -6.073   6.743  64.858  1.00  0.00    -0.036 C  
BRANCH  20  21
HETATM   21  C   UNL     1      -5.439   7.614  63.770  1.00  0.00    -0.041 C  
BRANCH  21  22
HETATM   22  S   UNL     1      -6.158   9.292  63.598  1.00  0.00    -0.091 SA 
BRANCH  22  23
HETATM   23  S   UNL     1      -8.110   8.945  63.037  1.00  0.00    -0.181 SA 
BRANCH  23  24
HETATM   24  C   UNL     1      -9.023   9.594  64.475  1.00  0.00    -0.235 C  
BRANCH  24  25
HETATM   25  C   UNL     1      -8.687  11.066  64.724  1.00  0.00     0.028 C  
BRANCH  25  26
HETATM   26  N   UNL     1      -8.242  11.373  66.082  1.00  0.00    -0.343 N  
HETATM   27  H   UNL     1      -7.323  11.040  66.374  1.00  0.00     0.000 HD 
HETATM   28  C   UNL     1      -8.995  12.088  66.989  1.00  0.00    -0.198 C  
HETATM   29  O   UNL     1     -10.133  12.488  66.765  1.00  0.00    -0.219 OA 
BRANCH  28  30
HETATM   30  C   UNL     1      -8.290  12.384  68.293  1.00  0.00    -0.169 C  
BRANCH  30  31
HETATM   31  C   UNL     1      -7.072  13.265  68.034  1.00  0.00    -0.122 C  
BRANCH  31  32
HETATM   32  N   UNL     1      -7.416  14.481  67.321  1.00  0.00    -0.288 N  
HETATM   33  H   UNL     1      -7.463  14.457  66.303  1.00  0.00     0.000 HD 
HETATM   34  C   UNL     1      -7.683  15.664  67.970  1.00  0.00    -0.126 C  
HETATM   35  O   UNL     1      -7.563  15.813  69.182  1.00  0.00    -0.182 OA 
BRANCH  34  36
HETATM   36  C   UNL     1      -8.079  16.821  67.026  1.00  0.00    -0.194 C  
HETATM   37  O   UNL     1      -7.616  18.071  67.561  1.00  0.00    -0.205 OA 
HETATM   38  H   UNL     1      -7.860  18.782  66.980  1.00  0.00     0.000 HD 
BRANCH  36  39
HETATM   39  C   UNL     1      -9.605  16.892  66.742  1.00  0.00    -0.273 C  
HETATM   40  C   UNL     1     -10.088  15.665  65.942  1.00  0.00    -0.378 C  
HETATM   41  C   UNL     1     -10.362  16.890  68.091  1.00  0.00    -0.336 C  
BRANCH  39  42
HETATM   42  C   UNL     1      -9.939  18.193  65.973  1.00  0.00    -0.215 C  
HETATM   43  O   UNL     1     -11.123  18.058  65.193  1.00  0.00    -0.543 OA 
HETATM   44  H   UNL     1     -11.328  18.856  64.721  1.00  0.00     0.000 HD 
ENDBRANCH  39  42
ENDBRANCH  36  39
ENDBRANCH  34  36
ENDBRANCH  31  32
ENDBRANCH  30  31
ENDBRANCH  28  30
ENDBRANCH  25  26
ENDBRANCH  24  25
ENDBRANCH  23  24
ENDBRANCH  22  23
ENDBRANCH  21  22
ENDBRANCH  20  21
ENDBRANCH  18  20
ENDBRANCH  15  16
ENDBRANCH  14  15
ENDBRANCH  12  14
ENDBRANCH   7  10
ENDBRANCH   2   7
TORSDOF 19
ENDMDL
MODEL      359
REMARK 921   NORMALIZED FREE ENERGY PREDICTED BY IDOCK:   -1.69 KCAL/MOL
REMARK 922        TOTAL FREE ENERGY PREDICTED BY IDOCK:   -5.74 KCAL/MOL
REMARK 923 INTER-LIGAND FREE ENERGY PREDICTED BY IDOCK:   -5.28 KCAL/MOL
REMARK 924 INTRA-LIGAND FREE ENERGY PREDICTED BY IDOCK:   -0.47 KCAL/MOL
REMARK 927      BINDING AFFINITY PREDICTED BY RF-SCORE:    0.00 PKD
ROOT
HETATM    1  C   UNL     1      -8.438   4.613  69.354  1.00  0.00    -0.094 C  
HETATM    2  C   UNL     1      -8.131   5.809  68.435  1.00  0.00    -0.108 C  
HETATM    3  C   UNL     1      -8.977   5.700  67.141  1.00  0.00    -0.112 C  
ENDROOT
BRANCH   2   4
HETATM    4  C   UNL     1      -8.570   7.111  69.139  1.00  0.00    -0.133 C  
HETATM    5  O   UNL     1      -8.703   6.920  70.546  1.00  0.00    -0.147 OA 
HETATM    6  H   UNL     1      -8.973   7.721  70.979  1.00  0.00     0.000 HD 
ENDBRANCH   2   4
BRANCH   2   7
HETATM    7  C   UNL     1      -6.611   5.885  68.087  1.00  0.00    -0.055 C  
HETATM    8  O   UNL     1      -5.767   5.615  69.219  1.00  0.00    -0.011 OA 
HETATM    9  H   UNL     1      -4.842   5.661  69.008  1.00  0.00     0.000 HD 
BRANCH   7  10
HETATM   10  C   UNL     1      -6.157   4.957  66.939  1.00  0.00    -0.031 C  
HETATM   11  O   UNL     1      -6.141   3.731  66.997  1.00  0.00    -0.023 OA 
HETATM   12  N   UNL     1      -5.832   5.641  65.789  1.00  0.00    -0.024 N  
HETATM   13  H   UNL     1      -5.794   6.660  65.802  1.00  0.00     0.000 HD 
BRANCH  12  14
HETATM   14  C   UNL     1      -5.544   4.932  64.562  1.00  0.00    -0.014 C  
BRANCH  14  15
HETATM   15  C   UNL     1      -5.235   5.858  63.390  1.00  0.00    -0.017 C  
BRANCH  15  16
HETATM   16  C   UNL     1      -6.148   7.061  63.470  1.00  0.00    -0.044 C  
HETATM   17  O   UNL     1      -5.748   8.152  63.865  1.00  0.00    -0.055 OA 
HETATM   18  N   UNL     1      -7.434   6.825  63.041  1.00  0.00    -0.075 N  
HETATM   19  H   UNL     1      -7.646   5.893  62.687  1.00  0.00     0.000 HD 
BRANCH  18  20
HETATM   20  C   UNL     1      -8.523   7.805  63.051  1.00  0.00     0.175 C  
BRANCH  20  21
HETATM   21  C   UNL     1      -8.226   9.185  62.458  1.00  0.00    -0.163 C  
BRANCH  21  22
HETATM   22  S   UNL     1      -7.672  10.450  63.665  1.00  0.00     0.016 SA 
BRANCH  22  23
HETATM   23  S   UNL     1      -8.663   9.951  65.402  1.00  0.00    -0.168 SA 
BRANCH  23  24
HETATM   24  C   UNL     1      -9.907  11.279  65.506  1.00  0.00    -0.231 C  
BRANCH  24  25
HETATM   25  C   UNL     1     -10.469  11.620  64.124  1.00  0.00    -0.351 C  
BRANCH  25  26
HETATM   26  N   UNL     1     -10.936  12.996  63.973  1.00  0.00    -0.453 N  
HETATM   27  H   UNL     1     -10.343  13.652  63.464  1.00  0.00     0.000 HD 
HETATM   28  C   UNL     1     -12.133  13.455  64.480  1.00  0.00    -0.409 C  
HETATM   29  O   UNL     1     -12.896  12.770  65.154  1.00  0.00    -0.726 OA 
BRANCH  28  30
HETATM   30  C   UNL     1     -12.465  14.882  64.107  1.00  0.00    -0.093 C  
BRANCH  30  31
HETATM   31  C   UNL     1     -11.283  15.790  64.432  1.00  0.00    -0.236 C  
BRANCH  31  32
HETATM   32  N   UNL     1     -10.914  15.727  65.834  1.00  0.00    -0.246 N  
HETATM   33  H   UNL     1     -11.651  15.625  66.531  1.00  0.00     0.000 HD 
HETATM   34  C   UNL     1      -9.607  15.801  66.255  1.00  0.00    -0.313 C  
HETATM   35  O   UNL     1      -8.663  16.015  65.501  1.00  0.00    -0.068 OA 
BRANCH  34  36
HETATM   36  C   UNL     1      -9.434  15.662  67.784  1.00  0.00    -0.208 C  
HETATM   37  O   UNL     1     -10.481  14.841  68.325  1.00  0.00    -0.233 OA 
HETATM   38  H   UNL     1     -10.374  14.756  69.265  1.00  0.00     0.000 HD 
BRANCH  36  39
HETATM   39  C   UNL     1      -9.386  17.026  68.527  1.00  0.00    -0.265 C  
HETATM   40  C   UNL     1      -9.914  18.171  67.638  1.00  0.00    -0.344 C  
HETATM   41  C   UNL     1     -10.304  16.948  69.770  1.00  0.00    -0.021 C  
BRANCH  39  42
HETATM   42  C   UNL     1      -7.938  17.330  68.982  1.00  0.00    -0.121 C  
HETATM   43  O   UNL     1      -7.829  18.620  69.574  1.00  0.00     0.124 OA 
HETATM   44  H   UNL     1      -6.940  18.807  69.853  1.00  0.00     0.000 HD 
ENDBRANCH  39  42
ENDBRANCH  36  39
ENDBRANCH  34  36
ENDBRANCH  31  32
ENDBRANCH  30  31
ENDBRANCH  28  30
ENDBRANCH  25  26
ENDBRANCH  24  25
ENDBRANCH  23  24
ENDBRANCH  22  23
ENDBRANCH  21  22
ENDBRANCH  20  21
ENDBRANCH  18  20
ENDBRANCH  15  16
ENDBRANCH  14  15
ENDBRANCH  12  14
ENDBRANCH   7  10
ENDBRANCH   2   7
TORSDOF 19
ENDMDL
MODEL      360
REMARK 921   NORMALIZED FREE ENERGY PREDICTED BY IDOCK:   -1.54 KCAL/MOL
REMARK 922        TOTAL FREE ENERGY PREDICTED BY IDOCK:   -5.44 KCAL/MOL
REMARK 923 INTER-LIGAND FREE ENERGY PREDICTED BY IDOCK:   -6.05 KCAL/MOL
REMARK 924 INTRA-LIGAND FREE ENERGY PREDICTED BY IDOCK:    0.61 KCAL/MOL
REMARK 927      BINDING AFFINITY PREDICTED BY RF-SCORE:    0.00 PKD
ROOT
HETATM    1  C   UNL     1     -10.526  16.617  67.142  1.00  0.00    -0.300 C  
HETATM    2  C   UNL     1     -10.721  15.145  66.736  1.00  0.00    -0.311 C  
HETATM    3  C   UNL     1     -12.222  14.775  66.833  1.00  0.00     0.010 C  
ENDROOT
BRANCH   2   4
HETATM    4  C   UNL     1     -10.318  14.973  65.256  1.00  0.00    -0.395 C  
HETATM    5  O   UNL     1     -10.635  16.136  64.494  1.00  0.00    -0.758 OA 
HETATM    6  H   UNL     1     -10.388  16.030  63.583  1.00  0.00     0.000 HD 
ENDBRANCH   2   4
BRANCH   2   7
HETATM    7  C   UNL     1      -9.866  14.191  67.628  1.00  0.00    -0.229 C  
HETATM    8  O   UNL     1      -8.810  14.874  68.324  1.00  0.00    -0.161 OA 
HETATM    9  H   UNL     1      -8.291  14.294  68.867  1.00  0.00     0.000 HD 
BRANCH   7  10
HETATM   10  C   UNL     1     -10.667  13.385  68.676  1.00  0.00    -0.255 C  
HETATM   11  O   UNL     1     -11.087  13.841  69.736  1.00  0.00    -0.119 OA 
HETATM   12  N   UNL     1     -10.937  12.096  68.275  1.00  0.00    -0.220 N  
HETATM   13  H   UNL     1     -10.513  11.735  67.420  1.00  0.00     0.000 HD 
BRANCH  12  14
HETATM   14  C   UNL     1     -11.813  11.247  69.050  1.00  0.00    -0.352 C  
BRANCH  14  15
HETATM   15  C   UNL     1     -11.379   9.785  69.064  1.00  0.00    -0.013 C  
BRANCH  15  16
HETATM   16  C   UNL     1     -10.109   9.666  69.878  1.00  0.00    -0.246 C  
HETATM   17  O   UNL     1      -9.038  10.106  69.473  1.00  0.00    -0.199 OA 
HETATM   18  N   UNL     1     -10.276   9.055  71.099  1.00  0.00    -0.266 N  
HETATM   19  H   UNL     1     -11.221   8.771  71.356  1.00  0.00     0.000 HD 
BRANCH  18  20
HETATM   20  C   UNL     1      -9.205   8.781  72.061  1.00  0.00    -0.224 C  
BRANCH  20  21
HETATM   21  C   UNL     1      -7.838   8.391  71.492  1.00  0.00    -0.120 C  
BRANCH  21  22
HETATM   22  S   UNL     1      -6.647   7.722  72.716  1.00  0.00    -0.073 SA 
BRANCH  22  23
HETATM   23  S   UNL     1      -7.675   7.784  74.500  1.00  0.00    -0.213 SA 
BRANCH  23  24
HETATM   24  C   UNL     1      -8.608   6.219  74.437  1.00  0.00    -0.130 C  
BRANCH  24  25
HETATM   25  C   UNL     1      -7.676   5.029  74.196  1.00  0.00    -0.094 C  
BRANCH  25  26
HETATM   26  N   UNL     1      -8.117   4.105  73.155  1.00  0.00    -0.089 N  
HETATM   27  H   UNL     1      -7.407   3.651  72.580  1.00  0.00     0.000 HD 
HETATM   28  C   UNL     1      -9.442   3.811  72.906  1.00  0.00    -0.116 C  
HETATM   29  O   UNL     1     -10.379   4.338  73.496  1.00  0.00    -0.150 OA 
BRANCH  28  30
HETATM   30  C   UNL     1      -9.661   2.742  71.860  1.00  0.00    -0.212 C  
BRANCH  30  31
HETATM   31  C   UNL     1      -8.325   2.113  71.476  1.00  0.00    -0.054 C  
BRANCH  31  32
HETATM   32  N   UNL     1      -7.683   2.819  70.383  1.00  0.00    -0.043 N  
HETATM   33  H   UNL     1      -6.696   3.063  70.469  1.00  0.00     0.000 HD 
HETATM   34  C   UNL     1      -8.355   3.171  69.237  1.00  0.00    -0.060 C  
HETATM   35  O   UNL     1      -9.561   3.003  69.080  1.00  0.00    -0.145 OA 
BRANCH  34  36
HETATM   36  C   UNL     1      -7.471   3.870  68.180  1.00  0.00    -0.062 C  
HETATM   37  O   UNL     1      -7.800   5.266  68.110  1.00  0.00    -0.087 OA 
HETATM   38  H   UNL     1      -7.255   5.695  67.461  1.00  0.00     0.000 HD 
BRANCH  36  39
HETATM   39  C   UNL     1      -7.568   3.226  66.769  1.00  0.00    -0.076 C  
HETATM   40  C   UNL     1      -7.400   1.694  66.835  1.00  0.00    -0.055 C  
HETATM   41  C   UNL     1      -8.973   3.510  66.189  1.00  0.00    -0.142 C  
BRANCH  39  42
HETATM   42  C   UNL     1      -6.497   3.839  65.834  1.00  0.00    -0.033 C  
HETATM   43  O   UNL     1      -7.038   4.873  65.018  1.00  0.00    -0.060 OA 
HETATM   44  H   UNL     1      -6.381   5.249  64.443  1.00  0.00     0.000 HD 
ENDBRANCH  39  42
ENDBRANCH  36  39
ENDBRANCH  34  36
ENDBRANCH  31  32
ENDBRANCH  30  31
ENDBRANCH  28  30
ENDBRANCH  25  26
ENDBRANCH  24  25
ENDBRANCH  23  24
ENDBRANCH  22  23
ENDBRANCH  21  22
ENDBRANCH  20  21
ENDBRANCH  18  20
ENDBRANCH  15  16
ENDBRANCH  14  15
ENDBRANCH  12  14
ENDBRANCH   7  10
ENDBRANCH   2   7
TORSDOF 19
ENDMDL
MODEL      361
REMARK 921   NORMALIZED FREE ENERGY PREDICTED BY IDOCK:   -1.53 KCAL/MOL
REMARK 922        TOTAL FREE ENERGY PREDICTED BY IDOCK:   -5.42 KCAL/MOL
REMARK 923 INTER-LIGAND FREE ENERGY PREDICTED BY IDOCK:   -6.22 KCAL/MOL
REMARK 924 INTRA-LIGAND FREE ENERGY PREDICTED BY IDOCK:    0.80 KCAL/MOL
REMARK 927      BINDING AFFINITY PREDICTED BY RF-SCORE:    0.00 PKD
ROOT
HETATM    1  C   UNL     1     -10.259  15.617  69.767  1.00  0.00    -0.303 C  
HETATM    2  C   UNL     1     -11.356  14.609  69.375  1.00  0.00    -0.314 C  
HETATM    3  C   UNL     1     -12.651  15.372  69.000  1.00  0.00     0.281 C  
ENDROOT
BRANCH   2   4
HETATM    4  C   UNL     1     -10.910  13.848  68.109  1.00  0.00    -0.249 C  
HETATM    5  O   UNL     1     -11.118  14.628  66.934  1.00  0.00    -0.316 OA 
HETATM    6  H   UNL     1     -10.843  14.159  66.155  1.00  0.00     0.000 HD 
ENDBRANCH   2   4
BRANCH   2   7
HETATM    7  C   UNL     1     -11.635  13.595  70.528  1.00  0.00     0.034 C  
HETATM    8  O   UNL     1     -12.597  14.083  71.479  1.00  0.00    -0.336 OA 
HETATM    9  H   UNL     1     -12.767  13.466  72.181  1.00  0.00     0.000 HD 
BRANCH   7  10
HETATM   10  C   UNL     1     -12.106  12.197  70.069  1.00  0.00    -0.277 C  
HETATM   11  O   UNL     1     -11.833  11.690  68.985  1.00  0.00    -0.297 OA 
HETATM   12  N   UNL     1     -12.816  11.522  71.036  1.00  0.00    -0.307 N  
HETATM   13  H   UNL     1     -13.079  12.003  71.896  1.00  0.00     0.000 HD 
BRANCH  12  14
HETATM   14  C   UNL     1     -13.196  10.140  70.847  1.00  0.00    -0.289 C  
BRANCH  14  15
HETATM   15  C   UNL     1     -13.216   9.338  72.144  1.00  0.00    -0.535 C  
BRANCH  15  16
HETATM   16  C   UNL     1     -13.122   7.867  71.805  1.00  0.00    -0.325 C  
HETATM   17  O   UNL     1     -13.952   7.057  72.204  1.00  0.00    -0.147 OA 
HETATM   18  N   UNL     1     -12.055   7.539  71.000  1.00  0.00    -0.402 N  
HETATM   19  H   UNL     1     -11.454   8.300  70.686  1.00  0.00     0.000 HD 
BRANCH  18  20
HETATM   20  C   UNL     1     -11.713   6.185  70.559  1.00  0.00    -0.086 C  
BRANCH  20  21
HETATM   21  C   UNL     1     -11.130   5.234  71.608  1.00  0.00     0.023 C  
BRANCH  21  22
HETATM   22  S   UNL     1      -9.681   5.882  72.527  1.00  0.00    -0.157 SA 
BRANCH  22  23
HETATM   23  S   UNL     1      -8.272   6.225  71.063  1.00  0.00    -0.123 SA 
BRANCH  23  24
HETATM   24  C   UNL     1      -9.261   6.004  69.547  1.00  0.00    -0.136 C  
BRANCH  24  25
HETATM   25  C   UNL     1      -8.847   7.006  68.467  1.00  0.00    -0.124 C  
BRANCH  25  26
HETATM   26  N   UNL     1      -7.698   6.600  67.662  1.00  0.00    -0.105 N  
HETATM   27  H   UNL     1      -6.764   6.812  68.014  1.00  0.00     0.000 HD 
HETATM   28  C   UNL     1      -7.806   5.946  66.453  1.00  0.00    -0.101 C  
HETATM   29  O   UNL     1      -8.875   5.691  65.909  1.00  0.00    -0.145 OA 
BRANCH  28  30
HETATM   30  C   UNL     1      -6.486   5.522  65.850  1.00  0.00    -0.040 C  
BRANCH  30  31
HETATM   31  C   UNL     1      -6.309   6.172  64.481  1.00  0.00    -0.030 C  
BRANCH  31  32
HETATM   32  N   UNL     1      -6.806   7.535  64.454  1.00  0.00    -0.053 N  
HETATM   33  H   UNL     1      -7.632   7.745  63.894  1.00  0.00     0.000 HD 
HETATM   34  C   UNL     1      -6.204   8.552  65.156  1.00  0.00    -0.052 C  
HETATM   35  O   UNL     1      -5.157   8.416  65.783  1.00  0.00    -0.027 OA 
BRANCH  34  36
HETATM   36  C   UNL     1      -6.925   9.913  65.029  1.00  0.00    -0.130 C  
HETATM   37  O   UNL     1      -5.963  10.960  64.821  1.00  0.00    -0.372 OA 
HETATM   38  H   UNL     1      -6.407  11.797  64.744  1.00  0.00     0.000 HD 
BRANCH  36  39
HETATM   39  C   UNL     1      -7.828  10.251  66.248  1.00  0.00    -0.118 C  
HETATM   40  C   UNL     1      -7.051  10.132  67.576  1.00  0.00    -0.087 C  
HETATM   41  C   UNL     1      -8.305  11.717  66.123  1.00  0.00     0.036 C  
BRANCH  39  42
HETATM   42  C   UNL     1      -9.060   9.315  66.268  1.00  0.00    -0.171 C  
HETATM   43  O   UNL     1      -9.328   8.765  64.982  1.00  0.00    -0.432 OA 
HETATM   44  H   UNL     1     -10.084   8.190  64.994  1.00  0.00     0.000 HD 
ENDBRANCH  39  42
ENDBRANCH  36  39
ENDBRANCH  34  36
ENDBRANCH  31  32
ENDBRANCH  30  31
ENDBRANCH  28  30
ENDBRANCH  25  26
ENDBRANCH  24  25
ENDBRANCH  23  24
ENDBRANCH  22  23
ENDBRANCH  21  22
ENDBRANCH  20  21
ENDBRANCH  18  20
ENDBRANCH  15  16
ENDBRANCH  14  15
ENDBRANCH  12  14
ENDBRANCH   7  10
ENDBRANCH   2   7
TORSDOF 19
ENDMDL
MODEL      362
REMARK 921   NORMALIZED FREE ENERGY PREDICTED BY IDOCK:   -1.43 KCAL/MOL
REMARK 922        TOTAL FREE ENERGY PREDICTED BY IDOCK:   -5.19 KCAL/MOL
REMARK 923 INTER-LIGAND FREE ENERGY PREDICTED BY IDOCK:   -5.23 KCAL/MOL
REMARK 924 INTRA-LIGAND FREE ENERGY PREDICTED BY IDOCK:    0.04 KCAL/MOL
REMARK 927      BINDING AFFINITY PREDICTED BY RF-SCORE:    0.00 PKD
ROOT
HETATM    1  C   UNL     1      -8.928  12.816  66.571  1.00  0.00    -0.098 C  
HETATM    2  C   UNL     1      -9.828  13.974  67.041  1.00  0.00    -0.260 C  
HETATM    3  C   UNL     1      -9.536  15.236  66.192  1.00  0.00    -0.353 C  
ENDROOT
BRANCH   2   4
HETATM    4  C   UNL     1     -11.303  13.600  66.784  1.00  0.00    -0.328 C  
HETATM    5  O   UNL     1     -11.416  12.305  66.198  1.00  0.00    -0.338 OA 
HETATM    6  H   UNL     1     -12.324  12.075  66.040  1.00  0.00     0.000 HD 
ENDBRANCH   2   4
BRANCH   2   7
HETATM    7  C   UNL     1      -9.619  14.277  68.558  1.00  0.00    -0.220 C  
HETATM    8  O   UNL     1      -8.491  15.134  68.805  1.00  0.00    -0.159 OA 
HETATM    9  H   UNL     1      -8.364  15.318  69.728  1.00  0.00     0.000 HD 
BRANCH   7  10
HETATM   10  C   UNL     1     -10.838  14.897  69.274  1.00  0.00    -0.266 C  
HETATM   11  O   UNL     1     -10.912  16.066  69.643  1.00  0.00    -0.275 OA 
HETATM   12  N   UNL     1     -11.893  14.021  69.401  1.00  0.00    -0.311 N  
HETATM   13  H   UNL     1     -11.769  13.042  69.143  1.00  0.00     0.000 HD 
BRANCH  12  14
HETATM   14  C   UNL     1     -13.175  14.471  69.897  1.00  0.00     0.615 C  
BRANCH  14  15
HETATM   15  C   UNL     1     -13.222  14.601  71.415  1.00  0.00    -0.425 C  
BRANCH  15  16
HETATM   16  C   UNL     1     -12.937  13.247  72.026  1.00  0.00    -0.300 C  
HETATM   17  O   UNL     1     -12.480  13.131  73.158  1.00  0.00     0.663 OA 
HETATM   18  N   UNL     1     -13.259  12.183  71.216  1.00  0.00    -0.104 N  
HETATM   19  H   UNL     1     -13.679  12.393  70.311  1.00  0.00     0.000 HD 
BRANCH  18  20
HETATM   20  C   UNL     1     -13.048  10.771  71.549  1.00  0.00    -0.414 C  
BRANCH  20  21
HETATM   21  C   UNL     1     -12.347   9.904  70.500  1.00  0.00    -0.150 C  
BRANCH  21  22
HETATM   22  S   UNL     1     -11.773   8.268  71.100  1.00  0.00    -0.271 SA 
BRANCH  22  23
HETATM   23  S   UNL     1      -9.720   8.440  71.135  1.00  0.00    -0.201 SA 
BRANCH  23  24
HETATM   24  C   UNL     1      -9.450   9.820  69.975  1.00  0.00    -0.238 C  
BRANCH  24  25
HETATM   25  C   UNL     1      -8.042  10.400  70.124  1.00  0.00     0.325 C  
BRANCH  25  26
HETATM   26  N   UNL     1      -7.394  10.769  68.867  1.00  0.00    -0.095 N  
HETATM   27  H   UNL     1      -7.758  10.369  68.002  1.00  0.00     0.000 HD 
HETATM   28  C   UNL     1      -6.319  11.628  68.787  1.00  0.00    -0.056 C  
HETATM   29  O   UNL     1      -5.766  12.123  69.764  1.00  0.00    -0.087 OA 
BRANCH  28  30
HETATM   30  C   UNL     1      -5.883  11.956  67.377  1.00  0.00    -0.115 C  
BRANCH  30  31
HETATM   31  C   UNL     1      -5.661  10.668  66.591  1.00  0.00    -0.066 C  
BRANCH  31  32
HETATM   32  N   UNL     1      -6.349  10.681  65.314  1.00  0.00    -0.310 N  
HETATM   33  H   UNL     1      -7.081  11.373  65.157  1.00  0.00     0.000 HD 
HETATM   34  C   UNL     1      -6.049   9.793  64.307  1.00  0.00    -0.113 C  
HETATM   35  O   UNL     1      -5.251   8.869  64.434  1.00  0.00    -0.049 OA 
BRANCH  34  36
HETATM   36  C   UNL     1      -6.864  10.015  63.013  1.00  0.00    -0.128 C  
HETATM   37  O   UNL     1      -6.414  11.206  62.348  1.00  0.00    -0.359 OA 
HETATM   38  H   UNL     1      -6.916  11.342  61.553  1.00  0.00     0.000 HD 
BRANCH  36  39
HETATM   39  C   UNL     1      -8.398  10.083  63.253  1.00  0.00    -0.168 C  
HETATM   40  C   UNL     1      -9.151   9.054  62.385  1.00  0.00     0.034 C  
HETATM   41  C   UNL     1      -8.686   9.735  64.733  1.00  0.00    -0.216 C  
BRANCH  39  42
HETATM   42  C   UNL     1      -8.917  11.511  62.956  1.00  0.00    -0.027 C  
HETATM   43  O   UNL     1     -10.264  11.684  63.383  1.00  0.00    -0.370 OA 
HETATM   44  H   UNL     1     -10.582  12.560  63.200  1.00  0.00     0.000 HD 
ENDBRANCH  39  42
ENDBRANCH  36  39
ENDBRANCH  34  36
ENDBRANCH  31  32
ENDBRANCH  30  31
ENDBRANCH  28  30
ENDBRANCH  25  26
ENDBRANCH  24  25
ENDBRANCH  23  24
ENDBRANCH  22  23
ENDBRANCH  21  22
ENDBRANCH  20  21
ENDBRANCH  18  20
ENDBRANCH  15  16
ENDBRANCH  14  15
ENDBRANCH  12  14
ENDBRANCH   7  10
ENDBRANCH   2   7
TORSDOF 19
ENDMDL
MODEL      363
REMARK 921   NORMALIZED FREE ENERGY PREDICTED BY IDOCK:   -1.33 KCAL/MOL
REMARK 922        TOTAL FREE ENERGY PREDICTED BY IDOCK:   -4.98 KCAL/MOL
REMARK 923 INTER-LIGAND FREE ENERGY PREDICTED BY IDOCK:   -6.85 KCAL/MOL
REMARK 924 INTRA-LIGAND FREE ENERGY PREDICTED BY IDOCK:    1.87 KCAL/MOL
REMARK 927      BINDING AFFINITY PREDICTED BY RF-SCORE:    0.00 PKD
ROOT
HETATM    1  C   UNL     1      -7.979   5.606  68.658  1.00  0.00    -0.100 C  
HETATM    2  C   UNL     1      -7.580   7.060  68.345  1.00  0.00    -0.111 C  
HETATM    3  C   UNL     1      -8.837   7.864  67.927  1.00  0.00    -0.123 C  
ENDROOT
BRANCH   2   4
HETATM    4  C   UNL     1      -7.040   7.721  69.630  1.00  0.00    -0.063 C  
HETATM    5  O   UNL     1      -7.194   9.138  69.589  1.00  0.00    -0.056 OA 
HETATM    6  H   UNL     1      -6.861   9.545  70.381  1.00  0.00     0.000 HD 
ENDBRANCH   2   4
BRANCH   2   7
HETATM    7  C   UNL     1      -6.496   7.124  67.224  1.00  0.00    -0.057 C  
HETATM    8  O   UNL     1      -5.181   6.791  67.700  1.00  0.00    -0.007 OA 
HETATM    9  H   UNL     1      -4.521   6.829  67.019  1.00  0.00     0.000 HD 
BRANCH   7  10
HETATM   10  C   UNL     1      -6.779   6.238  65.990  1.00  0.00    -0.052 C  
HETATM   11  O   UNL     1      -7.078   5.049  66.038  1.00  0.00    -0.068 OA 
HETATM   12  N   UNL     1      -6.737   6.936  64.804  1.00  0.00    -0.042 N  
HETATM   13  H   UNL     1      -6.419   7.906  64.800  1.00  0.00     0.000 HD 
BRANCH  12  14
HETATM   14  C   UNL     1      -7.137   6.312  63.562  1.00  0.00    -0.053 C  
BRANCH  14  15
HETATM   15  C   UNL     1      -7.300   7.304  62.415  1.00  0.00    -0.090 C  
BRANCH  15  16
HETATM   16  C   UNL     1      -7.714   8.641  62.987  1.00  0.00    -0.126 C  
HETATM   17  O   UNL     1      -6.956   9.309  63.684  1.00  0.00    -0.090 OA 
HETATM   18  N   UNL     1      -8.983   9.039  62.634  1.00  0.00    -0.430 N  
HETATM   19  H   UNL     1      -9.509   8.429  62.010  1.00  0.00     0.000 HD 
BRANCH  18  20
HETATM   20  C   UNL     1      -9.639  10.270  63.084  1.00  0.00    -0.250 C  
BRANCH  20  21
HETATM   21  C   UNL     1      -8.826  11.207  63.982  1.00  0.00     0.109 C  
BRANCH  21  22
HETATM   22  S   UNL     1      -9.536  11.497  65.648  1.00  0.00    -0.227 SA 
BRANCH  22  23
HETATM   23  S   UNL     1     -11.572  11.501  65.331  1.00  0.00     0.233 SA 
BRANCH  23  24
HETATM   24  C   UNL     1     -11.918  13.287  65.207  1.00  0.00    -0.388 C  
BRANCH  24  25
HETATM   25  C   UNL     1     -10.716  14.045  64.639  1.00  0.00    -0.399 C  
BRANCH  25  26
HETATM   26  N   UNL     1     -10.411  15.305  65.311  1.00  0.00    -0.392 N  
HETATM   27  H   UNL     1      -9.832  15.275  66.151  1.00  0.00     0.000 HD 
HETATM   28  C   UNL     1     -10.862  16.532  64.873  1.00  0.00    -0.204 C  
HETATM   29  O   UNL     1     -11.608  16.681  63.911  1.00  0.00    -1.204 OA 
BRANCH  28  30
HETATM   30  C   UNL     1     -10.330  17.711  65.656  1.00  0.00    -0.120 C  
BRANCH  30  31
HETATM   31  C   UNL     1     -10.477  17.448  67.152  1.00  0.00    -0.305 C  
BRANCH  31  32
HETATM   32  N   UNL     1      -9.198  17.210  67.794  1.00  0.00    -0.238 N  
HETATM   33  H   UNL     1      -8.773  16.286  67.715  1.00  0.00     0.000 HD 
HETATM   34  C   UNL     1      -8.538  18.184  68.505  1.00  0.00    -0.294 C  
HETATM   35  O   UNL     1      -9.011  19.294  68.732  1.00  0.00    -0.365 OA 
BRANCH  34  36
HETATM   36  C   UNL     1      -7.169  17.735  69.062  1.00  0.00    -0.207 C  
HETATM   37  O   UNL     1      -6.111  18.425  68.379  1.00  0.00    -0.188 OA 
HETATM   38  H   UNL     1      -5.269  18.148  68.722  1.00  0.00     0.000 HD 
BRANCH  36  39
HETATM   39  C   UNL     1      -6.944  16.199  68.985  1.00  0.00    -0.178 C  
HETATM   40  C   UNL     1      -5.804  15.748  69.921  1.00  0.00    -0.155 C  
HETATM   41  C   UNL     1      -8.234  15.483  69.451  1.00  0.00    -0.247 C  
BRANCH  39  42
HETATM   42  C   UNL     1      -6.630  15.784  67.527  1.00  0.00    -0.183 C  
HETATM   43  O   UNL     1      -6.181  16.888  66.748  1.00  0.00    -0.181 OA 
HETATM   44  H   UNL     1      -5.988  16.634  65.853  1.00  0.00     0.000 HD 
ENDBRANCH  39  42
ENDBRANCH  36  39
ENDBRANCH  34  36
ENDBRANCH  31  32
ENDBRANCH  30  31
ENDBRANCH  28  30
ENDBRANCH  25  26
ENDBRANCH  24  25
ENDBRANCH  23  24
ENDBRANCH  22  23
ENDBRANCH  21  22
ENDBRANCH  20  21
ENDBRANCH  18  20
ENDBRANCH  15  16
ENDBRANCH  14  15
ENDBRANCH  12  14
ENDBRANCH   7  10
ENDBRANCH   2   7
TORSDOF 19
ENDMDL
MODEL      364
REMARK 921   NORMALIZED FREE ENERGY PREDICTED BY IDOCK:   -1.18 KCAL/MOL
REMARK 922        TOTAL FREE ENERGY PREDICTED BY IDOCK:   -4.67 KCAL/MOL
REMARK 923 INTER-LIGAND FREE ENERGY PREDICTED BY IDOCK:   -4.54 KCAL/MOL
REMARK 924 INTRA-LIGAND FREE ENERGY PREDICTED BY IDOCK:   -0.13 KCAL/MOL
REMARK 927      BINDING AFFINITY PREDICTED BY RF-SCORE:    0.00 PKD
ROOT
HETATM    1  C   UNL     1     -11.083   8.921  72.054  1.00  0.00    -0.421 C  
HETATM    2  C   UNL     1     -11.194   7.602  71.267  1.00  0.00    -0.277 C  
HETATM    3  C   UNL     1     -10.700   6.428  72.149  1.00  0.00    -0.259 C  
ENDROOT
BRANCH   2   4
HETATM    4  C   UNL     1     -12.680   7.325  70.955  1.00  0.00    -0.154 C  
HETATM    5  O   UNL     1     -13.469   8.503  71.098  1.00  0.00    -0.537 OA 
HETATM    6  H   UNL     1     -14.383   8.332  70.907  1.00  0.00     0.000 HD 
ENDBRANCH   2   4
BRANCH   2   7
HETATM    7  C   UNL     1     -10.379   7.664  69.936  1.00  0.00    -0.225 C  
HETATM    8  O   UNL     1     -10.777   6.655  68.991  1.00  0.00    -0.217 OA 
HETATM    9  H   UNL     1     -10.281   6.693  68.182  1.00  0.00     0.000 HD 
BRANCH   7  10
HETATM   10  C   UNL     1     -10.423   9.025  69.207  1.00  0.00    -0.228 C  
HETATM   11  O   UNL     1     -11.422   9.731  69.104  1.00  0.00    -0.066 OA 
HETATM   12  N   UNL     1      -9.193   9.422  68.732  1.00  0.00    -0.131 N  
HETATM   13  H   UNL     1      -8.403   8.778  68.777  1.00  0.00     0.000 HD 
BRANCH  12  14
HETATM   14  C   UNL     1      -9.007  10.741  68.168  1.00  0.00    -0.140 C  
BRANCH  14  15
HETATM   15  C   UNL     1      -9.233  10.789  66.660  1.00  0.00    -0.184 C  
BRANCH  15  16
HETATM   16  C   UNL     1      -8.088  10.076  65.977  1.00  0.00    -0.124 C  
HETATM   17  O   UNL     1      -7.607   9.042  66.430  1.00  0.00    -0.091 OA 
HETATM   18  N   UNL     1      -7.667  10.671  64.810  1.00  0.00    -0.349 N  
HETATM   19  H   UNL     1      -8.170  11.502  64.500  1.00  0.00     0.000 HD 
BRANCH  18  20
HETATM   20  C   UNL     1      -6.554  10.207  63.977  1.00  0.00    -0.113 C  
BRANCH  20  21
HETATM   21  C   UNL     1      -6.650   8.789  63.409  1.00  0.00    -0.089 C  
BRANCH  21  22
HETATM   22  S   UNL     1      -8.329   8.050  63.439  1.00  0.00     0.137 SA 
BRANCH  22  23
HETATM   23  S   UNL     1      -8.119   6.287  62.394  1.00  0.00    -0.080 SA 
BRANCH  23  24
HETATM   24  C   UNL     1      -7.974   5.076  63.750  1.00  0.00    -0.098 C  
BRANCH  24  25
HETATM   25  C   UNL     1      -7.379   5.720  65.004  1.00  0.00    -0.075 C  
BRANCH  25  26
HETATM   26  N   UNL     1      -7.193   4.810  66.132  1.00  0.00    -0.075 N  
HETATM   27  H   UNL     1      -7.773   4.945  66.960  1.00  0.00     0.000 HD 
HETATM   28  C   UNL     1      -6.277   3.779  66.137  1.00  0.00    -0.032 C  
HETATM   29  O   UNL     1      -5.492   3.559  65.221  1.00  0.00    -0.009 OA 
BRANCH  28  30
HETATM   30  C   UNL     1      -6.336   2.895  67.362  1.00  0.00    -0.036 C  
BRANCH  30  31
HETATM   31  C   UNL     1      -5.386   3.427  68.430  1.00  0.00    -0.013 C  
BRANCH  31  32
HETATM   32  N   UNL     1      -6.061   3.669  69.692  1.00  0.00    -0.023 N  
HETATM   33  H   UNL     1      -5.521   3.618  70.556  1.00  0.00     0.000 HD 
HETATM   34  C   UNL     1      -7.402   3.964  69.765  1.00  0.00    -0.048 C  
HETATM   35  O   UNL     1      -8.151   3.957  68.792  1.00  0.00    -0.069 OA 
BRANCH  34  36
HETATM   36  C   UNL     1      -7.907   4.235  71.199  1.00  0.00    -0.071 C  
HETATM   37  O   UNL     1      -6.879   4.879  71.968  1.00  0.00    -0.051 OA 
HETATM   38  H   UNL     1      -7.189   5.046  72.850  1.00  0.00     0.000 HD 
BRANCH  36  39
HETATM   39  C   UNL     1      -8.402   2.958  71.933  1.00  0.00    -0.067 C  
HETATM   40  C   UNL     1      -9.925   2.768  71.771  1.00  0.00    -0.183 C  
HETATM   41  C   UNL     1      -7.715   1.724  71.301  1.00  0.00    -0.036 C  
BRANCH  39  42
HETATM   42  C   UNL     1      -8.032   3.033  73.434  1.00  0.00    -0.065 C  
HETATM   43  O   UNL     1      -7.654   1.761  73.950  1.00  0.00    -0.035 OA 
HETATM   44  H   UNL     1      -7.427   1.808  74.872  1.00  0.00     0.000 HD 
ENDBRANCH  39  42
ENDBRANCH  36  39
ENDBRANCH  34  36
ENDBRANCH  31  32
ENDBRANCH  30  31
ENDBRANCH  28  30
ENDBRANCH  25  26
ENDBRANCH  24  25
ENDBRANCH  23  24
ENDBRANCH  22  23
ENDBRANCH  21  22
ENDBRANCH  20  21
ENDBRANCH  18  20
ENDBRANCH  15  16
ENDBRANCH  14  15
ENDBRANCH  12  14
ENDBRANCH   7  10
ENDBRANCH   2   7
TORSDOF 19
ENDMDL
MODEL      365
REMARK 921   NORMALIZED FREE ENERGY PREDICTED BY IDOCK:   -1.17 KCAL/MOL
REMARK 922        TOTAL FREE ENERGY PREDICTED BY IDOCK:   -4.66 KCAL/MOL
REMARK 923 INTER-LIGAND FREE ENERGY PREDICTED BY IDOCK:   -6.01 KCAL/MOL
REMARK 924 INTRA-LIGAND FREE ENERGY PREDICTED BY IDOCK:    1.35 KCAL/MOL
REMARK 927      BINDING AFFINITY PREDICTED BY RF-SCORE:    0.00 PKD
ROOT
HETATM    1  C   UNL     1     -10.397  16.902  67.175  1.00  0.00    -0.304 C  
HETATM    2  C   UNL     1     -10.566  15.506  66.549  1.00  0.00    -0.307 C  
HETATM    3  C   UNL     1     -12.032  15.034  66.721  1.00  0.00     0.006 C  
ENDROOT
BRANCH   2   4
HETATM    4  C   UNL     1     -10.309  15.601  65.030  1.00  0.00    -0.256 C  
HETATM    5  O   UNL     1     -11.147  16.581  64.422  1.00  0.00    -1.083 OA 
HETATM    6  H   UNL     1     -10.988  16.639  63.487  1.00  0.00     0.000 HD 
ENDBRANCH   2   4
BRANCH   2   7
HETATM    7  C   UNL     1      -9.583  14.474  67.186  1.00  0.00    -0.231 C  
HETATM    8  O   UNL     1      -8.515  15.099  67.918  1.00  0.00    -0.143 OA 
HETATM    9  H   UNL     1      -7.918  14.471  68.305  1.00  0.00     0.000 HD 
BRANCH   7  10
HETATM   10  C   UNL     1     -10.242  13.437  68.122  1.00  0.00    -0.246 C  
HETATM   11  O   UNL     1     -10.569  13.654  69.285  1.00  0.00    -0.113 OA 
HETATM   12  N   UNL     1     -10.504  12.237  67.499  1.00  0.00    -0.211 N  
HETATM   13  H   UNL     1     -10.157  12.073  66.554  1.00  0.00     0.000 HD 
BRANCH  12  14
HETATM   14  C   UNL     1     -11.265  11.205  68.168  1.00  0.00    -0.292 C  
BRANCH  14  15
HETATM   15  C   UNL     1     -10.747   9.798  67.889  1.00  0.00    -0.312 C  
BRANCH  15  16
HETATM   16  C   UNL     1      -9.310   9.711  68.350  1.00  0.00    -0.133 C  
HETATM   17  O   UNL     1      -8.389  10.185  67.691  1.00  0.00    -0.114 OA 
HETATM   18  N   UNL     1      -9.142   9.088  69.565  1.00  0.00    -0.147 N  
HETATM   19  H   UNL     1      -9.982   8.774  70.051  1.00  0.00     0.000 HD 
BRANCH  18  20
HETATM   20  C   UNL     1      -7.854   8.840  70.218  1.00  0.00    -0.095 C  
BRANCH  20  21
HETATM   21  C   UNL     1      -6.688   8.411  69.323  1.00  0.00    -0.046 C  
BRANCH  21  22
HETATM   22  S   UNL     1      -5.146   7.968  70.211  1.00  0.00    -0.023 SA 
BRANCH  22  23
HETATM   23  S   UNL     1      -5.141   9.210  71.855  1.00  0.00    -0.056 SA 
BRANCH  23  24
HETATM   24  C   UNL     1      -6.567   8.574  72.796  1.00  0.00    -0.064 C  
BRANCH  24  25
HETATM   25  C   UNL     1      -6.506   7.051  72.929  1.00  0.00    -0.061 C  
BRANCH  25  26
HETATM   26  N   UNL     1      -7.806   6.387  72.990  1.00  0.00    -0.105 N  
HETATM   27  H   UNL     1      -7.879   5.437  72.626  1.00  0.00     0.000 HD 
HETATM   28  C   UNL     1      -8.939   6.975  73.512  1.00  0.00    -0.149 C  
HETATM   29  O   UNL     1      -8.980   8.129  73.925  1.00  0.00    -0.242 OA 
BRANCH  28  30
HETATM   30  C   UNL     1     -10.143   6.064  73.577  1.00  0.00    -0.207 C  
BRANCH  30  31
HETATM   31  C   UNL     1      -9.699   4.641  73.904  1.00  0.00    -0.135 C  
BRANCH  31  32
HETATM   32  N   UNL     1      -9.281   3.913  72.721  1.00  0.00    -0.110 N  
HETATM   33  H   UNL     1      -8.451   3.322  72.775  1.00  0.00     0.000 HD 
HETATM   34  C   UNL     1      -9.962   3.991  71.529  1.00  0.00    -0.150 C  
HETATM   35  O   UNL     1     -10.914   4.743  71.340  1.00  0.00     0.113 OA 
BRANCH  34  36
HETATM   36  C   UNL     1      -9.377   3.096  70.413  1.00  0.00    -0.162 C  
HETATM   37  O   UNL     1      -8.472   2.136  70.979  1.00  0.00    -0.049 OA 
HETATM   38  H   UNL     1      -8.112   1.586  70.292  1.00  0.00     0.000 HD 
BRANCH  36  39
HETATM   39  C   UNL     1      -8.670   3.898  69.285  1.00  0.00    -0.127 C  
HETATM   40  C   UNL     1      -7.423   4.636  69.814  1.00  0.00    -0.055 C  
HETATM   41  C   UNL     1      -8.193   2.909  68.196  1.00  0.00    -0.085 C  
BRANCH  39  42
HETATM   42  C   UNL     1      -9.659   4.909  68.656  1.00  0.00    -0.154 C  
HETATM   43  O   UNL     1      -9.680   4.815  67.235  1.00  0.00    -0.158 OA 
HETATM   44  H   UNL     1     -10.287   5.436  66.849  1.00  0.00     0.000 HD 
ENDBRANCH  39  42
ENDBRANCH  36  39
ENDBRANCH  34  36
ENDBRANCH  31  32
ENDBRANCH  30  31
ENDBRANCH  28  30
ENDBRANCH  25  26
ENDBRANCH  24  25
ENDBRANCH  23  24
ENDBRANCH  22  23
ENDBRANCH  21  22
ENDBRANCH  20  21
ENDBRANCH  18  20
ENDBRANCH  15  16
ENDBRANCH  14  15
ENDBRANCH  12  14
ENDBRANCH   7  10
ENDBRANCH   2   7
TORSDOF 19
ENDMDL
MODEL      366
REMARK 921   NORMALIZED FREE ENERGY PREDICTED BY IDOCK:   -1.15 KCAL/MOL
REMARK 922        TOTAL FREE ENERGY PREDICTED BY IDOCK:   -4.61 KCAL/MOL
REMARK 923 INTER-LIGAND FREE ENERGY PREDICTED BY IDOCK:   -5.06 KCAL/MOL
REMARK 924 INTRA-LIGAND FREE ENERGY PREDICTED BY IDOCK:    0.45 KCAL/MOL
REMARK 927      BINDING AFFINITY PREDICTED BY RF-SCORE:    0.00 PKD
ROOT
HETATM    1  C   UNL     1      -8.106   5.518  74.556  1.00  0.00    -0.103 C  
HETATM    2  C   UNL     1      -9.098   5.085  73.460  1.00  0.00    -0.123 C  
HETATM    3  C   UNL     1     -10.411   5.894  73.600  1.00  0.00    -0.280 C  
ENDROOT
BRANCH   2   4
HETATM    4  C   UNL     1      -8.507   5.438  72.079  1.00  0.00    -0.127 C  
HETATM    5  O   UNL     1      -7.138   5.052  71.986  1.00  0.00    -0.066 OA 
HETATM    6  H   UNL     1      -6.774   5.270  71.136  1.00  0.00     0.000 HD 
ENDBRANCH   2   4
BRANCH   2   7
HETATM    7  C   UNL     1      -9.391   3.553  73.531  1.00  0.00    -0.103 C  
HETATM    8  O   UNL     1     -10.436   3.228  74.464  1.00  0.00    -0.180 OA 
HETATM    9  H   UNL     1     -10.614   2.296  74.507  1.00  0.00     0.000 HD 
BRANCH   7  10
HETATM   10  C   UNL     1      -9.752   2.894  72.182  1.00  0.00    -0.157 C  
HETATM   11  O   UNL     1     -10.895   2.645  71.810  1.00  0.00     0.635 OA 
HETATM   12  N   UNL     1      -8.655   2.671  71.380  1.00  0.00    -0.063 N  
HETATM   13  H   UNL     1      -7.718   2.829  71.751  1.00  0.00     0.000 HD 
BRANCH  12  14
HETATM   14  C   UNL     1      -8.814   2.214  70.017  1.00  0.00    -0.074 C  
BRANCH  14  15
HETATM   15  C   UNL     1      -7.580   1.503  69.472  1.00  0.00    -0.042 C  
BRANCH  15  16
HETATM   16  C   UNL     1      -6.817   2.467  68.590  1.00  0.00    -0.040 C  
HETATM   17  O   UNL     1      -5.756   2.156  68.058  1.00  0.00    -0.018 OA 
HETATM   18  N   UNL     1      -7.429   3.688  68.425  1.00  0.00    -0.054 N  
HETATM   19  H   UNL     1      -8.334   3.823  68.874  1.00  0.00     0.000 HD 
BRANCH  18  20
HETATM   20  C   UNL     1      -6.885   4.810  67.655  1.00  0.00    -0.060 C  
BRANCH  20  21
HETATM   21  C   UNL     1      -5.526   5.364  68.093  1.00  0.00    -0.011 C  
BRANCH  21  22
HETATM   22  S   UNL     1      -5.586   6.582  69.462  1.00  0.00    -0.014 SA 
BRANCH  22  23
HETATM   23  S   UNL     1      -6.345   8.285  68.583  1.00  0.00    -0.054 SA 
BRANCH  23  24
HETATM   24  C   UNL     1      -7.051   9.154  70.023  1.00  0.00    -0.060 C  
BRANCH  24  25
HETATM   25  C   UNL     1      -7.315  10.627  69.703  1.00  0.00    -0.130 C  
BRANCH  25  26
HETATM   26  N   UNL     1      -8.687  10.932  69.305  1.00  0.00    -0.376 N  
HETATM   27  H   UNL     1      -8.888  11.864  68.945  1.00  0.00     0.000 HD 
HETATM   28  C   UNL     1      -9.725  10.027  69.389  1.00  0.00    -0.225 C  
HETATM   29  O   UNL     1      -9.611   8.899  69.857  1.00  0.00    -0.168 OA 
BRANCH  28  30
HETATM   30  C   UNL     1     -11.034  10.521  68.815  1.00  0.00    -0.296 C  
BRANCH  30  31
HETATM   31  C   UNL     1     -10.864  10.830  67.331  1.00  0.00    -0.290 C  
BRANCH  31  32
HETATM   32  N   UNL     1     -10.276  12.137  67.108  1.00  0.00    -0.209 N  
HETATM   33  H   UNL     1      -9.259  12.220  67.079  1.00  0.00     0.000 HD 
HETATM   34  C   UNL     1     -11.038  13.269  66.936  1.00  0.00    -0.289 C  
HETATM   35  O   UNL     1     -12.261  13.285  67.046  1.00  0.00    -0.353 OA 
BRANCH  34  36
HETATM   36  C   UNL     1     -10.212  14.545  66.662  1.00  0.00    -0.275 C  
HETATM   37  O   UNL     1      -8.898  14.190  66.204  1.00  0.00    -0.460 OA 
HETATM   38  H   UNL     1      -8.390  14.975  66.035  1.00  0.00     0.000 HD 
BRANCH  36  39
HETATM   39  C   UNL     1     -10.113  15.493  67.889  1.00  0.00    -0.224 C  
HETATM   40  C   UNL     1     -10.293  14.722  69.213  1.00  0.00    -0.213 C  
HETATM   41  C   UNL     1      -8.702  16.127  67.915  1.00  0.00    -0.174 C  
BRANCH  39  42
HETATM   42  C   UNL     1     -11.173  16.614  67.778  1.00  0.00    -0.064 C  
HETATM   43  O   UNL     1     -10.672  17.750  67.080  1.00  0.00    -0.319 OA 
HETATM   44  H   UNL     1     -11.323  18.438  67.012  1.00  0.00     0.000 HD 
ENDBRANCH  39  42
ENDBRANCH  36  39
ENDBRANCH  34  36
ENDBRANCH  31  32
ENDBRANCH  30  31
ENDBRANCH  28  30
ENDBRANCH  25  26
ENDBRANCH  24  25
ENDBRANCH  23  24
ENDBRANCH  22  23
ENDBRANCH  21  22
ENDBRANCH  20  21
ENDBRANCH  18  20
ENDBRANCH  15  16
ENDBRANCH  14  15
ENDBRANCH  12  14
ENDBRANCH   7  10
ENDBRANCH   2   7
TORSDOF 19
ENDMDL
MODEL      367
REMARK 921   NORMALIZED FREE ENERGY PREDICTED BY IDOCK:   -1.13 KCAL/MOL
REMARK 922        TOTAL FREE ENERGY PREDICTED BY IDOCK:   -4.57 KCAL/MOL
REMARK 923 INTER-LIGAND FREE ENERGY PREDICTED BY IDOCK:   -5.76 KCAL/MOL
REMARK 924 INTRA-LIGAND FREE ENERGY PREDICTED BY IDOCK:    1.19 KCAL/MOL
REMARK 927      BINDING AFFINITY PREDICTED BY RF-SCORE:    0.00 PKD
ROOT
HETATM    1  C   UNL     1      -7.747  13.293  66.986  1.00  0.00     0.105 C  
HETATM    2  C   UNL     1      -8.377  14.578  67.556  1.00  0.00    -0.201 C  
HETATM    3  C   UNL     1      -7.773  14.878  68.950  1.00  0.00    -0.148 C  
ENDROOT
BRANCH   2   4
HETATM    4  C   UNL     1      -8.003  15.768  66.646  1.00  0.00    -0.197 C  
HETATM    5  O   UNL     1      -7.431  16.835  67.398  1.00  0.00    -0.147 OA 
HETATM    6  H   UNL     1      -7.201  17.568  66.838  1.00  0.00     0.000 HD 
ENDBRANCH   2   4
BRANCH   2   7
HETATM    7  C   UNL     1      -9.931  14.456  67.650  1.00  0.00    -0.224 C  
HETATM    8  O   UNL     1     -10.372  13.105  67.865  1.00  0.00    -0.221 OA 
HETATM    9  H   UNL     1     -11.317  13.031  67.923  1.00  0.00     0.000 HD 
BRANCH   7  10
HETATM   10  C   UNL     1     -10.590  15.337  68.734  1.00  0.00    -0.240 C  
HETATM   11  O   UNL     1     -11.364  16.263  68.507  1.00  0.00    -0.367 OA 
HETATM   12  N   UNL     1     -10.283  14.937  70.015  1.00  0.00    -0.474 N  
HETATM   13  H   UNL     1      -9.584  14.207  70.162  1.00  0.00     0.000 HD 
BRANCH  12  14
HETATM   14  C   UNL     1     -10.937  15.537  71.156  1.00  0.00    -0.222 C  
BRANCH  14  15
HETATM   15  C   UNL     1     -12.438  15.725  70.960  1.00  0.00    -0.473 C  
BRANCH  15  16
HETATM   16  C   UNL     1     -13.145  14.468  71.414  1.00  0.00    -0.353 C  
HETATM   17  O   UNL     1     -14.358  14.439  71.597  1.00  0.00    -0.442 OA 
HETATM   18  N   UNL     1     -12.319  13.379  71.570  1.00  0.00    -0.237 N  
HETATM   19  H   UNL     1     -11.333  13.502  71.343  1.00  0.00     0.000 HD 
BRANCH  18  20
HETATM   20  C   UNL     1     -12.743  12.056  72.036  1.00  0.00     0.010 C  
BRANCH  20  21
HETATM   21  C   UNL     1     -13.334  11.104  70.992  1.00  0.00     0.238 C  
BRANCH  21  22
HETATM   22  S   UNL     1     -12.129  10.419  69.791  1.00  0.00    -0.070 SA 
BRANCH  22  23
HETATM   23  S   UNL     1     -10.456  10.030  70.928  1.00  0.00     0.243 SA 
BRANCH  23  24
HETATM   24  C   UNL     1      -9.139  10.083  69.668  1.00  0.00    -0.210 C  
BRANCH  24  25
HETATM   25  C   UNL     1      -9.605   9.451  68.354  1.00  0.00    -0.146 C  
BRANCH  25  26
HETATM   26  N   UNL     1      -8.977   8.171  68.032  1.00  0.00    -0.134 N  
HETATM   27  H   UNL     1      -8.017   8.016  68.338  1.00  0.00     0.000 HD 
HETATM   28  C   UNL     1      -9.613   7.163  67.338  1.00  0.00    -0.137 C  
HETATM   29  O   UNL     1     -10.744   7.261  66.876  1.00  0.00    -0.338 OA 
BRANCH  28  30
HETATM   30  C   UNL     1      -8.813   5.886  67.219  1.00  0.00    -0.106 C  
BRANCH  30  31
HETATM   31  C   UNL     1      -9.516   4.762  67.975  1.00  0.00    -0.140 C  
BRANCH  31  32
HETATM   32  N   UNL     1      -9.341   4.876  69.410  1.00  0.00    -0.116 N  
HETATM   33  H   UNL     1      -9.040   5.770  69.799  1.00  0.00     0.000 HD 
HETATM   34  C   UNL     1      -9.568   3.824  70.266  1.00  0.00    -0.187 C  
HETATM   35  O   UNL     1      -9.844   2.690  69.886  1.00  0.00     0.025 OA 
BRANCH  34  36
HETATM   36  C   UNL     1      -9.373   4.176  71.758  1.00  0.00    -0.135 C  
HETATM   37  O   UNL     1     -10.650   4.306  72.402  1.00  0.00    -0.163 OA 
HETATM   38  H   UNL     1     -10.529   4.523  73.319  1.00  0.00     0.000 HD 
BRANCH  36  39
HETATM   39  C   UNL     1      -8.525   5.458  71.984  1.00  0.00    -0.127 C  
HETATM   40  C   UNL     1      -7.188   5.394  71.217  1.00  0.00    -0.075 C  
HETATM   41  C   UNL     1      -9.310   6.675  71.440  1.00  0.00    -0.151 C  
BRANCH  39  42
HETATM   42  C   UNL     1      -8.262   5.657  73.497  1.00  0.00    -0.112 C  
HETATM   43  O   UNL     1      -7.885   4.441  74.133  1.00  0.00    -0.090 OA 
HETATM   44  H   UNL     1      -7.723   4.562  75.061  1.00  0.00     0.000 HD 
ENDBRANCH  39  42
ENDBRANCH  36  39
ENDBRANCH  34  36
ENDBRANCH  31  32
ENDBRANCH  30  31
ENDBRANCH  28  30
ENDBRANCH  25  26
ENDBRANCH  24  25
ENDBRANCH  23  24
ENDBRANCH  22  23
ENDBRANCH  21  22
ENDBRANCH  20  21
ENDBRANCH  18  20
ENDBRANCH  15  16
ENDBRANCH  14  15
ENDBRANCH  12  14
ENDBRANCH   7  10
ENDBRANCH   2   7
TORSDOF 19
ENDMDL
MODEL      368
REMARK 921   NORMALIZED FREE ENERGY PREDICTED BY IDOCK:   -0.91 KCAL/MOL
REMARK 922        TOTAL FREE ENERGY PREDICTED BY IDOCK:   -4.11 KCAL/MOL
REMARK 923 INTER-LIGAND FREE ENERGY PREDICTED BY IDOCK:   -4.99 KCAL/MOL
REMARK 924 INTRA-LIGAND FREE ENERGY PREDICTED BY IDOCK:    0.89 KCAL/MOL
REMARK 927      BINDING AFFINITY PREDICTED BY RF-SCORE:    0.00 PKD
ROOT
HETATM    1  C   UNL     1      -8.062   5.564  74.562  1.00  0.00    -0.103 C  
HETATM    2  C   UNL     1      -9.022   5.336  73.380  1.00  0.00    -0.119 C  
HETATM    3  C   UNL     1     -10.384   6.011  73.680  1.00  0.00    -0.265 C  
ENDROOT
BRANCH   2   4
HETATM    4  C   UNL     1      -8.451   6.033  72.126  1.00  0.00    -0.124 C  
HETATM    5  O   UNL     1      -7.028   6.098  72.172  1.00  0.00    -0.075 OA 
HETATM    6  H   UNL     1      -6.677   6.527  71.401  1.00  0.00     0.000 HD 
ENDBRANCH   2   4
BRANCH   2   7
HETATM    7  C   UNL     1      -9.219   3.814  73.092  1.00  0.00    -0.102 C  
HETATM    8  O   UNL     1     -10.134   3.188  74.008  1.00  0.00    -0.110 OA 
HETATM    9  H   UNL     1     -10.254   2.262  73.833  1.00  0.00     0.000 HD 
BRANCH   7  10
HETATM   10  C   UNL     1      -9.691   3.476  71.661  1.00  0.00    -0.163 C  
HETATM   11  O   UNL     1     -10.837   3.156  71.360  1.00  0.00     1.048 OA 
HETATM   12  N   UNL     1      -8.704   3.639  70.715  1.00  0.00    -0.071 N  
HETATM   13  H   UNL     1      -7.749   3.839  71.012  1.00  0.00     0.000 HD 
BRANCH  12  14
HETATM   14  C   UNL     1      -9.003   3.528  69.304  1.00  0.00    -0.119 C  
BRANCH  14  15
HETATM   15  C   UNL     1      -7.784   3.187  68.454  1.00  0.00    -0.058 C  
BRANCH  15  16
HETATM   16  C   UNL     1      -7.354   4.429  67.706  1.00  0.00    -0.069 C  
HETATM   17  O   UNL     1      -6.358   4.441  66.990  1.00  0.00    -0.038 OA 
HETATM   18  N   UNL     1      -8.186   5.511  67.881  1.00  0.00    -0.100 N  
HETATM   19  H   UNL     1      -9.014   5.377  68.461  1.00  0.00     0.000 HD 
BRANCH  18  20
HETATM   20  C   UNL     1      -7.977   6.841  67.302  1.00  0.00    -0.114 C  
BRANCH  20  21
HETATM   21  C   UNL     1      -6.683   7.570  67.675  1.00  0.00    -0.067 C  
BRANCH  21  22
HETATM   22  S   UNL     1      -6.882   8.949  68.868  1.00  0.00    -0.061 SA 
BRANCH  22  23
HETATM   23  S   UNL     1      -7.584  10.508  67.718  1.00  0.00    -0.088 SA 
BRANCH  23  24
HETATM   24  C   UNL     1      -8.852  11.226  68.813  1.00  0.00    -0.102 C  
BRANCH  24  25
HETATM   25  C   UNL     1      -8.906  12.749  68.674  1.00  0.00     0.060 C  
BRANCH  25  26
HETATM   26  N   UNL     1     -10.168  13.274  68.160  1.00  0.00    -0.237 N  
HETATM   27  H   UNL     1     -10.310  14.284  68.172  1.00  0.00     0.000 HD 
HETATM   28  C   UNL     1     -11.178  12.479  67.660  1.00  0.00    -0.282 C  
HETATM   29  O   UNL     1     -11.139  11.254  67.648  1.00  0.00    -0.238 OA 
BRANCH  28  30
HETATM   30  C   UNL     1     -12.346  13.243  67.078  1.00  0.00    -0.190 C  
BRANCH  30  31
HETATM   31  C   UNL     1     -11.853  14.191  65.989  1.00  0.00    -0.398 C  
BRANCH  31  32
HETATM   32  N   UNL     1     -11.425  15.468  66.529  1.00  0.00    -0.025 N  
HETATM   33  H   UNL     1     -11.738  15.738  67.461  1.00  0.00     0.000 HD 
HETATM   34  C   UNL     1     -10.612  16.328  65.828  1.00  0.00    -0.324 C  
HETATM   35  O   UNL     1     -10.259  16.134  64.669  1.00  0.00    -0.294 OA 
BRANCH  34  36
HETATM   36  C   UNL     1     -10.235  17.608  66.607  1.00  0.00    -0.341 C  
HETATM   37  O   UNL     1     -10.265  18.744  65.728  1.00  0.00    -0.541 OA 
HETATM   38  H   UNL     1     -10.033  19.531  66.207  1.00  0.00     0.000 HD 
BRANCH  36  39
HETATM   39  C   UNL     1      -8.855  17.517  67.316  1.00  0.00    -0.235 C  
HETATM   40  C   UNL     1      -8.491  18.843  68.015  1.00  0.00    -0.325 C  
HETATM   41  C   UNL     1      -8.930  16.425  68.410  1.00  0.00    -0.214 C  
BRANCH  39  42
HETATM   42  C   UNL     1      -7.759  17.137  66.292  1.00  0.00    -0.315 C  
HETATM   43  O   UNL     1      -7.040  15.975  66.693  1.00  0.00    -0.193 OA 
HETATM   44  H   UNL     1      -6.367  15.741  66.065  1.00  0.00     0.000 HD 
ENDBRANCH  39  42
ENDBRANCH  36  39
ENDBRANCH  34  36
ENDBRANCH  31  32
ENDBRANCH  30  31
ENDBRANCH  28  30
ENDBRANCH  25  26
ENDBRANCH  24  25
ENDBRANCH  23  24
ENDBRANCH  22  23
ENDBRANCH  21  22
ENDBRANCH  20  21
ENDBRANCH  18  20
ENDBRANCH  15  16
ENDBRANCH  14  15
ENDBRANCH  12  14
ENDBRANCH   7  10
ENDBRANCH   2   7
TORSDOF 19
ENDMDL
MODEL      369
REMARK 921   NORMALIZED FREE ENERGY PREDICTED BY IDOCK:    0.03 KCAL/MOL
REMARK 922        TOTAL FREE ENERGY PREDICTED BY IDOCK:   -2.12 KCAL/MOL
REMARK 923 INTER-LIGAND FREE ENERGY PREDICTED BY IDOCK:   -5.20 KCAL/MOL
REMARK 924 INTRA-LIGAND FREE ENERGY PREDICTED BY IDOCK:    3.08 KCAL/MOL
REMARK 927      BINDING AFFINITY PREDICTED BY RF-SCORE:    0.00 PKD
ROOT
HETATM    1  C   UNL     1      -8.389  13.006  66.935  1.00  0.00    -0.033 C  
HETATM    2  C   UNL     1      -8.880  14.364  67.470  1.00  0.00    -0.197 C  
HETATM    3  C   UNL     1      -8.202  14.662  68.831  1.00  0.00    -0.145 C  
ENDROOT
BRANCH   2   4
HETATM    4  C   UNL     1      -8.433  15.479  66.501  1.00  0.00    -0.248 C  
HETATM    5  O   UNL     1      -8.743  16.771  67.017  1.00  0.00    -0.190 OA 
HETATM    6  H   UNL     1      -8.468  17.457  66.420  1.00  0.00     0.000 HD 
ENDBRANCH   2   4
BRANCH   2   7
HETATM    7  C   UNL     1     -10.434  14.388  67.619  1.00  0.00    -0.245 C  
HETATM    8  O   UNL     1     -10.989  13.090  67.892  1.00  0.00    -0.229 OA 
HETATM    9  H   UNL     1     -11.934  13.105  67.982  1.00  0.00     0.000 HD 
BRANCH   7  10
HETATM   10  C   UNL     1     -10.972  15.358  68.695  1.00  0.00    -0.273 C  
HETATM   11  O   UNL     1     -11.772  16.264  68.481  1.00  0.00    -0.302 OA 
HETATM   12  N   UNL     1     -10.519  15.063  69.961  1.00  0.00    -0.458 N  
HETATM   13  H   UNL     1      -9.804  14.346  70.087  1.00  0.00     0.000 HD 
BRANCH  12  14
HETATM   14  C   UNL     1     -11.044  15.758  71.116  1.00  0.00    -0.245 C  
BRANCH  14  15
HETATM   15  C   UNL     1     -12.556  15.950  71.067  1.00  0.00    -0.349 C  
BRANCH  15  16
HETATM   16  C   UNL     1     -13.217  14.740  71.689  1.00  0.00    -0.349 C  
HETATM   17  O   UNL     1     -14.389  14.757  72.051  1.00  0.00    -0.477 OA 
HETATM   18  N   UNL     1     -12.402  13.635  71.781  1.00  0.00    -0.150 N  
HETATM   19  H   UNL     1     -11.458  13.716  71.404  1.00  0.00     0.000 HD 
BRANCH  18  20
HETATM   20  C   UNL     1     -12.781  12.351  72.376  1.00  0.00     0.540 C  
BRANCH  20  21
HETATM   21  C   UNL     1     -13.591  11.388  71.502  1.00  0.00     0.339 C  
BRANCH  21  22
HETATM   22  S   UNL     1     -12.674  10.659  70.091  1.00  0.00    -0.038 SA 
BRANCH  22  23
HETATM   23  S   UNL     1     -10.883  10.060  70.913  1.00  0.00    -0.070 SA 
BRANCH  23  24
HETATM   24  C   UNL     1      -9.780  10.113  69.462  1.00  0.00    -0.229 C  
BRANCH  24  25
HETATM   25  C   UNL     1     -10.538   9.764  68.179  1.00  0.00    -0.231 C  
BRANCH  25  26
HETATM   26  N   UNL     1     -10.390   8.380  67.736  1.00  0.00    -0.230 N  
HETATM   27  H   UNL     1     -11.052   8.021  67.048  1.00  0.00     0.000 HD 
HETATM   28  C   UNL     1      -9.404   7.533  68.197  1.00  0.00    -0.136 C  
HETATM   29  O   UNL     1      -8.591   7.840  69.062  1.00  0.00    -0.134 OA 
BRANCH  28  30
HETATM   30  C   UNL     1      -9.370   6.183  67.517  1.00  0.00    -0.113 C  
BRANCH  30  31
HETATM   31  C   UNL     1      -8.023   5.983  66.829  1.00  0.00    -0.102 C  
BRANCH  31  32
HETATM   32  N   UNL     1      -7.795   6.959  65.780  1.00  0.00    -0.100 N  
HETATM   33  H   UNL     1      -7.395   7.864  66.029  1.00  0.00     0.000 HD 
HETATM   34  C   UNL     1      -8.097   6.708  64.462  1.00  0.00    -0.073 C  
HETATM   35  O   UNL     1      -8.663   5.688  64.079  1.00  0.00    -0.003 OA 
BRANCH  34  36
HETATM   36  C   UNL     1      -7.727   7.862  63.503  1.00  0.00    -0.136 C  
HETATM   37  O   UNL     1      -6.635   7.467  62.658  1.00  0.00    -0.063 OA 
HETATM   38  H   UNL     1      -6.408   8.177  62.069  1.00  0.00     0.000 HD 
BRANCH  36  39
HETATM   39  C   UNL     1      -7.383   9.189  64.237  1.00  0.00    -0.104 C  
HETATM   40  C   UNL     1      -5.931   9.627  63.957  1.00  0.00    -0.100 C  
HETATM   41  C   UNL     1      -8.312  10.306  63.705  1.00  0.00    -0.165 C  
BRANCH  39  42
HETATM   42  C   UNL     1      -7.605   9.024  65.759  1.00  0.00    -0.090 C  
HETATM   43  O   UNL     1      -6.708   9.830  66.516  1.00  0.00    -0.077 OA 
HETATM   44  H   UNL     1      -6.844   9.728  67.450  1.00  0.00     0.000 HD 
ENDBRANCH  39  42
ENDBRANCH  36  39
ENDBRANCH  34  36
ENDBRANCH  31  32
ENDBRANCH  30  31
ENDBRANCH  28  30
ENDBRANCH  25  26
ENDBRANCH  24  25
ENDBRANCH  23  24
ENDBRANCH  22  23
ENDBRANCH  21  22
ENDBRANCH  20  21
ENDBRANCH  18  20
ENDBRANCH  15  16
ENDBRANCH  14  15
ENDBRANCH  12  14
ENDBRANCH   7  10
ENDBRANCH   2   7
TORSDOF 19
ENDMDL
MODEL      370
REMARK 921   NORMALIZED FREE ENERGY PREDICTED BY IDOCK:    1.32 KCAL/MOL
REMARK 922        TOTAL FREE ENERGY PREDICTED BY IDOCK:    0.61 KCAL/MOL
REMARK 923 INTER-LIGAND FREE ENERGY PREDICTED BY IDOCK:   -0.56 KCAL/MOL
REMARK 924 INTRA-LIGAND FREE ENERGY PREDICTED BY IDOCK:    1.17 KCAL/MOL
REMARK 927      BINDING AFFINITY PREDICTED BY RF-SCORE:    0.00 PKD
ROOT
HETATM    1  C   UNL     1     -11.531   7.919  72.164  1.00  0.00    -0.377 C  
HETATM    2  C   UNL     1     -11.653   7.862  70.630  1.00  0.00    -0.215 C  
HETATM    3  C   UNL     1     -13.021   7.250  70.240  1.00  0.00     0.787 C  
ENDROOT
BRANCH   2   4
HETATM    4  C   UNL     1     -11.638   9.300  70.070  1.00  0.00     0.025 C  
HETATM    5  O   UNL     1     -12.077  10.242  71.046  1.00  0.00    -0.323 OA 
HETATM    6  H   UNL     1     -12.068  11.127  70.701  1.00  0.00     0.000 HD 
ENDBRANCH   2   4
BRANCH   2   7
HETATM    7  C   UNL     1     -10.488   7.039  69.997  1.00  0.00    -0.215 C  
HETATM    8  O   UNL     1     -10.498   5.658  70.397  1.00  0.00    -0.243 OA 
HETATM    9  H   UNL     1      -9.790   5.157  70.012  1.00  0.00     0.000 HD 
BRANCH   7  10
HETATM   10  C   UNL     1     -10.427   7.073  68.454  1.00  0.00    -0.201 C  
HETATM   11  O   UNL     1      -9.995   8.012  67.792  1.00  0.00    -0.157 OA 
HETATM   12  N   UNL     1     -10.844   5.897  67.871  1.00  0.00    -0.266 N  
HETATM   13  H   UNL     1     -11.259   5.167  68.450  1.00  0.00     0.000 HD 
BRANCH  12  14
HETATM   14  C   UNL     1     -10.703   5.684  66.447  1.00  0.00    -0.161 C  
BRANCH  14  15
HETATM   15  C   UNL     1      -9.251   5.684  65.980  1.00  0.00    -0.164 C  
BRANCH  15  16
HETATM   16  C   UNL     1      -8.497   4.620  66.744  1.00  0.00    -0.105 C  
HETATM   17  O   UNL     1      -7.850   3.748  66.172  1.00  0.00    -0.088 OA 
HETATM   18  N   UNL     1      -8.583   4.738  68.112  1.00  0.00    -0.101 N  
HETATM   19  H   UNL     1      -9.109   5.529  68.482  1.00  0.00     0.000 HD 
BRANCH  18  20
HETATM   20  C   UNL     1      -7.980   3.818  69.081  1.00  0.00    -0.055 C  
BRANCH  20  21
HETATM   21  C   UNL     1      -6.659   4.249  69.725  1.00  0.00    -0.033 C  
BRANCH  21  22
HETATM   22  S   UNL     1      -5.484   5.095  68.600  1.00  0.00    -0.011 SA 
BRANCH  22  23
HETATM   23  S   UNL     1      -6.248   7.000  68.419  1.00  0.00    -0.036 SA 
BRANCH  23  24
HETATM   24  C   UNL     1      -5.986   7.659  70.099  1.00  0.00    -0.023 C  
BRANCH  24  25
HETATM   25  C   UNL     1      -5.182   8.960  70.063  1.00  0.00    -0.029 C  
BRANCH  25  26
HETATM   26  N   UNL     1      -5.983  10.173  69.920  1.00  0.00    -0.046 N  
HETATM   27  H   UNL     1      -5.596  10.945  69.377  1.00  0.00     0.000 HD 
HETATM   28  C   UNL     1      -7.235  10.331  70.478  1.00  0.00     0.173 C  
HETATM   29  O   UNL     1      -7.773   9.493  71.193  1.00  0.00    -0.325 OA 
BRANCH  28  30
HETATM   30  C   UNL     1      -7.928  11.622  70.105  1.00  0.00     2.320 C  
BRANCH  30  31
HETATM   31  C   UNL     1      -7.610  11.981  68.657  1.00  0.00    -0.112 C  
BRANCH  31  32
HETATM   32  N   UNL     1      -8.754  12.551  67.971  1.00  0.00    -0.179 N  
HETATM   33  H   UNL     1      -9.477  11.925  67.617  1.00  0.00     0.000 HD 
HETATM   34  C   UNL     1      -8.899  13.906  67.781  1.00  0.00    -0.189 C  
HETATM   35  O   UNL     1      -8.041  14.729  68.089  1.00  0.00    -0.122 OA 
BRANCH  34  36
HETATM   36  C   UNL     1     -10.214  14.302  67.073  1.00  0.00    -0.260 C  
HETATM   37  O   UNL     1     -10.102  14.065  65.661  1.00  0.00    -0.313 OA 
HETATM   38  H   UNL     1     -10.910  14.309  65.226  1.00  0.00     0.000 HD 
BRANCH  36  39
HETATM   39  C   UNL     1     -10.638  15.774  67.337  1.00  0.00    -0.313 C  
HETATM   40  C   UNL     1     -10.462  16.154  68.822  1.00  0.00    -0.264 C  
HETATM   41  C   UNL     1      -9.726  16.710  66.510  1.00  0.00    -0.291 C  
BRANCH  39  42
HETATM   42  C   UNL     1     -12.109  15.985  66.905  1.00  0.00     1.338 C  
HETATM   43  O   UNL     1     -12.576  14.922  66.080  1.00  0.00     0.019 OA 
HETATM   44  H   UNL     1     -13.479  15.052  65.814  1.00  0.00     0.000 HD 
ENDBRANCH  39  42
ENDBRANCH  36  39
ENDBRANCH  34  36
ENDBRANCH  31  32
ENDBRANCH  30  31
ENDBRANCH  28  30
ENDBRANCH  25  26
ENDBRANCH  24  25
ENDBRANCH  23  24
ENDBRANCH  22  23
ENDBRANCH  21  22
ENDBRANCH  20  21
ENDBRANCH  18  20
ENDBRANCH  15  16
ENDBRANCH  14  15
ENDBRANCH  12  14
ENDBRANCH   7  10
ENDBRANCH   2   7
TORSDOF 19
ENDMDL
MODEL      371
REMARK 921   NORMALIZED FREE ENERGY PREDICTED BY IDOCK:    1.46 KCAL/MOL
REMARK 922        TOTAL FREE ENERGY PREDICTED BY IDOCK:    0.90 KCAL/MOL
REMARK 923 INTER-LIGAND FREE ENERGY PREDICTED BY IDOCK:   -2.26 KCAL/MOL
REMARK 924 INTRA-LIGAND FREE ENERGY PREDICTED BY IDOCK:    3.16 KCAL/MOL
REMARK 927      BINDING AFFINITY PREDICTED BY RF-SCORE:    0.00 PKD
ROOT
HETATM    1  C   UNL     1      -8.082  15.105  71.293  1.00  0.00     3.283 C  
HETATM    2  C   UNL     1      -7.326  15.170  69.952  1.00  0.00    -0.068 C  
HETATM    3  C   UNL     1      -7.505  16.573  69.323  1.00  0.00    -0.183 C  
ENDROOT
BRANCH   2   4
HETATM    4  C   UNL     1      -5.816  14.995  70.218  1.00  0.00    -0.147 C  
HETATM    5  O   UNL     1      -5.134  16.246  70.181  1.00  0.00    -0.131 OA 
HETATM    6  H   UNL     1      -4.204  16.138  70.344  1.00  0.00     0.000 HD 
ENDBRANCH   2   4
BRANCH   2   7
HETATM    7  C   UNL     1      -7.819  14.064  68.968  1.00  0.00     0.023 C  
HETATM    8  O   UNL     1      -7.404  14.299  67.611  1.00  0.00    -0.149 OA 
HETATM    9  H   UNL     1      -7.704  13.626  67.012  1.00  0.00     0.000 HD 
BRANCH   7  10
HETATM   10  C   UNL     1      -7.397  12.624  69.338  1.00  0.00     0.353 C  
HETATM   11  O   UNL     1      -7.905  11.607  68.877  1.00  0.00    -0.118 OA 
HETATM   12  N   UNL     1      -6.324  12.581  70.200  1.00  0.00    -0.359 N  
HETATM   13  H   UNL     1      -5.974  13.447  70.613  1.00  0.00     0.000 HD 
BRANCH  12  14
HETATM   14  C   UNL     1      -5.687  11.326  70.528  1.00  0.00    -0.143 C  
BRANCH  14  15
HETATM   15  C   UNL     1      -6.546  10.110  70.197  1.00  0.00    -0.128 C  
BRANCH  15  16
HETATM   16  C   UNL     1      -6.092   9.543  68.871  1.00  0.00    -0.042 C  
HETATM   17  O   UNL     1      -5.374  10.181  68.107  1.00  0.00    -0.036 OA 
HETATM   18  N   UNL     1      -6.529   8.262  68.623  1.00  0.00    -0.053 N  
HETATM   19  H   UNL     1      -7.081   7.807  69.349  1.00  0.00     0.000 HD 
BRANCH  18  20
HETATM   20  C   UNL     1      -6.264   7.499  67.400  1.00  0.00    -0.049 C  
BRANCH  20  21
HETATM   21  C   UNL     1      -6.958   6.141  67.261  1.00  0.00    -0.069 C  
BRANCH  21  22
HETATM   22  S   UNL     1      -7.250   5.589  65.537  1.00  0.00    -0.069 SA 
BRANCH  22  23
HETATM   23  S   UNL     1      -5.972   6.753  64.415  1.00  0.00    -0.036 SA 
BRANCH  23  24
HETATM   24  C   UNL     1      -6.970   8.259  64.172  1.00  0.00    -0.077 C  
BRANCH  24  25
HETATM   25  C   UNL     1      -8.045   8.043  63.104  1.00  0.00    -0.114 C  
BRANCH  25  26
HETATM   26  N   UNL     1      -8.966   9.163  62.925  1.00  0.00    -0.417 N  
HETATM   27  H   UNL     1      -9.210   9.438  61.973  1.00  0.00     0.000 HD 
HETATM   28  C   UNL     1      -9.523   9.868  63.971  1.00  0.00    -0.167 C  
HETATM   29  O   UNL     1      -9.258   9.661  65.151  1.00  0.00    -0.214 OA 
BRANCH  28  30
HETATM   30  C   UNL     1     -10.535  10.911  63.555  1.00  0.00    -0.267 C  
BRANCH  30  31
HETATM   31  C   UNL     1      -9.846  12.261  63.382  1.00  0.00    -0.034 C  
BRANCH  31  32
HETATM   32  N   UNL     1      -9.780  13.005  64.626  1.00  0.00    -0.548 N  
HETATM   33  H   UNL     1      -9.016  12.812  65.273  1.00  0.00     0.000 HD 
HETATM   34  C   UNL     1     -10.710  13.960  64.963  1.00  0.00    -0.386 C  
HETATM   35  O   UNL     1     -11.712  14.196  64.294  1.00  0.00    -0.389 OA 
BRANCH  34  36
HETATM   36  C   UNL     1     -10.423  14.667  66.306  1.00  0.00    -0.298 C  
HETATM   37  O   UNL     1     -11.363  14.231  67.301  1.00  0.00    -0.305 OA 
HETATM   38  H   UNL     1     -11.187  14.666  68.127  1.00  0.00     0.000 HD 
BRANCH  36  39
HETATM   39  C   UNL     1     -10.435  16.218  66.203  1.00  0.00    -0.330 C  
HETATM   40  C   UNL     1      -9.014  16.779  65.986  1.00  0.00    -0.220 C  
HETATM   41  C   UNL     1     -11.284  16.628  64.977  1.00  0.00    -0.030 C  
BRANCH  39  42
HETATM   42  C   UNL     1     -11.058  16.828  67.482  1.00  0.00    -0.035 C  
HETATM   43  O   UNL     1     -10.105  17.573  68.232  1.00  0.00    -0.304 OA 
HETATM   44  H   UNL     1     -10.487  17.947  69.017  1.00  0.00     0.000 HD 
ENDBRANCH  39  42
ENDBRANCH  36  39
ENDBRANCH  34  36
ENDBRANCH  31  32
ENDBRANCH  30  31
ENDBRANCH  28  30
ENDBRANCH  25  26
ENDBRANCH  24  25
ENDBRANCH  23  24
ENDBRANCH  22  23
ENDBRANCH  21  22
ENDBRANCH  20  21
ENDBRANCH  18  20
ENDBRANCH  15  16
ENDBRANCH  14  15
ENDBRANCH  12  14
ENDBRANCH   7  10
ENDBRANCH   2   7
TORSDOF 19
ENDMDL
MODEL      372
REMARK 921   NORMALIZED FREE ENERGY PREDICTED BY IDOCK:    2.01 KCAL/MOL
REMARK 922        TOTAL FREE ENERGY PREDICTED BY IDOCK:    2.06 KCAL/MOL
REMARK 923 INTER-LIGAND FREE ENERGY PREDICTED BY IDOCK:    0.48 KCAL/MOL
REMARK 924 INTRA-LIGAND FREE ENERGY PREDICTED BY IDOCK:    1.58 KCAL/MOL
REMARK 927      BINDING AFFINITY PREDICTED BY RF-SCORE:    0.00 PKD
ROOT
HETATM    1  C   UNL     1     -11.232   6.805  71.642  1.00  0.00    -0.293 C  
HETATM    2  C   UNL     1     -11.503   6.704  70.130  1.00  0.00    -0.444 C  
HETATM    3  C   UNL     1     -12.913   6.108  69.894  1.00  0.00     4.100 C  
ENDROOT
BRANCH   2   4
HETATM    4  C   UNL     1     -11.517   8.124  69.525  1.00  0.00     0.442 C  
HETATM    5  O   UNL     1     -10.203   8.675  69.464  1.00  0.00    -0.198 OA 
HETATM    6  H   UNL     1     -10.212   9.549  69.092  1.00  0.00     0.000 HD 
ENDBRANCH   2   4
BRANCH   2   7
HETATM    7  C   UNL     1     -10.419   5.838  69.415  1.00  0.00    -0.290 C  
HETATM    8  O   UNL     1     -10.418   4.469  69.856  1.00  0.00     0.003 OA 
HETATM    9  H   UNL     1      -9.758   3.943  69.421  1.00  0.00     0.000 HD 
BRANCH   7  10
HETATM   10  C   UNL     1     -10.504   5.828  67.872  1.00  0.00    -0.228 C  
HETATM   11  O   UNL     1     -10.120   6.739  67.145  1.00  0.00    -0.156 OA 
HETATM   12  N   UNL     1     -10.994   4.644  67.367  1.00  0.00     0.494 N  
HETATM   13  H   UNL     1     -11.364   3.939  68.004  1.00  0.00     0.000 HD 
BRANCH  12  14
HETATM   14  C   UNL     1     -10.992   4.389  65.944  1.00  0.00     0.565 C  
BRANCH  14  15
HETATM   15  C   UNL     1      -9.596   4.408  65.330  1.00  0.00    -0.187 C  
BRANCH  15  16
HETATM   16  C   UNL     1      -8.715   3.451  66.103  1.00  0.00    -0.126 C  
HETATM   17  O   UNL     1      -8.057   2.581  65.542  1.00  0.00    -0.081 OA 
HETATM   18  N   UNL     1      -8.704   3.665  67.462  1.00  0.00    -0.101 N  
HETATM   19  H   UNL     1      -9.251   4.448  67.818  1.00  0.00     0.000 HD 
BRANCH  18  20
HETATM   20  C   UNL     1      -7.968   2.858  68.440  1.00  0.00    -0.057 C  
BRANCH  20  21
HETATM   21  C   UNL     1      -6.648   3.430  68.965  1.00  0.00    -0.037 C  
BRANCH  21  22
HETATM   22  S   UNL     1      -5.618   4.288  67.713  1.00  0.00    -0.022 SA 
BRANCH  22  23
HETATM   23  S   UNL     1      -6.542   6.115  67.474  1.00  0.00    -0.058 SA 
BRANCH  23  24
HETATM   24  C   UNL     1      -5.616   6.809  66.064  1.00  0.00    -0.025 C  
BRANCH  24  25
HETATM   25  C   UNL     1      -6.561   7.227  64.935  1.00  0.00    -0.040 C  
BRANCH  25  26
HETATM   26  N   UNL     1      -7.035   8.606  65.011  1.00  0.00    -0.075 N  
HETATM   27  H   UNL     1      -7.974   8.813  64.668  1.00  0.00     0.000 HD 
HETATM   28  C   UNL     1      -6.284   9.645  65.521  1.00  0.00    -0.069 C  
HETATM   29  O   UNL     1      -5.127   9.523  65.909  1.00  0.00    -0.034 OA 
BRANCH  28  30
HETATM   30  C   UNL     1      -7.017  10.964  65.607  1.00  0.00     0.059 C  
BRANCH  30  31
HETATM   31  C   UNL     1      -8.449  10.794  65.110  1.00  0.00    -0.101 C  
BRANCH  31  32
HETATM   32  N   UNL     1      -9.388  11.608  65.859  1.00  0.00    -0.228 N  
HETATM   33  H   UNL     1      -9.541  11.399  66.845  1.00  0.00     0.000 HD 
HETATM   34  C   UNL     1     -10.079  12.650  65.287  1.00  0.00    -0.253 C  
HETATM   35  O   UNL     1     -10.031  12.919  64.090  1.00  0.00    -0.284 OA 
BRANCH  34  36
HETATM   36  C   UNL     1     -10.987  13.417  66.274  1.00  0.00    -0.288 C  
HETATM   37  O   UNL     1     -12.192  12.672  66.512  1.00  0.00    -0.538 OA 
HETATM   38  H   UNL     1     -12.750  13.143  67.119  1.00  0.00     0.000 HD 
BRANCH  36  39
HETATM   39  C   UNL     1     -11.333  14.857  65.804  1.00  0.00    -0.314 C  
HETATM   40  C   UNL     1     -10.086  15.591  65.268  1.00  0.00    -0.337 C  
HETATM   41  C   UNL     1     -12.351  14.771  64.643  1.00  0.00    -0.346 C  
BRANCH  39  42
HETATM   42  C   UNL     1     -11.960  15.657  66.972  1.00  0.00     0.616 C  
HETATM   43  O   UNL     1     -12.383  14.805  68.031  1.00  0.00    -0.592 OA 
HETATM   44  H   UNL     1     -12.768  15.295  68.747  1.00  0.00     0.000 HD 
ENDBRANCH  39  42
ENDBRANCH  36  39
ENDBRANCH  34  36
ENDBRANCH  31  32
ENDBRANCH  30  31
ENDBRANCH  28  30
ENDBRANCH  25  26
ENDBRANCH  24  25
ENDBRANCH  23  24
ENDBRANCH  22  23
ENDBRANCH  21  22
ENDBRANCH  20  21
ENDBRANCH  18  20
ENDBRANCH  15  16
ENDBRANCH  14  15
ENDBRANCH  12  14
ENDBRANCH   7  10
ENDBRANCH   2   7
TORSDOF 19
ENDMDL
MODEL      373
REMARK 921   NORMALIZED FREE ENERGY PREDICTED BY IDOCK:    2.16 KCAL/MOL
REMARK 922        TOTAL FREE ENERGY PREDICTED BY IDOCK:    2.37 KCAL/MOL
REMARK 923 INTER-LIGAND FREE ENERGY PREDICTED BY IDOCK:   -2.02 KCAL/MOL
REMARK 924 INTRA-LIGAND FREE ENERGY PREDICTED BY IDOCK:    4.39 KCAL/MOL
REMARK 927      BINDING AFFINITY PREDICTED BY RF-SCORE:    0.00 PKD
ROOT
HETATM    1  C   UNL     1      -7.694  11.757  68.541  1.00  0.00    -0.137 C  
HETATM    2  C   UNL     1      -7.245  13.178  68.927  1.00  0.00    -0.048 C  
HETATM    3  C   UNL     1      -8.409  13.915  69.635  1.00  0.00     0.988 C  
ENDROOT
BRANCH   2   4
HETATM    4  C   UNL     1      -6.095  13.082  69.952  1.00  0.00    -0.125 C  
HETATM    5  O   UNL     1      -5.181  14.166  69.809  1.00  0.00    -0.091 OA 
HETATM    6  H   UNL     1      -4.473  14.106  70.440  1.00  0.00     0.000 HD 
ENDBRANCH   2   4
BRANCH   2   7
HETATM    7  C   UNL     1      -6.770  13.984  67.677  1.00  0.00    -0.173 C  
HETATM    8  O   UNL     1      -7.202  13.397  66.438  1.00  0.00     0.518 OA 
HETATM    9  H   UNL     1      -6.914  13.887  65.678  1.00  0.00     0.000 HD 
BRANCH   7  10
HETATM   10  C   UNL     1      -7.193  15.470  67.659  1.00  0.00    -0.179 C  
HETATM   11  O   UNL     1      -7.466  16.106  66.645  1.00  0.00    -0.228 OA 
HETATM   12  N   UNL     1      -7.310  16.013  68.919  1.00  0.00    -0.163 N  
HETATM   13  H   UNL     1      -7.009  15.473  69.731  1.00  0.00     0.000 HD 
BRANCH  12  14
HETATM   14  C   UNL     1      -7.853  17.340  69.106  1.00  0.00    -0.050 C  
BRANCH  14  15
HETATM   15  C   UNL     1      -9.299  17.336  69.588  1.00  0.00     0.646 C  
BRANCH  15  16
HETATM   16  C   UNL     1     -10.207  17.160  68.392  1.00  0.00    -0.340 C  
HETATM   17  O   UNL     1     -11.070  16.288  68.357  1.00  0.00    -0.340 OA 
HETATM   18  N   UNL     1      -9.995  18.069  67.381  1.00  0.00    -0.313 N  
HETATM   19  H   UNL     1      -9.283  18.783  67.535  1.00  0.00     0.000 HD 
BRANCH  18  20
HETATM   20  C   UNL     1     -10.708  18.095  66.102  1.00  0.00    -0.145 C  
BRANCH  20  21
HETATM   21  C   UNL     1     -11.138  16.747  65.514  1.00  0.00     0.099 C  
BRANCH  21  22
HETATM   22  S   UNL     1      -9.773  15.715  64.855  1.00  0.00     1.078 SA 
BRANCH  22  23
HETATM   23  S   UNL     1     -10.074  13.872  65.726  1.00  0.00    -0.307 SA 
BRANCH  23  24
HETATM   24  C   UNL     1     -11.892  13.744  65.689  1.00  0.00    -0.365 C  
BRANCH  24  25
HETATM   25  C   UNL     1     -12.445  13.332  67.056  1.00  0.00     0.058 C  
BRANCH  25  26
HETATM   26  N   UNL     1     -12.147  11.957  67.449  1.00  0.00     0.024 N  
HETATM   27  H   UNL     1     -12.762  11.506  68.127  1.00  0.00     0.000 HD 
HETATM   28  C   UNL     1     -11.082  11.236  66.953  1.00  0.00    -0.275 C  
HETATM   29  O   UNL     1     -10.249  11.694  66.178  1.00  0.00    -0.213 OA 
BRANCH  28  30
HETATM   30  C   UNL     1     -11.033   9.796  67.412  1.00  0.00    -0.176 C  
BRANCH  30  31
HETATM   31  C   UNL     1     -11.327   9.719  68.907  1.00  0.00     0.058 C  
BRANCH  31  32
HETATM   32  N   UNL     1     -10.596   8.646  69.554  1.00  0.00    -0.228 N  
HETATM   33  H   UNL     1     -11.002   8.201  70.377  1.00  0.00     0.000 HD 
HETATM   34  C   UNL     1      -9.374   8.208  69.099  1.00  0.00    -0.151 C  
HETATM   35  O   UNL     1      -8.765   8.740  68.175  1.00  0.00    -0.133 OA 
BRANCH  34  36
HETATM   36  C   UNL     1      -8.794   7.023  69.902  1.00  0.00    -0.142 C  
HETATM   37  O   UNL     1      -7.515   6.647  69.368  1.00  0.00    -0.089 OA 
HETATM   38  H   UNL     1      -7.159   5.918  69.863  1.00  0.00     0.000 HD 
BRANCH  36  39
HETATM   39  C   UNL     1      -9.737   5.788  69.950  1.00  0.00    -0.212 C  
HETATM   40  C   UNL     1     -10.398   5.530  68.580  1.00  0.00    -0.247 C  
HETATM   41  C   UNL     1      -8.899   4.536  70.300  1.00  0.00    -0.126 C  
BRANCH  39  42
HETATM   42  C   UNL     1     -10.822   5.993  71.034  1.00  0.00    -0.282 C  
HETATM   43  O   UNL     1     -10.460   7.013  71.959  1.00  0.00    -0.206 OA 
HETATM   44  H   UNL     1     -11.126   7.139  72.625  1.00  0.00     0.000 HD 
ENDBRANCH  39  42
ENDBRANCH  36  39
ENDBRANCH  34  36
ENDBRANCH  31  32
ENDBRANCH  30  31
ENDBRANCH  28  30
ENDBRANCH  25  26
ENDBRANCH  24  25
ENDBRANCH  23  24
ENDBRANCH  22  23
ENDBRANCH  21  22
ENDBRANCH  20  21
ENDBRANCH  18  20
ENDBRANCH  15  16
ENDBRANCH  14  15
ENDBRANCH  12  14
ENDBRANCH   7  10
ENDBRANCH   2   7
TORSDOF 19
ENDMDL
MODEL      374
REMARK 921   NORMALIZED FREE ENERGY PREDICTED BY IDOCK:    2.43 KCAL/MOL
REMARK 922        TOTAL FREE ENERGY PREDICTED BY IDOCK:    2.95 KCAL/MOL
REMARK 923 INTER-LIGAND FREE ENERGY PREDICTED BY IDOCK:   -0.22 KCAL/MOL
REMARK 924 INTRA-LIGAND FREE ENERGY PREDICTED BY IDOCK:    3.17 KCAL/MOL
REMARK 927      BINDING AFFINITY PREDICTED BY RF-SCORE:    0.00 PKD
ROOT
HETATM    1  C   UNL     1      -8.519   9.643  65.321  1.00  0.00    -0.155 C  
HETATM    2  C   UNL     1      -9.053  10.844  64.519  1.00  0.00    -0.181 C  
HETATM    3  C   UNL     1      -8.393  10.867  63.118  1.00  0.00     0.008 C  
ENDROOT
BRANCH   2   4
HETATM    4  C   UNL     1     -10.568  10.664  64.291  1.00  0.00    -0.012 C  
HETATM    5  O   UNL     1     -10.988  11.284  63.078  1.00  0.00    -0.804 OA 
HETATM    6  H   UNL     1     -11.921  11.173  62.938  1.00  0.00     0.000 HD 
ENDBRANCH   2   4
BRANCH   2   7
HETATM    7  C   UNL     1      -8.789  12.189  65.267  1.00  0.00     0.653 C  
HETATM    8  O   UNL     1      -9.920  12.629  66.039  1.00  0.00    -0.252 OA 
HETATM    9  H   UNL     1      -9.760  13.446  66.494  1.00  0.00     0.000 HD 
BRANCH   7  10
HETATM   10  C   UNL     1      -7.562  12.185  66.205  1.00  0.00     0.619 C  
HETATM   11  O   UNL     1      -7.411  12.939  67.162  1.00  0.00    -0.115 OA 
HETATM   12  N   UNL     1      -6.660  11.186  65.910  1.00  0.00    -0.364 N  
HETATM   13  H   UNL     1      -6.788  10.625  65.067  1.00  0.00     0.000 HD 
BRANCH  12  14
HETATM   14  C   UNL     1      -5.534  10.924  66.778  1.00  0.00    -0.072 C  
BRANCH  14  15
HETATM   15  C   UNL     1      -5.735   9.705  67.672  1.00  0.00    -0.040 C  
BRANCH  15  16
HETATM   16  C   UNL     1      -5.533  10.122  69.112  1.00  0.00    -0.038 C  
HETATM   17  O   UNL     1      -5.177   9.325  69.973  1.00  0.00    -0.028 OA 
HETATM   18  N   UNL     1      -5.755  11.459  69.349  1.00  0.00    -0.054 N  
HETATM   19  H   UNL     1      -6.001  12.043  68.550  1.00  0.00     0.000 HD 
BRANCH  18  20
HETATM   20  C   UNL     1      -5.667  12.112  70.658  1.00  0.00    -0.128 C  
BRANCH  20  21
HETATM   21  C   UNL     1      -6.277  11.371  71.851  1.00  0.00     2.328 C  
BRANCH  21  22
HETATM   22  S   UNL     1      -5.129  10.253  72.743  1.00  0.00     0.189 SA 
BRANCH  22  23
HETATM   23  S   UNL     1      -5.588   8.380  72.018  1.00  0.00    -0.046 SA 
BRANCH  23  24
HETATM   24  C   UNL     1      -7.320   8.196  72.558  1.00  0.00    -0.111 C  
BRANCH  24  25
HETATM   25  C   UNL     1      -8.252   9.095  71.742  1.00  0.00     0.319 C  
BRANCH  25  26
HETATM   26  N   UNL     1      -9.405   8.414  71.159  1.00  0.00    -0.164 N  
HETATM   27  H   UNL     1      -9.355   8.134  70.179  1.00  0.00     0.000 HD 
HETATM   28  C   UNL     1     -10.558   8.129  71.860  1.00  0.00    -0.260 C  
HETATM   29  O   UNL     1     -10.750   8.467  73.023  1.00  0.00    -0.017 OA 
BRANCH  28  30
HETATM   30  C   UNL     1     -11.575   7.318  71.089  1.00  0.00    -0.323 C  
BRANCH  30  31
HETATM   31  C   UNL     1     -11.536   7.706  69.614  1.00  0.00     0.243 C  
BRANCH  31  32
HETATM   32  N   UNL     1     -11.323   6.558  68.753  1.00  0.00    -0.590 N  
HETATM   33  H   UNL     1     -11.847   6.495  67.880  1.00  0.00     0.000 HD 
HETATM   34  C   UNL     1     -10.441   5.551  69.071  1.00  0.00    -0.226 C  
HETATM   35  O   UNL     1      -9.836   5.493  70.137  1.00  0.00    -0.172 OA 
BRANCH  34  36
HETATM   36  C   UNL     1     -10.331   4.451  67.992  1.00  0.00     0.326 C  
HETATM   37  O   UNL     1      -9.847   3.234  68.580  1.00  0.00    -0.004 OA 
HETATM   38  H   UNL     1      -9.778   2.557  67.916  1.00  0.00     0.000 HD 
BRANCH  36  39
HETATM   39  C   UNL     1      -9.436   4.855  66.786  1.00  0.00    -0.154 C  
HETATM   40  C   UNL     1      -9.957   4.247  65.468  1.00  0.00    -0.233 C  
HETATM   41  C   UNL     1      -9.477   6.394  66.631  1.00  0.00    -0.191 C  
BRANCH  39  42
HETATM   42  C   UNL     1      -7.976   4.408  67.038  1.00  0.00    -0.101 C  
HETATM   43  O   UNL     1      -7.269   5.341  67.849  1.00  0.00    -0.069 OA 
HETATM   44  H   UNL     1      -6.373   5.066  68.003  1.00  0.00     0.000 HD 
ENDBRANCH  39  42
ENDBRANCH  36  39
ENDBRANCH  34  36
ENDBRANCH  31  32
ENDBRANCH  30  31
ENDBRANCH  28  30
ENDBRANCH  25  26
ENDBRANCH  24  25
ENDBRANCH  23  24
ENDBRANCH  22  23
ENDBRANCH  21  22
ENDBRANCH  20  21
ENDBRANCH  18  20
ENDBRANCH  15  16
ENDBRANCH  14  15
ENDBRANCH  12  14
ENDBRANCH   7  10
ENDBRANCH   2   7
TORSDOF 19
ENDMDL
MODEL      375
REMARK 921   NORMALIZED FREE ENERGY PREDICTED BY IDOCK:    2.65 KCAL/MOL
REMARK 922        TOTAL FREE ENERGY PREDICTED BY IDOCK:    3.40 KCAL/MOL
REMARK 923 INTER-LIGAND FREE ENERGY PREDICTED BY IDOCK:    2.73 KCAL/MOL
REMARK 924 INTRA-LIGAND FREE ENERGY PREDICTED BY IDOCK:    0.68 KCAL/MOL
REMARK 927      BINDING AFFINITY PREDICTED BY RF-SCORE:    0.00 PKD
ROOT
HETATM    1  C   UNL     1      -9.731  16.123  71.948  1.00  0.00     5.290 C  
HETATM    2  C   UNL     1      -9.877  15.674  70.482  1.00  0.00     0.577 C  
HETATM    3  C   UNL     1      -9.896  16.917  69.559  1.00  0.00     0.049 C  
ENDROOT
BRANCH   2   4
HETATM    4  C   UNL     1      -8.637  14.847  70.084  1.00  0.00     0.740 C  
HETATM    5  O   UNL     1      -8.174  15.199  68.782  1.00  0.00    -0.147 OA 
HETATM    6  H   UNL     1      -7.411  14.690  68.537  1.00  0.00     0.000 HD 
ENDBRANCH   2   4
BRANCH   2   7
HETATM    7  C   UNL     1     -11.168  14.821  70.275  1.00  0.00    -0.195 C  
HETATM    8  O   UNL     1     -12.324  15.622  69.977  1.00  0.00    -0.411 OA 
HETATM    9  H   UNL     1     -13.109  15.103  69.851  1.00  0.00     0.000 HD 
BRANCH   7  10
HETATM   10  C   UNL     1     -11.063  13.734  69.182  1.00  0.00    -0.240 C  
HETATM   11  O   UNL     1     -11.153  12.527  69.386  1.00  0.00    -0.188 OA 
HETATM   12  N   UNL     1     -10.929  14.255  67.914  1.00  0.00    -0.261 N  
HETATM   13  H   UNL     1     -10.791  15.259  67.793  1.00  0.00     0.000 HD 
BRANCH  12  14
HETATM   14  C   UNL     1     -10.981  13.397  66.751  1.00  0.00    -0.288 C  
BRANCH  14  15
HETATM   15  C   UNL     1      -9.875  13.683  65.741  1.00  0.00    -0.230 C  
BRANCH  15  16
HETATM   16  C   UNL     1      -9.890  12.599  64.687  1.00  0.00    -0.038 C  
HETATM   17  O   UNL     1      -9.756  12.854  63.494  1.00  0.00     0.015 OA 
HETATM   18  N   UNL     1     -10.037  11.326  65.187  1.00  0.00    -0.259 N  
HETATM   19  H   UNL     1     -10.091  11.224  66.200  1.00  0.00     0.000 HD 
BRANCH  18  20
HETATM   20  C   UNL     1     -10.122  10.105  64.382  1.00  0.00    -0.027 C  
BRANCH  20  21
HETATM   21  C   UNL     1      -8.803   9.461  63.947  1.00  0.00    -0.173 C  
BRANCH  21  22
HETATM   22  S   UNL     1      -8.856   8.585  62.337  1.00  0.00     0.183 SA 
BRANCH  22  23
HETATM   23  S   UNL     1      -8.334   6.647  62.803  1.00  0.00     0.175 SA 
BRANCH  23  24
HETATM   24  C   UNL     1      -7.302   6.895  64.286  1.00  0.00    -0.085 C  
BRANCH  24  25
HETATM   25  C   UNL     1      -7.525   5.778  65.308  1.00  0.00    -0.078 C  
BRANCH  25  26
HETATM   26  N   UNL     1      -8.631   6.006  66.235  1.00  0.00    -0.132 N  
HETATM   27  H   UNL     1      -9.540   6.259  65.847  1.00  0.00     0.000 HD 
HETATM   28  C   UNL     1      -8.513   5.898  67.604  1.00  0.00    -0.103 C  
HETATM   29  O   UNL     1      -7.458   5.655  68.181  1.00  0.00    -0.072 OA 
BRANCH  28  30
HETATM   30  C   UNL     1      -9.812   6.065  68.360  1.00  0.00    -0.152 C  
BRANCH  30  31
HETATM   31  C   UNL     1      -9.750   7.320  69.224  1.00  0.00    -0.161 C  
BRANCH  31  32
HETATM   32  N   UNL     1      -9.397   7.021  70.599  1.00  0.00    -0.162 N  
HETATM   33  H   UNL     1      -9.231   7.794  71.243  1.00  0.00     0.000 HD 
HETATM   34  C   UNL     1      -9.277   5.733  71.065  1.00  0.00    -0.149 C  
HETATM   35  O   UNL     1      -9.367   4.741  70.347  1.00  0.00    -0.130 OA 
BRANCH  34  36
HETATM   36  C   UNL     1      -8.944   5.639  72.571  1.00  0.00    -0.133 C  
HETATM   37  O   UNL     1      -9.621   6.683  73.289  1.00  0.00    -0.148 OA 
HETATM   38  H   UNL     1      -9.416   6.626  74.215  1.00  0.00     0.000 HD 
BRANCH  36  39
HETATM   39  C   UNL     1      -7.420   5.685  72.871  1.00  0.00    -0.096 C  
HETATM   40  C   UNL     1      -7.014   4.604  73.895  1.00  0.00    -0.075 C  
HETATM   41  C   UNL     1      -6.647   5.394  71.563  1.00  0.00    -0.040 C  
BRANCH  39  42
HETATM   42  C   UNL     1      -7.026   7.087  73.393  1.00  0.00    -0.073 C  
HETATM   43  O   UNL     1      -5.676   7.125  73.843  1.00  0.00    -0.053 OA 
HETATM   44  H   UNL     1      -5.434   7.985  74.164  1.00  0.00     0.000 HD 
ENDBRANCH  39  42
ENDBRANCH  36  39
ENDBRANCH  34  36
ENDBRANCH  31  32
ENDBRANCH  30  31
ENDBRANCH  28  30
ENDBRANCH  25  26
ENDBRANCH  24  25
ENDBRANCH  23  24
ENDBRANCH  22  23
ENDBRANCH  21  22
ENDBRANCH  20  21
ENDBRANCH  18  20
ENDBRANCH  15  16
ENDBRANCH  14  15
ENDBRANCH  12  14
ENDBRANCH   7  10
ENDBRANCH   2   7
TORSDOF 19
ENDMDL
MODEL      376
REMARK 921   NORMALIZED FREE ENERGY PREDICTED BY IDOCK:    2.98 KCAL/MOL
REMARK 922        TOTAL FREE ENERGY PREDICTED BY IDOCK:    4.10 KCAL/MOL
REMARK 923 INTER-LIGAND FREE ENERGY PREDICTED BY IDOCK:    1.30 KCAL/MOL
REMARK 924 INTRA-LIGAND FREE ENERGY PREDICTED BY IDOCK:    2.81 KCAL/MOL
REMARK 927      BINDING AFFINITY PREDICTED BY RF-SCORE:    0.00 PKD
ROOT
HETATM    1  C   UNL     1     -13.472  11.450  63.597  1.00  0.00     1.275 C  
HETATM    2  C   UNL     1     -12.670  12.436  64.467  1.00  0.00    -0.404 C  
HETATM    3  C   UNL     1     -13.578  12.993  65.591  1.00  0.00     2.285 C  
ENDROOT
BRANCH   2   4
HETATM    4  C   UNL     1     -11.522  11.674  65.163  1.00  0.00    -0.111 C  
HETATM    5  O   UNL     1     -11.484  10.308  64.755  1.00  0.00     1.248 OA 
HETATM    6  H   UNL     1     -10.778   9.839  65.184  1.00  0.00     0.000 HD 
ENDBRANCH   2   4
BRANCH   2   7
HETATM    7  C   UNL     1     -12.084  13.602  63.611  1.00  0.00    -0.342 C  
HETATM    8  O   UNL     1     -13.067  14.597  63.276  1.00  0.00     0.250 OA 
HETATM    9  H   UNL     1     -12.710  15.306  62.756  1.00  0.00     0.000 HD 
BRANCH   7  10
HETATM   10  C   UNL     1     -10.880  14.335  64.244  1.00  0.00     0.034 C  
HETATM   11  O   UNL     1      -9.809  13.806  64.525  1.00  0.00    -0.160 OA 
HETATM   12  N   UNL     1     -11.094  15.687  64.403  1.00  0.00    -0.733 N  
HETATM   13  H   UNL     1     -12.020  16.075  64.221  1.00  0.00     0.000 HD 
BRANCH  12  14
HETATM   14  C   UNL     1     -10.024  16.562  64.826  1.00  0.00     1.395 C  
BRANCH  14  15
HETATM   15  C   UNL     1     -10.150  17.009  66.279  1.00  0.00    -0.330 C  
BRANCH  15  16
HETATM   16  C   UNL     1     -10.969  15.985  67.031  1.00  0.00    -0.154 C  
HETATM   17  O   UNL     1     -12.080  16.248  67.481  1.00  0.00     0.641 OA 
HETATM   18  N   UNL     1     -10.373  14.749  67.134  1.00  0.00    -0.253 N  
HETATM   19  H   UNL     1      -9.468  14.626  66.681  1.00  0.00     0.000 HD 
BRANCH  18  20
HETATM   20  C   UNL     1     -10.933  13.595  67.843  1.00  0.00    -0.259 C  
BRANCH  20  21
HETATM   21  C   UNL     1     -10.359  12.218  67.500  1.00  0.00    -0.203 C  
BRANCH  21  22
HETATM   22  S   UNL     1     -10.687  10.906  68.739  1.00  0.00    -0.224 SA 
BRANCH  22  23
HETATM   23  S   UNL     1     -10.280   9.154  67.733  1.00  0.00    -0.238 SA 
BRANCH  23  24
HETATM   24  C   UNL     1      -8.483   8.993  67.996  1.00  0.00    -0.125 C  
BRANCH  24  25
HETATM   25  C   UNL     1      -7.707   9.311  66.716  1.00  0.00    -0.094 C  
BRANCH  25  26
HETATM   26  N   UNL     1      -7.263  10.698  66.596  1.00  0.00    -0.121 N  
HETATM   27  H   UNL     1      -6.957  11.028  65.681  1.00  0.00     0.000 HD 
HETATM   28  C   UNL     1      -7.236  11.584  67.653  1.00  0.00    -0.103 C  
HETATM   29  O   UNL     1      -7.528  11.281  68.805  1.00  0.00    -0.108 OA 
BRANCH  28  30
HETATM   30  C   UNL     1      -6.849  12.996  67.275  1.00  0.00    -0.038 C  
BRANCH  30  31
HETATM   31  C   UNL     1      -6.790  13.868  68.526  1.00  0.00    -0.098 C  
BRANCH  31  32
HETATM   32  N   UNL     1      -6.836  15.283  68.209  1.00  0.00    -0.111 N  
HETATM   33  H   UNL     1      -6.134  15.668  67.576  1.00  0.00     0.000 HD 
HETATM   34  C   UNL     1      -7.791  16.124  68.730  1.00  0.00    -0.203 C  
HETATM   35  O   UNL     1      -8.617  15.774  69.568  1.00  0.00    -0.249 OA 
BRANCH  34  36
HETATM   36  C   UNL     1      -7.688  17.580  68.222  1.00  0.00    -0.247 C  
HETATM   37  O   UNL     1      -7.695  17.600  66.786  1.00  0.00    -0.199 OA 
HETATM   38  H   UNL     1      -7.632  18.495  66.474  1.00  0.00     0.000 HD 
BRANCH  36  39
HETATM   39  C   UNL     1      -6.442  18.336  68.762  1.00  0.00    -0.228 C  
HETATM   40  C   UNL     1      -6.262  18.116  70.278  1.00  0.00     0.157 C  
HETATM   41  C   UNL     1      -5.180  17.779  68.063  1.00  0.00    -0.145 C  
BRANCH  39  42
HETATM   42  C   UNL     1      -6.569  19.848  68.456  1.00  0.00    -0.289 C  
HETATM   43  O   UNL     1      -7.037  20.082  67.132  1.00  0.00    -0.216 OA 
HETATM   44  H   UNL     1      -7.114  21.010  66.943  1.00  0.00     0.000 HD 
ENDBRANCH  39  42
ENDBRANCH  36  39
ENDBRANCH  34  36
ENDBRANCH  31  32
ENDBRANCH  30  31
ENDBRANCH  28  30
ENDBRANCH  25  26
ENDBRANCH  24  25
ENDBRANCH  23  24
ENDBRANCH  22  23
ENDBRANCH  21  22
ENDBRANCH  20  21
ENDBRANCH  18  20
ENDBRANCH  15  16
ENDBRANCH  14  15
ENDBRANCH  12  14
ENDBRANCH   7  10
ENDBRANCH   2   7
TORSDOF 19
ENDMDL
MODEL      377
REMARK 921   NORMALIZED FREE ENERGY PREDICTED BY IDOCK:    2.99 KCAL/MOL
REMARK 922        TOTAL FREE ENERGY PREDICTED BY IDOCK:    4.14 KCAL/MOL
REMARK 923 INTER-LIGAND FREE ENERGY PREDICTED BY IDOCK:    3.56 KCAL/MOL
REMARK 924 INTRA-LIGAND FREE ENERGY PREDICTED BY IDOCK:    0.58 KCAL/MOL
REMARK 927      BINDING AFFINITY PREDICTED BY RF-SCORE:    0.00 PKD
ROOT
HETATM    1  C   UNL     1      -6.016  11.878  69.955  1.00  0.00    -0.148 C  
HETATM    2  C   UNL     1      -6.204  11.247  68.562  1.00  0.00    -0.046 C  
HETATM    3  C   UNL     1      -5.419   9.914  68.487  1.00  0.00    -0.039 C  
ENDROOT
BRANCH   2   4
HETATM    4  C   UNL     1      -7.694  10.894  68.367  1.00  0.00    -0.116 C  
HETATM    5  O   UNL     1      -7.957  10.477  67.029  1.00  0.00    -0.114 OA 
HETATM    6  H   UNL     1      -8.874  10.260  66.909  1.00  0.00     0.000 HD 
ENDBRANCH   2   4
BRANCH   2   7
HETATM    7  C   UNL     1      -5.740  12.218  67.431  1.00  0.00    -0.139 C  
HETATM    8  O   UNL     1      -6.070  11.740  66.116  1.00  0.00    -0.480 OA 
HETATM    9  H   UNL     1      -5.788  12.331  65.428  1.00  0.00     0.000 HD 
BRANCH   7  10
HETATM   10  C   UNL     1      -6.278  13.661  67.549  1.00  0.00    -0.036 C  
HETATM   11  O   UNL     1      -7.231  14.105  66.917  1.00  0.00     0.122 OA 
HETATM   12  N   UNL     1      -5.621  14.405  68.504  1.00  0.00    -0.091 N  
HETATM   13  H   UNL     1      -4.792  14.023  68.959  1.00  0.00     0.000 HD 
BRANCH  12  14
HETATM   14  C   UNL     1      -6.092  15.723  68.869  1.00  0.00    -0.113 C  
BRANCH  14  15
HETATM   15  C   UNL     1      -7.598  15.893  68.699  1.00  0.00    -0.161 C  
BRANCH  15  16
HETATM   16  C   UNL     1      -8.299  15.095  69.776  1.00  0.00     0.043 C  
HETATM   17  O   UNL     1      -8.099  13.894  69.925  1.00  0.00     0.848 OA 
HETATM   18  N   UNL     1      -9.143  15.837  70.571  1.00  0.00     0.925 N  
HETATM   19  H   UNL     1      -9.198  16.839  70.389  1.00  0.00     0.000 HD 
BRANCH  18  20
HETATM   20  C   UNL     1      -9.969  15.304  71.657  1.00  0.00     2.274 C  
BRANCH  20  21
HETATM   21  C   UNL     1     -11.449  15.697  71.667  1.00  0.00    -0.429 C  
BRANCH  21  22
HETATM   22  S   UNL     1     -12.294  15.591  70.043  1.00  0.00    -0.241 SA 
BRANCH  22  23
HETATM   23  S   UNL     1     -14.052  14.600  70.458  1.00  0.00     1.142 SA 
BRANCH  23  24
HETATM   24  C   UNL     1     -13.737  13.991  72.147  1.00  0.00    -0.509 C  
BRANCH  24  25
HETATM   25  C   UNL     1     -12.618  12.947  72.158  1.00  0.00     0.195 C  
BRANCH  25  26
HETATM   26  N   UNL     1     -12.675  11.975  71.069  1.00  0.00    -0.304 N  
HETATM   27  H   UNL     1     -13.442  11.303  71.063  1.00  0.00     0.000 HD 
HETATM   28  C   UNL     1     -11.749  11.918  70.049  1.00  0.00    -0.286 C  
HETATM   29  O   UNL     1     -10.759  12.638  69.986  1.00  0.00     0.638 OA 
BRANCH  28  30
HETATM   30  C   UNL     1     -12.068  10.908  68.970  1.00  0.00    -0.240 C  
BRANCH  30  31
HETATM   31  C   UNL     1     -12.630  11.621  67.744  1.00  0.00     1.961 C  
BRANCH  31  32
HETATM   32  N   UNL     1     -11.593  12.270  66.964  1.00  0.00    -0.351 N  
HETATM   33  H   UNL     1     -10.726  12.540  67.429  1.00  0.00     0.000 HD 
HETATM   34  C   UNL     1     -11.736  12.533  65.622  1.00  0.00    -0.423 C  
HETATM   35  O   UNL     1     -12.773  12.329  64.999  1.00  0.00    -0.581 OA 
BRANCH  34  36
HETATM   36  C   UNL     1     -10.492  13.182  64.975  1.00  0.00    -0.342 C  
HETATM   37  O   UNL     1      -9.298  12.556  65.470  1.00  0.00    -0.451 OA 
HETATM   38  H   UNL     1      -8.533  12.955  65.072  1.00  0.00     0.000 HD 
BRANCH  36  39
HETATM   39  C   UNL     1     -10.416  14.720  65.187  1.00  0.00    -0.443 C  
HETATM   40  C   UNL     1     -11.373  15.468  64.236  1.00  0.00    -0.165 C  
HETATM   41  C   UNL     1     -10.858  15.045  66.634  1.00  0.00    -0.318 C  
BRANCH  39  42
HETATM   42  C   UNL     1      -8.964  15.212  64.976  1.00  0.00     2.344 C  
HETATM   43  O   UNL     1      -8.717  16.439  65.654  1.00  0.00    -0.372 OA 
HETATM   44  H   UNL     1      -7.826  16.741  65.525  1.00  0.00     0.000 HD 
ENDBRANCH  39  42
ENDBRANCH  36  39
ENDBRANCH  34  36
ENDBRANCH  31  32
ENDBRANCH  30  31
ENDBRANCH  28  30
ENDBRANCH  25  26
ENDBRANCH  24  25
ENDBRANCH  23  24
ENDBRANCH  22  23
ENDBRANCH  21  22
ENDBRANCH  20  21
ENDBRANCH  18  20
ENDBRANCH  15  16
ENDBRANCH  14  15
ENDBRANCH  12  14
ENDBRANCH   7  10
ENDBRANCH   2   7
TORSDOF 19
ENDMDL
MODEL      378
REMARK 921   NORMALIZED FREE ENERGY PREDICTED BY IDOCK:    3.17 KCAL/MOL
REMARK 922        TOTAL FREE ENERGY PREDICTED BY IDOCK:    4.51 KCAL/MOL
REMARK 923 INTER-LIGAND FREE ENERGY PREDICTED BY IDOCK:   -2.03 KCAL/MOL
REMARK 924 INTRA-LIGAND FREE ENERGY PREDICTED BY IDOCK:    6.55 KCAL/MOL
REMARK 927      BINDING AFFINITY PREDICTED BY RF-SCORE:    0.00 PKD
ROOT
HETATM    1  C   UNL     1      -6.156  13.803  72.105  1.00  0.00     0.701 C  
HETATM    2  C   UNL     1      -6.472  14.307  70.684  1.00  0.00     0.016 C  
HETATM    3  C   UNL     1      -6.989  15.765  70.754  1.00  0.00     1.352 C  
ENDROOT
BRANCH   2   4
HETATM    4  C   UNL     1      -5.167  14.340  69.861  1.00  0.00    -0.093 C  
HETATM    5  O   UNL     1      -5.276  15.228  68.751  1.00  0.00    -0.091 OA 
HETATM    6  H   UNL     1      -4.473  15.248  68.244  1.00  0.00     0.000 HD 
ENDBRANCH   2   4
BRANCH   2   7
HETATM    7  C   UNL     1      -7.519  13.391  69.976  1.00  0.00     1.294 C  
HETATM    8  O   UNL     1      -7.966  13.925  68.718  1.00  0.00    -0.210 OA 
HETATM    9  H   UNL     1      -8.603  13.368  68.287  1.00  0.00     0.000 HD 
BRANCH   7  10
HETATM   10  C   UNL     1      -7.052  11.940  69.723  1.00  0.00     0.354 C  
HETATM   11  O   UNL     1      -7.685  11.103  69.087  1.00  0.00    -0.129 OA 
HETATM   12  N   UNL     1      -5.797  11.682  70.227  1.00  0.00    -0.150 N  
HETATM   13  H   UNL     1      -5.332  12.381  70.807  1.00  0.00     0.000 HD 
BRANCH  12  14
HETATM   14  C   UNL     1      -5.128  10.431  69.945  1.00  0.00    -0.038 C  
BRANCH  14  15
HETATM   15  C   UNL     1      -6.057   9.368  69.369  1.00  0.00    -0.037 C  
BRANCH  15  16
HETATM   16  C   UNL     1      -6.377   9.730  67.936  1.00  0.00    -0.056 C  
HETATM   17  O   UNL     1      -6.408  10.896  67.555  1.00  0.00    -0.055 OA 
HETATM   18  N   UNL     1      -6.598   8.649  67.115  1.00  0.00    -0.058 N  
HETATM   19  H   UNL     1      -6.500   7.721  67.526  1.00  0.00     0.000 HD 
BRANCH  18  20
HETATM   20  C   UNL     1      -6.964   8.723  65.698  1.00  0.00    -0.079 C  
BRANCH  20  21
HETATM   21  C   UNL     1      -7.459   7.434  65.036  1.00  0.00    -0.085 C  
BRANCH  21  22
HETATM   22  S   UNL     1      -8.147   7.640  63.348  1.00  0.00     0.022 SA 
BRANCH  22  23
HETATM   23  S   UNL     1      -7.105   9.240  62.575  1.00  0.00    -0.099 SA 
BRANCH  23  24
HETATM   24  C   UNL     1      -8.048  10.648  63.247  1.00  0.00    -0.023 C  
BRANCH  24  25
HETATM   25  C   UNL     1      -9.408  10.781  62.558  1.00  0.00    -0.278 C  
BRANCH  25  26
HETATM   26  N   UNL     1     -10.314  11.750  63.171  1.00  0.00    -0.638 N  
HETATM   27  H   UNL     1     -10.952  12.264  62.563  1.00  0.00     0.000 HD 
HETATM   28  C   UNL     1     -10.353  12.008  64.525  1.00  0.00    -0.296 C  
HETATM   29  O   UNL     1      -9.596  11.492  65.340  1.00  0.00    -0.226 OA 
BRANCH  28  30
HETATM   30  C   UNL     1     -11.445  12.963  64.949  1.00  0.00    -0.351 C  
BRANCH  30  31
HETATM   31  C   UNL     1     -10.996  14.402  64.711  1.00  0.00    -0.397 C  
BRANCH  31  32
HETATM   32  N   UNL     1     -10.041  14.849  65.707  1.00  0.00    -0.319 N  
HETATM   33  H   UNL     1      -9.056  14.611  65.586  1.00  0.00     0.000 HD 
HETATM   34  C   UNL     1     -10.415  15.580  66.810  1.00  0.00    -0.295 C  
HETATM   35  O   UNL     1     -11.583  15.836  67.089  1.00  0.00    -0.024 OA 
BRANCH  34  36
HETATM   36  C   UNL     1      -9.235  15.997  67.716  1.00  0.00    -0.205 C  
HETATM   37  O   UNL     1      -9.687  16.153  69.070  1.00  0.00    -0.224 OA 
HETATM   38  H   UNL     1      -8.961  16.410  69.627  1.00  0.00     0.000 HD 
BRANCH  36  39
HETATM   39  C   UNL     1      -8.515  17.289  67.239  1.00  0.00    -0.212 C  
HETATM   40  C   UNL     1      -9.485  18.235  66.501  1.00  0.00    -0.312 C  
HETATM   41  C   UNL     1      -7.985  18.049  68.478  1.00  0.00    -0.310 C  
BRANCH  39  42
HETATM   42  C   UNL     1      -7.326  16.923  66.318  1.00  0.00    -0.213 C  
HETATM   43  O   UNL     1      -6.376  16.098  66.984  1.00  0.00    -0.267 OA 
HETATM   44  H   UNL     1      -5.646  15.873  66.420  1.00  0.00     0.000 HD 
ENDBRANCH  39  42
ENDBRANCH  36  39
ENDBRANCH  34  36
ENDBRANCH  31  32
ENDBRANCH  30  31
ENDBRANCH  28  30
ENDBRANCH  25  26
ENDBRANCH  24  25
ENDBRANCH  23  24
ENDBRANCH  22  23
ENDBRANCH  21  22
ENDBRANCH  20  21
ENDBRANCH  18  20
ENDBRANCH  15  16
ENDBRANCH  14  15
ENDBRANCH  12  14
ENDBRANCH   7  10
ENDBRANCH   2   7
TORSDOF 19
ENDMDL
MODEL      379
REMARK 921   NORMALIZED FREE ENERGY PREDICTED BY IDOCK:    6.55 KCAL/MOL
REMARK 922        TOTAL FREE ENERGY PREDICTED BY IDOCK:   11.64 KCAL/MOL
REMARK 923 INTER-LIGAND FREE ENERGY PREDICTED BY IDOCK:    5.71 KCAL/MOL
REMARK 924 INTRA-LIGAND FREE ENERGY PREDICTED BY IDOCK:    5.94 KCAL/MOL
REMARK 927      BINDING AFFINITY PREDICTED BY RF-SCORE:    0.00 PKD
ROOT
HETATM    1  C   UNL     1      -7.932  12.681  70.657  1.00  0.00     5.710 C  
HETATM    2  C   UNL     1      -8.236  13.995  69.914  1.00  0.00     1.227 C  
HETATM    3  C   UNL     1      -8.992  14.963  70.857  1.00  0.00     2.459 C  
ENDROOT
BRANCH   2   4
HETATM    4  C   UNL     1      -6.905  14.685  69.549  1.00  0.00    -0.165 C  
HETATM    5  O   UNL     1      -7.118  16.023  69.104  1.00  0.00    -0.171 OA 
HETATM    6  H   UNL     1      -6.299  16.447  68.879  1.00  0.00     0.000 HD 
ENDBRANCH   2   4
BRANCH   2   7
HETATM    7  C   UNL     1      -9.067  13.736  68.618  1.00  0.00    -0.063 C  
HETATM    8  O   UNL     1      -8.431  12.808  67.723  1.00  0.00    -0.153 OA 
HETATM    9  H   UNL     1      -8.937  12.651  66.935  1.00  0.00     0.000 HD 
BRANCH   7  10
HETATM   10  C   UNL     1     -10.509  13.235  68.857  1.00  0.00    -0.100 C  
HETATM   11  O   UNL     1     -11.176  12.609  68.038  1.00  0.00    -0.233 OA 
HETATM   12  N   UNL     1     -10.967  13.496  70.129  1.00  0.00    -0.189 N  
HETATM   13  H   UNL     1     -10.410  14.077  70.756  1.00  0.00     0.000 HD 
BRANCH  12  14
HETATM   14  C   UNL     1     -12.229  12.959  70.587  1.00  0.00    -0.302 C  
BRANCH  14  15
HETATM   15  C   UNL     1     -12.578  11.617  69.952  1.00  0.00    -0.002 C  
BRANCH  15  16
HETATM   16  C   UNL     1     -11.330  10.764  69.907  1.00  0.00    -0.311 C  
HETATM   17  O   UNL     1     -10.712  10.467  70.925  1.00  0.00     0.136 OA 
HETATM   18  N   UNL     1     -10.979  10.340  68.646  1.00  0.00    -0.238 N  
HETATM   19  H   UNL     1     -11.591  10.606  67.875  1.00  0.00     0.000 HD 
BRANCH  18  20
HETATM   20  C   UNL     1      -9.796   9.539  68.321  1.00  0.00    -0.155 C  
BRANCH  20  21
HETATM   21  C   UNL     1      -9.442   9.384  66.839  1.00  0.00    -0.156 C  
BRANCH  21  22
HETATM   22  S   UNL     1      -8.460  10.759  66.125  1.00  0.00    -0.170 SA 
BRANCH  22  23
HETATM   23  S   UNL     1      -9.470  11.251  64.397  1.00  0.00    -0.137 SA 
BRANCH  23  24
HETATM   24  C   UNL     1     -10.672  12.475  65.014  1.00  0.00    -0.294 C  
BRANCH  24  25
HETATM   25  C   UNL     1     -11.325  13.238  63.860  1.00  0.00    -0.318 C  
BRANCH  25  26
HETATM   26  N   UNL     1     -11.029  14.669  63.824  1.00  0.00     0.426 N  
HETATM   27  H   UNL     1     -10.838  15.098  62.919  1.00  0.00     0.000 HD 
HETATM   28  C   UNL     1     -10.995  15.469  64.947  1.00  0.00    -0.436 C  
HETATM   29  O   UNL     1     -11.154  15.050  66.088  1.00  0.00    -0.336 OA 
BRANCH  28  30
HETATM   30  C   UNL     1     -10.782  16.938  64.662  1.00  0.00     0.473 C  
BRANCH  30  31
HETATM   31  C   UNL     1     -10.666  17.708  65.973  1.00  0.00    -0.117 C  
BRANCH  31  32
HETATM   32  N   UNL     1      -9.331  18.237  66.181  1.00  0.00    -0.204 N  
HETATM   33  H   UNL     1      -9.115  19.173  65.840  1.00  0.00     0.000 HD 
HETATM   34  C   UNL     1      -8.347  17.522  66.823  1.00  0.00    -0.251 C  
HETATM   35  O   UNL     1      -8.484  16.357  67.187  1.00  0.00    -0.168 OA 
BRANCH  34  36
HETATM   36  C   UNL     1      -7.017  18.291  66.983  1.00  0.00    -0.191 C  
HETATM   37  O   UNL     1      -7.081  19.149  68.133  1.00  0.00    -0.245 OA 
HETATM   38  H   UNL     1      -6.263  19.622  68.231  1.00  0.00     0.000 HD 
BRANCH  36  39
HETATM   39  C   UNL     1      -6.622  19.113  65.724  1.00  0.00    -0.280 C  
HETATM   40  C   UNL     1      -5.391  20.002  65.994  1.00  0.00    -0.174 C  
HETATM   41  C   UNL     1      -6.243  18.132  64.589  1.00  0.00     0.737 C  
BRANCH  39  42
HETATM   42  C   UNL     1      -7.817  19.983  65.266  1.00  0.00     0.371 C  
HETATM   43  O   UNL     1      -7.394  21.083  64.467  1.00  0.00    -0.275 OA 
HETATM   44  H   UNL     1      -8.128  21.618  64.185  1.00  0.00     0.000 HD 
ENDBRANCH  39  42
ENDBRANCH  36  39
ENDBRANCH  34  36
ENDBRANCH  31  32
ENDBRANCH  30  31
ENDBRANCH  28  30
ENDBRANCH  25  26
ENDBRANCH  24  25
ENDBRANCH  23  24
ENDBRANCH  22  23
ENDBRANCH  21  22
ENDBRANCH  20  21
ENDBRANCH  18  20
ENDBRANCH  15  16
ENDBRANCH  14  15
ENDBRANCH  12  14
ENDBRANCH   7  10
ENDBRANCH   2   7
TORSDOF 19
ENDMDL
MODEL      380
REMARK 921   NORMALIZED FREE ENERGY PREDICTED BY IDOCK:    7.02 KCAL/MOL
REMARK 922        TOTAL FREE ENERGY PREDICTED BY IDOCK:   12.63 KCAL/MOL
REMARK 923 INTER-LIGAND FREE ENERGY PREDICTED BY IDOCK:    8.66 KCAL/MOL
REMARK 924 INTRA-LIGAND FREE ENERGY PREDICTED BY IDOCK:    3.97 KCAL/MOL
REMARK 927      BINDING AFFINITY PREDICTED BY RF-SCORE:    0.00 PKD
ROOT
HETATM    1  C   UNL     1     -10.032   8.713  69.517  1.00  0.00    -0.196 C  
HETATM    2  C   UNL     1      -9.757   7.778  68.324  1.00  0.00    -0.169 C  
HETATM    3  C   UNL     1      -8.244   7.456  68.255  1.00  0.00    -0.125 C  
ENDROOT
BRANCH   2   4
HETATM    4  C   UNL     1     -10.484   6.437  68.558  1.00  0.00    -0.224 C  
HETATM    5  O   UNL     1      -9.578   5.338  68.499  1.00  0.00    -0.122 OA 
HETATM    6  H   UNL     1     -10.025   4.513  68.643  1.00  0.00     0.000 HD 
ENDBRANCH   2   4
BRANCH   2   7
HETATM    7  C   UNL     1     -10.242   8.412  66.982  1.00  0.00    -0.307 C  
HETATM    8  O   UNL     1     -11.540   7.943  66.580  1.00  0.00     1.174 OA 
HETATM    9  H   UNL     1     -11.834   8.329  65.764  1.00  0.00     0.000 HD 
BRANCH   7  10
HETATM   10  C   UNL     1     -10.281   9.956  66.966  1.00  0.00    -0.233 C  
HETATM   11  O   UNL     1     -11.308  10.628  66.938  1.00  0.00    -0.257 OA 
HETATM   12  N   UNL     1      -9.033  10.529  67.062  1.00  0.00    -0.140 N  
HETATM   13  H   UNL     1      -8.202   9.939  67.015  1.00  0.00     0.000 HD 
BRANCH  12  14
HETATM   14  C   UNL     1      -8.884  11.958  67.228  1.00  0.00    -0.179 C  
BRANCH  14  15
HETATM   15  C   UNL     1      -9.556  12.491  68.489  1.00  0.00    -0.114 C  
BRANCH  15  16
HETATM   16  C   UNL     1      -9.885  13.952  68.280  1.00  0.00    -0.231 C  
HETATM   17  O   UNL     1      -9.013  14.815  68.255  1.00  0.00    -0.169 OA 
HETATM   18  N   UNL     1     -11.225  14.210  68.097  1.00  0.00    -0.265 N  
HETATM   19  H   UNL     1     -11.858  13.411  68.089  1.00  0.00     0.000 HD 
BRANCH  18  20
HETATM   20  C   UNL     1     -11.813  15.539  67.914  1.00  0.00    -0.017 C  
BRANCH  20  21
HETATM   21  C   UNL     1     -12.528  15.809  66.587  1.00  0.00     1.917 C  
BRANCH  21  22
HETATM   22  S   UNL     1     -13.375  14.360  65.848  1.00  0.00     1.545 SA 
BRANCH  22  23
HETATM   23  S   UNL     1     -11.843  13.048  65.424  1.00  0.00    -0.414 SA 
BRANCH  23  24
HETATM   24  C   UNL     1     -10.993  13.909  64.061  1.00  0.00     0.122 C  
BRANCH  24  25
HETATM   25  C   UNL     1      -9.564  14.291  64.454  1.00  0.00     1.944 C  
BRANCH  25  26
HETATM   26  N   UNL     1      -8.545  13.310  64.089  1.00  0.00     4.056 N  
HETATM   27  H   UNL     1      -7.630  13.653  63.793  1.00  0.00     0.000 HD 
HETATM   28  C   UNL     1      -8.751  11.947  64.122  1.00  0.00     1.050 C  
HETATM   29  O   UNL     1      -9.824  11.426  64.407  1.00  0.00    -0.242 OA 
BRANCH  28  30
HETATM   30  C   UNL     1      -7.523  11.120  63.814  1.00  0.00     0.952 C  
BRANCH  30  31
HETATM   31  C   UNL     1      -6.967  10.519  65.101  1.00  0.00    -0.023 C  
BRANCH  31  32
HETATM   32  N   UNL     1      -6.397   9.202  64.888  1.00  0.00    -0.066 N  
HETATM   33  H   UNL     1      -5.566   8.935  65.415  1.00  0.00     0.000 HD 
HETATM   34  C   UNL     1      -6.937   8.301  64.001  1.00  0.00    -0.075 C  
HETATM   35  O   UNL     1      -7.878   8.562  63.257  1.00  0.00    -0.137 OA 
BRANCH  34  36
HETATM   36  C   UNL     1      -6.206   6.940  63.967  1.00  0.00    -0.036 C  
HETATM   37  O   UNL     1      -5.935   6.562  62.608  1.00  0.00    -0.029 OA 
HETATM   38  H   UNL     1      -5.486   5.726  62.587  1.00  0.00     0.000 HD 
BRANCH  36  39
HETATM   39  C   UNL     1      -6.978   5.804  64.694  1.00  0.00    -0.052 C  
HETATM   40  C   UNL     1      -8.272   6.332  65.349  1.00  0.00    -0.142 C  
HETATM   41  C   UNL     1      -7.392   4.738  63.652  1.00  0.00    -0.054 C  
BRANCH  39  42
HETATM   42  C   UNL     1      -6.071   5.148  65.762  1.00  0.00    -0.033 C  
HETATM   43  O   UNL     1      -6.769   4.163  66.517  1.00  0.00    -0.048 OA 
HETATM   44  H   UNL     1      -6.212   3.760  67.173  1.00  0.00     0.000 HD 
ENDBRANCH  39  42
ENDBRANCH  36  39
ENDBRANCH  34  36
ENDBRANCH  31  32
ENDBRANCH  30  31
ENDBRANCH  28  30
ENDBRANCH  25  26
ENDBRANCH  24  25
ENDBRANCH  23  24
ENDBRANCH  22  23
ENDBRANCH  21  22
ENDBRANCH  20  21
ENDBRANCH  18  20
ENDBRANCH  15  16
ENDBRANCH  14  15
ENDBRANCH  12  14
ENDBRANCH   7  10
ENDBRANCH   2   7
TORSDOF 19
ENDMDL
MODEL      381
REMARK 921   NORMALIZED FREE ENERGY PREDICTED BY IDOCK:   10.03 KCAL/MOL
REMARK 922        TOTAL FREE ENERGY PREDICTED BY IDOCK:   19.00 KCAL/MOL
REMARK 923 INTER-LIGAND FREE ENERGY PREDICTED BY IDOCK:   15.13 KCAL/MOL
REMARK 924 INTRA-LIGAND FREE ENERGY PREDICTED BY IDOCK:    3.87 KCAL/MOL
REMARK 927      BINDING AFFINITY PREDICTED BY RF-SCORE:    0.00 PKD
ROOT
HETATM    1  C   UNL     1     -10.580   6.311  71.442  1.00  0.00    -0.284 C  
HETATM    2  C   UNL     1     -11.041   5.874  70.039  1.00  0.00    -0.411 C  
HETATM    3  C   UNL     1     -12.259   4.925  70.166  1.00  0.00     7.415 C  
ENDROOT
BRANCH   2   4
HETATM    4  C   UNL     1     -11.528   7.115  69.260  1.00  0.00     0.184 C  
HETATM    5  O   UNL     1     -12.120   8.075  70.131  1.00  0.00    -0.334 OA 
HETATM    6  H   UNL     1     -12.420   8.838  69.652  1.00  0.00     0.000 HD 
ENDBRANCH   2   4
BRANCH   2   7
HETATM    7  C   UNL     1      -9.887   5.178  69.252  1.00  0.00    -0.190 C  
HETATM    8  O   UNL     1      -9.560   3.879  69.775  1.00  0.00    -0.192 OA 
HETATM    9  H   UNL     1      -8.858   3.456  69.296  1.00  0.00     0.000 HD 
BRANCH   7  10
HETATM   10  C   UNL     1     -10.134   5.018  67.736  1.00  0.00    -0.122 C  
HETATM   11  O   UNL     1     -10.013   5.918  66.909  1.00  0.00    -0.145 OA 
HETATM   12  N   UNL     1     -10.441   3.726  67.372  1.00  0.00     0.543 N  
HETATM   13  H   UNL     1     -10.598   3.023  68.094  1.00  0.00     0.000 HD 
BRANCH  12  14
HETATM   14  C   UNL     1     -10.543   3.353  65.979  1.00  0.00     1.693 C  
BRANCH  14  15
HETATM   15  C   UNL     1      -9.300   3.704  65.168  1.00  0.00    -0.157 C  
BRANCH  15  16
HETATM   16  C   UNL     1      -8.078   3.267  65.944  1.00  0.00    -0.093 C  
HETATM   17  O   UNL     1      -7.171   2.630  65.418  1.00  0.00    -0.059 OA 
HETATM   18  N   UNL     1      -8.069   3.670  67.260  1.00  0.00    -0.090 N  
HETATM   19  H   UNL     1      -8.852   4.238  67.581  1.00  0.00     0.000 HD 
BRANCH  18  20
HETATM   20  C   UNL     1      -7.026   3.348  68.237  1.00  0.00    -0.050 C  
BRANCH  20  21
HETATM   21  C   UNL     1      -5.882   4.353  68.394  1.00  0.00    -0.025 C  
BRANCH  21  22
HETATM   22  S   UNL     1      -5.367   5.196  66.848  1.00  0.00    -0.009 SA 
BRANCH  22  23
HETATM   23  S   UNL     1      -6.858   6.578  66.512  1.00  0.00    -0.067 SA 
BRANCH  23  24
HETATM   24  C   UNL     1      -6.272   7.381  64.984  1.00  0.00    -0.038 C  
BRANCH  24  25
HETATM   25  C   UNL     1      -7.358   8.270  64.375  1.00  0.00    -0.092 C  
BRANCH  25  26
HETATM   26  N   UNL     1      -7.320   9.666  64.804  1.00  0.00    -0.113 N  
HETATM   27  H   UNL     1      -8.171  10.075  65.189  1.00  0.00     0.000 HD 
HETATM   28  C   UNL     1      -6.196  10.461  64.717  1.00  0.00    -0.090 C  
HETATM   29  O   UNL     1      -5.136  10.091  64.222  1.00  0.00    -0.063 OA 
BRANCH  28  30
HETATM   30  C   UNL     1      -6.353  11.836  65.325  1.00  0.00     2.333 C  
BRANCH  30  31
HETATM   31  C   UNL     1      -7.764  11.998  65.882  1.00  0.00     0.999 C  
BRANCH  31  32
HETATM   32  N   UNL     1      -7.761  12.534  67.230  1.00  0.00    -0.233 N  
HETATM   33  H   UNL     1      -7.503  11.920  68.002  1.00  0.00     0.000 HD 
HETATM   34  C   UNL     1      -8.095  13.840  67.504  1.00  0.00    -0.185 C  
HETATM   35  O   UNL     1      -8.506  14.626  66.655  1.00  0.00    -0.177 OA 
BRANCH  34  36
HETATM   36  C   UNL     1      -7.977  14.217  68.997  1.00  0.00     0.012 C  
HETATM   37  O   UNL     1      -8.201  13.058  69.815  1.00  0.00     0.791 OA 
HETATM   38  H   UNL     1      -8.129  13.290  70.733  1.00  0.00     0.000 HD 
BRANCH  36  39
HETATM   39  C   UNL     1      -8.934  15.365  69.422  1.00  0.00    -0.258 C  
HETATM   40  C   UNL     1      -8.947  16.504  68.382  1.00  0.00    -0.219 C  
HETATM   41  C   UNL     1     -10.374  14.805  69.509  1.00  0.00    -0.127 C  
BRANCH  39  42
HETATM   42  C   UNL     1      -8.517  15.915  70.808  1.00  0.00     2.877 C  
HETATM   43  O   UNL     1      -7.864  14.924  71.596  1.00  0.00     2.102 OA 
HETATM   44  H   UNL     1      -7.609  15.262  72.446  1.00  0.00     0.000 HD 
ENDBRANCH  39  42
ENDBRANCH  36  39
ENDBRANCH  34  36
ENDBRANCH  31  32
ENDBRANCH  30  31
ENDBRANCH  28  30
ENDBRANCH  25  26
ENDBRANCH  24  25
ENDBRANCH  23  24
ENDBRANCH  22  23
ENDBRANCH  21  22
ENDBRANCH  20  21
ENDBRANCH  18  20
ENDBRANCH  15  16
ENDBRANCH  14  15
ENDBRANCH  12  14
ENDBRANCH   7  10
ENDBRANCH   2   7
TORSDOF 19
ENDMDL
MODEL      382
REMARK 921   NORMALIZED FREE ENERGY PREDICTED BY IDOCK:   11.66 KCAL/MOL
REMARK 922        TOTAL FREE ENERGY PREDICTED BY IDOCK:   22.44 KCAL/MOL
REMARK 923 INTER-LIGAND FREE ENERGY PREDICTED BY IDOCK:    8.35 KCAL/MOL
REMARK 924 INTRA-LIGAND FREE ENERGY PREDICTED BY IDOCK:   14.09 KCAL/MOL
REMARK 927      BINDING AFFINITY PREDICTED BY RF-SCORE:    0.00 PKD
ROOT
HETATM    1  C   UNL     1     -10.349   9.395  68.906  1.00  0.00    -0.230 C  
HETATM    2  C   UNL     1     -10.046   8.712  67.559  1.00  0.00    -0.277 C  
HETATM    3  C   UNL     1      -8.526   8.782  67.272  1.00  0.00    -0.111 C  
ENDROOT
BRANCH   2   4
HETATM    4  C   UNL     1     -10.408   7.215  67.661  1.00  0.00    -0.215 C  
HETATM    5  O   UNL     1      -9.289   6.388  67.351  1.00  0.00    -0.116 OA 
HETATM    6  H   UNL     1      -9.511   5.467  67.414  1.00  0.00     0.000 HD 
ENDBRANCH   2   4
BRANCH   2   7
HETATM    7  C   UNL     1     -10.851   9.369  66.394  1.00  0.00     0.328 C  
HETATM    8  O   UNL     1     -12.149   8.778  66.210  1.00  0.00     5.010 OA 
HETATM    9  H   UNL     1     -12.638   9.178  65.501  1.00  0.00     0.000 HD 
BRANCH   7  10
HETATM   10  C   UNL     1     -11.052  10.896  66.520  1.00  0.00    -0.048 C  
HETATM   11  O   UNL     1     -12.102  11.438  66.852  1.00  0.00    -0.243 OA 
HETATM   12  N   UNL     1      -9.898  11.612  66.290  1.00  0.00    -0.213 N  
HETATM   13  H   UNL     1      -9.065  11.131  65.951  1.00  0.00     0.000 HD 
BRANCH  12  14
HETATM   14  C   UNL     1      -9.853  13.039  66.523  1.00  0.00    -0.263 C  
BRANCH  14  15
HETATM   15  C   UNL     1     -10.705  13.483  67.707  1.00  0.00    -0.262 C  
BRANCH  15  16
HETATM   16  C   UNL     1     -10.698  14.994  67.768  1.00  0.00    -0.278 C  
HETATM   17  O   UNL     1      -9.690  15.625  68.070  1.00  0.00    -0.204 OA 
HETATM   18  N   UNL     1     -11.897  15.580  67.432  1.00  0.00    -0.082 N  
HETATM   19  H   UNL     1     -12.657  14.962  67.149  1.00  0.00     0.000 HD 
BRANCH  18  20
HETATM   20  C   UNL     1     -12.170  17.019  67.447  1.00  0.00     2.577 C  
BRANCH  20  21
HETATM   21  C   UNL     1     -11.263  17.892  68.319  1.00  0.00     0.504 C  
BRANCH  21  22
HETATM   22  S   UNL     1      -9.688  17.108  68.836  1.00  0.00    -0.225 SA 
BRANCH  22  23
HETATM   23  S   UNL     1     -10.278  15.569  70.073  1.00  0.00    -0.185 SA 
BRANCH  23  24
HETATM   24  C   UNL     1     -10.858  16.483  71.540  1.00  0.00     1.035 C  
BRANCH  24  25
HETATM   25  C   UNL     1     -12.386  16.527  71.594  1.00  0.00     0.478 C  
BRANCH  25  26
HETATM   26  N   UNL     1     -13.027  15.245  71.876  1.00  0.00    -0.354 N  
HETATM   27  H   UNL     1     -13.939  15.252  72.335  1.00  0.00     0.000 HD 
HETATM   28  C   UNL     1     -12.468  14.025  71.556  1.00  0.00    -0.322 C  
HETATM   29  O   UNL     1     -11.356  13.895  71.056  1.00  0.00     0.261 OA 
BRANCH  28  30
HETATM   30  C   UNL     1     -13.358  12.836  71.837  1.00  0.00    -0.510 C  
BRANCH  30  31
HETATM   31  C   UNL     1     -13.540  12.014  70.564  1.00  0.00     1.866 C  
BRANCH  31  32
HETATM   32  N   UNL     1     -13.525  10.588  70.827  1.00  0.00    -0.097 N  
HETATM   33  H   UNL     1     -13.845   9.950  70.097  1.00  0.00     0.000 HD 
HETATM   34  C   UNL     1     -13.094  10.063  72.023  1.00  0.00    -0.441 C  
HETATM   35  O   UNL     1     -12.778  10.751  72.989  1.00  0.00     1.724 OA 
BRANCH  34  36
HETATM   36  C   UNL     1     -13.112   8.519  72.073  1.00  0.00    -0.371 C  
HETATM   37  O   UNL     1     -13.915   8.074  73.177  1.00  0.00     0.008 OA 
HETATM   38  H   UNL     1     -13.926   7.124  73.208  1.00  0.00     0.000 HD 
BRANCH  36  39
HETATM   39  C   UNL     1     -11.694   7.887  72.153  1.00  0.00    -0.385 C  
HETATM   40  C   UNL     1     -10.599   8.969  72.257  1.00  0.00    -0.061 C  
HETATM   41  C   UNL     1     -11.608   7.020  73.431  1.00  0.00     0.540 C  
BRANCH  39  42
HETATM   42  C   UNL     1     -11.444   6.994  70.914  1.00  0.00    -0.308 C  
HETATM   43  O   UNL     1     -10.112   6.491  70.885  1.00  0.00    -0.184 OA 
HETATM   44  H   UNL     1      -9.958   5.943  70.125  1.00  0.00     0.000 HD 
ENDBRANCH  39  42
ENDBRANCH  36  39
ENDBRANCH  34  36
ENDBRANCH  31  32
ENDBRANCH  30  31
ENDBRANCH  28  30
ENDBRANCH  25  26
ENDBRANCH  24  25
ENDBRANCH  23  24
ENDBRANCH  22  23
ENDBRANCH  21  22
ENDBRANCH  20  21
ENDBRANCH  18  20
ENDBRANCH  15  16
ENDBRANCH  14  15
ENDBRANCH  12  14
ENDBRANCH   7  10
ENDBRANCH   2   7
TORSDOF 19
ENDMDL
MODEL      383
REMARK 921   NORMALIZED FREE ENERGY PREDICTED BY IDOCK:   20.30 KCAL/MOL
REMARK 922        TOTAL FREE ENERGY PREDICTED BY IDOCK:   40.67 KCAL/MOL
REMARK 923 INTER-LIGAND FREE ENERGY PREDICTED BY IDOCK:   26.91 KCAL/MOL
REMARK 924 INTRA-LIGAND FREE ENERGY PREDICTED BY IDOCK:   13.76 KCAL/MOL
REMARK 927      BINDING AFFINITY PREDICTED BY RF-SCORE:    0.00 PKD
ROOT
HETATM    1  C   UNL     1     -13.774  11.338  63.608  1.00  0.00     2.316 C  
HETATM    2  C   UNL     1     -13.005  12.457  64.335  1.00  0.00    -0.219 C  
HETATM    3  C   UNL     1     -14.009  13.402  65.041  1.00  0.00     3.076 C  
ENDROOT
BRANCH   2   4
HETATM    4  C   UNL     1     -12.133  11.831  65.443  1.00  0.00     0.328 C  
HETATM    5  O   UNL     1     -12.332  10.422  65.526  1.00  0.00     3.577 OA 
HETATM    6  H   UNL     1     -11.796  10.036  66.208  1.00  0.00     0.000 HD 
ENDBRANCH   2   4
BRANCH   2   7
HETATM    7  C   UNL     1     -12.103  13.262  63.347  1.00  0.00    -0.439 C  
HETATM    8  O   UNL     1     -12.795  14.357  62.724  1.00  0.00    -0.023 OA 
HETATM    9  H   UNL     1     -12.247  14.846  62.124  1.00  0.00     0.000 HD 
BRANCH   7  10
HETATM   10  C   UNL     1     -10.802  13.825  63.961  1.00  0.00     0.103 C  
HETATM   11  O   UNL     1     -10.076  13.214  64.740  1.00  0.00    -0.296 OA 
HETATM   12  N   UNL     1     -10.482  15.079  63.492  1.00  0.00     3.002 N  
HETATM   13  H   UNL     1     -11.145  15.580  62.899  1.00  0.00     0.000 HD 
BRANCH  12  14
HETATM   14  C   UNL     1      -9.219  15.696  63.828  1.00  0.00    10.357 C  
BRANCH  14  15
HETATM   15  C   UNL     1      -9.333  16.740  64.934  1.00  0.00     2.569 C  
BRANCH  15  16
HETATM   16  C   UNL     1     -10.543  16.416  65.781  1.00  0.00    -0.315 C  
HETATM   17  O   UNL     1     -11.560  17.101  65.747  1.00  0.00     0.964 OA 
HETATM   18  N   UNL     1     -10.405  15.286  66.555  1.00  0.00    -0.277 N  
HETATM   19  H   UNL     1      -9.534  14.764  66.470  1.00  0.00     0.000 HD 
BRANCH  18  20
HETATM   20  C   UNL     1     -11.409  14.775  67.492  1.00  0.00    -0.344 C  
BRANCH  20  21
HETATM   21  C   UNL     1     -11.203  13.355  68.029  1.00  0.00    -0.268 C  
BRANCH  21  22
HETATM   22  S   UNL     1     -12.060  12.989  69.609  1.00  0.00    -0.188 SA 
BRANCH  22  23
HETATM   23  S   UNL     1     -12.067  10.931  69.709  1.00  0.00    -0.314 SA 
BRANCH  23  24
HETATM   24  C   UNL     1     -10.399  10.593  70.365  1.00  0.00     0.500 C  
BRANCH  24  25
HETATM   25  C   UNL     1      -9.387  10.408  69.232  1.00  0.00    -0.187 C  
BRANCH  25  26
HETATM   26  N   UNL     1      -8.850  11.649  68.680  1.00  0.00    -0.316 N  
HETATM   27  H   UNL     1      -8.388  11.612  67.771  1.00  0.00     0.000 HD 
HETATM   28  C   UNL     1      -8.932  12.868  69.320  1.00  0.00     0.987 C  
HETATM   29  O   UNL     1      -9.414  13.019  70.437  1.00  0.00     3.973 OA 
BRANCH  28  30
HETATM   30  C   UNL     1      -8.411  14.035  68.514  1.00  0.00    -0.143 C  
BRANCH  30  31
HETATM   31  C   UNL     1      -8.485  15.312  69.345  1.00  0.00    -0.231 C  
BRANCH  31  32
HETATM   32  N   UNL     1      -8.722  16.485  68.525  1.00  0.00    -0.218 N  
HETATM   33  H   UNL     1      -8.384  16.489  67.563  1.00  0.00     0.000 HD 
HETATM   34  C   UNL     1      -9.387  17.592  68.998  1.00  0.00    -0.073 C  
HETATM   35  O   UNL     1      -9.750  17.718  70.164  1.00  0.00     1.055 OA 
BRANCH  34  36
HETATM   36  C   UNL     1      -9.576  18.707  67.945  1.00  0.00    -0.310 C  
HETATM   37  O   UNL     1     -10.189  18.167  66.763  1.00  0.00    -0.336 OA 
HETATM   38  H   UNL     1     -10.305  18.853  66.116  1.00  0.00     0.000 HD 
BRANCH  36  39
HETATM   39  C   UNL     1      -8.256  19.439  67.576  1.00  0.00    -0.321 C  
HETATM   40  C   UNL     1      -8.372  20.961  67.803  1.00  0.00     0.054 C  
HETATM   41  C   UNL     1      -7.126  18.922  68.497  1.00  0.00    -0.306 C  
BRANCH  39  42
HETATM   42  C   UNL     1      -7.884  19.148  66.102  1.00  0.00    -0.282 C  
HETATM   43  O   UNL     1      -8.105  17.784  65.760  1.00  0.00    -0.541 OA 
HETATM   44  H   UNL     1      -7.877  17.605  64.856  1.00  0.00     0.000 HD 
ENDBRANCH  39  42
ENDBRANCH  36  39
ENDBRANCH  34  36
ENDBRANCH  31  32
ENDBRANCH  30  31
ENDBRANCH  28  30
ENDBRANCH  25  26
ENDBRANCH  24  25
ENDBRANCH  23  24
ENDBRANCH  22  23
ENDBRANCH  21  22
ENDBRANCH  20  21
ENDBRANCH  18  20
ENDBRANCH  15  16
ENDBRANCH  14  15
ENDBRANCH  12  14
ENDBRANCH   7  10
ENDBRANCH   2   7
TORSDOF 19
ENDMDL
