MODEL        1
REMARK 921   NORMALIZED FREE ENERGY PREDICTED BY IDOCK:   -7.03 KCAL/MOL
REMARK 922        TOTAL FREE ENERGY PREDICTED BY IDOCK:  -10.25 KCAL/MOL
REMARK 923 INTER-LIGAND FREE ENERGY PREDICTED BY IDOCK:   -9.50 KCAL/MOL
REMARK 924 INTRA-LIGAND FREE ENERGY PREDICTED BY IDOCK:   -0.75 KCAL/MOL
REMARK 927      BINDING AFFINITY PREDICTED BY RF-SCORE:    0.00 PKD
ROOT
HETATM    1  C   UNL     1     -10.040   7.894  67.635  1.00  0.00    -0.203 C  
HETATM    2  O   UNL     1     -10.545   9.156  68.068  1.00  0.00    -0.229 OA 
ENDROOT
BRANCH   2   3
HETATM    3  C   UNL     1     -10.571  10.133  67.103  1.00  0.00    -0.246 A  
HETATM    4  C   UNL     1     -11.389  11.282  67.106  1.00  0.00    -0.220 A  
HETATM    5  C   UNL     1      -9.670  10.834  65.019  1.00  0.00    -0.269 A  
HETATM    6  C   UNL     1     -11.192  12.229  66.094  1.00  0.00    -0.328 A  
HETATM    7  C   UNL     1      -9.722   9.898  66.030  1.00  0.00    -0.310 A  
HETATM    8  N   UNL     1     -10.373  11.985  65.032  1.00  0.00    -0.272 NA 
BRANCH   4   9
HETATM    9  O   UNL     1     -12.261  11.442  68.154  1.00  0.00    -0.602 OA 
HETATM   10  C   UNL     1     -11.720  12.042  69.333  1.00  0.00    -0.340 C  
ENDBRANCH   4   9
BRANCH   6  11
HETATM   11  C   UNL     1     -11.793  13.612  66.119  1.00  0.00    -0.392 C  
BRANCH  11  12
HETATM   12  S   UNL     1     -11.421  14.527  64.597  1.00  0.00    -0.367 S  
HETATM   13  O   UNL     1     -12.682  14.904  63.875  1.00  0.00    -0.789 OA 
BRANCH  12  14
HETATM   14  C   UNL     1     -10.830  15.991  65.306  1.00  0.00    -0.362 A  
HETATM   15  N   UNL     1     -11.113  17.213  64.902  1.00  0.00    -0.792 NA 
HETATM   16  C   UNL     1     -10.531  18.038  65.840  1.00  0.00    -0.264 A  
HETATM   17  H   UNL     1     -11.645  17.487  64.077  1.00  0.00     0.000 HD 
HETATM   18  C   UNL     1      -9.858  17.301  66.808  1.00  0.00    -0.294 A  
HETATM   19  N   UNL     1     -10.049  15.999  66.431  1.00  0.00    -0.284 NA 
HETATM   20  C   UNL     1      -9.189  17.884  67.888  1.00  0.00    -0.263 A  
HETATM   21  C   UNL     1      -9.202  19.285  67.974  1.00  0.00    -0.321 A  
HETATM   22  C   UNL     1      -9.892  20.049  67.028  1.00  0.00    -0.566 A  
HETATM   23  C   UNL     1     -10.553  19.437  65.949  1.00  0.00    -0.551 A  
BRANCH  21  24
HETATM   24  O   UNL     1      -8.522  19.789  69.051  1.00  0.00    -0.230 OA 
HETATM   25  C   UNL     1      -7.110  19.673  68.996  1.00  0.00    -0.352 C  
HETATM   26  F   UNL     1      -6.611  20.712  68.282  1.00  0.00    -0.309 F  
HETATM   27  F   UNL     1      -6.644  19.812  70.264  1.00  0.00    -0.345 F  
ENDBRANCH  21  24
ENDBRANCH  12  14
ENDBRANCH  11  12
ENDBRANCH   6  11
ENDBRANCH   2   3
TORSDOF 6
ENDMDL
MODEL        2
REMARK 921   NORMALIZED FREE ENERGY PREDICTED BY IDOCK:   -6.79 KCAL/MOL
REMARK 922        TOTAL FREE ENERGY PREDICTED BY IDOCK:   -9.92 KCAL/MOL
REMARK 923 INTER-LIGAND FREE ENERGY PREDICTED BY IDOCK:   -8.96 KCAL/MOL
REMARK 924 INTRA-LIGAND FREE ENERGY PREDICTED BY IDOCK:   -0.96 KCAL/MOL
REMARK 927      BINDING AFFINITY PREDICTED BY RF-SCORE:    0.00 PKD
ROOT
HETATM    1  C   UNL     1      -6.867  18.040  68.250  1.00  0.00    -0.217 C  
HETATM    2  O   UNL     1      -7.929  17.118  68.489  1.00  0.00    -0.238 OA 
ENDROOT
BRANCH   2   3
HETATM    3  C   UNL     1      -8.801  16.954  67.441  1.00  0.00    -0.204 A  
HETATM    4  C   UNL     1      -8.945  15.791  66.654  1.00  0.00    -0.280 A  
HETATM    5  C   UNL     1     -10.473  18.003  66.117  1.00  0.00    -0.331 A  
HETATM    6  C   UNL     1      -9.971  15.767  65.702  1.00  0.00    -0.345 A  
HETATM    7  C   UNL     1      -9.558  18.079  67.146  1.00  0.00    -0.281 A  
HETATM    8  N   UNL     1     -10.698  16.881  65.402  1.00  0.00    -0.539 NA 
BRANCH   4   9
HETATM    9  O   UNL     1      -8.129  14.724  66.939  1.00  0.00    -0.182 OA 
HETATM   10  C   UNL     1      -8.390  14.047  68.170  1.00  0.00    -0.164 C  
ENDBRANCH   4   9
BRANCH   6  11
HETATM   11  C   UNL     1     -10.413  14.516  64.987  1.00  0.00    -0.429 C  
BRANCH  11  12
HETATM   12  S   UNL     1     -12.170  14.168  65.281  1.00  0.00    -0.443 S  
HETATM   13  O   UNL     1     -12.647  13.042  64.411  1.00  0.00    -0.607 OA 
BRANCH  12  14
HETATM   14  C   UNL     1     -12.046  13.509  66.877  1.00  0.00    -0.368 A  
HETATM   15  N   UNL     1     -12.183  14.179  68.002  1.00  0.00    -0.561 NA 
HETATM   16  C   UNL     1     -12.134  13.222  68.992  1.00  0.00    -0.226 A  
HETATM   17  H   UNL     1     -12.301  15.186  68.115  1.00  0.00     0.000 HD 
HETATM   18  C   UNL     1     -11.931  11.956  68.456  1.00  0.00    -0.212 A  
HETATM   19  N   UNL     1     -11.858  12.172  67.106  1.00  0.00    -0.591 NA 
HETATM   20  C   UNL     1     -11.854  10.797  69.233  1.00  0.00    -0.359 A  
HETATM   21  C   UNL     1     -11.983  10.944  70.623  1.00  0.00    -0.368 A  
HETATM   22  C   UNL     1     -12.214  12.203  71.187  1.00  0.00    -0.119 A  
HETATM   23  C   UNL     1     -12.281  13.353  70.382  1.00  0.00    -0.415 A  
BRANCH  21  24
HETATM   24  O   UNL     1     -11.892   9.771  71.325  1.00  0.00    -0.340 OA 
HETATM   25  C   UNL     1     -13.055   9.391  72.041  1.00  0.00    -0.433 C  
HETATM   26  F   UNL     1     -13.897   8.741  71.199  1.00  0.00    -0.350 F  
HETATM   27  F   UNL     1     -12.673   8.489  72.981  1.00  0.00    -0.362 F  
ENDBRANCH  21  24
ENDBRANCH  12  14
ENDBRANCH  11  12
ENDBRANCH   6  11
ENDBRANCH   2   3
TORSDOF 6
ENDMDL
MODEL        3
REMARK 921   NORMALIZED FREE ENERGY PREDICTED BY IDOCK:   -6.79 KCAL/MOL
REMARK 922        TOTAL FREE ENERGY PREDICTED BY IDOCK:   -9.92 KCAL/MOL
REMARK 923 INTER-LIGAND FREE ENERGY PREDICTED BY IDOCK:   -8.89 KCAL/MOL
REMARK 924 INTRA-LIGAND FREE ENERGY PREDICTED BY IDOCK:   -1.02 KCAL/MOL
REMARK 927      BINDING AFFINITY PREDICTED BY RF-SCORE:    0.00 PKD
ROOT
HETATM    1  C   UNL     1      -7.517   8.458  65.562  1.00  0.00    -0.085 C  
HETATM    2  O   UNL     1      -7.748   9.854  65.742  1.00  0.00    -0.104 OA 
ENDROOT
BRANCH   2   3
HETATM    3  C   UNL     1      -8.732  10.387  64.946  1.00  0.00    -0.184 A  
HETATM    4  C   UNL     1      -9.936  10.972  65.392  1.00  0.00    -0.260 A  
HETATM    5  C   UNL     1      -9.414  10.798  62.707  1.00  0.00    -0.331 A  
HETATM    6  C   UNL     1     -10.767  11.570  64.437  1.00  0.00    -0.344 A  
HETATM    7  C   UNL     1      -8.487  10.277  63.584  1.00  0.00    -0.183 A  
HETATM    8  N   UNL     1     -10.532  11.442  63.101  1.00  0.00    -0.310 NA 
BRANCH   4   9
HETATM    9  O   UNL     1     -10.168  11.001  66.745  1.00  0.00    -0.212 OA 
HETATM   10  C   UNL     1     -10.868   9.877  67.284  1.00  0.00    -0.199 C  
ENDBRANCH   4   9
BRANCH   6  11
HETATM   11  C   UNL     1     -11.933  12.459  64.789  1.00  0.00    -0.398 C  
BRANCH  11  12
HETATM   12  S   UNL     1     -11.491  14.214  64.667  1.00  0.00    -0.381 S  
HETATM   13  O   UNL     1     -12.635  15.020  64.123  1.00  0.00    -0.770 OA 
BRANCH  12  14
HETATM   14  C   UNL     1     -11.418  14.587  66.357  1.00  0.00    -0.360 A  
HETATM   15  N   UNL     1     -10.877  15.664  66.886  1.00  0.00    -0.308 NA 
HETATM   16  C   UNL     1     -11.174  15.584  68.230  1.00  0.00    -0.343 A  
HETATM   17  H   UNL     1     -10.355  16.397  66.407  1.00  0.00     0.000 HD 
HETATM   18  C   UNL     1     -11.877  14.421  68.519  1.00  0.00    -0.334 A  
HETATM   19  N   UNL     1     -12.001  13.794  67.308  1.00  0.00    -0.401 NA 
HETATM   20  C   UNL     1     -12.319  14.091  69.804  1.00  0.00    -0.344 A  
HETATM   21  C   UNL     1     -12.018  14.990  70.839  1.00  0.00    -0.319 A  
HETATM   22  C   UNL     1     -11.333  16.180  70.571  1.00  0.00    -0.392 A  
HETATM   23  C   UNL     1     -10.896  16.484  69.270  1.00  0.00    -0.326 A  
BRANCH  21  24
HETATM   24  O   UNL     1     -12.474  14.603  72.071  1.00  0.00    -0.326 OA 
HETATM   25  C   UNL     1     -12.929  15.649  72.914  1.00  0.00    -0.497 C  
HETATM   26  F   UNL     1     -14.218  15.933  72.604  1.00  0.00    -0.632 F  
HETATM   27  F   UNL     1     -12.931  15.170  74.185  1.00  0.00    -0.549 F  
ENDBRANCH  21  24
ENDBRANCH  12  14
ENDBRANCH  11  12
ENDBRANCH   6  11
ENDBRANCH   2   3
TORSDOF 6
ENDMDL
MODEL        4
REMARK 921   NORMALIZED FREE ENERGY PREDICTED BY IDOCK:   -6.77 KCAL/MOL
REMARK 922        TOTAL FREE ENERGY PREDICTED BY IDOCK:   -9.89 KCAL/MOL
REMARK 923 INTER-LIGAND FREE ENERGY PREDICTED BY IDOCK:   -9.11 KCAL/MOL
REMARK 924 INTRA-LIGAND FREE ENERGY PREDICTED BY IDOCK:   -0.78 KCAL/MOL
REMARK 927      BINDING AFFINITY PREDICTED BY RF-SCORE:    0.00 PKD
ROOT
HETATM    1  C   UNL     1      -9.975  18.292  67.450  1.00  0.00    -0.334 C  
HETATM    2  O   UNL     1      -9.167  17.632  66.477  1.00  0.00    -0.263 OA 
ENDROOT
BRANCH   2   3
HETATM    3  C   UNL     1      -9.620  16.395  66.089  1.00  0.00    -0.325 A  
HETATM    4  C   UNL     1      -9.057  15.153  66.448  1.00  0.00    -0.296 A  
HETATM    5  C   UNL     1     -11.245  15.235  64.800  1.00  0.00    -0.396 A  
HETATM    6  C   UNL     1      -9.727  13.990  66.052  1.00  0.00    -0.258 A  
HETATM    7  C   UNL     1     -10.711  16.431  65.231  1.00  0.00    -0.312 A  
HETATM    8  N   UNL     1     -10.786  14.029  65.194  1.00  0.00    -0.357 NA 
BRANCH   4   9
HETATM    9  O   UNL     1      -7.938  15.167  67.244  1.00  0.00    -0.175 OA 
HETATM   10  C   UNL     1      -8.172  15.209  68.654  1.00  0.00    -0.154 C  
ENDBRANCH   4   9
BRANCH   6  11
HETATM   11  C   UNL     1      -9.399  12.618  66.584  1.00  0.00    -0.236 C  
BRANCH  11  12
HETATM   12  S   UNL     1     -10.766  11.455  66.311  1.00  0.00    -0.255 S  
HETATM   13  O   UNL     1     -10.260  10.045  66.215  1.00  0.00    -0.241 OA 
BRANCH  12  14
HETATM   14  C   UNL     1     -11.528  11.575  67.862  1.00  0.00    -0.301 A  
HETATM   15  N   UNL     1     -11.940  10.565  68.598  1.00  0.00    -0.769 NA 
HETATM   16  C   UNL     1     -12.351  11.136  69.783  1.00  0.00    -0.246 A  
HETATM   17  H   UNL     1     -11.953   9.577  68.347  1.00  0.00     0.000 HD 
HETATM   18  C   UNL     1     -12.214  12.519  69.747  1.00  0.00    -0.132 A  
HETATM   19  N   UNL     1     -11.706  12.772  68.501  1.00  0.00    -0.316 NA 
HETATM   20  C   UNL     1     -12.543  13.351  70.821  1.00  0.00    -0.369 A  
HETATM   21  C   UNL     1     -13.043  12.738  71.981  1.00  0.00    -0.369 A  
HETATM   22  C   UNL     1     -13.167  11.347  72.053  1.00  0.00    -0.432 A  
HETATM   23  C   UNL     1     -12.834  10.534  70.955  1.00  0.00    -0.502 A  
BRANCH  21  24
HETATM   24  O   UNL     1     -13.351  13.610  72.991  1.00  0.00    -0.546 OA 
HETATM   25  C   UNL     1     -13.183  14.986  72.687  1.00  0.00    -0.432 C  
HETATM   26  F   UNL     1     -14.294  15.435  72.054  1.00  0.00    -0.523 F  
HETATM   27  F   UNL     1     -13.111  15.653  73.868  1.00  0.00    -0.574 F  
ENDBRANCH  21  24
ENDBRANCH  12  14
ENDBRANCH  11  12
ENDBRANCH   6  11
ENDBRANCH   2   3
TORSDOF 6
ENDMDL
MODEL        5
REMARK 921   NORMALIZED FREE ENERGY PREDICTED BY IDOCK:   -6.72 KCAL/MOL
REMARK 922        TOTAL FREE ENERGY PREDICTED BY IDOCK:   -9.82 KCAL/MOL
REMARK 923 INTER-LIGAND FREE ENERGY PREDICTED BY IDOCK:   -9.06 KCAL/MOL
REMARK 924 INTRA-LIGAND FREE ENERGY PREDICTED BY IDOCK:   -0.76 KCAL/MOL
REMARK 927      BINDING AFFINITY PREDICTED BY RF-SCORE:    0.00 PKD
ROOT
HETATM    1  C   UNL     1      -6.445  20.051  65.190  1.00  0.00    -0.284 C  
HETATM    2  O   UNL     1      -7.157  18.819  65.089  1.00  0.00    -0.474 OA 
ENDROOT
BRANCH   2   3
HETATM    3  C   UNL     1      -7.583  18.295  66.285  1.00  0.00    -0.256 A  
HETATM    4  C   UNL     1      -8.925  18.135  66.691  1.00  0.00    -0.282 A  
HETATM    5  C   UNL     1      -6.890  17.395  68.372  1.00  0.00    -0.194 A  
HETATM    6  C   UNL     1      -9.169  17.473  67.900  1.00  0.00    -0.265 A  
HETATM    7  C   UNL     1      -6.558  17.944  67.151  1.00  0.00    -0.196 A  
HETATM    8  N   UNL     1      -8.159  17.148  68.756  1.00  0.00    -0.267 NA 
BRANCH   4   9
HETATM    9  O   UNL     1      -9.907  18.558  65.829  1.00  0.00    -0.483 OA 
HETATM   10  C   UNL     1     -10.395  19.885  66.037  1.00  0.00    -0.486 C  
ENDBRANCH   4   9
BRANCH   6  11
HETATM   11  C   UNL     1     -10.533  16.994  68.326  1.00  0.00    -0.363 C  
BRANCH  11  12
HETATM   12  S   UNL     1     -11.011  15.480  67.448  1.00  0.00    -0.279 S  
HETATM   13  O   UNL     1      -9.802  14.749  66.939  1.00  0.00    -0.233 OA 
BRANCH  12  14
HETATM   14  C   UNL     1     -11.580  14.559  68.800  1.00  0.00    -0.312 A  
HETATM   15  N   UNL     1     -12.287  15.026  69.808  1.00  0.00    -0.512 NA 
HETATM   16  C   UNL     1     -12.613  13.915  70.555  1.00  0.00    -0.312 A  
HETATM   17  H   UNL     1     -12.539  15.996  69.994  1.00  0.00     0.000 HD 
HETATM   18  C   UNL     1     -12.065  12.762  70.005  1.00  0.00    -0.285 A  
HETATM   19  N   UNL     1     -11.394  13.206  68.897  1.00  0.00    -0.272 NA 
HETATM   20  C   UNL     1     -12.248  11.488  70.551  1.00  0.00    -0.469 A  
HETATM   21  C   UNL     1     -13.021  11.394  71.719  1.00  0.00    -0.414 A  
HETATM   22  C   UNL     1     -13.605  12.535  72.279  1.00  0.00    -0.443 A  
HETATM   23  C   UNL     1     -13.400  13.804  71.712  1.00  0.00    -0.463 A  
BRANCH  21  24
HETATM   24  O   UNL     1     -13.155  10.120  72.205  1.00  0.00    -0.435 OA 
HETATM   25  C   UNL     1     -12.318   9.144  71.606  1.00  0.00    -0.360 C  
HETATM   26  F   UNL     1     -11.105   9.173  72.212  1.00  0.00    -0.414 F  
HETATM   27  F   UNL     1     -12.860   7.929  71.878  1.00  0.00    -0.304 F  
ENDBRANCH  21  24
ENDBRANCH  12  14
ENDBRANCH  11  12
ENDBRANCH   6  11
ENDBRANCH   2   3
TORSDOF 6
ENDMDL
MODEL        6
REMARK 921   NORMALIZED FREE ENERGY PREDICTED BY IDOCK:   -6.71 KCAL/MOL
REMARK 922        TOTAL FREE ENERGY PREDICTED BY IDOCK:   -9.82 KCAL/MOL
REMARK 923 INTER-LIGAND FREE ENERGY PREDICTED BY IDOCK:   -9.01 KCAL/MOL
REMARK 924 INTRA-LIGAND FREE ENERGY PREDICTED BY IDOCK:   -0.81 KCAL/MOL
REMARK 927      BINDING AFFINITY PREDICTED BY RF-SCORE:    0.00 PKD
ROOT
HETATM    1  C   UNL     1     -12.625  12.159  63.521  1.00  0.00    -0.506 C  
HETATM    2  O   UNL     1     -11.251  12.469  63.298  1.00  0.00    -0.452 OA 
ENDROOT
BRANCH   2   3
HETATM    3  C   UNL     1     -10.359  11.656  63.953  1.00  0.00    -0.369 A  
HETATM    4  C   UNL     1     -10.036  11.713  65.325  1.00  0.00    -0.255 A  
HETATM    5  C   UNL     1      -8.812   9.869  63.708  1.00  0.00    -0.232 A  
HETATM    6  C   UNL     1      -9.189  10.724  65.840  1.00  0.00    -0.190 A  
HETATM    7  C   UNL     1      -9.715  10.739  63.134  1.00  0.00    -0.394 A  
HETATM    8  N   UNL     1      -8.544   9.838  65.030  1.00  0.00    -0.151 NA 
BRANCH   4   9
HETATM    9  O   UNL     1     -10.647  12.680  66.085  1.00  0.00    -0.252 OA 
HETATM   10  C   UNL     1      -9.959  13.929  66.181  1.00  0.00    -0.310 C  
ENDBRANCH   4   9
BRANCH   6  11
HETATM   11  C   UNL     1      -8.975  10.499  67.316  1.00  0.00    -0.139 C  
BRANCH  11  12
HETATM   12  S   UNL     1     -10.086   9.216  67.960  1.00  0.00    -0.206 S  
HETATM   13  O   UNL     1      -9.349   8.274  68.867  1.00  0.00    -0.147 OA 
BRANCH  12  14
HETATM   14  C   UNL     1     -11.056  10.205  69.000  1.00  0.00    -0.205 A  
HETATM   15  N   UNL     1     -11.817   9.774  69.983  1.00  0.00    -0.449 NA 
HETATM   16  C   UNL     1     -12.281  10.917  70.598  1.00  0.00    -0.376 A  
HETATM   17  H   UNL     1     -12.019   8.807  70.235  1.00  0.00     0.000 HD 
HETATM   18  C   UNL     1     -11.816  12.057  69.952  1.00  0.00    -0.331 A  
HETATM   19  N   UNL     1     -11.053  11.572  68.924  1.00  0.00    -0.215 NA 
HETATM   20  C   UNL     1     -12.120  13.355  70.372  1.00  0.00    -0.405 A  
HETATM   21  C   UNL     1     -12.945  13.490  71.500  1.00  0.00    -0.355 A  
HETATM   22  C   UNL     1     -13.406  12.360  72.184  1.00  0.00    -0.508 A  
HETATM   23  C   UNL     1     -13.089  11.067  71.735  1.00  0.00    -0.554 A  
BRANCH  21  24
HETATM   24  O   UNL     1     -13.209  14.787  71.853  1.00  0.00    -0.309 OA 
HETATM   25  C   UNL     1     -12.932  15.125  73.203  1.00  0.00    -0.518 C  
HETATM   26  F   UNL     1     -11.617  15.434  73.318  1.00  0.00    -0.525 F  
HETATM   27  F   UNL     1     -13.624  16.259  73.484  1.00  0.00    -0.652 F  
ENDBRANCH  21  24
ENDBRANCH  12  14
ENDBRANCH  11  12
ENDBRANCH   6  11
ENDBRANCH   2   3
TORSDOF 6
ENDMDL
MODEL        7
REMARK 921   NORMALIZED FREE ENERGY PREDICTED BY IDOCK:   -6.64 KCAL/MOL
REMARK 922        TOTAL FREE ENERGY PREDICTED BY IDOCK:   -9.72 KCAL/MOL
REMARK 923 INTER-LIGAND FREE ENERGY PREDICTED BY IDOCK:   -8.77 KCAL/MOL
REMARK 924 INTRA-LIGAND FREE ENERGY PREDICTED BY IDOCK:   -0.95 KCAL/MOL
REMARK 927      BINDING AFFINITY PREDICTED BY RF-SCORE:    0.00 PKD
ROOT
HETATM    1  C   UNL     1     -13.419  13.492  72.280  1.00  0.00    -0.571 C  
HETATM    2  O   UNL     1     -12.170  13.643  71.608  1.00  0.00    -0.175 OA 
ENDROOT
BRANCH   2   3
HETATM    3  C   UNL     1     -12.152  13.196  70.309  1.00  0.00    -0.328 A  
HETATM    4  C   UNL     1     -12.284  13.995  69.154  1.00  0.00    -0.262 A  
HETATM    5  C   UNL     1     -11.989  11.281  68.912  1.00  0.00    -0.310 A  
HETATM    6  C   UNL     1     -12.123  13.377  67.908  1.00  0.00    -0.251 A  
HETATM    7  C   UNL     1     -12.031  11.819  70.181  1.00  0.00    -0.421 A  
HETATM    8  N   UNL     1     -12.025  12.023  67.786  1.00  0.00    -0.553 NA 
BRANCH   4   9
HETATM    9  O   UNL     1     -12.468  15.345  69.330  1.00  0.00    -0.144 OA 
HETATM   10  C   UNL     1     -11.279  16.131  69.427  1.00  0.00    -0.335 C  
ENDBRANCH   4   9
BRANCH   6  11
HETATM   11  C   UNL     1     -11.968  14.138  66.616  1.00  0.00    -0.444 C  
BRANCH  11  12
HETATM   12  S   UNL     1     -10.255  14.093  66.019  1.00  0.00    -0.319 S  
HETATM   13  O   UNL     1     -10.204  13.738  64.561  1.00  0.00    -0.414 OA 
BRANCH  12  14
HETATM   14  C   UNL     1      -9.901  15.786  66.102  1.00  0.00    -0.315 A  
HETATM   15  N   UNL     1     -10.689  16.759  65.697  1.00  0.00    -0.362 NA 
HETATM   16  C   UNL     1     -10.048  17.917  66.083  1.00  0.00    -0.320 A  
HETATM   17  H   UNL     1     -11.579  16.675  65.206  1.00  0.00     0.000 HD 
HETATM   18  C   UNL     1      -8.836  17.635  66.704  1.00  0.00    -0.263 A  
HETATM   19  N   UNL     1      -8.759  16.268  66.683  1.00  0.00    -0.230 NA 
HETATM   20  C   UNL     1      -7.985  18.623  67.208  1.00  0.00    -0.245 A  
HETATM   21  C   UNL     1      -8.391  19.958  67.063  1.00  0.00    -0.319 A  
HETATM   22  C   UNL     1      -9.618  20.268  66.466  1.00  0.00    -0.491 A  
HETATM   23  C   UNL     1     -10.451  19.255  65.962  1.00  0.00    -0.573 A  
BRANCH  21  24
HETATM   24  O   UNL     1      -7.509  20.874  67.573  1.00  0.00    -0.329 OA 
HETATM   25  C   UNL     1      -6.147  20.672  67.230  1.00  0.00    -0.224 C  
HETATM   26  F   UNL     1      -5.913  21.225  66.015  1.00  0.00    -0.267 F  
HETATM   27  F   UNL     1      -5.400  21.366  68.126  1.00  0.00    -0.302 F  
ENDBRANCH  21  24
ENDBRANCH  12  14
ENDBRANCH  11  12
ENDBRANCH   6  11
ENDBRANCH   2   3
TORSDOF 6
ENDMDL
MODEL        8
REMARK 921   NORMALIZED FREE ENERGY PREDICTED BY IDOCK:   -6.61 KCAL/MOL
REMARK 922        TOTAL FREE ENERGY PREDICTED BY IDOCK:   -9.68 KCAL/MOL
REMARK 923 INTER-LIGAND FREE ENERGY PREDICTED BY IDOCK:   -8.76 KCAL/MOL
REMARK 924 INTRA-LIGAND FREE ENERGY PREDICTED BY IDOCK:   -0.92 KCAL/MOL
REMARK 927      BINDING AFFINITY PREDICTED BY RF-SCORE:    0.00 PKD
ROOT
HETATM    1  C   UNL     1     -12.878  10.649  71.471  1.00  0.00    -0.462 C  
HETATM    2  O   UNL     1     -12.045  10.712  70.314  1.00  0.00    -0.287 OA 
ENDROOT
BRANCH   2   3
HETATM    3  C   UNL     1     -12.005  11.937  69.694  1.00  0.00    -0.298 A  
HETATM    4  C   UNL     1     -11.833  12.163  68.312  1.00  0.00    -0.301 A  
HETATM    5  C   UNL     1     -12.091  14.288  70.024  1.00  0.00    -0.340 A  
HETATM    6  C   UNL     1     -11.936  13.479  67.846  1.00  0.00    -0.337 A  
HETATM    7  C   UNL     1     -12.107  13.018  70.558  1.00  0.00    -0.373 A  
HETATM    8  N   UNL     1     -12.016  14.539  68.700  1.00  0.00    -0.312 NA 
BRANCH   4   9
HETATM    9  O   UNL     1     -11.669  11.067  67.502  1.00  0.00    -0.565 OA 
HETATM   10  C   UNL     1     -10.336  10.565  67.390  1.00  0.00    -0.224 C  
ENDBRANCH   4   9
BRANCH   6  11
HETATM   11  C   UNL     1     -12.044  13.839  66.386  1.00  0.00    -0.444 C  
BRANCH  11  12
HETATM   12  S   UNL     1     -10.411  13.924  65.599  1.00  0.00    -0.337 S  
HETATM   13  O   UNL     1     -10.536  13.955  64.104  1.00  0.00    -0.212 OA 
BRANCH  12  14
HETATM   14  C   UNL     1      -9.975  15.533  66.067  1.00  0.00    -0.330 A  
HETATM   15  N   UNL     1     -10.431  16.643  65.526  1.00  0.00    -0.568 NA 
HETATM   16  C   UNL     1      -9.911  17.655  66.305  1.00  0.00    -0.318 A  
HETATM   17  H   UNL     1     -11.036  16.735  64.711  1.00  0.00     0.000 HD 
HETATM   18  C   UNL     1      -9.101  17.146  67.313  1.00  0.00    -0.222 A  
HETATM   19  N   UNL     1      -9.144  15.790  67.125  1.00  0.00    -0.205 NA 
HETATM   20  C   UNL     1      -8.456  17.948  68.258  1.00  0.00    -0.280 A  
HETATM   21  C   UNL     1      -8.643  19.336  68.159  1.00  0.00    -0.327 A  
HETATM   22  C   UNL     1      -9.473  19.873  67.170  1.00  0.00    -0.497 A  
HETATM   23  C   UNL     1     -10.105  19.043  66.229  1.00  0.00    -0.479 A  
BRANCH  21  24
HETATM   24  O   UNL     1      -7.978  20.063  69.111  1.00  0.00    -0.074 OA 
HETATM   25  C   UNL     1      -6.563  19.960  69.086  1.00  0.00    -0.333 C  
HETATM   26  F   UNL     1      -6.075  20.836  68.174  1.00  0.00    -0.273 F  
HETATM   27  F   UNL     1      -6.109  20.365  70.299  1.00  0.00    -0.361 F  
ENDBRANCH  21  24
ENDBRANCH  12  14
ENDBRANCH  11  12
ENDBRANCH   6  11
ENDBRANCH   2   3
TORSDOF 6
ENDMDL
MODEL        9
REMARK 921   NORMALIZED FREE ENERGY PREDICTED BY IDOCK:   -6.57 KCAL/MOL
REMARK 922        TOTAL FREE ENERGY PREDICTED BY IDOCK:   -9.62 KCAL/MOL
REMARK 923 INTER-LIGAND FREE ENERGY PREDICTED BY IDOCK:   -8.58 KCAL/MOL
REMARK 924 INTRA-LIGAND FREE ENERGY PREDICTED BY IDOCK:   -1.04 KCAL/MOL
REMARK 927      BINDING AFFINITY PREDICTED BY RF-SCORE:    0.00 PKD
ROOT
HETATM    1  C   UNL     1     -10.821  16.450  69.892  1.00  0.00    -0.333 C  
HETATM    2  O   UNL     1      -9.732  16.783  69.032  1.00  0.00    -0.259 OA 
ENDROOT
BRANCH   2   3
HETATM    3  C   UNL     1     -10.004  16.693  67.689  1.00  0.00    -0.264 A  
HETATM    4  C   UNL     1      -9.970  15.517  66.911  1.00  0.00    -0.247 A  
HETATM    5  C   UNL     1     -10.597  17.914  65.739  1.00  0.00    -0.174 A  
HETATM    6  C   UNL     1     -10.393  15.600  65.580  1.00  0.00    -0.396 A  
HETATM    7  C   UNL     1     -10.295  17.908  67.084  1.00  0.00    -0.371 A  
HETATM    8  N   UNL     1     -10.659  16.797  64.984  1.00  0.00    -0.705 NA 
BRANCH   4   9
HETATM    9  O   UNL     1      -9.613  14.349  67.537  1.00  0.00    -0.209 OA 
HETATM   10  C   UNL     1      -8.241  13.966  67.414  1.00  0.00    -0.187 C  
ENDBRANCH   4   9
BRANCH   6  11
HETATM   11  C   UNL     1     -10.666  14.394  64.716  1.00  0.00    -0.403 C  
BRANCH  11  12
HETATM   12  S   UNL     1     -12.266  13.638  65.118  1.00  0.00    -0.459 S  
HETATM   13  O   UNL     1     -12.865  12.977  63.911  1.00  0.00    -0.664 OA 
BRANCH  12  14
HETATM   14  C   UNL     1     -11.703  12.348  66.127  1.00  0.00    -0.400 A  
HETATM   15  N   UNL     1     -10.810  11.440  65.792  1.00  0.00    -0.260 NA 
HETATM   16  C   UNL     1     -10.590  10.718  66.945  1.00  0.00    -0.258 A  
HETATM   17  H   UNL     1     -10.377  11.301  64.880  1.00  0.00     0.000 HD 
HETATM   18  C   UNL     1     -11.389  11.180  67.986  1.00  0.00    -0.312 A  
HETATM   19  N   UNL     1     -12.103  12.207  67.429  1.00  0.00    -0.515 NA 
HETATM   20  C   UNL     1     -11.360  10.638  69.274  1.00  0.00    -0.346 A  
HETATM   21  C   UNL     1     -10.479   9.570  69.503  1.00  0.00    -0.220 A  
HETATM   22  C   UNL     1      -9.647   9.102  68.481  1.00  0.00    -0.156 A  
HETATM   23  C   UNL     1      -9.700   9.662  67.194  1.00  0.00    -0.222 A  
BRANCH  21  24
HETATM   24  O   UNL     1     -10.506   9.083  70.783  1.00  0.00    -0.209 OA 
HETATM   25  C   UNL     1     -11.795   8.918  71.351  1.00  0.00    -0.317 C  
HETATM   26  F   UNL     1     -12.299   7.722  70.959  1.00  0.00    -0.317 F  
HETATM   27  F   UNL     1     -11.637   8.852  72.698  1.00  0.00    -0.377 F  
ENDBRANCH  21  24
ENDBRANCH  12  14
ENDBRANCH  11  12
ENDBRANCH   6  11
ENDBRANCH   2   3
TORSDOF 6
ENDMDL
MODEL       10
REMARK 921   NORMALIZED FREE ENERGY PREDICTED BY IDOCK:   -6.56 KCAL/MOL
REMARK 922        TOTAL FREE ENERGY PREDICTED BY IDOCK:   -9.61 KCAL/MOL
REMARK 923 INTER-LIGAND FREE ENERGY PREDICTED BY IDOCK:   -8.68 KCAL/MOL
REMARK 924 INTRA-LIGAND FREE ENERGY PREDICTED BY IDOCK:   -0.94 KCAL/MOL
REMARK 927      BINDING AFFINITY PREDICTED BY RF-SCORE:    0.00 PKD
ROOT
HETATM    1  C   UNL     1     -10.504  19.645  65.905  1.00  0.00    -0.493 C  
HETATM    2  O   UNL     1      -9.722  18.453  65.945  1.00  0.00    -0.509 OA 
ENDROOT
BRANCH   2   3
HETATM    3  C   UNL     1     -10.258  17.432  66.690  1.00  0.00    -0.324 A  
HETATM    4  C   UNL     1     -10.632  16.159  66.210  1.00  0.00    -0.274 A  
HETATM    5  C   UNL     1     -10.989  16.780  68.856  1.00  0.00    -0.259 A  
HETATM    6  C   UNL     1     -11.053  15.204  67.142  1.00  0.00    -0.335 A  
HETATM    7  C   UNL     1     -10.467  17.749  68.026  1.00  0.00    -0.399 A  
HETATM    8  N   UNL     1     -11.276  15.526  68.448  1.00  0.00    -0.323 NA 
BRANCH   4   9
HETATM    9  O   UNL     1     -10.470  15.911  64.869  1.00  0.00    -0.542 OA 
HETATM   10  C   UNL     1     -11.670  15.821  64.099  1.00  0.00    -0.067 C  
ENDBRANCH   4   9
BRANCH   6  11
HETATM   11  C   UNL     1     -11.222  13.742  66.817  1.00  0.00    -0.316 C  
BRANCH  11  12
HETATM   12  S   UNL     1      -9.805  12.765  67.391  1.00  0.00    -0.213 S  
HETATM   13  O   UNL     1      -8.739  13.652  67.966  1.00  0.00    -0.159 OA 
BRANCH  12  14
HETATM   14  C   UNL     1     -10.551  11.989  68.748  1.00  0.00    -0.209 A  
HETATM   15  N   UNL     1     -11.508  12.496  69.496  1.00  0.00    -0.418 NA 
HETATM   16  C   UNL     1     -11.865  11.476  70.352  1.00  0.00    -0.320 A  
HETATM   17  H   UNL     1     -11.900  13.436  69.451  1.00  0.00     0.000 HD 
HETATM   18  C   UNL     1     -11.085  10.346  70.137  1.00  0.00    -0.314 A  
HETATM   19  N   UNL     1     -10.242  10.708  69.122  1.00  0.00    -0.213 NA 
HETATM   20  C   UNL     1     -11.242   9.158  70.857  1.00  0.00    -0.359 A  
HETATM   21  C   UNL     1     -12.236   9.131  71.847  1.00  0.00    -0.379 A  
HETATM   22  C   UNL     1     -13.051  10.246  72.067  1.00  0.00    -0.529 A  
HETATM   23  C   UNL     1     -12.868  11.430  71.332  1.00  0.00    -0.502 A  
BRANCH  21  24
HETATM   24  O   UNL     1     -12.331   7.941  72.518  1.00  0.00    -0.253 OA 
HETATM   25  C   UNL     1     -11.135   7.183  72.597  1.00  0.00    -0.292 C  
HETATM   26  F   UNL     1     -10.397   7.633  73.642  1.00  0.00    -0.378 F  
HETATM   27  F   UNL     1     -11.487   5.905  72.891  1.00  0.00    -0.297 F  
ENDBRANCH  21  24
ENDBRANCH  12  14
ENDBRANCH  11  12
ENDBRANCH   6  11
ENDBRANCH   2   3
TORSDOF 6
ENDMDL
MODEL       11
REMARK 921   NORMALIZED FREE ENERGY PREDICTED BY IDOCK:   -6.53 KCAL/MOL
REMARK 922        TOTAL FREE ENERGY PREDICTED BY IDOCK:   -9.57 KCAL/MOL
REMARK 923 INTER-LIGAND FREE ENERGY PREDICTED BY IDOCK:   -8.92 KCAL/MOL
REMARK 924 INTRA-LIGAND FREE ENERGY PREDICTED BY IDOCK:   -0.65 KCAL/MOL
REMARK 927      BINDING AFFINITY PREDICTED BY RF-SCORE:    0.00 PKD
ROOT
HETATM    1  C   UNL     1      -7.127  17.725  68.683  1.00  0.00    -0.257 C  
HETATM    2  O   UNL     1      -7.282  17.376  67.308  1.00  0.00    -0.158 OA 
ENDROOT
BRANCH   2   3
HETATM    3  C   UNL     1      -7.899  16.171  67.081  1.00  0.00    -0.200 A  
HETATM    4  C   UNL     1      -9.002  15.949  66.230  1.00  0.00    -0.346 A  
HETATM    5  C   UNL     1      -7.920  13.860  67.636  1.00  0.00    -0.175 A  
HETATM    6  C   UNL     1      -9.423  14.629  66.033  1.00  0.00    -0.238 A  
HETATM    7  C   UNL     1      -7.373  15.114  67.811  1.00  0.00    -0.182 A  
HETATM    8  N   UNL     1      -8.917  13.597  66.767  1.00  0.00    -0.218 NA 
BRANCH   4   9
HETATM    9  O   UNL     1      -9.532  17.035  65.578  1.00  0.00    -0.496 OA 
HETATM   10  C   UNL     1     -10.332  17.913  66.372  1.00  0.00    -0.365 C  
ENDBRANCH   4   9
BRANCH   6  11
HETATM   11  C   UNL     1     -10.398  14.218  64.959  1.00  0.00    -0.421 C  
BRANCH  11  12
HETATM   12  S   UNL     1     -12.111  14.552  65.453  1.00  0.00    -0.275 S  
HETATM   13  O   UNL     1     -13.072  13.703  64.671  1.00  0.00    -0.561 OA 
BRANCH  12  14
HETATM   14  C   UNL     1     -12.067  13.865  67.042  1.00  0.00    -0.415 A  
HETATM   15  N   UNL     1     -12.275  14.515  68.169  1.00  0.00    -0.593 NA 
HETATM   16  C   UNL     1     -12.267  13.541  69.144  1.00  0.00    -0.194 A  
HETATM   17  H   UNL     1     -12.411  15.517  68.293  1.00  0.00     0.000 HD 
HETATM   18  C   UNL     1     -12.018  12.287  68.599  1.00  0.00    -0.227 A  
HETATM   19  N   UNL     1     -11.874  12.527  67.258  1.00  0.00    -0.475 NA 
HETATM   20  C   UNL     1     -11.970  11.115  69.359  1.00  0.00    -0.420 A  
HETATM   21  C   UNL     1     -12.177  11.236  70.742  1.00  0.00    -0.380 A  
HETATM   22  C   UNL     1     -12.454  12.482  71.314  1.00  0.00    -0.273 A  
HETATM   23  C   UNL     1     -12.492  13.645  70.525  1.00  0.00    -0.394 A  
BRANCH  21  24
HETATM   24  O   UNL     1     -12.109  10.052  71.427  1.00  0.00    -0.367 OA 
HETATM   25  C   UNL     1     -13.285   9.678  72.127  1.00  0.00    -0.444 C  
HETATM   26  F   UNL     1     -14.128   9.054  71.268  1.00  0.00    -0.432 F  
HETATM   27  F   UNL     1     -12.924   8.758  73.058  1.00  0.00    -0.413 F  
ENDBRANCH  21  24
ENDBRANCH  12  14
ENDBRANCH  11  12
ENDBRANCH   6  11
ENDBRANCH   2   3
TORSDOF 6
ENDMDL
MODEL       12
REMARK 921   NORMALIZED FREE ENERGY PREDICTED BY IDOCK:   -6.48 KCAL/MOL
REMARK 922        TOTAL FREE ENERGY PREDICTED BY IDOCK:   -9.50 KCAL/MOL
REMARK 923 INTER-LIGAND FREE ENERGY PREDICTED BY IDOCK:   -8.76 KCAL/MOL
REMARK 924 INTRA-LIGAND FREE ENERGY PREDICTED BY IDOCK:   -0.74 KCAL/MOL
REMARK 927      BINDING AFFINITY PREDICTED BY RF-SCORE:    0.00 PKD
ROOT
HETATM    1  C   UNL     1     -10.638   6.473  73.269  1.00  0.00    -0.276 C  
HETATM    2  O   UNL     1     -11.113   7.818  73.265  1.00  0.00    -0.373 OA 
ENDROOT
BRANCH   2   3
HETATM    3  C   UNL     1     -10.771   8.551  72.155  1.00  0.00    -0.356 A  
HETATM    4  C   UNL     1     -11.599   9.473  71.481  1.00  0.00    -0.395 A  
HETATM    5  C   UNL     1      -9.060   8.994  70.568  1.00  0.00    -0.221 A  
HETATM    6  C   UNL     1     -11.037  10.216  70.437  1.00  0.00    -0.324 A  
HETATM    7  C   UNL     1      -9.496   8.293  71.671  1.00  0.00    -0.258 A  
HETATM    8  N   UNL     1      -9.792   9.945  69.952  1.00  0.00    -0.241 NA 
BRANCH   4   9
HETATM    9  O   UNL     1     -12.876   9.649  71.955  1.00  0.00    -0.390 OA 
HETATM   10  C   UNL     1     -13.848   8.707  71.499  1.00  0.00    -0.335 C  
ENDBRANCH   4   9
BRANCH   6  11
HETATM   11  C   UNL     1     -11.708  11.413  69.812  1.00  0.00    -0.344 C  
BRANCH  11  12
HETATM   12  S   UNL     1     -11.039  11.764  68.161  1.00  0.00    -0.267 S  
HETATM   13  O   UNL     1     -12.135  11.808  67.136  1.00  0.00    -0.592 OA 
BRANCH  12  14
HETATM   14  C   UNL     1     -10.566  13.411  68.413  1.00  0.00    -0.248 A  
HETATM   15  N   UNL     1      -9.383  13.819  68.824  1.00  0.00    -0.395 NA 
HETATM   16  C   UNL     1      -9.437  15.194  68.745  1.00  0.00    -0.209 A  
HETATM   17  H   UNL     1      -8.600  13.244  69.132  1.00  0.00     0.000 HD 
HETATM   18  C   UNL     1     -10.686  15.622  68.310  1.00  0.00    -0.283 A  
HETATM   19  N   UNL     1     -11.392  14.464  68.125  1.00  0.00    -0.280 NA 
HETATM   20  C   UNL     1     -11.015  16.969  68.126  1.00  0.00    -0.263 A  
HETATM   21  C   UNL     1     -10.020  17.918  68.410  1.00  0.00    -0.367 A  
HETATM   22  C   UNL     1      -8.748  17.513  68.825  1.00  0.00    -0.214 A  
HETATM   23  C   UNL     1      -8.447  16.152  69.007  1.00  0.00    -0.251 A  
BRANCH  21  24
HETATM   24  O   UNL     1     -10.410  19.217  68.215  1.00  0.00    -0.390 OA 
HETATM   25  C   UNL     1      -9.910  19.839  67.043  1.00  0.00    -0.392 C  
HETATM   26  F   UNL     1     -10.711  19.515  65.998  1.00  0.00    -0.506 F  
HETATM   27  F   UNL     1     -10.024  21.180  67.219  1.00  0.00    -0.594 F  
ENDBRANCH  21  24
ENDBRANCH  12  14
ENDBRANCH  11  12
ENDBRANCH   6  11
ENDBRANCH   2   3
TORSDOF 6
ENDMDL
MODEL       13
REMARK 921   NORMALIZED FREE ENERGY PREDICTED BY IDOCK:   -6.44 KCAL/MOL
REMARK 922        TOTAL FREE ENERGY PREDICTED BY IDOCK:   -9.45 KCAL/MOL
REMARK 923 INTER-LIGAND FREE ENERGY PREDICTED BY IDOCK:   -8.62 KCAL/MOL
REMARK 924 INTRA-LIGAND FREE ENERGY PREDICTED BY IDOCK:   -0.83 KCAL/MOL
REMARK 927      BINDING AFFINITY PREDICTED BY RF-SCORE:    0.00 PKD
ROOT
HETATM    1  C   UNL     1      -7.232  19.577  68.929  1.00  0.00    -0.362 C  
HETATM    2  O   UNL     1      -7.713  18.657  67.950  1.00  0.00    -0.247 OA 
ENDROOT
BRANCH   2   3
HETATM    3  C   UNL     1      -8.341  17.546  68.457  1.00  0.00    -0.274 A  
HETATM    4  C   UNL     1      -9.731  17.389  68.640  1.00  0.00    -0.308 A  
HETATM    5  C   UNL     1      -8.021  15.368  69.351  1.00  0.00    -0.234 A  
HETATM    6  C   UNL     1     -10.199  16.139  69.061  1.00  0.00    -0.250 A  
HETATM    7  C   UNL     1      -7.479  16.530  68.844  1.00  0.00    -0.225 A  
HETATM    8  N   UNL     1      -9.349  15.151  69.459  1.00  0.00    -0.180 NA 
BRANCH   4   9
HETATM    9  O   UNL     1     -10.542  18.445  68.305  1.00  0.00    -0.331 OA 
HETATM   10  C   UNL     1     -10.681  18.709  66.907  1.00  0.00    -0.309 C  
ENDBRANCH   4   9
BRANCH   6  11
HETATM   11  C   UNL     1     -11.654  15.745  69.039  1.00  0.00    -0.400 C  
BRANCH  11  12
HETATM   12  S   UNL     1     -12.272  15.391  70.709  1.00  0.00    -0.417 S  
HETATM   13  O   UNL     1     -13.723  15.754  70.833  1.00  0.00    -0.496 OA 
BRANCH  12  14
HETATM   14  C   UNL     1     -12.224  13.661  70.647  1.00  0.00    -0.360 A  
HETATM   15  N   UNL     1     -11.457  12.939  69.858  1.00  0.00    -0.515 NA 
HETATM   16  C   UNL     1     -11.668  11.636  70.256  1.00  0.00    -0.266 A  
HETATM   17  H   UNL     1     -10.842  13.270  69.115  1.00  0.00     0.000 HD 
HETATM   18  C   UNL     1     -12.603  11.571  71.282  1.00  0.00    -0.347 A  
HETATM   19  N   UNL     1     -12.956  12.876  71.498  1.00  0.00    -0.347 NA 
HETATM   20  C   UNL     1     -12.997  10.374  71.887  1.00  0.00    -0.555 A  
HETATM   21  C   UNL     1     -12.411   9.190  71.411  1.00  0.00    -0.328 A  
HETATM   22  C   UNL     1     -11.449   9.229  70.397  1.00  0.00    -0.255 A  
HETATM   23  C   UNL     1     -11.076  10.447  69.803  1.00  0.00    -0.352 A  
BRANCH  21  24
HETATM   24  O   UNL     1     -12.846   8.054  72.042  1.00  0.00    -0.314 OA 
HETATM   25  C   UNL     1     -11.893   7.009  72.153  1.00  0.00    -0.275 C  
HETATM   26  F   UNL     1     -11.118   7.235  73.242  1.00  0.00    -0.340 F  
HETATM   27  F   UNL     1     -12.579   5.862  72.393  1.00  0.00    -0.332 F  
ENDBRANCH  21  24
ENDBRANCH  12  14
ENDBRANCH  11  12
ENDBRANCH   6  11
ENDBRANCH   2   3
TORSDOF 6
ENDMDL
MODEL       14
REMARK 921   NORMALIZED FREE ENERGY PREDICTED BY IDOCK:   -6.40 KCAL/MOL
REMARK 922        TOTAL FREE ENERGY PREDICTED BY IDOCK:   -9.39 KCAL/MOL
REMARK 923 INTER-LIGAND FREE ENERGY PREDICTED BY IDOCK:   -8.63 KCAL/MOL
REMARK 924 INTRA-LIGAND FREE ENERGY PREDICTED BY IDOCK:   -0.76 KCAL/MOL
REMARK 927      BINDING AFFINITY PREDICTED BY RF-SCORE:    0.00 PKD
ROOT
HETATM    1  C   UNL     1     -10.514  18.536  66.014  1.00  0.00    -0.400 C  
HETATM    2  O   UNL     1      -9.781  17.343  65.743  1.00  0.00    -0.533 OA 
ENDROOT
BRANCH   2   3
HETATM    3  C   UNL     1     -10.535  16.196  65.693  1.00  0.00    -0.383 A  
HETATM    4  C   UNL     1     -10.567  15.180  66.670  1.00  0.00    -0.304 A  
HETATM    5  C   UNL     1     -12.087  14.943  64.401  1.00  0.00    -0.401 A  
HETATM    6  C   UNL     1     -11.488  14.139  66.503  1.00  0.00    -0.358 A  
HETATM    7  C   UNL     1     -11.286  16.057  64.533  1.00  0.00    -0.309 A  
HETATM    8  N   UNL     1     -12.208  13.996  65.354  1.00  0.00    -0.415 NA 
BRANCH   4   9
HETATM    9  O   UNL     1      -9.758  15.327  67.770  1.00  0.00    -0.213 OA 
HETATM   10  C   UNL     1      -8.431  14.813  67.645  1.00  0.00    -0.177 C  
ENDBRANCH   4   9
BRANCH   6  11
HETATM   11  C   UNL     1     -11.822  13.142  67.583  1.00  0.00    -0.359 C  
BRANCH  11  12
HETATM   12  S   UNL     1     -11.103  11.514  67.231  1.00  0.00    -0.305 S  
HETATM   13  O   UNL     1      -9.613  11.607  67.073  1.00  0.00    -0.181 OA 
BRANCH  12  14
HETATM   14  C   UNL     1     -11.364  10.770  68.773  1.00  0.00    -0.288 A  
HETATM   15  N   UNL     1     -12.511  10.714  69.417  1.00  0.00    -0.690 NA 
HETATM   16  C   UNL     1     -12.261   9.921  70.517  1.00  0.00    -0.179 A  
HETATM   17  H   UNL     1     -13.391  11.159  69.159  1.00  0.00     0.000 HD 
HETATM   18  C   UNL     1     -10.930   9.519  70.552  1.00  0.00    -0.288 A  
HETATM   19  N   UNL     1     -10.378  10.092  69.437  1.00  0.00    -0.216 NA 
HETATM   20  C   UNL     1     -10.403   8.696  71.551  1.00  0.00    -0.341 A  
HETATM   21  C   UNL     1     -11.278   8.273  72.564  1.00  0.00    -0.376 A  
HETATM   22  C   UNL     1     -12.627   8.642  72.539  1.00  0.00    -0.367 A  
HETATM   23  C   UNL     1     -13.129   9.476  71.525  1.00  0.00    -0.470 A  
BRANCH  21  24
HETATM   24  O   UNL     1     -10.697   7.475  73.514  1.00  0.00    -0.378 OA 
HETATM   25  C   UNL     1     -10.833   6.078  73.310  1.00  0.00    -0.252 C  
HETATM   26  F   UNL     1      -9.861   5.660  72.463  1.00  0.00    -0.168 F  
HETATM   27  F   UNL     1     -10.598   5.473  74.503  1.00  0.00    -0.282 F  
ENDBRANCH  21  24
ENDBRANCH  12  14
ENDBRANCH  11  12
ENDBRANCH   6  11
ENDBRANCH   2   3
TORSDOF 6
ENDMDL
MODEL       15
REMARK 921   NORMALIZED FREE ENERGY PREDICTED BY IDOCK:   -6.37 KCAL/MOL
REMARK 922        TOTAL FREE ENERGY PREDICTED BY IDOCK:   -9.36 KCAL/MOL
REMARK 923 INTER-LIGAND FREE ENERGY PREDICTED BY IDOCK:   -8.19 KCAL/MOL
REMARK 924 INTRA-LIGAND FREE ENERGY PREDICTED BY IDOCK:   -1.17 KCAL/MOL
REMARK 927      BINDING AFFINITY PREDICTED BY RF-SCORE:    0.00 PKD
ROOT
HETATM    1  C   UNL     1     -10.252   5.175  66.614  1.00  0.00    -0.261 C  
HETATM    2  O   UNL     1     -10.555   6.565  66.720  1.00  0.00    -0.260 OA 
ENDROOT
BRANCH   2   3
HETATM    3  C   UNL     1     -10.662   7.040  68.004  1.00  0.00    -0.194 A  
HETATM    4  C   UNL     1     -10.395   8.359  68.427  1.00  0.00    -0.200 A  
HETATM    5  C   UNL     1     -11.178   6.471  70.253  1.00  0.00    -0.374 A  
HETATM    6  C   UNL     1     -10.673   8.689  69.758  1.00  0.00    -0.215 A  
HETATM    7  C   UNL     1     -11.031   6.082  68.938  1.00  0.00    -0.395 A  
HETATM    8  N   UNL     1     -11.016   7.742  70.676  1.00  0.00    -0.246 NA 
BRANCH   4   9
HETATM    9  O   UNL     1      -9.968   9.258  67.480  1.00  0.00    -0.178 OA 
HETATM   10  C   UNL     1      -8.575   9.575  67.501  1.00  0.00    -0.126 C  
ENDBRANCH   4   9
BRANCH   6  11
HETATM   11  C   UNL     1     -10.695  10.105  70.277  1.00  0.00    -0.293 C  
BRANCH  11  12
HETATM   12  S   UNL     1     -12.306  10.892  69.993  1.00  0.00    -0.266 S  
HETATM   13  O   UNL     1     -12.622  11.875  71.082  1.00  0.00    -0.372 OA 
BRANCH  12  14
HETATM   14  C   UNL     1     -11.894  11.844  68.606  1.00  0.00    -0.308 A  
HETATM   15  N   UNL     1     -11.889  11.425  67.358  1.00  0.00    -0.601 NA 
HETATM   16  C   UNL     1     -11.630  12.553  66.609  1.00  0.00    -0.380 A  
HETATM   17  H   UNL     1     -12.043  10.476  67.020  1.00  0.00     0.000 HD 
HETATM   18  C   UNL     1     -11.444  13.664  67.423  1.00  0.00    -0.336 A  
HETATM   19  N   UNL     1     -11.598  13.177  68.694  1.00  0.00    -0.298 NA 
HETATM   20  C   UNL     1     -11.181  14.944  66.927  1.00  0.00    -0.343 A  
HETATM   21  C   UNL     1     -11.096  15.089  65.533  1.00  0.00    -0.357 A  
HETATM   22  C   UNL     1     -11.304  13.993  64.690  1.00  0.00    -0.378 A  
HETATM   23  C   UNL     1     -11.562  12.716  65.217  1.00  0.00    -0.389 A  
BRANCH  21  24
HETATM   24  O   UNL     1     -10.830  16.366  65.115  1.00  0.00    -0.512 OA 
HETATM   25  C   UNL     1     -10.077  17.163  66.016  1.00  0.00    -0.288 C  
HETATM   26  F   UNL     1      -8.758  16.902  65.836  1.00  0.00    -0.305 F  
HETATM   27  F   UNL     1     -10.269  18.460  65.664  1.00  0.00    -0.312 F  
ENDBRANCH  21  24
ENDBRANCH  12  14
ENDBRANCH  11  12
ENDBRANCH   6  11
ENDBRANCH   2   3
TORSDOF 6
ENDMDL
MODEL       16
REMARK 921   NORMALIZED FREE ENERGY PREDICTED BY IDOCK:   -6.34 KCAL/MOL
REMARK 922        TOTAL FREE ENERGY PREDICTED BY IDOCK:   -9.32 KCAL/MOL
REMARK 923 INTER-LIGAND FREE ENERGY PREDICTED BY IDOCK:   -8.38 KCAL/MOL
REMARK 924 INTRA-LIGAND FREE ENERGY PREDICTED BY IDOCK:   -0.94 KCAL/MOL
REMARK 927      BINDING AFFINITY PREDICTED BY RF-SCORE:    0.00 PKD
ROOT
HETATM    1  C   UNL     1      -9.532  10.564  64.031  1.00  0.00    -0.289 C  
HETATM    2  O   UNL     1     -10.831  10.719  64.601  1.00  0.00    -0.216 OA 
ENDROOT
BRANCH   2   3
HETATM    3  C   UNL     1     -11.098  11.969  65.105  1.00  0.00    -0.318 A  
HETATM    4  C   UNL     1     -11.586  12.257  66.397  1.00  0.00    -0.383 A  
HETATM    5  C   UNL     1     -11.116  14.296  64.627  1.00  0.00    -0.363 A  
HETATM    6  C   UNL     1     -11.686  13.601  66.774  1.00  0.00    -0.392 A  
HETATM    7  C   UNL     1     -10.888  13.004  64.204  1.00  0.00    -0.433 A  
HETATM    8  N   UNL     1     -11.499  14.613  65.881  1.00  0.00    -0.346 NA 
BRANCH   4   9
HETATM    9  O   UNL     1     -11.842  11.197  67.232  1.00  0.00    -0.525 OA 
HETATM   10  C   UNL     1     -10.700  10.583  67.833  1.00  0.00    -0.260 C  
ENDBRANCH   4   9
BRANCH   6  11
HETATM   11  C   UNL     1     -11.929  14.050  68.193  1.00  0.00    -0.347 C  
BRANCH  11  12
HETATM   12  S   UNL     1     -10.371  14.417  69.050  1.00  0.00    -0.154 S  
HETATM   13  O   UNL     1      -9.253  13.568  68.518  1.00  0.00    -0.180 OA 
BRANCH  12  14
HETATM   14  C   UNL     1     -10.092  16.006  68.423  1.00  0.00    -0.229 A  
HETATM   15  N   UNL     1     -11.013  16.923  68.207  1.00  0.00    -0.349 NA 
HETATM   16  C   UNL     1     -10.310  18.050  67.838  1.00  0.00    -0.392 A  
HETATM   17  H   UNL     1     -12.023  16.821  68.293  1.00  0.00     0.000 HD 
HETATM   18  C   UNL     1      -8.943  17.798  67.800  1.00  0.00    -0.249 A  
HETATM   19  N   UNL     1      -8.835  16.480  68.158  1.00  0.00    -0.198 NA 
HETATM   20  C   UNL     1      -7.993  18.768  67.471  1.00  0.00    -0.260 A  
HETATM   21  C   UNL     1      -8.466  20.052  67.158  1.00  0.00    -0.334 A  
HETATM   22  C   UNL     1      -9.833  20.339  67.212  1.00  0.00    -0.593 A  
HETATM   23  C   UNL     1     -10.768  19.342  67.542  1.00  0.00    -0.570 A  
BRANCH  21  24
HETATM   24  O   UNL     1      -7.483  20.952  66.838  1.00  0.00    -0.266 OA 
HETATM   25  C   UNL     1      -6.567  20.532  65.840  1.00  0.00    -0.221 C  
HETATM   26  F   UNL     1      -7.100  20.784  64.619  1.00  0.00    -0.277 F  
HETATM   27  F   UNL     1      -5.463  21.314  65.953  1.00  0.00    -0.235 F  
ENDBRANCH  21  24
ENDBRANCH  12  14
ENDBRANCH  11  12
ENDBRANCH   6  11
ENDBRANCH   2   3
TORSDOF 6
ENDMDL
MODEL       17
REMARK 921   NORMALIZED FREE ENERGY PREDICTED BY IDOCK:   -6.34 KCAL/MOL
REMARK 922        TOTAL FREE ENERGY PREDICTED BY IDOCK:   -9.32 KCAL/MOL
REMARK 923 INTER-LIGAND FREE ENERGY PREDICTED BY IDOCK:   -8.43 KCAL/MOL
REMARK 924 INTRA-LIGAND FREE ENERGY PREDICTED BY IDOCK:   -0.89 KCAL/MOL
REMARK 927      BINDING AFFINITY PREDICTED BY RF-SCORE:    0.00 PKD
ROOT
HETATM    1  C   UNL     1     -14.319   8.549  72.274  1.00  0.00    -0.390 C  
HETATM    2  O   UNL     1     -12.978   8.997  72.464  1.00  0.00    -0.418 OA 
ENDROOT
BRANCH   2   3
HETATM    3  C   UNL     1     -12.557   9.960  71.580  1.00  0.00    -0.416 A  
HETATM    4  C   UNL     1     -11.661   9.769  70.507  1.00  0.00    -0.268 A  
HETATM    5  C   UNL     1     -12.703  12.257  70.990  1.00  0.00    -0.225 A  
HETATM    6  C   UNL     1     -11.440  10.844  69.638  1.00  0.00    -0.305 A  
HETATM    7  C   UNL     1     -13.059  11.228  71.836  1.00  0.00    -0.510 A  
HETATM    8  N   UNL     1     -11.919  12.092  69.905  1.00  0.00    -0.328 NA 
BRANCH   4   9
HETATM    9  O   UNL     1     -11.137   8.512  70.330  1.00  0.00    -0.244 OA 
HETATM   10  C   UNL     1      -9.881   8.262  70.964  1.00  0.00    -0.187 C  
ENDBRANCH   4   9
BRANCH   6  11
HETATM   11  C   UNL     1     -10.732  10.711  68.314  1.00  0.00    -0.219 C  
BRANCH  11  12
HETATM   12  S   UNL     1      -9.082  11.465  68.363  1.00  0.00    -0.172 S  
HETATM   13  O   UNL     1      -8.270  11.058  67.168  1.00  0.00    -0.126 OA 
BRANCH  12  14
HETATM   14  C   UNL     1      -9.535  13.112  68.083  1.00  0.00    -0.222 A  
HETATM   15  N   UNL     1      -9.692  14.037  69.008  1.00  0.00    -0.416 NA 
HETATM   16  C   UNL     1      -9.919  15.202  68.308  1.00  0.00    -0.223 A  
HETATM   17  H   UNL     1      -9.655  13.916  70.020  1.00  0.00     0.000 HD 
HETATM   18  C   UNL     1      -9.930  14.969  66.937  1.00  0.00    -0.244 A  
HETATM   19  N   UNL     1      -9.703  13.623  66.824  1.00  0.00    -0.267 NA 
HETATM   20  C   UNL     1     -10.124  15.977  65.989  1.00  0.00    -0.362 A  
HETATM   21  C   UNL     1     -10.324  17.281  66.468  1.00  0.00    -0.308 A  
HETATM   22  C   UNL     1     -10.293  17.548  67.841  1.00  0.00    -0.371 A  
HETATM   23  C   UNL     1     -10.101  16.513  68.772  1.00  0.00    -0.255 A  
BRANCH  21  24
HETATM   24  O   UNL     1     -10.515  18.218  65.487  1.00  0.00    -0.616 OA 
HETATM   25  C   UNL     1     -10.354  19.570  65.888  1.00  0.00    -0.470 C  
HETATM   26  F   UNL     1      -9.037  19.888  65.842  1.00  0.00    -0.392 F  
HETATM   27  F   UNL     1     -10.976  20.342  64.961  1.00  0.00    -0.472 F  
ENDBRANCH  21  24
ENDBRANCH  12  14
ENDBRANCH  11  12
ENDBRANCH   6  11
ENDBRANCH   2   3
TORSDOF 6
ENDMDL
MODEL       18
REMARK 921   NORMALIZED FREE ENERGY PREDICTED BY IDOCK:   -6.33 KCAL/MOL
REMARK 922        TOTAL FREE ENERGY PREDICTED BY IDOCK:   -9.30 KCAL/MOL
REMARK 923 INTER-LIGAND FREE ENERGY PREDICTED BY IDOCK:   -8.36 KCAL/MOL
REMARK 924 INTRA-LIGAND FREE ENERGY PREDICTED BY IDOCK:   -0.94 KCAL/MOL
REMARK 927      BINDING AFFINITY PREDICTED BY RF-SCORE:    0.00 PKD
ROOT
HETATM    1  C   UNL     1     -10.251  18.465  66.415  1.00  0.00    -0.410 C  
HETATM    2  O   UNL     1     -10.051  17.154  65.889  1.00  0.00    -0.472 OA 
ENDROOT
BRANCH   2   3
HETATM    3  C   UNL     1     -10.660  16.146  66.597  1.00  0.00    -0.274 A  
HETATM    4  C   UNL     1     -11.172  14.946  66.060  1.00  0.00    -0.327 A  
HETATM    5  C   UNL     1     -11.381  15.440  68.748  1.00  0.00    -0.320 A  
HETATM    6  C   UNL     1     -11.654  13.982  66.953  1.00  0.00    -0.386 A  
HETATM    7  C   UNL     1     -10.794  16.402  67.954  1.00  0.00    -0.328 A  
HETATM    8  N   UNL     1     -11.802  14.245  68.282  1.00  0.00    -0.337 NA 
BRANCH   4   9
HETATM    9  O   UNL     1     -11.078  14.764  64.702  1.00  0.00    -0.371 OA 
HETATM   10  C   UNL     1     -12.282  14.961  63.959  1.00  0.00    -0.123 C  
ENDBRANCH   4   9
BRANCH   6  11
HETATM   11  C   UNL     1     -11.975  12.564  66.553  1.00  0.00    -0.296 C  
BRANCH  11  12
HETATM   12  S   UNL     1     -10.585  11.447  66.890  1.00  0.00    -0.264 S  
HETATM   13  O   UNL     1      -9.330  12.221  67.173  1.00  0.00    -0.186 OA 
BRANCH  12  14
HETATM   14  C   UNL     1     -11.109  10.827  68.420  1.00  0.00    -0.266 A  
HETATM   15  N   UNL     1     -12.259  11.090  69.006  1.00  0.00    -0.669 NA 
HETATM   16  C   UNL     1     -12.281  10.279  70.120  1.00  0.00    -0.176 A  
HETATM   17  H   UNL     1     -12.975  11.749  68.702  1.00  0.00     0.000 HD 
HETATM   18  C   UNL     1     -11.109   9.538  70.223  1.00  0.00    -0.271 A  
HETATM   19  N   UNL     1     -10.372   9.923  69.136  1.00  0.00    -0.197 NA 
HETATM   20  C   UNL     1     -10.870   8.621  71.252  1.00  0.00    -0.327 A  
HETATM   21  C   UNL     1     -11.873   8.465  72.221  1.00  0.00    -0.389 A  
HETATM   22  C   UNL     1     -13.071   9.179  72.126  1.00  0.00    -0.516 A  
HETATM   23  C   UNL     1     -13.283  10.098  71.085  1.00  0.00    -0.438 A  
BRANCH  21  24
HETATM   24  O   UNL     1     -11.571   7.558  73.202  1.00  0.00    -0.217 OA 
HETATM   25  C   UNL     1     -10.214   7.146  73.262  1.00  0.00    -0.300 C  
HETATM   26  F   UNL     1      -9.511   8.055  73.982  1.00  0.00    -0.302 F  
HETATM   27  F   UNL     1     -10.177   5.983  73.961  1.00  0.00    -0.192 F  
ENDBRANCH  21  24
ENDBRANCH  12  14
ENDBRANCH  11  12
ENDBRANCH   6  11
ENDBRANCH   2   3
TORSDOF 6
ENDMDL
MODEL       19
REMARK 921   NORMALIZED FREE ENERGY PREDICTED BY IDOCK:   -6.29 KCAL/MOL
REMARK 922        TOTAL FREE ENERGY PREDICTED BY IDOCK:   -9.24 KCAL/MOL
REMARK 923 INTER-LIGAND FREE ENERGY PREDICTED BY IDOCK:   -8.33 KCAL/MOL
REMARK 924 INTRA-LIGAND FREE ENERGY PREDICTED BY IDOCK:   -0.92 KCAL/MOL
REMARK 927      BINDING AFFINITY PREDICTED BY RF-SCORE:    0.00 PKD
ROOT
HETATM    1  C   UNL     1      -9.670   4.587  69.921  1.00  0.00    -0.218 C  
HETATM    2  O   UNL     1     -10.919   5.272  69.856  1.00  0.00    -0.165 OA 
ENDROOT
BRANCH   2   3
HETATM    3  C   UNL     1     -10.852   6.558  69.377  1.00  0.00    -0.308 A  
HETATM    4  C   UNL     1     -11.036   7.736  70.130  1.00  0.00    -0.241 A  
HETATM    5  C   UNL     1     -10.521   7.898  67.443  1.00  0.00    -0.290 A  
HETATM    6  C   UNL     1     -10.813   8.962  69.493  1.00  0.00    -0.153 A  
HETATM    7  C   UNL     1     -10.620   6.646  68.011  1.00  0.00    -0.300 A  
HETATM    8  N   UNL     1     -10.605   9.045  68.149  1.00  0.00    -0.203 NA 
BRANCH   4   9
HETATM    9  O   UNL     1     -11.330   7.600  71.465  1.00  0.00    -0.247 OA 
HETATM   10  C   UNL     1     -12.717   7.499  71.794  1.00  0.00    -0.331 C  
ENDBRANCH   4   9
BRANCH   6  11
HETATM   11  C   UNL     1     -10.706  10.274  70.228  1.00  0.00    -0.250 C  
BRANCH  11  12
HETATM   12  S   UNL     1     -12.241  11.235  70.099  1.00  0.00    -0.319 S  
HETATM   13  O   UNL     1     -12.336  12.246  71.205  1.00  0.00    -0.305 OA 
BRANCH  12  14
HETATM   14  C   UNL     1     -11.869  12.137  68.669  1.00  0.00    -0.306 A  
HETATM   15  N   UNL     1     -11.901  11.676  67.436  1.00  0.00    -0.630 NA 
HETATM   16  C   UNL     1     -11.663  12.776  66.641  1.00  0.00    -0.393 A  
HETATM   17  H   UNL     1     -12.067  10.715  67.136  1.00  0.00     0.000 HD 
HETATM   18  C   UNL     1     -11.452  13.914  67.410  1.00  0.00    -0.348 A  
HETATM   19  N   UNL     1     -11.569  13.472  68.701  1.00  0.00    -0.305 NA 
HETATM   20  C   UNL     1     -11.202  15.175  66.862  1.00  0.00    -0.292 A  
HETATM   21  C   UNL     1     -11.158  15.272  65.462  1.00  0.00    -0.327 A  
HETATM   22  C   UNL     1     -11.392  14.147  64.664  1.00  0.00    -0.374 A  
HETATM   23  C   UNL     1     -11.637  12.890  65.243  1.00  0.00    -0.376 A  
BRANCH  21  24
HETATM   24  O   UNL     1     -10.902  16.533  64.993  1.00  0.00    -0.622 OA 
HETATM   25  C   UNL     1     -10.475  17.475  65.963  1.00  0.00    -0.274 C  
HETATM   26  F   UNL     1      -9.137  17.345  66.142  1.00  0.00    -0.275 F  
HETATM   27  F   UNL     1     -10.680  18.712  65.441  1.00  0.00    -0.473 F  
ENDBRANCH  21  24
ENDBRANCH  12  14
ENDBRANCH  11  12
ENDBRANCH   6  11
ENDBRANCH   2   3
TORSDOF 6
ENDMDL
MODEL       20
REMARK 921   NORMALIZED FREE ENERGY PREDICTED BY IDOCK:   -6.29 KCAL/MOL
REMARK 922        TOTAL FREE ENERGY PREDICTED BY IDOCK:   -9.24 KCAL/MOL
REMARK 923 INTER-LIGAND FREE ENERGY PREDICTED BY IDOCK:   -8.45 KCAL/MOL
REMARK 924 INTRA-LIGAND FREE ENERGY PREDICTED BY IDOCK:   -0.79 KCAL/MOL
REMARK 927      BINDING AFFINITY PREDICTED BY RF-SCORE:    0.00 PKD
ROOT
HETATM    1  C   UNL     1     -10.197  19.898  66.019  1.00  0.00    -0.487 C  
HETATM    2  O   UNL     1     -10.113  18.544  65.578  1.00  0.00    -0.435 OA 
ENDROOT
BRANCH   2   3
HETATM    3  C   UNL     1     -10.275  17.601  66.564  1.00  0.00    -0.355 A  
HETATM    4  C   UNL     1     -10.373  16.208  66.373  1.00  0.00    -0.315 A  
HETATM    5  C   UNL     1     -10.536  17.255  68.900  1.00  0.00    -0.327 A  
HETATM    6  C   UNL     1     -10.417  15.392  67.510  1.00  0.00    -0.275 A  
HETATM    7  C   UNL     1     -10.386  18.128  67.844  1.00  0.00    -0.410 A  
HETATM    8  N   UNL     1     -10.546  15.913  68.762  1.00  0.00    -0.233 NA 
BRANCH   4   9
HETATM    9  O   UNL     1     -10.325  15.736  65.084  1.00  0.00    -0.425 OA 
HETATM   10  C   UNL     1     -11.587  15.536  64.443  1.00  0.00    -0.258 C  
ENDBRANCH   4   9
BRANCH   6  11
HETATM   11  C   UNL     1     -10.252  13.894  67.466  1.00  0.00    -0.245 C  
BRANCH  11  12
HETATM   12  S   UNL     1     -11.856  13.050  67.376  1.00  0.00    -0.326 S  
HETATM   13  O   UNL     1     -11.999  12.305  66.080  1.00  0.00    -0.570 OA 
BRANCH  12  14
HETATM   14  C   UNL     1     -11.587  11.840  68.585  1.00  0.00    -0.309 A  
HETATM   15  N   UNL     1     -12.142  11.806  69.778  1.00  0.00    -0.290 NA 
HETATM   16  C   UNL     1     -11.734  10.607  70.323  1.00  0.00    -0.344 A  
HETATM   17  H   UNL     1     -12.742  12.511  70.205  1.00  0.00     0.000 HD 
HETATM   18  C   UNL     1     -10.892   9.922  69.454  1.00  0.00    -0.237 A  
HETATM   19  N   UNL     1     -10.799  10.742  68.362  1.00  0.00    -0.213 NA 
HETATM   20  C   UNL     1     -10.341   8.671  69.746  1.00  0.00    -0.212 A  
HETATM   21  C   UNL     1     -10.662   8.100  70.988  1.00  0.00    -0.217 A  
HETATM   22  C   UNL     1     -11.527   8.756  71.870  1.00  0.00    -0.428 A  
HETATM   23  C   UNL     1     -12.062  10.016  71.553  1.00  0.00    -0.475 A  
BRANCH  21  24
HETATM   24  O   UNL     1     -10.085   6.879  71.212  1.00  0.00    -0.191 OA 
HETATM   25  C   UNL     1     -10.937   5.757  71.047  1.00  0.00    -0.230 C  
HETATM   26  F   UNL     1     -10.973   5.422  69.734  1.00  0.00    -0.396 F  
HETATM   27  F   UNL     1     -10.361   4.714  71.699  1.00  0.00    -0.255 F  
ENDBRANCH  21  24
ENDBRANCH  12  14
ENDBRANCH  11  12
ENDBRANCH   6  11
ENDBRANCH   2   3
TORSDOF 6
ENDMDL
MODEL       21
REMARK 921   NORMALIZED FREE ENERGY PREDICTED BY IDOCK:   -6.28 KCAL/MOL
REMARK 922        TOTAL FREE ENERGY PREDICTED BY IDOCK:   -9.23 KCAL/MOL
REMARK 923 INTER-LIGAND FREE ENERGY PREDICTED BY IDOCK:   -8.28 KCAL/MOL
REMARK 924 INTRA-LIGAND FREE ENERGY PREDICTED BY IDOCK:   -0.95 KCAL/MOL
REMARK 927      BINDING AFFINITY PREDICTED BY RF-SCORE:    0.00 PKD
ROOT
HETATM    1  C   UNL     1      -7.292  18.317  68.076  1.00  0.00    -0.239 C  
HETATM    2  O   UNL     1      -7.378  17.729  66.779  1.00  0.00    -0.181 OA 
ENDROOT
BRANCH   2   3
HETATM    3  C   UNL     1      -7.968  16.490  66.741  1.00  0.00    -0.255 A  
HETATM    4  C   UNL     1      -9.190  16.171  66.113  1.00  0.00    -0.347 A  
HETATM    5  C   UNL     1      -7.785  14.225  67.438  1.00  0.00    -0.173 A  
HETATM    6  C   UNL     1      -9.577  14.826  66.078  1.00  0.00    -0.301 A  
HETATM    7  C   UNL     1      -7.275  15.506  67.434  1.00  0.00    -0.241 A  
HETATM    8  N   UNL     1      -8.905  13.867  66.776  1.00  0.00    -0.196 NA 
BRANCH   4   9
HETATM    9  O   UNL     1      -9.875  17.188  65.496  1.00  0.00    -0.549 OA 
HETATM   10  C   UNL     1     -10.649  18.032  66.353  1.00  0.00    -0.250 C  
ENDBRANCH   4   9
BRANCH   6  11
HETATM   11  C   UNL     1     -10.703  14.306  65.221  1.00  0.00    -0.366 C  
BRANCH  11  12
HETATM   12  S   UNL     1     -12.239  14.135  66.172  1.00  0.00    -0.411 S  
HETATM   13  O   UNL     1     -13.399  13.828  65.270  1.00  0.00    -0.710 OA 
BRANCH  12  14
HETATM   14  C   UNL     1     -11.878  12.653  66.992  1.00  0.00    -0.345 A  
HETATM   15  N   UNL     1     -11.333  11.584  66.449  1.00  0.00    -0.352 NA 
HETATM   16  C   UNL     1     -11.121  10.722  67.503  1.00  0.00    -0.308 A  
HETATM   17  H   UNL     1     -11.116  11.429  65.465  1.00  0.00     0.000 HD 
HETATM   18  C   UNL     1     -11.576  11.268  68.697  1.00  0.00    -0.318 A  
HETATM   19  N   UNL     1     -12.073  12.493  68.338  1.00  0.00    -0.206 NA 
HETATM   20  C   UNL     1     -11.473  10.615  69.929  1.00  0.00    -0.393 A  
HETATM   21  C   UNL     1     -10.886   9.340  69.934  1.00  0.00    -0.234 A  
HETATM   22  C   UNL     1     -10.397   8.777  68.751  1.00  0.00    -0.234 A  
HETATM   23  C   UNL     1     -10.518   9.455  67.525  1.00  0.00    -0.343 A  
BRANCH  21  24
HETATM   24  O   UNL     1     -10.823   8.754  71.170  1.00  0.00    -0.235 OA 
HETATM   25  C   UNL     1     -12.060   8.307  71.702  1.00  0.00    -0.306 C  
HETATM   26  F   UNL     1     -12.331   7.074  71.208  1.00  0.00    -0.343 F  
HETATM   27  F   UNL     1     -11.893   8.162  73.042  1.00  0.00    -0.450 F  
ENDBRANCH  21  24
ENDBRANCH  12  14
ENDBRANCH  11  12
ENDBRANCH   6  11
ENDBRANCH   2   3
TORSDOF 6
ENDMDL
MODEL       22
REMARK 921   NORMALIZED FREE ENERGY PREDICTED BY IDOCK:   -6.25 KCAL/MOL
REMARK 922        TOTAL FREE ENERGY PREDICTED BY IDOCK:   -9.19 KCAL/MOL
REMARK 923 INTER-LIGAND FREE ENERGY PREDICTED BY IDOCK:   -8.54 KCAL/MOL
REMARK 924 INTRA-LIGAND FREE ENERGY PREDICTED BY IDOCK:   -0.65 KCAL/MOL
REMARK 927      BINDING AFFINITY PREDICTED BY RF-SCORE:    0.00 PKD
ROOT
HETATM    1  C   UNL     1     -14.188   7.396  71.521  1.00  0.00    -0.427 C  
HETATM    2  O   UNL     1     -12.781   7.628  71.538  1.00  0.00    -0.327 OA 
ENDROOT
BRANCH   2   3
HETATM    3  C   UNL     1     -12.396   8.894  71.172  1.00  0.00    -0.235 A  
HETATM    4  C   UNL     1     -11.202   9.241  70.507  1.00  0.00    -0.265 A  
HETATM    5  C   UNL     1     -12.989  11.195  71.213  1.00  0.00    -0.357 A  
HETATM    6  C   UNL     1     -11.036  10.573  70.109  1.00  0.00    -0.270 A  
HETATM    7  C   UNL     1     -13.284   9.892  71.551  1.00  0.00    -0.501 A  
HETATM    8  N   UNL     1     -11.900  11.552  70.501  1.00  0.00    -0.328 NA 
BRANCH   4   9
HETATM    9  O   UNL     1     -10.322   8.230  70.209  1.00  0.00    -0.201 OA 
HETATM   10  C   UNL     1      -9.328   7.954  71.198  1.00  0.00    -0.151 C  
ENDBRANCH   4   9
BRANCH   6  11
HETATM   11  C   UNL     1      -9.953  11.031  69.166  1.00  0.00    -0.121 C  
BRANCH  11  12
HETATM   12  S   UNL     1     -10.618  11.396  67.517  1.00  0.00    -0.226 S  
HETATM   13  O   UNL     1     -12.119  11.377  67.527  1.00  0.00    -0.592 OA 
BRANCH  12  14
HETATM   14  C   UNL     1     -10.170  13.065  67.415  1.00  0.00    -0.231 A  
HETATM   15  N   UNL     1      -9.153  13.551  66.734  1.00  0.00    -0.339 NA 
HETATM   16  C   UNL     1      -9.275  14.919  66.843  1.00  0.00    -0.246 A  
HETATM   17  H   UNL     1      -8.433  13.029  66.235  1.00  0.00     0.000 HD 
HETATM   18  C   UNL     1     -10.368  15.263  67.631  1.00  0.00    -0.250 A  
HETATM   19  N   UNL     1     -10.908  14.060  67.999  1.00  0.00    -0.242 NA 
HETATM   20  C   UNL     1     -10.736  16.585  67.897  1.00  0.00    -0.337 A  
HETATM   21  C   UNL     1      -9.943  17.599  67.337  1.00  0.00    -0.321 A  
HETATM   22  C   UNL     1      -8.853  17.281  66.520  1.00  0.00    -0.290 A  
HETATM   23  C   UNL     1      -8.503  15.943  66.273  1.00  0.00    -0.302 A  
BRANCH  21  24
HETATM   24  O   UNL     1     -10.355  18.869  67.643  1.00  0.00    -0.378 OA 
HETATM   25  C   UNL     1      -9.889  19.892  66.777  1.00  0.00    -0.426 C  
HETATM   26  F   UNL     1     -10.708  19.960  65.698  1.00  0.00    -0.573 F  
HETATM   27  F   UNL     1     -10.018  21.070  67.439  1.00  0.00    -0.603 F  
ENDBRANCH  21  24
ENDBRANCH  12  14
ENDBRANCH  11  12
ENDBRANCH   6  11
ENDBRANCH   2   3
TORSDOF 6
ENDMDL
MODEL       23
REMARK 921   NORMALIZED FREE ENERGY PREDICTED BY IDOCK:   -6.25 KCAL/MOL
REMARK 922        TOTAL FREE ENERGY PREDICTED BY IDOCK:   -9.19 KCAL/MOL
REMARK 923 INTER-LIGAND FREE ENERGY PREDICTED BY IDOCK:   -8.51 KCAL/MOL
REMARK 924 INTRA-LIGAND FREE ENERGY PREDICTED BY IDOCK:   -0.68 KCAL/MOL
REMARK 927      BINDING AFFINITY PREDICTED BY RF-SCORE:    0.00 PKD
ROOT
HETATM    1  C   UNL     1     -10.313  19.348  65.981  1.00  0.00    -0.497 C  
HETATM    2  O   UNL     1      -9.992  17.984  65.714  1.00  0.00    -0.550 OA 
ENDROOT
BRANCH   2   3
HETATM    3  C   UNL     1     -10.193  17.124  66.766  1.00  0.00    -0.311 A  
HETATM    4  C   UNL     1     -10.263  15.718  66.687  1.00  0.00    -0.285 A  
HETATM    5  C   UNL     1     -10.572  16.968  69.106  1.00  0.00    -0.303 A  
HETATM    6  C   UNL     1     -10.356  14.998  67.884  1.00  0.00    -0.241 A  
HETATM    7  C   UNL     1     -10.378  17.753  67.989  1.00  0.00    -0.395 A  
HETATM    8  N   UNL     1     -10.558  15.620  69.081  1.00  0.00    -0.222 NA 
BRANCH   4   9
HETATM    9  O   UNL     1     -10.141  15.141  65.447  1.00  0.00    -0.339 OA 
HETATM   10  C   UNL     1     -11.363  14.896  64.747  1.00  0.00    -0.397 C  
ENDBRANCH   4   9
BRANCH   6  11
HETATM   11  C   UNL     1     -10.169  13.505  67.975  1.00  0.00    -0.243 C  
BRANCH  11  12
HETATM   12  S   UNL     1     -11.761  12.641  68.091  1.00  0.00    -0.334 S  
HETATM   13  O   UNL     1     -12.141  12.035  66.771  1.00  0.00    -0.613 OA 
BRANCH  12  14
HETATM   14  C   UNL     1     -11.270  11.316  69.091  1.00  0.00    -0.273 A  
HETATM   15  N   UNL     1     -10.038  10.873  69.236  1.00  0.00    -0.370 NA 
HETATM   16  C   UNL     1     -10.122   9.909  70.217  1.00  0.00    -0.237 A  
HETATM   17  H   UNL     1      -9.206  11.178  68.732  1.00  0.00     0.000 HD 
HETATM   18  C   UNL     1     -11.433   9.745  70.648  1.00  0.00    -0.324 A  
HETATM   19  N   UNL     1     -12.147  10.642  69.898  1.00  0.00    -0.309 NA 
HETATM   20  C   UNL     1     -11.805   8.842  71.648  1.00  0.00    -0.399 A  
HETATM   21  C   UNL     1     -10.788   8.066  72.225  1.00  0.00    -0.305 A  
HETATM   22  C   UNL     1      -9.457   8.228  71.827  1.00  0.00    -0.274 A  
HETATM   23  C   UNL     1      -9.112   9.141  70.816  1.00  0.00    -0.313 A  
BRANCH  21  24
HETATM   24  O   UNL     1     -11.222   7.197  73.192  1.00  0.00    -0.278 OA 
HETATM   25  C   UNL     1     -10.664   5.894  73.143  1.00  0.00    -0.261 C  
HETATM   26  F   UNL     1      -9.469   5.903  73.784  1.00  0.00    -0.135 F  
HETATM   27  F   UNL     1     -11.483   5.079  73.855  1.00  0.00    -0.304 F  
ENDBRANCH  21  24
ENDBRANCH  12  14
ENDBRANCH  11  12
ENDBRANCH   6  11
ENDBRANCH   2   3
TORSDOF 6
ENDMDL
MODEL       24
REMARK 921   NORMALIZED FREE ENERGY PREDICTED BY IDOCK:   -6.23 KCAL/MOL
REMARK 922        TOTAL FREE ENERGY PREDICTED BY IDOCK:   -9.16 KCAL/MOL
REMARK 923 INTER-LIGAND FREE ENERGY PREDICTED BY IDOCK:   -8.41 KCAL/MOL
REMARK 924 INTRA-LIGAND FREE ENERGY PREDICTED BY IDOCK:   -0.75 KCAL/MOL
REMARK 927      BINDING AFFINITY PREDICTED BY RF-SCORE:    0.00 PKD
ROOT
HETATM    1  C   UNL     1     -13.008   9.935  71.086  1.00  0.00    -0.369 C  
HETATM    2  O   UNL     1     -11.760  10.450  70.624  1.00  0.00    -0.300 OA 
ENDROOT
BRANCH   2   3
HETATM    3  C   UNL     1     -11.854  11.516  69.764  1.00  0.00    -0.357 A  
HETATM    4  C   UNL     1     -11.722  11.466  68.361  1.00  0.00    -0.303 A  
HETATM    5  C   UNL     1     -12.182  13.865  69.606  1.00  0.00    -0.321 A  
HETATM    6  C   UNL     1     -11.967  12.639  67.638  1.00  0.00    -0.247 A  
HETATM    7  C   UNL     1     -12.059  12.738  70.391  1.00  0.00    -0.382 A  
HETATM    8  N   UNL     1     -12.148  13.840  68.257  1.00  0.00    -0.343 NA 
BRANCH   4   9
HETATM    9  O   UNL     1     -11.454  10.247  67.789  1.00  0.00    -0.351 OA 
HETATM   10  C   UNL     1     -10.119   9.761  67.947  1.00  0.00    -0.173 C  
ENDBRANCH   4   9
BRANCH   6  11
HETATM   11  C   UNL     1     -12.128  12.675  66.139  1.00  0.00    -0.333 C  
BRANCH  11  12
HETATM   12  S   UNL     1     -10.524  12.582  65.295  1.00  0.00    -0.293 S  
HETATM   13  O   UNL     1     -10.675  12.845  63.825  1.00  0.00    -0.397 OA 
BRANCH  12  14
HETATM   14  C   UNL     1      -9.796  14.008  65.954  1.00  0.00    -0.281 A  
HETATM   15  N   UNL     1      -8.609  14.077  66.520  1.00  0.00    -0.425 NA 
HETATM   16  C   UNL     1      -8.411  15.419  66.764  1.00  0.00    -0.272 A  
HETATM   17  H   UNL     1      -7.975  13.306  66.730  1.00  0.00     0.000 HD 
HETATM   18  C   UNL     1      -9.513  16.168  66.367  1.00  0.00    -0.295 A  
HETATM   19  N   UNL     1     -10.389  15.239  65.873  1.00  0.00    -0.306 NA 
HETATM   20  C   UNL     1      -9.578  17.559  66.486  1.00  0.00    -0.295 A  
HETATM   21  C   UNL     1      -8.466  18.210  67.044  1.00  0.00    -0.245 A  
HETATM   22  C   UNL     1      -7.335  17.483  67.428  1.00  0.00    -0.198 A  
HETATM   23  C   UNL     1      -7.299  16.084  67.302  1.00  0.00    -0.243 A  
BRANCH  21  24
HETATM   24  O   UNL     1      -8.598  19.570  67.137  1.00  0.00    -0.281 OA 
HETATM   25  C   UNL     1      -9.857  20.035  67.597  1.00  0.00    -0.413 C  
HETATM   26  F   UNL     1      -9.865  20.011  68.953  1.00  0.00    -0.425 F  
HETATM   27  F   UNL     1      -9.964  21.338  67.230  1.00  0.00    -0.560 F  
ENDBRANCH  21  24
ENDBRANCH  12  14
ENDBRANCH  11  12
ENDBRANCH   6  11
ENDBRANCH   2   3
TORSDOF 6
ENDMDL
MODEL       25
REMARK 921   NORMALIZED FREE ENERGY PREDICTED BY IDOCK:   -6.21 KCAL/MOL
REMARK 922        TOTAL FREE ENERGY PREDICTED BY IDOCK:   -9.14 KCAL/MOL
REMARK 923 INTER-LIGAND FREE ENERGY PREDICTED BY IDOCK:   -8.42 KCAL/MOL
REMARK 924 INTRA-LIGAND FREE ENERGY PREDICTED BY IDOCK:   -0.72 KCAL/MOL
REMARK 927      BINDING AFFINITY PREDICTED BY RF-SCORE:    0.00 PKD
ROOT
HETATM    1  C   UNL     1     -11.904  15.839  72.142  1.00  0.00    -0.496 C  
HETATM    2  O   UNL     1     -11.522  16.282  70.840  1.00  0.00    -0.406 OA 
ENDROOT
BRANCH   2   3
HETATM    3  C   UNL     1     -11.646  15.341  69.847  1.00  0.00    -0.311 A  
HETATM    4  C   UNL     1     -11.481  15.565  68.465  1.00  0.00    -0.361 A  
HETATM    5  C   UNL     1     -12.141  13.065  69.374  1.00  0.00    -0.212 A  
HETATM    6  C   UNL     1     -11.530  14.457  67.611  1.00  0.00    -0.346 A  
HETATM    7  C   UNL     1     -12.008  14.079  70.299  1.00  0.00    -0.409 A  
HETATM    8  N   UNL     1     -11.905  13.225  68.055  1.00  0.00    -0.357 NA 
BRANCH   4   9
HETATM    9  O   UNL     1     -11.189  16.844  68.057  1.00  0.00    -0.271 OA 
HETATM   10  C   UNL     1      -9.808  17.211  68.089  1.00  0.00    -0.281 C  
ENDBRANCH   4   9
BRANCH   6  11
HETATM   11  C   UNL     1     -11.108  14.503  66.164  1.00  0.00    -0.334 C  
BRANCH  11  12
HETATM   12  S   UNL     1     -12.308  13.660  65.094  1.00  0.00    -0.461 S  
HETATM   13  O   UNL     1     -12.607  14.480  63.873  1.00  0.00    -0.827 OA 
BRANCH  12  14
HETATM   14  C   UNL     1     -11.307  12.356  64.550  1.00  0.00    -0.328 A  
HETATM   15  N   UNL     1     -10.931  12.139  63.307  1.00  0.00    -0.673 NA 
HETATM   16  C   UNL     1     -10.049  11.082  63.384  1.00  0.00    -0.370 A  
HETATM   17  H   UNL     1     -11.226  12.643  62.472  1.00  0.00     0.000 HD 
HETATM   18  C   UNL     1      -9.918  10.634  64.693  1.00  0.00    -0.337 A  
HETATM   19  N   UNL     1     -10.747  11.452  65.413  1.00  0.00    -0.272 NA 
HETATM   20  C   UNL     1      -9.076   9.580  65.062  1.00  0.00    -0.281 A  
HETATM   21  C   UNL     1      -8.344   8.954  64.042  1.00  0.00    -0.164 A  
HETATM   22  C   UNL     1      -8.438   9.402  62.720  1.00  0.00    -0.201 A  
HETATM   23  C   UNL     1      -9.297  10.460  62.377  1.00  0.00    -0.294 A  
BRANCH  21  24
HETATM   24  O   UNL     1      -7.545   7.927  64.471  1.00  0.00    -0.095 OA 
HETATM   25  C   UNL     1      -7.929   7.320  65.694  1.00  0.00    -0.123 C  
HETATM   26  F   UNL     1      -8.878   6.385  65.442  1.00  0.00    -0.154 F  
HETATM   27  F   UNL     1      -6.846   6.656  66.172  1.00  0.00    -0.053 F  
ENDBRANCH  21  24
ENDBRANCH  12  14
ENDBRANCH  11  12
ENDBRANCH   6  11
ENDBRANCH   2   3
TORSDOF 6
ENDMDL
MODEL       26
REMARK 921   NORMALIZED FREE ENERGY PREDICTED BY IDOCK:   -6.21 KCAL/MOL
REMARK 922        TOTAL FREE ENERGY PREDICTED BY IDOCK:   -9.13 KCAL/MOL
REMARK 923 INTER-LIGAND FREE ENERGY PREDICTED BY IDOCK:   -8.42 KCAL/MOL
REMARK 924 INTRA-LIGAND FREE ENERGY PREDICTED BY IDOCK:   -0.71 KCAL/MOL
REMARK 927      BINDING AFFINITY PREDICTED BY RF-SCORE:    0.00 PKD
ROOT
HETATM    1  C   UNL     1     -12.970  10.313  71.146  1.00  0.00    -0.409 C  
HETATM    2  O   UNL     1     -11.963  11.289  70.886  1.00  0.00    -0.326 OA 
ENDROOT
BRANCH   2   3
HETATM    3  C   UNL     1     -11.844  11.664  69.570  1.00  0.00    -0.348 A  
HETATM    4  C   UNL     1     -12.158  12.932  69.036  1.00  0.00    -0.154 A  
HETATM    5  C   UNL     1     -11.246  10.941  67.387  1.00  0.00    -0.273 A  
HETATM    6  C   UNL     1     -11.861  13.167  67.689  1.00  0.00    -0.359 A  
HETATM    7  C   UNL     1     -11.409  10.652  68.725  1.00  0.00    -0.339 A  
HETATM    8  N   UNL     1     -11.453  12.166  66.859  1.00  0.00    -0.373 NA 
BRANCH   4   9
HETATM    9  O   UNL     1     -12.648  13.883  69.897  1.00  0.00    -0.281 OA 
HETATM   10  C   UNL     1     -11.671  14.665  70.588  1.00  0.00    -0.281 C  
ENDBRANCH   4   9
BRANCH   6  11
HETATM   11  C   UNL     1     -11.887  14.536  67.058  1.00  0.00    -0.385 C  
BRANCH  11  12
HETATM   12  S   UNL     1     -10.839  14.606  65.578  1.00  0.00    -0.370 S  
HETATM   13  O   UNL     1     -11.662  14.860  64.348  1.00  0.00    -0.390 OA 
BRANCH  12  14
HETATM   14  C   UNL     1     -10.015  16.093  65.907  1.00  0.00    -0.356 A  
HETATM   15  N   UNL     1     -10.516  17.301  65.756  1.00  0.00    -0.540 NA 
HETATM   16  C   UNL     1      -9.553  18.148  66.263  1.00  0.00    -0.239 A  
HETATM   17  H   UNL     1     -11.417  17.555  65.354  1.00  0.00     0.000 HD 
HETATM   18  C   UNL     1      -8.439  17.438  66.696  1.00  0.00    -0.261 A  
HETATM   19  N   UNL     1      -8.754  16.131  66.438  1.00  0.00    -0.296 NA 
HETATM   20  C   UNL     1      -7.317  18.045  67.268  1.00  0.00    -0.212 A  
HETATM   21  C   UNL     1      -7.335  19.443  67.392  1.00  0.00    -0.226 A  
HETATM   22  C   UNL     1      -8.453  20.179  66.987  1.00  0.00    -0.397 A  
HETATM   23  C   UNL     1      -9.566  19.543  66.411  1.00  0.00    -0.469 A  
BRANCH  21  24
HETATM   24  O   UNL     1      -6.203  19.973  67.954  1.00  0.00    -0.215 OA 
HETATM   25  C   UNL     1      -6.325  20.394  69.303  1.00  0.00    -0.253 C  
HETATM   26  F   UNL     1      -6.145  19.324  70.115  1.00  0.00    -0.266 F  
HETATM   27  F   UNL     1      -5.301  21.250  69.551  1.00  0.00    -0.402 F  
ENDBRANCH  21  24
ENDBRANCH  12  14
ENDBRANCH  11  12
ENDBRANCH   6  11
ENDBRANCH   2   3
TORSDOF 6
ENDMDL
MODEL       27
REMARK 921   NORMALIZED FREE ENERGY PREDICTED BY IDOCK:   -6.20 KCAL/MOL
REMARK 922        TOTAL FREE ENERGY PREDICTED BY IDOCK:   -9.13 KCAL/MOL
REMARK 923 INTER-LIGAND FREE ENERGY PREDICTED BY IDOCK:   -8.30 KCAL/MOL
REMARK 924 INTRA-LIGAND FREE ENERGY PREDICTED BY IDOCK:   -0.83 KCAL/MOL
REMARK 927      BINDING AFFINITY PREDICTED BY RF-SCORE:    0.00 PKD
ROOT
HETATM    1  C   UNL     1      -9.159   3.716  71.663  1.00  0.00    -0.113 C  
HETATM    2  O   UNL     1     -10.216   4.506  72.206  1.00  0.00    -0.185 OA 
ENDROOT
BRANCH   2   3
HETATM    3  C   UNL     1     -10.549   5.615  71.469  1.00  0.00    -0.244 A  
HETATM    4  C   UNL     1     -10.867   6.890  71.982  1.00  0.00    -0.225 A  
HETATM    5  C   UNL     1     -10.913   6.457  69.276  1.00  0.00    -0.356 A  
HETATM    6  C   UNL     1     -11.066   7.933  71.070  1.00  0.00    -0.250 A  
HETATM    7  C   UNL     1     -10.601   5.395  70.099  1.00  0.00    -0.344 A  
HETATM    8  N   UNL     1     -11.136   7.709  69.728  1.00  0.00    -0.167 NA 
BRANCH   4   9
HETATM    9  O   UNL     1     -10.867   7.045  73.347  1.00  0.00    -0.326 OA 
HETATM   10  C   UNL     1      -9.586   7.205  73.960  1.00  0.00    -0.270 C  
ENDBRANCH   4   9
BRANCH   6  11
HETATM   11  C   UNL     1     -11.144   9.384  71.470  1.00  0.00    -0.376 C  
BRANCH  11  12
HETATM   12  S   UNL     1     -12.733  10.121  70.997  1.00  0.00    -0.395 S  
HETATM   13  O   UNL     1     -13.225  11.065  72.056  1.00  0.00    -0.499 OA 
BRANCH  12  14
HETATM   14  C   UNL     1     -12.184  11.122  69.695  1.00  0.00    -0.290 A  
HETATM   15  N   UNL     1     -12.020  10.740  68.446  1.00  0.00    -0.809 NA 
HETATM   16  C   UNL     1     -11.703  11.895  67.763  1.00  0.00    -0.292 A  
HETATM   17  H   UNL     1     -12.108   9.798  68.066  1.00  0.00     0.000 HD 
HETATM   18  C   UNL     1     -11.643  12.985  68.623  1.00  0.00    -0.318 A  
HETATM   19  N   UNL     1     -11.935  12.459  69.852  1.00  0.00    -0.324 NA 
HETATM   20  C   UNL     1     -11.355  14.285  68.195  1.00  0.00    -0.313 A  
HETATM   21  C   UNL     1     -11.109  14.472  66.826  1.00  0.00    -0.325 A  
HETATM   22  C   UNL     1     -11.188  13.397  65.935  1.00  0.00    -0.314 A  
HETATM   23  C   UNL     1     -11.474  12.100  66.394  1.00  0.00    -0.430 A  
BRANCH  21  24
HETATM   24  O   UNL     1     -10.828  15.767  66.477  1.00  0.00    -0.304 OA 
HETATM   25  C   UNL     1     -10.374  16.602  67.529  1.00  0.00    -0.294 C  
HETATM   26  F   UNL     1      -9.038  16.426  67.685  1.00  0.00    -0.194 F  
HETATM   27  F   UNL     1     -10.554  17.887  67.129  1.00  0.00    -0.345 F  
ENDBRANCH  21  24
ENDBRANCH  12  14
ENDBRANCH  11  12
ENDBRANCH   6  11
ENDBRANCH   2   3
TORSDOF 6
ENDMDL
MODEL       28
REMARK 921   NORMALIZED FREE ENERGY PREDICTED BY IDOCK:   -6.19 KCAL/MOL
REMARK 922        TOTAL FREE ENERGY PREDICTED BY IDOCK:   -9.12 KCAL/MOL
REMARK 923 INTER-LIGAND FREE ENERGY PREDICTED BY IDOCK:   -8.32 KCAL/MOL
REMARK 924 INTRA-LIGAND FREE ENERGY PREDICTED BY IDOCK:   -0.80 KCAL/MOL
REMARK 927      BINDING AFFINITY PREDICTED BY RF-SCORE:    0.00 PKD
ROOT
HETATM    1  C   UNL     1      -8.976   6.544  67.350  1.00  0.00    -0.110 C  
HETATM    2  O   UNL     1     -10.307   6.964  67.648  1.00  0.00    -0.167 OA 
ENDROOT
BRANCH   2   3
HETATM    3  C   UNL     1     -10.625   6.979  68.984  1.00  0.00    -0.217 A  
HETATM    4  C   UNL     1     -10.780   8.128  69.788  1.00  0.00    -0.229 A  
HETATM    5  C   UNL     1     -11.088   5.637  70.889  1.00  0.00    -0.129 A  
HETATM    6  C   UNL     1     -11.223   7.951  71.104  1.00  0.00    -0.261 A  
HETATM    7  C   UNL     1     -10.754   5.720  69.554  1.00  0.00    -0.408 A  
HETATM    8  N   UNL     1     -11.329   6.714  71.665  1.00  0.00    -0.262 NA 
BRANCH   4   9
HETATM    9  O   UNL     1     -10.578   9.351  69.198  1.00  0.00    -0.217 OA 
HETATM   10  C   UNL     1      -9.218   9.776  69.089  1.00  0.00    -0.176 C  
ENDBRANCH   4   9
BRANCH   6  11
HETATM   11  C   UNL     1     -11.689   9.083  71.984  1.00  0.00    -0.347 C  
BRANCH  11  12
HETATM   12  S   UNL     1     -13.408   9.539  71.626  1.00  0.00    -0.407 S  
HETATM   13  O   UNL     1     -14.305   9.207  72.783  1.00  0.00    -0.563 OA 
BRANCH  12  14
HETATM   14  C   UNL     1     -13.234  11.262  71.648  1.00  0.00    -0.327 A  
HETATM   15  N   UNL     1     -13.731  12.076  72.556  1.00  0.00    -0.391 NA 
HETATM   16  C   UNL     1     -13.227  13.317  72.232  1.00  0.00    -0.467 A  
HETATM   17  H   UNL     1     -14.352  11.840  73.329  1.00  0.00     0.000 HD 
HETATM   18  C   UNL     1     -12.439  13.255  71.089  1.00  0.00    -0.308 A  
HETATM   19  N   UNL     1     -12.478  11.935  70.726  1.00  0.00    -0.335 NA 
HETATM   20  C   UNL     1     -11.790  14.366  70.543  1.00  0.00    -0.367 A  
HETATM   21  C   UNL     1     -11.964  15.598  71.194  1.00  0.00    -0.409 A  
HETATM   22  C   UNL     1     -12.732  15.683  72.360  1.00  0.00    -0.509 A  
HETATM   23  C   UNL     1     -13.377  14.551  72.884  1.00  0.00    -0.579 A  
BRANCH  21  24
HETATM   24  O   UNL     1     -11.307  16.645  70.603  1.00  0.00    -0.222 OA 
HETATM   25  C   UNL     1     -10.743  16.376  69.329  1.00  0.00    -0.325 C  
HETATM   26  F   UNL     1     -11.701  16.533  68.383  1.00  0.00    -0.312 F  
HETATM   27  F   UNL     1      -9.805  17.329  69.096  1.00  0.00    -0.271 F  
ENDBRANCH  21  24
ENDBRANCH  12  14
ENDBRANCH  11  12
ENDBRANCH   6  11
ENDBRANCH   2   3
TORSDOF 6
ENDMDL
MODEL       29
REMARK 921   NORMALIZED FREE ENERGY PREDICTED BY IDOCK:   -6.18 KCAL/MOL
REMARK 922        TOTAL FREE ENERGY PREDICTED BY IDOCK:   -9.10 KCAL/MOL
REMARK 923 INTER-LIGAND FREE ENERGY PREDICTED BY IDOCK:   -8.32 KCAL/MOL
REMARK 924 INTRA-LIGAND FREE ENERGY PREDICTED BY IDOCK:   -0.78 KCAL/MOL
REMARK 927      BINDING AFFINITY PREDICTED BY RF-SCORE:    0.00 PKD
ROOT
HETATM    1  C   UNL     1     -11.501   7.530  71.869  1.00  0.00    -0.270 C  
HETATM    2  O   UNL     1     -11.116   8.885  72.095  1.00  0.00    -0.362 OA 
ENDROOT
BRANCH   2   3
HETATM    3  C   UNL     1     -10.777   9.589  70.965  1.00  0.00    -0.340 A  
HETATM    4  C   UNL     1     -11.627  10.442  70.232  1.00  0.00    -0.327 A  
HETATM    5  C   UNL     1      -9.043  10.048  69.407  1.00  0.00    -0.215 A  
HETATM    6  C   UNL     1     -11.071  11.168  69.172  1.00  0.00    -0.248 A  
HETATM    7  C   UNL     1      -9.478   9.372  70.527  1.00  0.00    -0.327 A  
HETATM    8  N   UNL     1      -9.801  10.937  68.733  1.00  0.00    -0.191 NA 
BRANCH   4   9
HETATM    9  O   UNL     1     -12.924  10.576  70.664  1.00  0.00    -0.366 OA 
HETATM   10  C   UNL     1     -13.130  11.471  71.758  1.00  0.00    -0.398 C  
ENDBRANCH   4   9
BRANCH   6  11
HETATM   11  C   UNL     1     -11.779  12.305  68.480  1.00  0.00    -0.331 C  
BRANCH  11  12
HETATM   12  S   UNL     1     -11.183  12.523  66.780  1.00  0.00    -0.315 S  
HETATM   13  O   UNL     1     -12.326  12.534  65.807  1.00  0.00    -0.627 OA 
BRANCH  12  14
HETATM   14  C   UNL     1     -10.650  14.167  66.895  1.00  0.00    -0.280 A  
HETATM   15  N   UNL     1     -10.856  15.109  65.999  1.00  0.00    -0.329 NA 
HETATM   16  C   UNL     1     -10.374  16.262  66.580  1.00  0.00    -0.302 A  
HETATM   17  H   UNL     1     -11.279  15.008  65.077  1.00  0.00     0.000 HD 
HETATM   18  C   UNL     1      -9.838  16.003  67.837  1.00  0.00    -0.226 A  
HETATM   19  N   UNL     1     -10.010  14.655  68.003  1.00  0.00    -0.217 NA 
HETATM   20  C   UNL     1      -9.291  16.994  68.657  1.00  0.00    -0.270 A  
HETATM   21  C   UNL     1      -9.285  18.308  68.162  1.00  0.00    -0.301 A  
HETATM   22  C   UNL     1      -9.840  18.600  66.912  1.00  0.00    -0.356 A  
HETATM   23  C   UNL     1     -10.379  17.582  66.106  1.00  0.00    -0.330 A  
BRANCH  21  24
HETATM   24  O   UNL     1      -8.729  19.227  69.012  1.00  0.00    -0.335 OA 
HETATM   25  C   UNL     1      -7.348  19.487  68.818  1.00  0.00    -0.358 C  
HETATM   26  F   UNL     1      -7.209  20.413  67.837  1.00  0.00    -0.315 F  
HETATM   27  F   UNL     1      -6.881  20.056  69.959  1.00  0.00    -0.382 F  
ENDBRANCH  21  24
ENDBRANCH  12  14
ENDBRANCH  11  12
ENDBRANCH   6  11
ENDBRANCH   2   3
TORSDOF 6
ENDMDL
MODEL       30
REMARK 921   NORMALIZED FREE ENERGY PREDICTED BY IDOCK:   -6.17 KCAL/MOL
REMARK 922        TOTAL FREE ENERGY PREDICTED BY IDOCK:   -9.08 KCAL/MOL
REMARK 923 INTER-LIGAND FREE ENERGY PREDICTED BY IDOCK:   -8.14 KCAL/MOL
REMARK 924 INTRA-LIGAND FREE ENERGY PREDICTED BY IDOCK:   -0.95 KCAL/MOL
REMARK 927      BINDING AFFINITY PREDICTED BY RF-SCORE:    0.00 PKD
ROOT
HETATM    1  C   UNL     1     -10.611   9.476  68.453  1.00  0.00    -0.219 C  
HETATM    2  O   UNL     1     -11.208  10.150  67.346  1.00  0.00    -0.244 OA 
ENDROOT
BRANCH   2   3
HETATM    3  C   UNL     1     -11.381  11.502  67.515  1.00  0.00    -0.299 A  
HETATM    4  C   UNL     1     -11.609  12.444  66.491  1.00  0.00    -0.387 A  
HETATM    5  C   UNL     1     -11.448  13.272  69.099  1.00  0.00    -0.305 A  
HETATM    6  C   UNL     1     -11.880  13.766  66.865  1.00  0.00    -0.413 A  
HETATM    7  C   UNL     1     -11.273  11.931  68.831  1.00  0.00    -0.310 A  
HETATM    8  N   UNL     1     -11.753  14.187  68.155  1.00  0.00    -0.336 NA 
BRANCH   4   9
HETATM    9  O   UNL     1     -11.643  11.985  65.197  1.00  0.00    -0.329 OA 
HETATM   10  C   UNL     1     -10.382  11.902  64.529  1.00  0.00    -0.292 C  
ENDBRANCH   4   9
BRANCH   6  11
HETATM   11  C   UNL     1     -12.403  14.810  65.911  1.00  0.00     0.024 C  
BRANCH  11  12
HETATM   12  S   UNL     1     -11.082  15.465  64.853  1.00  0.00    -0.386 S  
HETATM   13  O   UNL     1     -11.651  16.251  63.708  1.00  0.00    -0.952 OA 
BRANCH  12  14
HETATM   14  C   UNL     1     -10.425  16.637  65.946  1.00  0.00    -0.313 A  
HETATM   15  N   UNL     1     -10.969  17.023  67.081  1.00  0.00    -0.066 NA 
HETATM   16  C   UNL     1     -10.033  17.856  67.656  1.00  0.00    -0.324 A  
HETATM   17  H   UNL     1     -11.882  16.763  67.452  1.00  0.00     0.000 HD 
HETATM   18  C   UNL     1      -8.919  17.998  66.837  1.00  0.00    -0.262 A  
HETATM   19  N   UNL     1      -9.205  17.226  65.744  1.00  0.00    -0.508 NA 
HETATM   20  C   UNL     1      -7.809  18.776  67.180  1.00  0.00    -0.245 A  
HETATM   21  C   UNL     1      -7.847  19.444  68.414  1.00  0.00    -0.342 A  
HETATM   22  C   UNL     1      -8.945  19.297  69.269  1.00  0.00    -0.058 A  
HETATM   23  C   UNL     1     -10.050  18.513  68.895  1.00  0.00    -0.348 A  
BRANCH  21  24
HETATM   24  O   UNL     1      -6.732  20.192  68.685  1.00  0.00    -0.304 OA 
HETATM   25  C   UNL     1      -6.180  20.026  69.981  1.00  0.00    -0.359 C  
HETATM   26  F   UNL     1      -5.366  18.941  69.976  1.00  0.00    -0.188 F  
HETATM   27  F   UNL     1      -5.391  21.104  70.223  1.00  0.00    -0.371 F  
ENDBRANCH  21  24
ENDBRANCH  12  14
ENDBRANCH  11  12
ENDBRANCH   6  11
ENDBRANCH   2   3
TORSDOF 6
ENDMDL
MODEL       31
REMARK 921   NORMALIZED FREE ENERGY PREDICTED BY IDOCK:   -6.14 KCAL/MOL
REMARK 922        TOTAL FREE ENERGY PREDICTED BY IDOCK:   -9.04 KCAL/MOL
REMARK 923 INTER-LIGAND FREE ENERGY PREDICTED BY IDOCK:   -8.26 KCAL/MOL
REMARK 924 INTRA-LIGAND FREE ENERGY PREDICTED BY IDOCK:   -0.77 KCAL/MOL
REMARK 927      BINDING AFFINITY PREDICTED BY RF-SCORE:    0.00 PKD
ROOT
HETATM    1  C   UNL     1      -7.778  17.159  66.082  1.00  0.00    -0.267 C  
HETATM    2  O   UNL     1      -8.585  15.983  66.106  1.00  0.00    -0.333 OA 
ENDROOT
BRANCH   2   3
HETATM    3  C   UNL     1      -9.538  15.954  67.095  1.00  0.00    -0.218 A  
HETATM    4  C   UNL     1     -10.479  14.925  67.311  1.00  0.00    -0.263 A  
HETATM    5  C   UNL     1     -10.473  17.136  68.932  1.00  0.00    -0.346 A  
HETATM    6  C   UNL     1     -11.298  15.014  68.443  1.00  0.00    -0.309 A  
HETATM    7  C   UNL     1      -9.558  17.083  67.902  1.00  0.00    -0.249 A  
HETATM    8  N   UNL     1     -11.328  16.133  69.220  1.00  0.00    -0.337 NA 
BRANCH   4   9
HETATM    9  O   UNL     1     -10.466  13.858  66.447  1.00  0.00    -0.277 OA 
HETATM   10  C   UNL     1     -11.305  13.973  65.296  1.00  0.00    -0.321 C  
ENDBRANCH   4   9
BRANCH   6  11
HETATM   11  C   UNL     1     -12.149  13.875  68.945  1.00  0.00    -0.319 C  
BRANCH  11  12
HETATM   12  S   UNL     1     -12.347  13.938  70.748  1.00  0.00    -0.386 S  
HETATM   13  O   UNL     1     -13.696  14.480  71.121  1.00  0.00    -0.366 OA 
BRANCH  12  14
HETATM   14  C   UNL     1     -12.420  12.238  71.065  1.00  0.00    -0.263 A  
HETATM   15  N   UNL     1     -13.226  11.647  71.922  1.00  0.00    -0.454 NA 
HETATM   16  C   UNL     1     -13.017  10.298  71.733  1.00  0.00    -0.469 A  
HETATM   17  H   UNL     1     -13.865  12.091  72.581  1.00  0.00     0.000 HD 
HETATM   18  C   UNL     1     -12.043  10.073  70.767  1.00  0.00    -0.327 A  
HETATM   19  N   UNL     1     -11.665  11.329  70.373  1.00  0.00    -0.329 NA 
HETATM   20  C   UNL     1     -11.642   8.796  70.364  1.00  0.00    -0.105 A  
HETATM   21  C   UNL     1     -12.261   7.701  70.987  1.00  0.00    -0.236 A  
HETATM   22  C   UNL     1     -13.261   7.899  71.944  1.00  0.00    -0.314 A  
HETATM   23  C   UNL     1     -13.641   9.195  72.333  1.00  0.00    -0.544 A  
BRANCH  21  24
HETATM   24  O   UNL     1     -11.817   6.480  70.552  1.00  0.00    -0.392 OA 
HETATM   25  C   UNL     1     -10.775   5.897  71.317  1.00  0.00    -0.264 C  
HETATM   26  F   UNL     1     -11.318   5.245  72.374  1.00  0.00    -0.294 F  
HETATM   27  F   UNL     1     -10.184   4.954  70.540  1.00  0.00    -0.281 F  
ENDBRANCH  21  24
ENDBRANCH  12  14
ENDBRANCH  11  12
ENDBRANCH   6  11
ENDBRANCH   2   3
TORSDOF 6
ENDMDL
MODEL       32
REMARK 921   NORMALIZED FREE ENERGY PREDICTED BY IDOCK:   -6.13 KCAL/MOL
REMARK 922        TOTAL FREE ENERGY PREDICTED BY IDOCK:   -9.03 KCAL/MOL
REMARK 923 INTER-LIGAND FREE ENERGY PREDICTED BY IDOCK:   -8.35 KCAL/MOL
REMARK 924 INTRA-LIGAND FREE ENERGY PREDICTED BY IDOCK:   -0.68 KCAL/MOL
REMARK 927      BINDING AFFINITY PREDICTED BY RF-SCORE:    0.00 PKD
ROOT
HETATM    1  C   UNL     1     -11.152   3.642  73.231  1.00  0.00    -0.149 C  
HETATM    2  O   UNL     1     -10.471   4.261  72.141  1.00  0.00    -0.157 OA 
ENDROOT
BRANCH   2   3
HETATM    3  C   UNL     1     -10.335   5.624  72.241  1.00  0.00    -0.206 A  
HETATM    4  C   UNL     1     -10.794   6.576  71.307  1.00  0.00    -0.249 A  
HETATM    5  C   UNL     1      -9.467   7.402  73.558  1.00  0.00    -0.256 A  
HETATM    6  C   UNL     1     -10.669   7.931  71.636  1.00  0.00    -0.223 A  
HETATM    7  C   UNL     1      -9.639   6.047  73.365  1.00  0.00    -0.144 A  
HETATM    8  N   UNL     1      -9.968   8.342  72.730  1.00  0.00    -0.283 NA 
BRANCH   4   9
HETATM    9  O   UNL     1     -11.419   6.110  70.176  1.00  0.00    -0.391 OA 
HETATM   10  C   UNL     1     -10.571   5.835  69.060  1.00  0.00    -0.281 C  
ENDBRANCH   4   9
BRANCH   6  11
HETATM   11  C   UNL     1     -11.349   9.039  70.872  1.00  0.00    -0.293 C  
BRANCH  11  12
HETATM   12  S   UNL     1     -13.021   9.353  71.504  1.00  0.00    -0.384 S  
HETATM   13  O   UNL     1     -13.132   8.961  72.949  1.00  0.00    -0.339 OA 
BRANCH  12  14
HETATM   14  C   UNL     1     -12.987  11.085  71.490  1.00  0.00    -0.448 A  
HETATM   15  N   UNL     1     -13.608  11.875  72.341  1.00  0.00    -0.470 NA 
HETATM   16  C   UNL     1     -13.184  13.146  72.016  1.00  0.00    -0.446 A  
HETATM   17  H   UNL     1     -14.259  11.606  73.078  1.00  0.00     0.000 HD 
HETATM   18  C   UNL     1     -12.317  13.123  70.930  1.00  0.00    -0.307 A  
HETATM   19  N   UNL     1     -12.226  11.796  70.602  1.00  0.00    -0.380 NA 
HETATM   20  C   UNL     1     -11.724  14.271  70.397  1.00  0.00    -0.329 A  
HETATM   21  C   UNL     1     -12.040  15.498  71.000  1.00  0.00    -0.387 A  
HETATM   22  C   UNL     1     -12.890  15.547  72.111  1.00  0.00    -0.492 A  
HETATM   23  C   UNL     1     -13.477  14.377  72.622  1.00  0.00    -0.605 A  
BRANCH  21  24
HETATM   24  O   UNL     1     -11.431  16.582  70.426  1.00  0.00    -0.229 OA 
HETATM   25  C   UNL     1     -10.735  16.326  69.216  1.00  0.00    -0.307 C  
HETATM   26  F   UNL     1     -11.616  16.362  68.186  1.00  0.00    -0.323 F  
HETATM   27  F   UNL     1      -9.869  17.354  69.025  1.00  0.00    -0.273 F  
ENDBRANCH  21  24
ENDBRANCH  12  14
ENDBRANCH  11  12
ENDBRANCH   6  11
ENDBRANCH   2   3
TORSDOF 6
ENDMDL
MODEL       33
REMARK 921   NORMALIZED FREE ENERGY PREDICTED BY IDOCK:   -6.11 KCAL/MOL
REMARK 922        TOTAL FREE ENERGY PREDICTED BY IDOCK:   -9.01 KCAL/MOL
REMARK 923 INTER-LIGAND FREE ENERGY PREDICTED BY IDOCK:   -8.27 KCAL/MOL
REMARK 924 INTRA-LIGAND FREE ENERGY PREDICTED BY IDOCK:   -0.73 KCAL/MOL
REMARK 927      BINDING AFFINITY PREDICTED BY RF-SCORE:    0.00 PKD
ROOT
HETATM    1  C   UNL     1     -11.332   5.980  72.668  1.00  0.00    -0.277 C  
HETATM    2  O   UNL     1     -12.085   7.015  72.038  1.00  0.00    -0.302 OA 
ENDROOT
BRANCH   2   3
HETATM    3  C   UNL     1     -11.511   7.545  70.909  1.00  0.00    -0.281 A  
HETATM    4  C   UNL     1     -11.274   8.914  70.661  1.00  0.00    -0.266 A  
HETATM    5  C   UNL     1     -10.594   7.046  68.774  1.00  0.00    -0.212 A  
HETATM    6  C   UNL     1     -10.570   9.258  69.502  1.00  0.00    -0.224 A  
HETATM    7  C   UNL     1     -11.190   6.607  69.937  1.00  0.00    -0.421 A  
HETATM    8  N   UNL     1     -10.274   8.336  68.542  1.00  0.00    -0.205 NA 
BRANCH   4   9
HETATM    9  O   UNL     1     -11.668   9.813  71.622  1.00  0.00    -0.385 OA 
HETATM   10  C   UNL     1     -12.966  10.386  71.448  1.00  0.00    -0.443 C  
ENDBRANCH   4   9
BRANCH   6  11
HETATM   11  C   UNL     1     -10.013  10.635  69.244  1.00  0.00    -0.193 C  
BRANCH  11  12
HETATM   12  S   UNL     1     -10.786  11.403  67.793  1.00  0.00    -0.249 S  
HETATM   13  O   UNL     1     -12.284  11.350  67.891  1.00  0.00    -0.592 OA 
BRANCH  12  14
HETATM   14  C   UNL     1     -10.354  13.051  68.104  1.00  0.00    -0.240 A  
HETATM   15  N   UNL     1      -9.234  13.462  68.660  1.00  0.00    -0.381 NA 
HETATM   16  C   UNL     1      -9.282  14.837  68.578  1.00  0.00    -0.194 A  
HETATM   17  H   UNL     1      -8.493  12.889  69.064  1.00  0.00     0.000 HD 
HETATM   18  C   UNL     1     -10.468  15.262  67.990  1.00  0.00    -0.248 A  
HETATM   19  N   UNL     1     -11.141  14.102  67.716  1.00  0.00    -0.269 NA 
HETATM   20  C   UNL     1     -10.775  16.608  67.768  1.00  0.00    -0.327 A  
HETATM   21  C   UNL     1      -9.827  17.560  68.176  1.00  0.00    -0.306 A  
HETATM   22  C   UNL     1      -8.616  17.158  68.747  1.00  0.00    -0.236 A  
HETATM   23  C   UNL     1      -8.335  15.798  68.963  1.00  0.00    -0.236 A  
BRANCH  21  24
HETATM   24  O   UNL     1     -10.194  18.858  67.936  1.00  0.00    -0.355 OA 
HETATM   25  C   UNL     1      -9.814  19.380  66.673  1.00  0.00    -0.374 C  
HETATM   26  F   UNL     1     -10.741  19.020  65.751  1.00  0.00    -0.501 F  
HETATM   27  F   UNL     1      -9.862  20.734  66.767  1.00  0.00    -0.555 F  
ENDBRANCH  21  24
ENDBRANCH  12  14
ENDBRANCH  11  12
ENDBRANCH   6  11
ENDBRANCH   2   3
TORSDOF 6
ENDMDL
MODEL       34
REMARK 921   NORMALIZED FREE ENERGY PREDICTED BY IDOCK:   -6.10 KCAL/MOL
REMARK 922        TOTAL FREE ENERGY PREDICTED BY IDOCK:   -8.99 KCAL/MOL
REMARK 923 INTER-LIGAND FREE ENERGY PREDICTED BY IDOCK:   -8.19 KCAL/MOL
REMARK 924 INTRA-LIGAND FREE ENERGY PREDICTED BY IDOCK:   -0.80 KCAL/MOL
REMARK 927      BINDING AFFINITY PREDICTED BY RF-SCORE:    0.00 PKD
ROOT
HETATM    1  C   UNL     1      -9.902   2.582  72.153  1.00  0.00    -0.155 C  
HETATM    2  O   UNL     1      -9.698   3.967  72.430  1.00  0.00    -0.134 OA 
ENDROOT
BRANCH   2   3
HETATM    3  C   UNL     1     -10.265   4.829  71.524  1.00  0.00    -0.176 A  
HETATM    4  C   UNL     1     -11.097   5.926  71.829  1.00  0.00    -0.265 A  
HETATM    5  C   UNL     1     -10.507   5.344  69.217  1.00  0.00    -0.239 A  
HETATM    6  C   UNL     1     -11.487   6.766  70.779  1.00  0.00    -0.342 A  
HETATM    7  C   UNL     1      -9.992   4.523  70.198  1.00  0.00    -0.278 A  
HETATM    8  N   UNL     1     -11.234   6.450  69.477  1.00  0.00    -0.397 NA 
BRANCH   4   9
HETATM    9  O   UNL     1     -11.394   6.153  73.151  1.00  0.00    -0.180 OA 
HETATM   10  C   UNL     1     -10.363   6.764  73.929  1.00  0.00    -0.368 C  
ENDBRANCH   4   9
BRANCH   6  11
HETATM   11  C   UNL     1     -12.140   8.108  70.985  1.00  0.00    -0.207 C  
BRANCH  11  12
HETATM   12  S   UNL     1     -10.923   9.379  71.430  1.00  0.00    -0.348 S  
HETATM   13  O   UNL     1      -9.525   8.899  71.167  1.00  0.00    -0.216 OA 
BRANCH  12  14
HETATM   14  C   UNL     1     -11.268  10.525  70.179  1.00  0.00    -0.315 A  
HETATM   15  N   UNL     1     -11.712  11.752  70.358  1.00  0.00    -0.519 NA 
HETATM   16  C   UNL     1     -11.709  12.316  69.100  1.00  0.00    -0.323 A  
HETATM   17  H   UNL     1     -11.996  12.188  71.234  1.00  0.00     0.000 HD 
HETATM   18  C   UNL     1     -11.286  11.402  68.142  1.00  0.00    -0.278 A  
HETATM   19  N   UNL     1     -11.031  10.262  68.856  1.00  0.00    -0.229 NA 
HETATM   20  C   UNL     1     -11.172  11.712  66.784  1.00  0.00    -0.371 A  
HETATM   21  C   UNL     1     -11.517  13.014  66.389  1.00  0.00    -0.341 A  
HETATM   22  C   UNL     1     -11.922  13.960  67.336  1.00  0.00    -0.436 A  
HETATM   23  C   UNL     1     -12.032  13.620  68.695  1.00  0.00    -0.395 A  
BRANCH  21  24
HETATM   24  O   UNL     1     -11.390  13.247  65.046  1.00  0.00    -0.296 OA 
HETATM   25  C   UNL     1     -11.765  12.174  64.197  1.00  0.00    -0.396 C  
HETATM   26  F   UNL     1     -13.107  12.213  64.007  1.00  0.00    -0.533 F  
HETATM   27  F   UNL     1     -11.193  12.399  62.987  1.00  0.00    -0.454 F  
ENDBRANCH  21  24
ENDBRANCH  12  14
ENDBRANCH  11  12
ENDBRANCH   6  11
ENDBRANCH   2   3
TORSDOF 6
ENDMDL
MODEL       35
REMARK 921   NORMALIZED FREE ENERGY PREDICTED BY IDOCK:   -6.06 KCAL/MOL
REMARK 922        TOTAL FREE ENERGY PREDICTED BY IDOCK:   -8.93 KCAL/MOL
REMARK 923 INTER-LIGAND FREE ENERGY PREDICTED BY IDOCK:   -7.88 KCAL/MOL
REMARK 924 INTRA-LIGAND FREE ENERGY PREDICTED BY IDOCK:   -1.05 KCAL/MOL
REMARK 927      BINDING AFFINITY PREDICTED BY RF-SCORE:    0.00 PKD
ROOT
HETATM    1  C   UNL     1     -10.722  19.743  66.992  1.00  0.00    -0.418 C  
HETATM    2  O   UNL     1     -10.989  18.411  67.428  1.00  0.00    -0.351 OA 
ENDROOT
BRANCH   2   3
HETATM    3  C   UNL     1      -9.922  17.550  67.353  1.00  0.00    -0.315 A  
HETATM    4  C   UNL     1      -9.829  16.286  67.971  1.00  0.00    -0.236 A  
HETATM    5  C   UNL     1      -7.735  17.235  66.478  1.00  0.00    -0.290 A  
HETATM    6  C   UNL     1      -8.708  15.497  67.684  1.00  0.00    -0.175 A  
HETATM    7  C   UNL     1      -8.847  18.037  66.621  1.00  0.00    -0.280 A  
HETATM    8  N   UNL     1      -7.647  15.986  66.982  1.00  0.00    -0.211 NA 
BRANCH   4   9
HETATM    9  O   UNL     1     -10.889  15.872  68.739  1.00  0.00    -0.251 OA 
HETATM   10  C   UNL     1     -10.882  16.306  70.101  1.00  0.00    -0.298 C  
ENDBRANCH   4   9
BRANCH   6  11
HETATM   11  C   UNL     1      -8.602  14.038  68.048  1.00  0.00    -0.179 C  
BRANCH  11  12
HETATM   12  S   UNL     1      -9.830  13.040  67.160  1.00  0.00    -0.235 S  
HETATM   13  O   UNL     1      -9.169  11.931  66.393  1.00  0.00    -0.210 OA 
BRANCH  12  14
HETATM   14  C   UNL     1     -10.589  12.282  68.519  1.00  0.00    -0.234 A  
HETATM   15  N   UNL     1     -11.409  12.864  69.369  1.00  0.00    -0.408 NA 
HETATM   16  C   UNL     1     -11.853  11.847  70.186  1.00  0.00    -0.308 A  
HETATM   17  H   UNL     1     -11.660  13.851  69.413  1.00  0.00     0.000 HD 
HETATM   18  C   UNL     1     -11.264  10.635  69.842  1.00  0.00    -0.308 A  
HETATM   19  N   UNL     1     -10.447  10.947  68.788  1.00  0.00    -0.190 NA 
HETATM   20  C   UNL     1     -11.545   9.432  70.497  1.00  0.00    -0.291 A  
HETATM   21  C   UNL     1     -12.463   9.476  71.558  1.00  0.00    -0.376 A  
HETATM   22  C   UNL     1     -13.089  10.677  71.908  1.00  0.00    -0.563 A  
HETATM   23  C   UNL     1     -12.783  11.873  71.236  1.00  0.00    -0.401 A  
BRANCH  21  24
HETATM   24  O   UNL     1     -12.687   8.266  72.159  1.00  0.00    -0.332 OA 
HETATM   25  C   UNL     1     -11.538   7.459  72.362  1.00  0.00    -0.284 C  
HETATM   26  F   UNL     1     -10.931   7.841  73.513  1.00  0.00    -0.416 F  
HETATM   27  F   UNL     1     -11.970   6.186  72.552  1.00  0.00    -0.321 F  
ENDBRANCH  21  24
ENDBRANCH  12  14
ENDBRANCH  11  12
ENDBRANCH   6  11
ENDBRANCH   2   3
TORSDOF 6
ENDMDL
MODEL       36
REMARK 921   NORMALIZED FREE ENERGY PREDICTED BY IDOCK:   -6.05 KCAL/MOL
REMARK 922        TOTAL FREE ENERGY PREDICTED BY IDOCK:   -8.92 KCAL/MOL
REMARK 923 INTER-LIGAND FREE ENERGY PREDICTED BY IDOCK:   -7.71 KCAL/MOL
REMARK 924 INTRA-LIGAND FREE ENERGY PREDICTED BY IDOCK:   -1.21 KCAL/MOL
REMARK 927      BINDING AFFINITY PREDICTED BY RF-SCORE:    0.00 PKD
ROOT
HETATM    1  C   UNL     1      -9.738   7.064  74.086  1.00  0.00    -0.271 C  
HETATM    2  O   UNL     1     -10.908   6.497  73.499  1.00  0.00    -0.272 OA 
ENDROOT
BRANCH   2   3
HETATM    3  C   UNL     1     -10.718   5.916  72.269  1.00  0.00    -0.234 A  
HETATM    4  C   UNL     1     -11.257   6.366  71.046  1.00  0.00    -0.313 A  
HETATM    5  C   UNL     1      -9.692   4.117  71.105  1.00  0.00    -0.188 A  
HETATM    6  C   UNL     1     -10.856   5.713  69.874  1.00  0.00    -0.300 A  
HETATM    7  C   UNL     1      -9.949   4.761  72.296  1.00  0.00    -0.234 A  
HETATM    8  N   UNL     1     -10.118   4.568  69.907  1.00  0.00    -0.207 NA 
BRANCH   4   9
HETATM    9  O   UNL     1     -12.066   7.475  71.075  1.00  0.00    -0.308 OA 
HETATM   10  C   UNL     1     -13.451   7.233  71.334  1.00  0.00    -0.321 C  
ENDBRANCH   4   9
BRANCH   6  11
HETATM   11  C   UNL     1     -11.131   6.245  68.490  1.00  0.00    -0.308 C  
BRANCH  11  12
HETATM   12  S   UNL     1      -9.735   7.221  67.864  1.00  0.00    -0.145 S  
HETATM   13  O   UNL     1      -9.525   6.978  66.397  1.00  0.00    -0.175 OA 
BRANCH  12  14
HETATM   14  C   UNL     1     -10.441   8.798  67.982  1.00  0.00    -0.204 A  
HETATM   15  N   UNL     1     -11.008   9.310  69.054  1.00  0.00    -0.420 NA 
HETATM   16  C   UNL     1     -11.296  10.614  68.713  1.00  0.00    -0.277 A  
HETATM   17  H   UNL     1     -11.194   8.844  69.942  1.00  0.00     0.000 HD 
HETATM   18  C   UNL     1     -10.924  10.882  67.401  1.00  0.00    -0.293 A  
HETATM   19  N   UNL     1     -10.400   9.699  66.953  1.00  0.00    -0.245 NA 
HETATM   20  C   UNL     1     -11.088  12.132  66.797  1.00  0.00    -0.349 A  
HETATM   21  C   UNL     1     -11.667  13.150  67.571  1.00  0.00    -0.366 A  
HETATM   22  C   UNL     1     -12.027  12.914  68.902  1.00  0.00    -0.291 A  
HETATM   23  C   UNL     1     -11.856  11.645  69.482  1.00  0.00    -0.414 A  
BRANCH  21  24
HETATM   24  O   UNL     1     -11.805  14.345  66.917  1.00  0.00    -0.392 OA 
HETATM   25  C   UNL     1     -12.059  14.258  65.524  1.00  0.00    -0.394 C  
HETATM   26  F   UNL     1     -13.389  14.078  65.330  1.00  0.00    -0.478 F  
HETATM   27  F   UNL     1     -11.746  15.463  64.981  1.00  0.00    -0.316 F  
ENDBRANCH  21  24
ENDBRANCH  12  14
ENDBRANCH  11  12
ENDBRANCH   6  11
ENDBRANCH   2   3
TORSDOF 6
ENDMDL
MODEL       37
REMARK 921   NORMALIZED FREE ENERGY PREDICTED BY IDOCK:   -6.04 KCAL/MOL
REMARK 922        TOTAL FREE ENERGY PREDICTED BY IDOCK:   -8.91 KCAL/MOL
REMARK 923 INTER-LIGAND FREE ENERGY PREDICTED BY IDOCK:   -7.97 KCAL/MOL
REMARK 924 INTRA-LIGAND FREE ENERGY PREDICTED BY IDOCK:   -0.93 KCAL/MOL
REMARK 927      BINDING AFFINITY PREDICTED BY RF-SCORE:    0.00 PKD
ROOT
HETATM    1  C   UNL     1      -7.796   6.422  67.328  1.00  0.00    -0.105 C  
HETATM    2  O   UNL     1      -8.421   7.649  67.698  1.00  0.00    -0.117 OA 
ENDROOT
BRANCH   2   3
HETATM    3  C   UNL     1      -9.388   7.539  68.666  1.00  0.00    -0.143 A  
HETATM    4  C   UNL     1      -9.592   8.429  69.742  1.00  0.00    -0.170 A  
HETATM    5  C   UNL     1     -11.195   6.222  69.470  1.00  0.00    -0.430 A  
HETATM    6  C   UNL     1     -10.705   8.218  70.564  1.00  0.00    -0.225 A  
HETATM    7  C   UNL     1     -10.186   6.409  68.550  1.00  0.00    -0.198 A  
HETATM    8  N   UNL     1     -11.473   7.097  70.459  1.00  0.00    -0.296 NA 
BRANCH   4   9
HETATM    9  O   UNL     1      -8.738   9.498  69.856  1.00  0.00    -0.172 OA 
HETATM   10  C   UNL     1      -7.557   9.276  70.629  1.00  0.00    -0.147 C  
ENDBRANCH   4   9
BRANCH   6  11
HETATM   11  C   UNL     1     -11.198   9.226  71.571  1.00  0.00    -0.386 C  
BRANCH  11  12
HETATM   12  S   UNL     1     -12.811   9.908  71.095  1.00  0.00    -0.364 S  
HETATM   13  O   UNL     1     -13.388  10.746  72.199  1.00  0.00    -0.442 OA 
BRANCH  12  14
HETATM   14  C   UNL     1     -12.278  11.028  69.886  1.00  0.00    -0.336 A  
HETATM   15  N   UNL     1     -12.096  10.758  68.611  1.00  0.00    -0.816 NA 
HETATM   16  C   UNL     1     -11.803  11.973  68.030  1.00  0.00    -0.269 A  
HETATM   17  H   UNL     1     -12.158   9.849  68.153  1.00  0.00     0.000 HD 
HETATM   18  C   UNL     1     -11.776  12.988  68.980  1.00  0.00    -0.329 A  
HETATM   19  N   UNL     1     -12.063  12.353  70.158  1.00  0.00    -0.328 NA 
HETATM   20  C   UNL     1     -11.518  14.326  68.666  1.00  0.00    -0.328 A  
HETATM   21  C   UNL     1     -11.267  14.634  67.319  1.00  0.00    -0.337 A  
HETATM   22  C   UNL     1     -11.313  13.636  66.341  1.00  0.00    -0.331 A  
HETATM   23  C   UNL     1     -11.570  12.298  66.685  1.00  0.00    -0.438 A  
BRANCH  21  24
HETATM   24  O   UNL     1     -11.015  15.960  67.083  1.00  0.00    -0.304 OA 
HETATM   25  C   UNL     1     -10.772  16.754  68.233  1.00  0.00    -0.364 C  
HETATM   26  F   UNL     1      -9.466  16.638  68.578  1.00  0.00    -0.209 F  
HETATM   27  F   UNL     1     -10.968  18.049  67.876  1.00  0.00    -0.391 F  
ENDBRANCH  21  24
ENDBRANCH  12  14
ENDBRANCH  11  12
ENDBRANCH   6  11
ENDBRANCH   2   3
TORSDOF 6
ENDMDL
MODEL       38
REMARK 921   NORMALIZED FREE ENERGY PREDICTED BY IDOCK:   -6.01 KCAL/MOL
REMARK 922        TOTAL FREE ENERGY PREDICTED BY IDOCK:   -8.87 KCAL/MOL
REMARK 923 INTER-LIGAND FREE ENERGY PREDICTED BY IDOCK:   -8.10 KCAL/MOL
REMARK 924 INTRA-LIGAND FREE ENERGY PREDICTED BY IDOCK:   -0.77 KCAL/MOL
REMARK 927      BINDING AFFINITY PREDICTED BY RF-SCORE:    0.00 PKD
ROOT
HETATM    1  C   UNL     1      -7.989   8.513  66.115  1.00  0.00    -0.102 C  
HETATM    2  O   UNL     1      -9.275   8.850  65.598  1.00  0.00    -0.218 OA 
ENDROOT
BRANCH   2   3
HETATM    3  C   UNL     1      -9.845   9.973  66.146  1.00  0.00    -0.246 A  
HETATM    4  C   UNL     1     -10.616  10.933  65.458  1.00  0.00    -0.170 A  
HETATM    5  C   UNL     1     -10.116  11.244  68.135  1.00  0.00    -0.182 A  
HETATM    6  C   UNL     1     -11.215  11.952  66.208  1.00  0.00    -0.337 A  
HETATM    7  C   UNL     1      -9.573  10.150  67.495  1.00  0.00    -0.180 A  
HETATM    8  N   UNL     1     -10.929  12.134  67.529  1.00  0.00    -0.244 NA 
BRANCH   4   9
HETATM    9  O   UNL     1     -10.805  10.752  64.110  1.00  0.00    -0.207 OA 
HETATM   10  C   UNL     1      -9.707  11.112  63.270  1.00  0.00    -0.371 C  
ENDBRANCH   4   9
BRANCH   6  11
HETATM   11  C   UNL     1     -12.271  12.877  65.661  1.00  0.00    -0.463 C  
BRANCH  11  12
HETATM   12  S   UNL     1     -11.573  14.046  64.460  1.00  0.00    -0.381 S  
HETATM   13  O   UNL     1     -12.650  14.634  63.595  1.00  0.00    -0.773 OA 
BRANCH  12  14
HETATM   14  C   UNL     1     -11.112  15.306  65.555  1.00  0.00    -0.327 A  
HETATM   15  N   UNL     1     -11.270  15.287  66.862  1.00  0.00    -0.298 NA 
HETATM   16  C   UNL     1     -10.641  16.429  67.310  1.00  0.00    -0.293 A  
HETATM   17  H   UNL     1     -11.751  14.583  67.421  1.00  0.00     0.000 HD 
HETATM   18  C   UNL     1     -10.123  17.164  66.250  1.00  0.00    -0.320 A  
HETATM   19  N   UNL     1     -10.456  16.434  65.141  1.00  0.00    -0.657 NA 
HETATM   20  C   UNL     1      -9.421  18.362  66.418  1.00  0.00    -0.297 A  
HETATM   21  C   UNL     1      -9.251  18.830  67.730  1.00  0.00    -0.289 A  
HETATM   22  C   UNL     1      -9.740  18.097  68.816  1.00  0.00    -0.337 A  
HETATM   23  C   UNL     1     -10.446  16.898  68.618  1.00  0.00    -0.352 A  
BRANCH  21  24
HETATM   24  O   UNL     1      -8.561  20.010  67.822  1.00  0.00    -0.311 OA 
HETATM   25  C   UNL     1      -7.158  19.890  67.991  1.00  0.00    -0.284 C  
HETATM   26  F   UNL     1      -6.581  19.727  66.775  1.00  0.00    -0.190 F  
HETATM   27  F   UNL     1      -6.709  21.075  68.480  1.00  0.00    -0.271 F  
ENDBRANCH  21  24
ENDBRANCH  12  14
ENDBRANCH  11  12
ENDBRANCH   6  11
ENDBRANCH   2   3
TORSDOF 6
ENDMDL
MODEL       39
REMARK 921   NORMALIZED FREE ENERGY PREDICTED BY IDOCK:   -6.01 KCAL/MOL
REMARK 922        TOTAL FREE ENERGY PREDICTED BY IDOCK:   -8.87 KCAL/MOL
REMARK 923 INTER-LIGAND FREE ENERGY PREDICTED BY IDOCK:   -8.30 KCAL/MOL
REMARK 924 INTRA-LIGAND FREE ENERGY PREDICTED BY IDOCK:   -0.57 KCAL/MOL
REMARK 927      BINDING AFFINITY PREDICTED BY RF-SCORE:    0.00 PKD
ROOT
HETATM    1  C   UNL     1     -10.438   5.563  71.214  1.00  0.00    -0.239 C  
HETATM    2  O   UNL     1     -11.363   6.215  70.345  1.00  0.00    -0.352 OA 
ENDROOT
BRANCH   2   3
HETATM    3  C   UNL     1     -11.635   7.523  70.664  1.00  0.00    -0.248 A  
HETATM    4  C   UNL     1     -10.987   8.659  70.138  1.00  0.00    -0.226 A  
HETATM    5  C   UNL     1     -12.973   8.961  72.002  1.00  0.00    -0.399 A  
HETATM    6  C   UNL     1     -11.481   9.920  70.494  1.00  0.00    -0.318 A  
HETATM    7  C   UNL     1     -12.621   7.682  71.629  1.00  0.00    -0.365 A  
HETATM    8  N   UNL     1     -12.435  10.071  71.455  1.00  0.00    -0.389 NA 
BRANCH   4   9
HETATM    9  O   UNL     1      -9.972   8.453  69.236  1.00  0.00    -0.185 OA 
HETATM   10  C   UNL     1      -8.647   8.461  69.771  1.00  0.00    -0.132 C  
ENDBRANCH   4   9
BRANCH   6  11
HETATM   11  C   UNL     1     -11.071  11.198  69.808  1.00  0.00    -0.202 C  
BRANCH  11  12
HETATM   12  S   UNL     1     -12.397  12.436  69.860  1.00  0.00     0.035 S  
HETATM   13  O   UNL     1     -12.340  13.232  71.132  1.00  0.00    -0.343 OA 
BRANCH  12  14
HETATM   14  C   UNL     1     -11.820  13.495  68.617  1.00  0.00    -0.369 A  
HETATM   15  N   UNL     1     -11.954  13.308  67.321  1.00  0.00    -0.364 NA 
HETATM   16  C   UNL     1     -11.463  14.460  66.745  1.00  0.00    -0.370 A  
HETATM   17  H   UNL     1     -12.336  12.490  66.847  1.00  0.00     0.000 HD 
HETATM   18  C   UNL     1     -10.996  15.343  67.712  1.00  0.00    -0.311 A  
HETATM   19  N   UNL     1     -11.217  14.692  68.896  1.00  0.00    -0.253 NA 
HETATM   20  C   UNL     1     -10.457  16.597  67.409  1.00  0.00    -0.314 A  
HETATM   21  C   UNL     1     -10.386  16.957  66.054  1.00  0.00    -0.325 A  
HETATM   22  C   UNL     1     -10.873  16.098  65.063  1.00  0.00    -0.380 A  
HETATM   23  C   UNL     1     -11.405  14.841  65.396  1.00  0.00    -0.356 A  
BRANCH  21  24
HETATM   24  O   UNL     1      -9.843  18.194  65.828  1.00  0.00    -0.527 OA 
HETATM   25  C   UNL     1     -10.744  19.286  65.910  1.00  0.00    -0.372 C  
HETATM   26  F   UNL     1     -10.870  19.655  67.209  1.00  0.00    -0.540 F  
HETATM   27  F   UNL     1     -10.170  20.332  65.261  1.00  0.00    -0.455 F  
ENDBRANCH  21  24
ENDBRANCH  12  14
ENDBRANCH  11  12
ENDBRANCH   6  11
ENDBRANCH   2   3
TORSDOF 6
ENDMDL
MODEL       40
REMARK 921   NORMALIZED FREE ENERGY PREDICTED BY IDOCK:   -6.01 KCAL/MOL
REMARK 922        TOTAL FREE ENERGY PREDICTED BY IDOCK:   -8.87 KCAL/MOL
REMARK 923 INTER-LIGAND FREE ENERGY PREDICTED BY IDOCK:   -9.07 KCAL/MOL
REMARK 924 INTRA-LIGAND FREE ENERGY PREDICTED BY IDOCK:    0.20 KCAL/MOL
REMARK 927      BINDING AFFINITY PREDICTED BY RF-SCORE:    0.00 PKD
ROOT
HETATM    1  C   UNL     1     -11.131  12.128  63.464  1.00  0.00    -0.452 C  
HETATM    2  O   UNL     1     -11.630  12.486  64.751  1.00  0.00    -0.314 OA 
ENDROOT
BRANCH   2   3
HETATM    3  C   UNL     1     -11.296  13.750  65.172  1.00  0.00    -0.311 A  
HETATM    4  C   UNL     1     -10.573  14.073  66.339  1.00  0.00    -0.280 A  
HETATM    5  C   UNL     1     -11.475  16.071  64.694  1.00  0.00    -0.250 A  
HETATM    6  C   UNL     1     -10.224  15.413  66.544  1.00  0.00    -0.280 A  
HETATM    7  C   UNL     1     -11.774  14.768  64.358  1.00  0.00    -0.347 A  
HETATM    8  N   UNL     1     -10.712  16.410  65.754  1.00  0.00    -0.282 NA 
BRANCH   4   9
HETATM    9  O   UNL     1     -10.176  13.038  67.151  1.00  0.00    -0.239 OA 
HETATM   10  C   UNL     1      -8.822  12.606  66.999  1.00  0.00    -0.212 C  
ENDBRANCH   4   9
BRANCH   6  11
HETATM   11  C   UNL     1      -9.235  15.865  67.589  1.00  0.00    -0.208 C  
BRANCH  11  12
HETATM   12  S   UNL     1      -9.943  17.142  68.666  1.00  0.00    -0.330 S  
HETATM   13  O   UNL     1     -10.989  17.938  67.940  1.00  0.00    -0.294 OA 
BRANCH  12  14
HETATM   14  C   UNL     1     -10.808  16.116  69.760  1.00  0.00    -0.333 A  
HETATM   15  N   UNL     1     -11.450  16.508  70.840  1.00  0.00    -0.532 NA 
HETATM   16  C   UNL     1     -12.084  15.376  71.305  1.00  0.00    -0.366 A  
HETATM   17  H   UNL     1     -11.474  17.444  71.245  1.00  0.00     0.000 HD 
HETATM   18  C   UNL     1     -11.792  14.275  70.508  1.00  0.00    -0.294 A  
HETATM   19  N   UNL     1     -10.960  14.773  69.541  1.00  0.00    -0.263 NA 
HETATM   20  C   UNL     1     -12.313  12.999  70.740  1.00  0.00    -0.394 A  
HETATM   21  C   UNL     1     -13.165  12.843  71.845  1.00  0.00    -0.423 A  
HETATM   22  C   UNL     1     -13.495  13.939  72.649  1.00  0.00    -0.652 A  
HETATM   23  C   UNL     1     -12.952  15.210  72.395  1.00  0.00    -0.452 A  
BRANCH  21  24
HETATM   24  O   UNL     1     -13.634  11.568  72.019  1.00  0.00    -0.302 OA 
HETATM   25  C   UNL     1     -12.986  10.565  71.253  1.00  0.00    -0.433 C  
HETATM   26  F   UNL     1     -11.866  10.168  71.905  1.00  0.00    -0.415 F  
HETATM   27  F   UNL     1     -13.815   9.491  71.213  1.00  0.00    -0.408 F  
ENDBRANCH  21  24
ENDBRANCH  12  14
ENDBRANCH  11  12
ENDBRANCH   6  11
ENDBRANCH   2   3
TORSDOF 6
ENDMDL
MODEL       41
REMARK 921   NORMALIZED FREE ENERGY PREDICTED BY IDOCK:   -5.99 KCAL/MOL
REMARK 922        TOTAL FREE ENERGY PREDICTED BY IDOCK:   -8.84 KCAL/MOL
REMARK 923 INTER-LIGAND FREE ENERGY PREDICTED BY IDOCK:   -8.29 KCAL/MOL
REMARK 924 INTRA-LIGAND FREE ENERGY PREDICTED BY IDOCK:   -0.55 KCAL/MOL
REMARK 927      BINDING AFFINITY PREDICTED BY RF-SCORE:    0.00 PKD
ROOT
HETATM    1  C   UNL     1      -9.739  20.385  67.227  1.00  0.00    -0.461 C  
HETATM    2  O   UNL     1      -8.882  19.386  67.775  1.00  0.00    -0.299 OA 
ENDROOT
BRANCH   2   3
HETATM    3  C   UNL     1      -9.422  18.124  67.832  1.00  0.00    -0.281 A  
HETATM    4  C   UNL     1      -9.240  17.099  66.881  1.00  0.00    -0.241 A  
HETATM    5  C   UNL     1     -10.824  16.662  69.074  1.00  0.00    -0.314 A  
HETATM    6  C   UNL     1      -9.775  15.837  67.167  1.00  0.00    -0.223 A  
HETATM    7  C   UNL     1     -10.248  17.906  68.926  1.00  0.00    -0.331 A  
HETATM    8  N   UNL     1     -10.601  15.633  68.231  1.00  0.00    -0.254 NA 
BRANCH   4   9
HETATM    9  O   UNL     1      -8.468  17.380  65.780  1.00  0.00    -0.532 OA 
HETATM   10  C   UNL     1      -7.062  17.492  66.013  1.00  0.00    -0.264 C  
ENDBRANCH   4   9
BRANCH   6  11
HETATM   11  C   UNL     1      -9.434  14.593  66.387  1.00  0.00    -0.299 C  
BRANCH  11  12
HETATM   12  S   UNL     1     -10.918  13.824  65.680  1.00  0.00    -0.294 S  
HETATM   13  O   UNL     1     -10.610  13.171  64.363  1.00  0.00    -0.384 OA 
BRANCH  12  14
HETATM   14  C   UNL     1     -11.109  12.527  66.812  1.00  0.00    -0.279 A  
HETATM   15  N   UNL     1     -10.550  11.338  66.724  1.00  0.00    -0.249 NA 
HETATM   16  C   UNL     1     -10.881  10.704  67.903  1.00  0.00    -0.277 A  
HETATM   17  H   UNL     1      -9.995  10.968  65.954  1.00  0.00     0.000 HD 
HETATM   18  C   UNL     1     -11.680  11.515  68.700  1.00  0.00    -0.326 A  
HETATM   19  N   UNL     1     -11.826  12.664  67.970  1.00  0.00    -0.343 NA 
HETATM   20  C   UNL     1     -12.151  11.129  69.959  1.00  0.00    -0.437 A  
HETATM   21  C   UNL     1     -11.792   9.851  70.416  1.00  0.00    -0.234 A  
HETATM   22  C   UNL     1     -10.969   9.025  69.644  1.00  0.00    -0.147 A  
HETATM   23  C   UNL     1     -10.514   9.437  68.380  1.00  0.00    -0.256 A  
BRANCH  21  24
HETATM   24  O   UNL     1     -12.292   9.534  71.651  1.00  0.00    -0.348 OA 
HETATM   25  C   UNL     1     -13.614   9.022  71.667  1.00  0.00    -0.390 C  
HETATM   26  F   UNL     1     -13.573   7.690  71.418  1.00  0.00    -0.368 F  
HETATM   27  F   UNL     1     -14.088   9.168  72.931  1.00  0.00    -0.456 F  
ENDBRANCH  21  24
ENDBRANCH  12  14
ENDBRANCH  11  12
ENDBRANCH   6  11
ENDBRANCH   2   3
TORSDOF 6
ENDMDL
MODEL       42
REMARK 921   NORMALIZED FREE ENERGY PREDICTED BY IDOCK:   -5.98 KCAL/MOL
REMARK 922        TOTAL FREE ENERGY PREDICTED BY IDOCK:   -8.82 KCAL/MOL
REMARK 923 INTER-LIGAND FREE ENERGY PREDICTED BY IDOCK:   -8.05 KCAL/MOL
REMARK 924 INTRA-LIGAND FREE ENERGY PREDICTED BY IDOCK:   -0.77 KCAL/MOL
REMARK 927      BINDING AFFINITY PREDICTED BY RF-SCORE:    0.00 PKD
ROOT
HETATM    1  C   UNL     1      -6.767   3.814  72.887  1.00  0.00    -0.038 C  
HETATM    2  O   UNL     1      -7.622   4.390  71.901  1.00  0.00    -0.071 OA 
ENDROOT
BRANCH   2   3
HETATM    3  C   UNL     1      -8.867   4.755  72.353  1.00  0.00    -0.119 A  
HETATM    4  C   UNL     1      -9.341   6.074  72.510  1.00  0.00    -0.141 A  
HETATM    5  C   UNL     1     -10.953   3.956  73.165  1.00  0.00    -0.148 A  
HETATM    6  C   UNL     1     -10.681   6.250  72.873  1.00  0.00    -0.247 A  
HETATM    7  C   UNL     1      -9.678   3.687  72.713  1.00  0.00    -0.194 A  
HETATM    8  N   UNL     1     -11.468   5.200  73.244  1.00  0.00    -0.295 NA 
BRANCH   4   9
HETATM    9  O   UNL     1      -8.481   7.100  72.205  1.00  0.00    -0.115 OA 
HETATM   10  C   UNL     1      -8.482   7.534  70.844  1.00  0.00    -0.125 C  
ENDBRANCH   4   9
BRANCH   6  11
HETATM   11  C   UNL     1     -11.392   7.578  72.814  1.00  0.00    -0.336 C  
BRANCH  11  12
HETATM   12  S   UNL     1     -12.429   7.713  71.331  1.00  0.00    -0.320 S  
HETATM   13  O   UNL     1     -13.867   7.425  71.654  1.00  0.00    -0.385 OA 
BRANCH  12  14
HETATM   14  C   UNL     1     -12.335   9.426  71.097  1.00  0.00    -0.308 A  
HETATM   15  N   UNL     1     -11.791  10.034  70.064  1.00  0.00    -0.433 NA 
HETATM   16  C   UNL     1     -12.069  11.371  70.254  1.00  0.00    -0.374 A  
HETATM   17  H   UNL     1     -11.276   9.610  69.293  1.00  0.00     0.000 HD 
HETATM   18  C   UNL     1     -12.766  11.574  71.440  1.00  0.00    -0.364 A  
HETATM   19  N   UNL     1     -12.903  10.318  71.967  1.00  0.00    -0.405 NA 
HETATM   20  C   UNL     1     -13.190  12.833  71.875  1.00  0.00    -0.511 A  
HETATM   21  C   UNL     1     -12.878  13.933  71.061  1.00  0.00    -0.324 A  
HETATM   22  C   UNL     1     -12.200  13.754  69.851  1.00  0.00    -0.383 A  
HETATM   23  C   UNL     1     -11.781  12.477  69.441  1.00  0.00    -0.383 A  
BRANCH  21  24
HETATM   24  O   UNL     1     -13.316  15.136  71.549  1.00  0.00    -0.376 OA 
HETATM   25  C   UNL     1     -13.288  15.274  72.961  1.00  0.00    -0.506 C  
HETATM   26  F   UNL     1     -12.043  15.652  73.341  1.00  0.00    -0.468 F  
HETATM   27  F   UNL     1     -14.121  16.297  73.282  1.00  0.00    -0.685 F  
ENDBRANCH  21  24
ENDBRANCH  12  14
ENDBRANCH  11  12
ENDBRANCH   6  11
ENDBRANCH   2   3
TORSDOF 6
ENDMDL
MODEL       43
REMARK 921   NORMALIZED FREE ENERGY PREDICTED BY IDOCK:   -5.97 KCAL/MOL
REMARK 922        TOTAL FREE ENERGY PREDICTED BY IDOCK:   -8.82 KCAL/MOL
REMARK 923 INTER-LIGAND FREE ENERGY PREDICTED BY IDOCK:   -7.67 KCAL/MOL
REMARK 924 INTRA-LIGAND FREE ENERGY PREDICTED BY IDOCK:   -1.15 KCAL/MOL
REMARK 927      BINDING AFFINITY PREDICTED BY RF-SCORE:    0.00 PKD
ROOT
HETATM    1  C   UNL     1      -7.885  18.975  68.647  1.00  0.00    -0.348 C  
HETATM    2  O   UNL     1      -8.789  17.872  68.700  1.00  0.00    -0.297 OA 
ENDROOT
BRANCH   2   3
HETATM    3  C   UNL     1      -9.430  17.591  67.518  1.00  0.00    -0.255 A  
HETATM    4  C   UNL     1      -9.570  16.315  66.932  1.00  0.00    -0.232 A  
HETATM    5  C   UNL     1     -10.607  18.518  65.674  1.00  0.00    -0.111 A  
HETATM    6  C   UNL     1     -10.360  16.206  65.782  1.00  0.00    -0.378 A  
HETATM    7  C   UNL     1      -9.934  18.706  66.862  1.00  0.00    -0.373 A  
HETATM    8  N   UNL     1     -10.835  17.304  65.130  1.00  0.00    -0.599 NA 
BRANCH   4   9
HETATM    9  O   UNL     1      -8.999  15.249  67.582  1.00  0.00    -0.174 OA 
HETATM   10  C   UNL     1      -7.625  14.994  67.281  1.00  0.00    -0.194 C  
ENDBRANCH   4   9
BRANCH   6  11
HETATM   11  C   UNL     1     -10.816  14.888  65.208  1.00  0.00    -0.386 C  
BRANCH  11  12
HETATM   12  S   UNL     1     -12.283  14.259  66.073  1.00  0.00    -0.369 S  
HETATM   13  O   UNL     1     -13.275  13.687  65.102  1.00  0.00    -0.739 OA 
BRANCH  12  14
HETATM   14  C   UNL     1     -11.560  12.898  66.863  1.00  0.00    -0.368 A  
HETATM   15  N   UNL     1     -11.058  12.890  68.080  1.00  0.00    -0.239 NA 
HETATM   16  C   UNL     1     -10.726  11.573  68.316  1.00  0.00    -0.211 A  
HETATM   17  H   UNL     1     -10.941  13.683  68.710  1.00  0.00     0.000 HD 
HETATM   18  C   UNL     1     -11.004  10.780  67.209  1.00  0.00    -0.297 A  
HETATM   19  N   UNL     1     -11.516  11.655  66.290  1.00  0.00    -0.388 NA 
HETATM   20  C   UNL     1     -10.778   9.400  67.177  1.00  0.00    -0.234 A  
HETATM   21  C   UNL     1     -10.236   8.810  68.329  1.00  0.00    -0.201 A  
HETATM   22  C   UNL     1      -9.971   9.581  69.466  1.00  0.00    -0.205 A  
HETATM   23  C   UNL     1     -10.202  10.967  69.468  1.00  0.00    -0.097 A  
BRANCH  21  24
HETATM   24  O   UNL     1     -10.034   7.459  68.228  1.00  0.00    -0.154 OA 
HETATM   25  C   UNL     1     -10.422   6.693  69.358  1.00  0.00    -0.219 C  
HETATM   26  F   UNL     1     -11.750   6.432  69.276  1.00  0.00    -0.440 F  
HETATM   27  F   UNL     1      -9.784   5.498  69.272  1.00  0.00    -0.155 F  
ENDBRANCH  21  24
ENDBRANCH  12  14
ENDBRANCH  11  12
ENDBRANCH   6  11
ENDBRANCH   2   3
TORSDOF 6
ENDMDL
MODEL       44
REMARK 921   NORMALIZED FREE ENERGY PREDICTED BY IDOCK:   -5.96 KCAL/MOL
REMARK 922        TOTAL FREE ENERGY PREDICTED BY IDOCK:   -8.80 KCAL/MOL
REMARK 923 INTER-LIGAND FREE ENERGY PREDICTED BY IDOCK:   -8.11 KCAL/MOL
REMARK 924 INTRA-LIGAND FREE ENERGY PREDICTED BY IDOCK:   -0.69 KCAL/MOL
REMARK 927      BINDING AFFINITY PREDICTED BY RF-SCORE:    0.00 PKD
ROOT
HETATM    1  C   UNL     1     -13.031  16.077  73.579  1.00  0.00    -0.586 C  
HETATM    2  O   UNL     1     -13.837  15.600  72.503  1.00  0.00    -0.534 OA 
ENDROOT
BRANCH   2   3
HETATM    3  C   UNL     1     -13.329  14.512  71.835  1.00  0.00    -0.365 A  
HETATM    4  C   UNL     1     -12.597  14.544  70.630  1.00  0.00    -0.352 A  
HETATM    5  C   UNL     1     -13.145  12.143  71.832  1.00  0.00    -0.369 A  
HETATM    6  C   UNL     1     -12.058  13.342  70.158  1.00  0.00    -0.333 A  
HETATM    7  C   UNL     1     -13.627  13.291  72.424  1.00  0.00    -0.694 A  
HETATM    8  N   UNL     1     -12.369  12.144  70.728  1.00  0.00    -0.358 NA 
BRANCH   4   9
HETATM    9  O   UNL     1     -12.383  15.769  70.047  1.00  0.00    -0.354 OA 
HETATM   10  C   UNL     1     -11.106  16.363  70.290  1.00  0.00    -0.256 C  
ENDBRANCH   4   9
BRANCH   6  11
HETATM   11  C   UNL     1     -11.041  13.265  69.048  1.00  0.00    -0.244 C  
BRANCH  11  12
HETATM   12  S   UNL     1     -11.839  13.170  67.421  1.00  0.00    -0.336 S  
HETATM   13  O   UNL     1     -11.361  14.274  66.523  1.00  0.00    -0.326 OA 
BRANCH  12  14
HETATM   14  C   UNL     1     -11.078  11.728  66.837  1.00  0.00    -0.307 A  
HETATM   15  N   UNL     1     -10.271  11.648  65.800  1.00  0.00    -0.231 NA 
HETATM   16  C   UNL     1      -9.818  10.346  65.804  1.00  0.00    -0.239 A  
HETATM   17  H   UNL     1     -10.032  12.387  65.139  1.00  0.00     0.000 HD 
HETATM   18  C   UNL     1     -10.389   9.621  66.844  1.00  0.00    -0.238 A  
HETATM   19  N   UNL     1     -11.204  10.522  67.474  1.00  0.00    -0.375 NA 
HETATM   20  C   UNL     1     -10.096   8.276  67.093  1.00  0.00    -0.334 A  
HETATM   21  C   UNL     1      -9.184   7.646  66.232  1.00  0.00    -0.154 A  
HETATM   22  C   UNL     1      -8.576   8.359  65.194  1.00  0.00    -0.159 A  
HETATM   23  C   UNL     1      -8.893   9.709  64.963  1.00  0.00    -0.221 A  
BRANCH  21  24
HETATM   24  O   UNL     1      -8.948   6.330  66.528  1.00  0.00    -0.134 OA 
HETATM   25  C   UNL     1      -9.945   5.686  67.306  1.00  0.00    -0.159 C  
HETATM   26  F   UNL     1     -10.933   5.253  66.484  1.00  0.00    -0.323 F  
HETATM   27  F   UNL     1      -9.378   4.580  67.851  1.00  0.00    -0.127 F  
ENDBRANCH  21  24
ENDBRANCH  12  14
ENDBRANCH  11  12
ENDBRANCH   6  11
ENDBRANCH   2   3
TORSDOF 6
ENDMDL
MODEL       45
REMARK 921   NORMALIZED FREE ENERGY PREDICTED BY IDOCK:   -5.95 KCAL/MOL
REMARK 922        TOTAL FREE ENERGY PREDICTED BY IDOCK:   -8.79 KCAL/MOL
REMARK 923 INTER-LIGAND FREE ENERGY PREDICTED BY IDOCK:   -8.27 KCAL/MOL
REMARK 924 INTRA-LIGAND FREE ENERGY PREDICTED BY IDOCK:   -0.51 KCAL/MOL
REMARK 927      BINDING AFFINITY PREDICTED BY RF-SCORE:    0.00 PKD
ROOT
HETATM    1  C   UNL     1      -7.392   8.321  64.385  1.00  0.00    -0.092 C  
HETATM    2  O   UNL     1      -8.733   8.702  64.083  1.00  0.00    -0.083 OA 
ENDROOT
BRANCH   2   3
HETATM    3  C   UNL     1      -9.280   9.630  64.936  1.00  0.00    -0.246 A  
HETATM    4  C   UNL     1      -9.971  10.800  64.558  1.00  0.00    -0.333 A  
HETATM    5  C   UNL     1      -9.594  10.231  67.213  1.00  0.00    -0.159 A  
HETATM    6  C   UNL     1     -10.561  11.567  65.570  1.00  0.00    -0.281 A  
HETATM    7  C   UNL     1      -9.068   9.361  66.281  1.00  0.00    -0.204 A  
HETATM    8  N   UNL     1     -10.334  11.311  66.889  1.00  0.00    -0.225 NA 
BRANCH   4   9
HETATM    9  O   UNL     1     -10.099  11.060  63.216  1.00  0.00    -0.333 OA 
HETATM   10  C   UNL     1      -8.879  11.230  62.492  1.00  0.00    -0.216 C  
ENDBRANCH   4   9
BRANCH   6  11
HETATM   11  C   UNL     1     -11.546  12.677  65.304  1.00  0.00    -0.351 C  
BRANCH  11  12
HETATM   12  S   UNL     1     -10.802  14.308  65.588  1.00  0.00    -0.325 S  
HETATM   13  O   UNL     1     -11.519  15.369  64.805  1.00  0.00    -0.393 OA 
BRANCH  12  14
HETATM   14  C   UNL     1     -11.284  14.535  67.236  1.00  0.00    -0.332 A  
HETATM   15  N   UNL     1     -11.984  13.686  67.958  1.00  0.00    -0.366 NA 
HETATM   16  C   UNL     1     -12.004  14.232  69.224  1.00  0.00    -0.335 A  
HETATM   17  H   UNL     1     -12.417  12.816  67.650  1.00  0.00     0.000 HD 
HETATM   18  C   UNL     1     -11.331  15.447  69.256  1.00  0.00    -0.315 A  
HETATM   19  N   UNL     1     -10.899  15.625  67.969  1.00  0.00    -0.297 NA 
HETATM   20  C   UNL     1     -11.184  16.213  70.417  1.00  0.00    -0.394 A  
HETATM   21  C   UNL     1     -11.761  15.713  71.595  1.00  0.00    -0.446 A  
HETATM   22  C   UNL     1     -12.422  14.481  71.596  1.00  0.00    -0.422 A  
HETATM   23  C   UNL     1     -12.559  13.734  70.413  1.00  0.00    -0.325 A  
BRANCH  21  24
HETATM   24  O   UNL     1     -11.585  16.515  72.691  1.00  0.00    -0.392 OA 
HETATM   25  C   UNL     1     -12.514  16.324  73.747  1.00  0.00    -0.551 C  
HETATM   26  F   UNL     1     -12.095  15.292  74.520  1.00  0.00    -0.674 F  
HETATM   27  F   UNL     1     -12.472  17.436  74.525  1.00  0.00    -0.183 F  
ENDBRANCH  21  24
ENDBRANCH  12  14
ENDBRANCH  11  12
ENDBRANCH   6  11
ENDBRANCH   2   3
TORSDOF 6
ENDMDL
MODEL       46
REMARK 921   NORMALIZED FREE ENERGY PREDICTED BY IDOCK:   -5.95 KCAL/MOL
REMARK 922        TOTAL FREE ENERGY PREDICTED BY IDOCK:   -8.79 KCAL/MOL
REMARK 923 INTER-LIGAND FREE ENERGY PREDICTED BY IDOCK:   -8.09 KCAL/MOL
REMARK 924 INTRA-LIGAND FREE ENERGY PREDICTED BY IDOCK:   -0.69 KCAL/MOL
REMARK 927      BINDING AFFINITY PREDICTED BY RF-SCORE:    0.00 PKD
ROOT
HETATM    1  C   UNL     1      -8.912   3.316  71.876  1.00  0.00    -0.096 C  
HETATM    2  O   UNL     1      -9.954   4.145  71.364  1.00  0.00    -0.185 OA 
ENDROOT
BRANCH   2   3
HETATM    3  C   UNL     1     -10.036   5.392  71.934  1.00  0.00    -0.193 A  
HETATM    4  C   UNL     1     -10.025   6.623  71.246  1.00  0.00    -0.180 A  
HETATM    5  C   UNL     1     -10.193   6.589  73.981  1.00  0.00    -0.353 A  
HETATM    6  C   UNL     1     -10.237   7.791  71.988  1.00  0.00    -0.201 A  
HETATM    7  C   UNL     1     -10.094   5.382  73.321  1.00  0.00    -0.198 A  
HETATM    8  N   UNL     1     -10.273   7.779  73.350  1.00  0.00    -0.315 NA 
BRANCH   4   9
HETATM    9  O   UNL     1      -9.900   6.587  69.879  1.00  0.00    -0.165 OA 
HETATM   10  C   UNL     1     -11.083   6.252  69.150  1.00  0.00    -0.390 C  
ENDBRANCH   4   9
BRANCH   6  11
HETATM   11  C   UNL     1     -10.518   9.134  71.363  1.00  0.00    -0.344 C  
BRANCH  11  12
HETATM   12  S   UNL     1     -12.286   9.347  71.014  1.00  0.00    -0.218 S  
HETATM   13  O   UNL     1     -13.047   9.666  72.268  1.00  0.00    -0.414 OA 
BRANCH  12  14
HETATM   14  C   UNL     1     -12.203  10.832  70.126  1.00  0.00    -0.346 A  
HETATM   15  N   UNL     1     -12.053  12.033  70.645  1.00  0.00    -0.466 NA 
HETATM   16  C   UNL     1     -11.910  12.871  69.561  1.00  0.00    -0.320 A  
HETATM   17  H   UNL     1     -12.045  12.287  71.633  1.00  0.00     0.000 HD 
HETATM   18  C   UNL     1     -12.008  12.166  68.366  1.00  0.00    -0.198 A  
HETATM   19  N   UNL     1     -12.215  10.871  68.758  1.00  0.00    -0.474 NA 
HETATM   20  C   UNL     1     -11.885  12.766  67.109  1.00  0.00    -0.415 A  
HETATM   21  C   UNL     1     -11.662  14.151  67.076  1.00  0.00    -0.405 A  
HETATM   22  C   UNL     1     -11.535  14.880  68.262  1.00  0.00    -0.343 A  
HETATM   23  C   UNL     1     -11.667  14.252  69.513  1.00  0.00    -0.366 A  
BRANCH  21  24
HETATM   24  O   UNL     1     -11.559  14.674  65.814  1.00  0.00    -0.351 OA 
HETATM   25  C   UNL     1     -10.618  15.724  65.659  1.00  0.00    -0.377 C  
HETATM   26  F   UNL     1      -9.389  15.187  65.462  1.00  0.00    -0.343 F  
HETATM   27  F   UNL     1     -10.940  16.389  64.520  1.00  0.00    -0.437 F  
ENDBRANCH  21  24
ENDBRANCH  12  14
ENDBRANCH  11  12
ENDBRANCH   6  11
ENDBRANCH   2   3
TORSDOF 6
ENDMDL
MODEL       47
REMARK 921   NORMALIZED FREE ENERGY PREDICTED BY IDOCK:   -5.94 KCAL/MOL
REMARK 922        TOTAL FREE ENERGY PREDICTED BY IDOCK:   -8.77 KCAL/MOL
REMARK 923 INTER-LIGAND FREE ENERGY PREDICTED BY IDOCK:   -7.84 KCAL/MOL
REMARK 924 INTRA-LIGAND FREE ENERGY PREDICTED BY IDOCK:   -0.93 KCAL/MOL
REMARK 927      BINDING AFFINITY PREDICTED BY RF-SCORE:    0.00 PKD
ROOT
HETATM    1  C   UNL     1      -9.154   2.603  69.714  1.00  0.00    -0.121 C  
HETATM    2  O   UNL     1      -9.714   3.811  69.200  1.00  0.00    -0.168 OA 
ENDROOT
BRANCH   2   3
HETATM    3  C   UNL     1     -10.137   4.706  70.152  1.00  0.00    -0.213 A  
HETATM    4  C   UNL     1     -10.623   6.008  69.912  1.00  0.00    -0.279 A  
HETATM    5  C   UNL     1     -10.431   5.074  72.481  1.00  0.00    -0.215 A  
HETATM    6  C   UNL     1     -11.120   6.733  71.000  1.00  0.00    -0.273 A  
HETATM    7  C   UNL     1     -10.017   4.249  71.458  1.00  0.00    -0.243 A  
HETATM    8  N   UNL     1     -10.981   6.290  72.282  1.00  0.00    -0.245 NA 
BRANCH   4   9
HETATM    9  O   UNL     1     -10.663   6.443  68.610  1.00  0.00    -0.227 OA 
HETATM   10  C   UNL     1      -9.544   7.218  68.174  1.00  0.00    -0.140 C  
ENDBRANCH   4   9
BRANCH   6  11
HETATM   11  C   UNL     1     -11.909   8.010  70.859  1.00  0.00    -0.224 C  
BRANCH  11  12
HETATM   12  S   UNL     1     -11.015   9.425  71.562  1.00  0.00    -0.291 S  
HETATM   13  O   UNL     1      -9.531   9.204  71.508  1.00  0.00    -0.267 OA 
BRANCH  12  14
HETATM   14  C   UNL     1     -11.361  10.594  70.332  1.00  0.00    -0.304 A  
HETATM   15  N   UNL     1     -11.731  11.841  70.536  1.00  0.00    -0.493 NA 
HETATM   16  C   UNL     1     -11.759  12.410  69.281  1.00  0.00    -0.329 A  
HETATM   17  H   UNL     1     -11.949  12.287  71.426  1.00  0.00     0.000 HD 
HETATM   18  C   UNL     1     -11.430  11.480  68.301  1.00  0.00    -0.299 A  
HETATM   19  N   UNL     1     -11.201  10.325  68.999  1.00  0.00    -0.226 NA 
HETATM   20  C   UNL     1     -11.367  11.790  66.939  1.00  0.00    -0.386 A  
HETATM   21  C   UNL     1     -11.662  13.110  66.565  1.00  0.00    -0.382 A  
HETATM   22  C   UNL     1     -11.970  14.072  67.533  1.00  0.00    -0.430 A  
HETATM   23  C   UNL     1     -12.032  13.731  68.895  1.00  0.00    -0.394 A  
BRANCH  21  24
HETATM   24  O   UNL     1     -11.587  13.344  65.218  1.00  0.00    -0.299 OA 
HETATM   25  C   UNL     1     -11.829  12.221  64.385  1.00  0.00    -0.388 C  
HETATM   26  F   UNL     1     -13.167  12.078  64.217  1.00  0.00    -0.509 F  
HETATM   27  F   UNL     1     -11.311  12.506  63.163  1.00  0.00    -0.496 F  
ENDBRANCH  21  24
ENDBRANCH  12  14
ENDBRANCH  11  12
ENDBRANCH   6  11
ENDBRANCH   2   3
TORSDOF 6
ENDMDL
MODEL       48
REMARK 921   NORMALIZED FREE ENERGY PREDICTED BY IDOCK:   -5.94 KCAL/MOL
REMARK 922        TOTAL FREE ENERGY PREDICTED BY IDOCK:   -8.77 KCAL/MOL
REMARK 923 INTER-LIGAND FREE ENERGY PREDICTED BY IDOCK:   -7.88 KCAL/MOL
REMARK 924 INTRA-LIGAND FREE ENERGY PREDICTED BY IDOCK:   -0.88 KCAL/MOL
REMARK 927      BINDING AFFINITY PREDICTED BY RF-SCORE:    0.00 PKD
ROOT
HETATM    1  C   UNL     1     -14.350   8.599  72.124  1.00  0.00    -0.427 C  
HETATM    2  O   UNL     1     -13.021   9.067  72.347  1.00  0.00    -0.408 OA 
ENDROOT
BRANCH   2   3
HETATM    3  C   UNL     1     -12.624  10.098  71.532  1.00  0.00    -0.434 A  
HETATM    4  C   UNL     1     -11.754   9.995  70.427  1.00  0.00    -0.286 A  
HETATM    5  C   UNL     1     -12.790  12.433  71.128  1.00  0.00    -0.205 A  
HETATM    6  C   UNL     1     -11.556  11.135  69.640  1.00  0.00    -0.326 A  
HETATM    7  C   UNL     1     -13.123  11.340  71.898  1.00  0.00    -0.510 A  
HETATM    8  N   UNL     1     -12.031  12.357  70.014  1.00  0.00    -0.331 NA 
BRANCH   4   9
HETATM    9  O   UNL     1     -11.231   8.758  70.140  1.00  0.00    -0.237 OA 
HETATM   10  C   UNL     1      -9.961   8.463  70.727  1.00  0.00    -0.189 C  
ENDBRANCH   4   9
BRANCH   6  11
HETATM   11  C   UNL     1     -10.879  11.110  68.293  1.00  0.00    -0.212 C  
BRANCH  11  12
HETATM   12  S   UNL     1      -9.219  11.838  68.369  1.00  0.00    -0.145 S  
HETATM   13  O   UNL     1      -8.256  11.072  67.508  1.00  0.00    -0.115 OA 
BRANCH  12  14
HETATM   14  C   UNL     1      -9.537  13.312  67.517  1.00  0.00    -0.218 A  
HETATM   15  N   UNL     1     -10.021  13.409  66.296  1.00  0.00    -0.291 NA 
HETATM   16  C   UNL     1     -10.224  14.758  66.102  1.00  0.00    -0.297 A  
HETATM   17  H   UNL     1     -10.204  12.652  65.639  1.00  0.00     0.000 HD 
HETATM   18  C   UNL     1      -9.826  15.490  67.215  1.00  0.00    -0.224 A  
HETATM   19  N   UNL     1      -9.373  14.543  68.095  1.00  0.00    -0.191 NA 
HETATM   20  C   UNL     1      -9.933  16.881  67.297  1.00  0.00    -0.277 A  
HETATM   21  C   UNL     1     -10.465  17.552  66.185  1.00  0.00    -0.288 A  
HETATM   22  C   UNL     1     -10.897  16.838  65.063  1.00  0.00    -0.131 A  
HETATM   23  C   UNL     1     -10.772  15.440  65.005  1.00  0.00    -0.460 A  
BRANCH  21  24
HETATM   24  O   UNL     1     -10.536  18.913  66.330  1.00  0.00    -0.424 OA 
HETATM   25  C   UNL     1      -9.394  19.531  66.900  1.00  0.00    -0.346 C  
HETATM   26  F   UNL     1      -8.480  19.751  65.923  1.00  0.00    -0.348 F  
HETATM   27  F   UNL     1      -9.781  20.750  67.355  1.00  0.00    -0.564 F  
ENDBRANCH  21  24
ENDBRANCH  12  14
ENDBRANCH  11  12
ENDBRANCH   6  11
ENDBRANCH   2   3
TORSDOF 6
ENDMDL
MODEL       49
REMARK 921   NORMALIZED FREE ENERGY PREDICTED BY IDOCK:   -5.93 KCAL/MOL
REMARK 922        TOTAL FREE ENERGY PREDICTED BY IDOCK:   -8.76 KCAL/MOL
REMARK 923 INTER-LIGAND FREE ENERGY PREDICTED BY IDOCK:   -7.92 KCAL/MOL
REMARK 924 INTRA-LIGAND FREE ENERGY PREDICTED BY IDOCK:   -0.85 KCAL/MOL
REMARK 927      BINDING AFFINITY PREDICTED BY RF-SCORE:    0.00 PKD
ROOT
HETATM    1  C   UNL     1      -5.789  18.331  66.347  1.00  0.00    -0.162 C  
HETATM    2  O   UNL     1      -7.171  18.144  66.047  1.00  0.00    -0.277 OA 
ENDROOT
BRANCH   2   3
HETATM    3  C   UNL     1      -7.872  17.413  66.975  1.00  0.00    -0.210 A  
HETATM    4  C   UNL     1      -9.233  17.053  66.892  1.00  0.00    -0.240 A  
HETATM    5  C   UNL     1      -7.753  16.309  69.075  1.00  0.00    -0.224 A  
HETATM    6  C   UNL     1      -9.747  16.204  67.879  1.00  0.00    -0.225 A  
HETATM    7  C   UNL     1      -7.135  17.057  68.096  1.00  0.00    -0.178 A  
HETATM    8  N   UNL     1      -9.027  15.873  68.988  1.00  0.00    -0.230 NA 
BRANCH   4   9
HETATM    9  O   UNL     1      -9.941  17.483  65.797  1.00  0.00    -0.546 OA 
HETATM   10  C   UNL     1     -10.549  18.771  65.910  1.00  0.00    -0.352 C  
ENDBRANCH   4   9
BRANCH   6  11
HETATM   11  C   UNL     1     -11.089  15.524  67.776  1.00  0.00    -0.315 C  
BRANCH  11  12
HETATM   12  S   UNL     1     -10.968  13.943  66.894  1.00  0.00    -0.300 S  
HETATM   13  O   UNL     1      -9.566  13.702  66.413  1.00  0.00    -0.277 OA 
BRANCH  12  14
HETATM   14  C   UNL     1     -11.193  12.873  68.237  1.00  0.00    -0.270 A  
HETATM   15  N   UNL     1     -12.016  13.066  69.246  1.00  0.00    -0.302 NA 
HETATM   16  C   UNL     1     -11.948  11.904  69.984  1.00  0.00    -0.332 A  
HETATM   17  H   UNL     1     -12.580  13.893  69.440  1.00  0.00     0.000 HD 
HETATM   18  C   UNL     1     -11.043  11.008  69.426  1.00  0.00    -0.262 A  
HETATM   19  N   UNL     1     -10.561  11.662  68.324  1.00  0.00    -0.197 NA 
HETATM   20  C   UNL     1     -10.786   9.743  69.962  1.00  0.00    -0.326 A  
HETATM   21  C   UNL     1     -11.482   9.384  71.127  1.00  0.00    -0.352 A  
HETATM   22  C   UNL     1     -12.416  10.256  71.695  1.00  0.00    -0.491 A  
HETATM   23  C   UNL     1     -12.651  11.524  71.138  1.00  0.00    -0.463 A  
BRANCH  21  24
HETATM   24  O   UNL     1     -11.178   8.135  71.602  1.00  0.00    -0.244 OA 
HETATM   25  C   UNL     1     -12.189   7.154  71.441  1.00  0.00    -0.362 C  
HETATM   26  F   UNL     1     -12.096   6.627  70.195  1.00  0.00    -0.441 F  
HETATM   27  F   UNL     1     -11.916   6.148  72.311  1.00  0.00    -0.339 F  
ENDBRANCH  21  24
ENDBRANCH  12  14
ENDBRANCH  11  12
ENDBRANCH   6  11
ENDBRANCH   2   3
TORSDOF 6
ENDMDL
MODEL       50
REMARK 921   NORMALIZED FREE ENERGY PREDICTED BY IDOCK:   -5.92 KCAL/MOL
REMARK 922        TOTAL FREE ENERGY PREDICTED BY IDOCK:   -8.75 KCAL/MOL
REMARK 923 INTER-LIGAND FREE ENERGY PREDICTED BY IDOCK:   -8.06 KCAL/MOL
REMARK 924 INTRA-LIGAND FREE ENERGY PREDICTED BY IDOCK:   -0.69 KCAL/MOL
REMARK 927      BINDING AFFINITY PREDICTED BY RF-SCORE:    0.00 PKD
ROOT
HETATM    1  C   UNL     1      -8.346   9.714  69.976  1.00  0.00    -0.182 C  
HETATM    2  O   UNL     1      -8.313  10.984  69.327  1.00  0.00    -0.085 OA 
ENDROOT
BRANCH   2   3
HETATM    3  C   UNL     1      -9.334  11.207  68.436  1.00  0.00    -0.185 A  
HETATM    4  C   UNL     1      -9.224  11.871  67.197  1.00  0.00    -0.183 A  
HETATM    5  C   UNL     1     -11.657  10.921  68.028  1.00  0.00    -0.215 A  
HETATM    6  C   UNL     1     -10.352  11.901  66.368  1.00  0.00    -0.219 A  
HETATM    7  C   UNL     1     -10.574  10.753  68.864  1.00  0.00    -0.246 A  
HETATM    8  N   UNL     1     -11.572  11.472  66.800  1.00  0.00    -0.492 NA 
BRANCH   4   9
HETATM    9  O   UNL     1      -7.992  12.362  66.843  1.00  0.00    -0.138 OA 
HETATM   10  C   UNL     1      -7.714  13.705  67.245  1.00  0.00    -0.074 C  
ENDBRANCH   4   9
BRANCH   6  11
HETATM   11  C   UNL     1     -10.311  12.329  64.923  1.00  0.00    -0.290 C  
BRANCH  11  12
HETATM   12  S   UNL     1     -11.661  13.478  64.531  1.00  0.00    -0.398 S  
HETATM   13  O   UNL     1     -12.982  12.930  64.989  1.00  0.00    -0.777 OA 
BRANCH  12  14
HETATM   14  C   UNL     1     -11.265  14.741  65.647  1.00  0.00    -0.343 A  
HETATM   15  N   UNL     1     -11.639  14.801  66.909  1.00  0.00    -0.353 NA 
HETATM   16  C   UNL     1     -10.983  15.900  67.420  1.00  0.00    -0.257 A  
HETATM   17  H   UNL     1     -12.274  14.172  67.399  1.00  0.00     0.000 HD 
HETATM   18  C   UNL     1     -10.225  16.532  66.440  1.00  0.00    -0.316 A  
HETATM   19  N   UNL     1     -10.441  15.782  65.315  1.00  0.00    -0.423 NA 
HETATM   20  C   UNL     1      -9.446  17.666  66.685  1.00  0.00    -0.288 A  
HETATM   21  C   UNL     1      -9.450  18.180  67.992  1.00  0.00    -0.285 A  
HETATM   22  C   UNL     1     -10.183  17.549  69.002  1.00  0.00    -0.314 A  
HETATM   23  C   UNL     1     -10.962  16.413  68.726  1.00  0.00    -0.344 A  
BRANCH  21  24
HETATM   24  O   UNL     1      -8.672  19.294  68.161  1.00  0.00    -0.308 OA 
HETATM   25  C   UNL     1      -8.765  20.271  67.136  1.00  0.00    -0.339 C  
HETATM   26  F   UNL     1      -9.835  21.065  67.383  1.00  0.00    -0.614 F  
HETATM   27  F   UNL     1      -7.664  21.059  67.230  1.00  0.00    -0.390 F  
ENDBRANCH  21  24
ENDBRANCH  12  14
ENDBRANCH  11  12
ENDBRANCH   6  11
ENDBRANCH   2   3
TORSDOF 6
ENDMDL
MODEL       51
REMARK 921   NORMALIZED FREE ENERGY PREDICTED BY IDOCK:   -5.88 KCAL/MOL
REMARK 922        TOTAL FREE ENERGY PREDICTED BY IDOCK:   -8.69 KCAL/MOL
REMARK 923 INTER-LIGAND FREE ENERGY PREDICTED BY IDOCK:   -8.35 KCAL/MOL
REMARK 924 INTRA-LIGAND FREE ENERGY PREDICTED BY IDOCK:   -0.35 KCAL/MOL
REMARK 927      BINDING AFFINITY PREDICTED BY RF-SCORE:    0.00 PKD
ROOT
HETATM    1  C   UNL     1     -11.965   6.339  71.873  1.00  0.00    -0.286 C  
HETATM    2  O   UNL     1     -11.110   7.439  71.567  1.00  0.00    -0.236 OA 
ENDROOT
BRANCH   2   3
HETATM    3  C   UNL     1     -11.730   8.664  71.532  1.00  0.00    -0.305 A  
HETATM    4  C   UNL     1     -11.274   9.807  70.843  1.00  0.00    -0.359 A  
HETATM    5  C   UNL     1     -13.588   9.927  72.307  1.00  0.00    -0.242 A  
HETATM    6  C   UNL     1     -12.102  10.935  70.825  1.00  0.00    -0.368 A  
HETATM    7  C   UNL     1     -12.888   8.739  72.294  1.00  0.00    -0.465 A  
HETATM    8  N   UNL     1     -13.227  11.012  71.591  1.00  0.00    -0.401 NA 
BRANCH   4   9
HETATM    9  O   UNL     1     -10.089   9.707  70.156  1.00  0.00    -0.229 OA 
HETATM   10  C   UNL     1     -10.151   9.035  68.896  1.00  0.00    -0.196 C  
ENDBRANCH   4   9
BRANCH   6  11
HETATM   11  C   UNL     1     -11.876  12.119  69.919  1.00  0.00    -0.319 C  
BRANCH  11  12
HETATM   12  S   UNL     1     -12.643  13.623  70.586  1.00  0.00    -0.257 S  
HETATM   13  O   UNL     1     -12.413  13.732  72.065  1.00  0.00    -0.198 OA 
BRANCH  12  14
HETATM   14  C   UNL     1     -11.597  14.797  69.860  1.00  0.00    -0.286 A  
HETATM   15  N   UNL     1     -10.305  14.922  70.084  1.00  0.00    -0.485 NA 
HETATM   16  C   UNL     1      -9.885  15.888  69.196  1.00  0.00    -0.247 A  
HETATM   17  H   UNL     1      -9.741  14.415  70.765  1.00  0.00     0.000 HD 
HETATM   18  C   UNL     1     -10.949  16.377  68.447  1.00  0.00    -0.353 A  
HETATM   19  N   UNL     1     -12.032  15.677  68.906  1.00  0.00    -0.343 NA 
HETATM   20  C   UNL     1     -10.806  17.356  67.459  1.00  0.00    -0.203 A  
HETATM   21  C   UNL     1      -9.516  17.863  67.237  1.00  0.00    -0.263 A  
HETATM   22  C   UNL     1      -8.424  17.371  67.959  1.00  0.00    -0.235 A  
HETATM   23  C   UNL     1      -8.598  16.389  68.950  1.00  0.00    -0.250 A  
BRANCH  21  24
HETATM   24  O   UNL     1      -9.448  18.822  66.262  1.00  0.00    -0.348 OA 
HETATM   25  C   UNL     1     -10.374  19.890  66.385  1.00  0.00    -0.495 C  
HETATM   26  F   UNL     1      -9.867  20.816  67.236  1.00  0.00    -0.587 F  
HETATM   27  F   UNL     1     -10.465  20.486  65.169  1.00  0.00    -0.390 F  
ENDBRANCH  21  24
ENDBRANCH  12  14
ENDBRANCH  11  12
ENDBRANCH   6  11
ENDBRANCH   2   3
TORSDOF 6
ENDMDL
MODEL       52
REMARK 921   NORMALIZED FREE ENERGY PREDICTED BY IDOCK:   -5.87 KCAL/MOL
REMARK 922        TOTAL FREE ENERGY PREDICTED BY IDOCK:   -8.68 KCAL/MOL
REMARK 923 INTER-LIGAND FREE ENERGY PREDICTED BY IDOCK:   -7.58 KCAL/MOL
REMARK 924 INTRA-LIGAND FREE ENERGY PREDICTED BY IDOCK:   -1.11 KCAL/MOL
REMARK 927      BINDING AFFINITY PREDICTED BY RF-SCORE:    0.00 PKD
ROOT
HETATM    1  C   UNL     1      -8.265   7.305  66.561  1.00  0.00    -0.117 C  
HETATM    2  O   UNL     1      -7.959   7.813  67.859  1.00  0.00    -0.121 OA 
ENDROOT
BRANCH   2   3
HETATM    3  C   UNL     1      -8.964   7.680  68.785  1.00  0.00    -0.133 A  
HETATM    4  C   UNL     1      -9.218   8.551  69.866  1.00  0.00    -0.154 A  
HETATM    5  C   UNL     1     -10.792   6.338  69.495  1.00  0.00    -0.340 A  
HETATM    6  C   UNL     1     -10.362   8.319  70.639  1.00  0.00    -0.199 A  
HETATM    7  C   UNL     1      -9.748   6.546  68.620  1.00  0.00    -0.128 A  
HETATM    8  N   UNL     1     -11.116   7.194  70.486  1.00  0.00    -0.262 NA 
BRANCH   4   9
HETATM    9  O   UNL     1      -8.377   9.624  70.031  1.00  0.00    -0.151 OA 
HETATM   10  C   UNL     1      -7.185   9.376  70.779  1.00  0.00    -0.113 C  
ENDBRANCH   4   9
BRANCH   6  11
HETATM   11  C   UNL     1     -10.902   9.307  71.642  1.00  0.00    -0.348 C  
BRANCH  11  12
HETATM   12  S   UNL     1     -12.544   9.913  71.159  1.00  0.00    -0.380 S  
HETATM   13  O   UNL     1     -13.159  10.729  72.258  1.00  0.00    -0.383 OA 
BRANCH  12  14
HETATM   14  C   UNL     1     -12.060  11.050  69.946  1.00  0.00    -0.361 A  
HETATM   15  N   UNL     1     -11.336  12.131  70.147  1.00  0.00    -0.479 NA 
HETATM   16  C   UNL     1     -11.099  12.637  68.887  1.00  0.00    -0.259 A  
HETATM   17  H   UNL     1     -11.020  12.510  71.039  1.00  0.00     0.000 HD 
HETATM   18  C   UNL     1     -11.720  11.864  67.912  1.00  0.00    -0.298 A  
HETATM   19  N   UNL     1     -12.342  10.870  68.618  1.00  0.00    -0.389 NA 
HETATM   20  C   UNL     1     -11.634  12.141  66.544  1.00  0.00    -0.425 A  
HETATM   21  C   UNL     1     -10.886  13.265  66.160  1.00  0.00    -0.280 A  
HETATM   22  C   UNL     1     -10.231  14.045  67.119  1.00  0.00    -0.258 A  
HETATM   23  C   UNL     1     -10.339  13.747  68.488  1.00  0.00    -0.244 A  
BRANCH  21  24
HETATM   24  O   UNL     1     -10.849  13.481  64.808  1.00  0.00    -0.337 OA 
HETATM   25  C   UNL     1     -12.108  13.511  64.156  1.00  0.00    -0.435 C  
HETATM   26  F   UNL     1     -12.633  14.756  64.271  1.00  0.00    -0.495 F  
HETATM   27  F   UNL     1     -11.881  13.305  62.833  1.00  0.00    -0.486 F  
ENDBRANCH  21  24
ENDBRANCH  12  14
ENDBRANCH  11  12
ENDBRANCH   6  11
ENDBRANCH   2   3
TORSDOF 6
ENDMDL
MODEL       53
REMARK 921   NORMALIZED FREE ENERGY PREDICTED BY IDOCK:   -5.86 KCAL/MOL
REMARK 922        TOTAL FREE ENERGY PREDICTED BY IDOCK:   -8.67 KCAL/MOL
REMARK 923 INTER-LIGAND FREE ENERGY PREDICTED BY IDOCK:   -7.83 KCAL/MOL
REMARK 924 INTRA-LIGAND FREE ENERGY PREDICTED BY IDOCK:   -0.84 KCAL/MOL
REMARK 927      BINDING AFFINITY PREDICTED BY RF-SCORE:    0.00 PKD
ROOT
HETATM    1  C   UNL     1      -9.361   9.539  65.647  1.00  0.00    -0.241 C  
HETATM    2  O   UNL     1      -9.812  10.805  65.168  1.00  0.00    -0.235 OA 
ENDROOT
BRANCH   2   3
HETATM    3  C   UNL     1      -9.892  11.791  66.121  1.00  0.00    -0.229 A  
HETATM    4  C   UNL     1     -11.072  12.422  66.567  1.00  0.00    -0.301 A  
HETATM    5  C   UNL     1      -8.647  13.169  67.603  1.00  0.00    -0.193 A  
HETATM    6  C   UNL     1     -10.970  13.324  67.633  1.00  0.00    -0.262 A  
HETATM    7  C   UNL     1      -8.664  12.193  66.630  1.00  0.00    -0.153 A  
HETATM    8  N   UNL     1      -9.761  13.731  68.115  1.00  0.00    -0.222 NA 
BRANCH   4   9
HETATM    9  O   UNL     1     -12.257  12.040  65.989  1.00  0.00    -0.546 OA 
HETATM   10  C   UNL     1     -12.652  12.772  64.827  1.00  0.00    -0.446 C  
ENDBRANCH   4   9
BRANCH   6  11
HETATM   11  C   UNL     1     -12.160  13.862  68.384  1.00  0.00    -0.291 C  
BRANCH  11  12
HETATM   12  S   UNL     1     -11.799  14.054  70.153  1.00  0.00    -0.294 S  
HETATM   13  O   UNL     1     -12.869  14.856  70.836  1.00  0.00    -0.330 OA 
BRANCH  12  14
HETATM   14  C   UNL     1     -12.050  12.415  70.653  1.00  0.00    -0.225 A  
HETATM   15  N   UNL     1     -12.972  11.999  71.496  1.00  0.00    -0.369 NA 
HETATM   16  C   UNL     1     -12.871  10.624  71.480  1.00  0.00    -0.462 A  
HETATM   17  H   UNL     1     -13.619  12.568  72.041  1.00  0.00     0.000 HD 
HETATM   18  C   UNL     1     -11.848  10.207  70.636  1.00  0.00    -0.342 A  
HETATM   19  N   UNL     1     -11.328  11.372  70.138  1.00  0.00    -0.199 NA 
HETATM   20  C   UNL     1     -11.532   8.863  70.418  1.00  0.00    -0.182 A  
HETATM   21  C   UNL     1     -12.295   7.904  71.103  1.00  0.00    -0.230 A  
HETATM   22  C   UNL     1     -13.346   8.295  71.939  1.00  0.00    -0.364 A  
HETATM   23  C   UNL     1     -13.638   9.655  72.143  1.00  0.00    -0.471 A  
BRANCH  21  24
HETATM   24  O   UNL     1     -11.930   6.608  70.850  1.00  0.00    -0.371 OA 
HETATM   25  C   UNL     1     -10.972   6.055  71.739  1.00  0.00    -0.269 C  
HETATM   26  F   UNL     1     -11.613   5.587  72.838  1.00  0.00    -0.321 F  
HETATM   27  F   UNL     1     -10.423   4.979  71.120  1.00  0.00    -0.278 F  
ENDBRANCH  21  24
ENDBRANCH  12  14
ENDBRANCH  11  12
ENDBRANCH   6  11
ENDBRANCH   2   3
TORSDOF 6
ENDMDL
MODEL       54
REMARK 921   NORMALIZED FREE ENERGY PREDICTED BY IDOCK:   -5.86 KCAL/MOL
REMARK 922        TOTAL FREE ENERGY PREDICTED BY IDOCK:   -8.66 KCAL/MOL
REMARK 923 INTER-LIGAND FREE ENERGY PREDICTED BY IDOCK:   -7.59 KCAL/MOL
REMARK 924 INTRA-LIGAND FREE ENERGY PREDICTED BY IDOCK:   -1.07 KCAL/MOL
REMARK 927      BINDING AFFINITY PREDICTED BY RF-SCORE:    0.00 PKD
ROOT
HETATM    1  C   UNL     1     -12.785  12.073  63.608  1.00  0.00    -0.431 C  
HETATM    2  O   UNL     1     -12.989  12.888  64.761  1.00  0.00    -0.743 OA 
ENDROOT
BRANCH   2   3
HETATM    3  C   UNL     1     -11.844  13.409  65.314  1.00  0.00    -0.348 A  
HETATM    4  C   UNL     1     -11.112  12.855  66.385  1.00  0.00    -0.285 A  
HETATM    5  C   UNL     1     -10.289  15.204  65.236  1.00  0.00    -0.396 A  
HETATM    6  C   UNL     1      -9.903  13.466  66.736  1.00  0.00    -0.265 A  
HETATM    7  C   UNL     1     -11.438  14.613  64.755  1.00  0.00    -0.410 A  
HETATM    8  N   UNL     1      -9.518  14.658  66.199  1.00  0.00    -0.296 NA 
BRANCH   4   9
HETATM    9  O   UNL     1     -11.588  11.698  66.951  1.00  0.00    -0.507 OA 
HETATM   10  C   UNL     1     -12.149  11.826  68.259  1.00  0.00     0.002 C  
ENDBRANCH   4   9
BRANCH   6  11
HETATM   11  C   UNL     1      -8.894  12.839  67.665  1.00  0.00    -0.189 C  
BRANCH  11  12
HETATM   12  S   UNL     1      -7.919  11.561  66.823  1.00  0.00    -0.127 S  
HETATM   13  O   UNL     1      -6.592  11.365  67.499  1.00  0.00    -0.066 OA 
BRANCH  12  14
HETATM   14  C   UNL     1      -8.871  10.179  67.247  1.00  0.00    -0.132 A  
HETATM   15  N   UNL     1      -9.371   9.299  66.405  1.00  0.00    -0.176 NA 
HETATM   16  C   UNL     1      -9.930   8.324  67.204  1.00  0.00    -0.239 A  
HETATM   17  H   UNL     1      -9.350   9.331  65.387  1.00  0.00     0.000 HD 
HETATM   18  C   UNL     1      -9.791   8.639  68.551  1.00  0.00    -0.169 A  
HETATM   19  N   UNL     1      -9.130   9.838  68.548  1.00  0.00    -0.127 NA 
HETATM   20  C   UNL     1     -10.255   7.818  69.583  1.00  0.00    -0.206 A  
HETATM   21  C   UNL     1     -10.896   6.624  69.216  1.00  0.00    -0.289 A  
HETATM   22  C   UNL     1     -11.026   6.271  67.869  1.00  0.00    -0.421 A  
HETATM   23  C   UNL     1     -10.555   7.118  66.852  1.00  0.00    -0.371 A  
BRANCH  21  24
HETATM   24  O   UNL     1     -11.331   5.871  70.275  1.00  0.00    -0.322 OA 
HETATM   25  C   UNL     1     -11.834   6.601  71.382  1.00  0.00    -0.337 C  
HETATM   26  F   UNL     1     -13.136   6.905  71.153  1.00  0.00    -0.403 F  
HETATM   27  F   UNL     1     -11.812   5.769  72.456  1.00  0.00    -0.338 F  
ENDBRANCH  21  24
ENDBRANCH  12  14
ENDBRANCH  11  12
ENDBRANCH   6  11
ENDBRANCH   2   3
TORSDOF 6
ENDMDL
MODEL       55
REMARK 921   NORMALIZED FREE ENERGY PREDICTED BY IDOCK:   -5.86 KCAL/MOL
REMARK 922        TOTAL FREE ENERGY PREDICTED BY IDOCK:   -8.66 KCAL/MOL
REMARK 923 INTER-LIGAND FREE ENERGY PREDICTED BY IDOCK:   -8.44 KCAL/MOL
REMARK 924 INTRA-LIGAND FREE ENERGY PREDICTED BY IDOCK:   -0.22 KCAL/MOL
REMARK 927      BINDING AFFINITY PREDICTED BY RF-SCORE:    0.00 PKD
ROOT
HETATM    1  C   UNL     1      -8.201   8.600  64.424  1.00  0.00    -0.162 C  
HETATM    2  O   UNL     1      -9.292   9.076  65.211  1.00  0.00    -0.197 OA 
ENDROOT
BRANCH   2   3
HETATM    3  C   UNL     1      -9.660  10.376  64.967  1.00  0.00    -0.280 A  
HETATM    4  C   UNL     1      -9.783  11.399  65.931  1.00  0.00    -0.227 A  
HETATM    5  C   UNL     1     -10.331  11.928  63.298  1.00  0.00    -0.391 A  
HETATM    6  C   UNL     1     -10.056  12.696  65.479  1.00  0.00    -0.265 A  
HETATM    7  C   UNL     1      -9.966  10.644  63.640  1.00  0.00    -0.364 A  
HETATM    8  N   UNL     1     -10.375  12.950  64.178  1.00  0.00    -0.406 NA 
BRANCH   4   9
HETATM    9  O   UNL     1      -9.535  11.073  67.241  1.00  0.00    -0.163 OA 
HETATM   10  C   UNL     1      -8.293  11.535  67.777  1.00  0.00    -0.136 C  
ENDBRANCH   4   9
BRANCH   6  11
HETATM   11  C   UNL     1      -9.948  13.921  66.351  1.00  0.00    -0.297 C  
BRANCH  11  12
HETATM   12  S   UNL     1     -11.578  14.649  66.677  1.00  0.00    -0.317 S  
HETATM   13  O   UNL     1     -12.611  14.098  65.737  1.00  0.00    -0.488 OA 
BRANCH  12  14
HETATM   14  C   UNL     1     -11.896  13.910  68.210  1.00  0.00    -0.376 A  
HETATM   15  N   UNL     1     -12.286  14.535  69.302  1.00  0.00    -0.561 NA 
HETATM   16  C   UNL     1     -12.536  13.532  70.213  1.00  0.00    -0.239 A  
HETATM   17  H   UNL     1     -12.383  15.540  69.441  1.00  0.00     0.000 HD 
HETATM   18  C   UNL     1     -12.260  12.282  69.671  1.00  0.00    -0.111 A  
HETATM   19  N   UNL     1     -11.834  12.555  68.398  1.00  0.00    -0.327 NA 
HETATM   20  C   UNL     1     -12.437  11.085  70.371  1.00  0.00    -0.397 A  
HETATM   21  C   UNL     1     -12.911  11.175  71.690  1.00  0.00    -0.419 A  
HETATM   22  C   UNL     1     -13.220  12.418  72.251  1.00  0.00    -0.392 A  
HETATM   23  C   UNL     1     -13.027  13.606  71.525  1.00  0.00    -0.443 A  
BRANCH  21  24
HETATM   24  O   UNL     1     -13.055   9.968  72.320  1.00  0.00    -0.413 OA 
HETATM   25  C   UNL     1     -12.335   8.887  71.749  1.00  0.00    -0.357 C  
HETATM   26  F   UNL     1     -11.066   8.905  72.225  1.00  0.00    -0.410 F  
HETATM   27  F   UNL     1     -12.905   7.740  72.201  1.00  0.00    -0.304 F  
ENDBRANCH  21  24
ENDBRANCH  12  14
ENDBRANCH  11  12
ENDBRANCH   6  11
ENDBRANCH   2   3
TORSDOF 6
ENDMDL
MODEL       56
REMARK 921   NORMALIZED FREE ENERGY PREDICTED BY IDOCK:   -5.84 KCAL/MOL
REMARK 922        TOTAL FREE ENERGY PREDICTED BY IDOCK:   -8.63 KCAL/MOL
REMARK 923 INTER-LIGAND FREE ENERGY PREDICTED BY IDOCK:   -7.99 KCAL/MOL
REMARK 924 INTRA-LIGAND FREE ENERGY PREDICTED BY IDOCK:   -0.65 KCAL/MOL
REMARK 927      BINDING AFFINITY PREDICTED BY RF-SCORE:    0.00 PKD
ROOT
HETATM    1  C   UNL     1     -11.782  15.802  64.418  1.00  0.00    -0.201 C  
HETATM    2  O   UNL     1     -12.543  14.625  64.683  1.00  0.00    -0.573 OA 
ENDROOT
BRANCH   2   3
HETATM    3  C   UNL     1     -11.813  13.463  64.742  1.00  0.00    -0.380 A  
HETATM    4  C   UNL     1     -11.036  13.025  65.835  1.00  0.00    -0.271 A  
HETATM    5  C   UNL     1     -11.155  11.516  63.550  1.00  0.00    -0.348 A  
HETATM    6  C   UNL     1     -10.455  11.754  65.757  1.00  0.00    -0.260 A  
HETATM    7  C   UNL     1     -11.847  12.708  63.578  1.00  0.00    -0.619 A  
HETATM    8  N   UNL     1     -10.473  11.025  64.606  1.00  0.00    -0.336 NA 
BRANCH   4   9
HETATM    9  O   UNL     1     -10.978  13.835  66.942  1.00  0.00    -0.286 OA 
HETATM   10  C   UNL     1     -12.018  13.655  67.905  1.00  0.00    -0.347 C  
ENDBRANCH   4   9
BRANCH   6  11
HETATM   11  C   UNL     1      -9.833  11.050  66.937  1.00  0.00    -0.191 C  
BRANCH  11  12
HETATM   12  S   UNL     1      -9.790   9.252  66.691  1.00  0.00    -0.267 S  
HETATM   13  O   UNL     1      -8.384   8.774  66.471  1.00  0.00    -0.108 OA 
BRANCH  12  14
HETATM   14  C   UNL     1     -10.207   8.756  68.297  1.00  0.00    -0.201 A  
HETATM   15  N   UNL     1     -10.389   9.554  69.328  1.00  0.00    -0.200 NA 
HETATM   16  C   UNL     1     -10.830   8.729  70.341  1.00  0.00    -0.228 A  
HETATM   17  H   UNL     1     -10.236  10.562  69.369  1.00  0.00     0.000 HD 
HETATM   18  C   UNL     1     -10.884   7.405  69.920  1.00  0.00    -0.246 A  
HETATM   19  N   UNL     1     -10.462   7.450  68.618  1.00  0.00    -0.198 NA 
HETATM   20  C   UNL     1     -11.311   6.357  70.740  1.00  0.00    -0.411 A  
HETATM   21  C   UNL     1     -11.690   6.679  72.052  1.00  0.00    -0.313 A  
HETATM   22  C   UNL     1     -11.669   8.007  72.493  1.00  0.00    -0.446 A  
HETATM   23  C   UNL     1     -11.230   9.041  71.649  1.00  0.00    -0.431 A  
BRANCH  21  24
HETATM   24  O   UNL     1     -12.091   5.606  72.803  1.00  0.00    -0.181 OA 
HETATM   25  C   UNL     1     -11.048   4.802  73.331  1.00  0.00    -0.344 C  
HETATM   26  F   UNL     1     -10.607   5.357  74.486  1.00  0.00    -0.285 F  
HETATM   27  F   UNL     1     -11.591   3.601  73.658  1.00  0.00    -0.315 F  
ENDBRANCH  21  24
ENDBRANCH  12  14
ENDBRANCH  11  12
ENDBRANCH   6  11
ENDBRANCH   2   3
TORSDOF 6
ENDMDL
MODEL       57
REMARK 921   NORMALIZED FREE ENERGY PREDICTED BY IDOCK:   -5.83 KCAL/MOL
REMARK 922        TOTAL FREE ENERGY PREDICTED BY IDOCK:   -8.62 KCAL/MOL
REMARK 923 INTER-LIGAND FREE ENERGY PREDICTED BY IDOCK:   -7.68 KCAL/MOL
REMARK 924 INTRA-LIGAND FREE ENERGY PREDICTED BY IDOCK:   -0.94 KCAL/MOL
REMARK 927      BINDING AFFINITY PREDICTED BY RF-SCORE:    0.00 PKD
ROOT
HETATM    1  C   UNL     1      -5.844  18.359  67.055  1.00  0.00    -0.149 C  
HETATM    2  O   UNL     1      -6.757  18.653  68.111  1.00  0.00    -0.217 OA 
ENDROOT
BRANCH   2   3
HETATM    3  C   UNL     1      -7.562  17.606  68.490  1.00  0.00    -0.272 A  
HETATM    4  C   UNL     1      -8.970  17.570  68.411  1.00  0.00    -0.276 A  
HETATM    5  C   UNL     1      -7.603  15.423  69.427  1.00  0.00    -0.224 A  
HETATM    6  C   UNL     1      -9.614  16.371  68.735  1.00  0.00    -0.249 A  
HETATM    7  C   UNL     1      -6.878  16.527  69.031  1.00  0.00    -0.203 A  
HETATM    8  N   UNL     1      -8.941  15.320  69.284  1.00  0.00    -0.242 NA 
BRANCH   4   9
HETATM    9  O   UNL     1      -9.610  18.686  67.931  1.00  0.00    -0.294 OA 
HETATM   10  C   UNL     1     -10.070  19.616  68.914  1.00  0.00    -0.401 C  
ENDBRANCH   4   9
BRANCH   6  11
HETATM   11  C   UNL     1     -11.068  16.101  68.442  1.00  0.00    -0.359 C  
BRANCH  11  12
HETATM   12  S   UNL     1     -11.264  14.945  67.057  1.00  0.00    -0.333 S  
HETATM   13  O   UNL     1     -10.052  14.957  66.171  1.00  0.00    -0.268 OA 
BRANCH  12  14
HETATM   14  C   UNL     1     -11.185  13.458  67.940  1.00  0.00    -0.275 A  
HETATM   15  N   UNL     1     -10.263  12.528  67.803  1.00  0.00    -0.212 NA 
HETATM   16  C   UNL     1     -10.537  11.610  68.794  1.00  0.00    -0.212 A  
HETATM   17  H   UNL     1      -9.512  12.494  67.115  1.00  0.00     0.000 HD 
HETATM   18  C   UNL     1     -11.664  11.978  69.520  1.00  0.00    -0.342 A  
HETATM   19  N   UNL     1     -12.068  13.151  68.940  1.00  0.00    -0.264 NA 
HETATM   20  C   UNL     1     -12.161  11.235  70.595  1.00  0.00    -0.489 A  
HETATM   21  C   UNL     1     -11.477  10.058  70.934  1.00  0.00    -0.371 A  
HETATM   22  C   UNL     1     -10.326   9.677  70.236  1.00  0.00    -0.336 A  
HETATM   23  C   UNL     1      -9.852  10.441  69.156  1.00  0.00    -0.237 A  
BRANCH  21  24
HETATM   24  O   UNL     1     -12.020   9.376  71.991  1.00  0.00    -0.355 OA 
HETATM   25  C   UNL     1     -13.435   9.288  72.003  1.00  0.00    -0.451 C  
HETATM   26  F   UNL     1     -13.818   8.247  71.223  1.00  0.00    -0.349 F  
HETATM   27  F   UNL     1     -13.809   8.982  73.272  1.00  0.00    -0.301 F  
ENDBRANCH  21  24
ENDBRANCH  12  14
ENDBRANCH  11  12
ENDBRANCH   6  11
ENDBRANCH   2   3
TORSDOF 6
ENDMDL
MODEL       58
REMARK 921   NORMALIZED FREE ENERGY PREDICTED BY IDOCK:   -5.82 KCAL/MOL
REMARK 922        TOTAL FREE ENERGY PREDICTED BY IDOCK:   -8.61 KCAL/MOL
REMARK 923 INTER-LIGAND FREE ENERGY PREDICTED BY IDOCK:   -7.82 KCAL/MOL
REMARK 924 INTRA-LIGAND FREE ENERGY PREDICTED BY IDOCK:   -0.79 KCAL/MOL
REMARK 927      BINDING AFFINITY PREDICTED BY RF-SCORE:    0.00 PKD
ROOT
HETATM    1  C   UNL     1      -7.275   6.610  64.362  1.00  0.00    -0.069 C  
HETATM    2  O   UNL     1      -7.526   7.661  65.293  1.00  0.00    -0.075 OA 
ENDROOT
BRANCH   2   3
HETATM    3  C   UNL     1      -8.350   8.659  64.833  1.00  0.00    -0.164 A  
HETATM    4  C   UNL     1      -9.342   9.327  65.580  1.00  0.00    -0.244 A  
HETATM    5  C   UNL     1      -8.949   9.972  62.946  1.00  0.00    -0.262 A  
HETATM    6  C   UNL     1     -10.006  10.401  64.975  1.00  0.00    -0.330 A  
HETATM    7  C   UNL     1      -8.175   8.971  63.492  1.00  0.00    -0.178 A  
HETATM    8  N   UNL     1      -9.845  10.691  63.653  1.00  0.00    -0.326 NA 
BRANCH   4   9
HETATM    9  O   UNL     1      -9.527   8.941  66.885  1.00  0.00    -0.156 OA 
HETATM   10  C   UNL     1      -8.709   9.599  67.855  1.00  0.00    -0.119 C  
ENDBRANCH   4   9
BRANCH   6  11
HETATM   11  C   UNL     1     -10.883  11.368  65.729  1.00  0.00    -0.230 C  
BRANCH  11  12
HETATM   12  S   UNL     1     -11.465  12.712  64.657  1.00  0.00    -0.350 S  
HETATM   13  O   UNL     1     -12.925  12.982  64.879  1.00  0.00    -0.739 OA 
BRANCH  12  14
HETATM   14  C   UNL     1     -10.626  14.029  65.404  1.00  0.00    -0.341 A  
HETATM   15  N   UNL     1      -9.458  13.956  66.009  1.00  0.00    -0.498 NA 
HETATM   16  C   UNL     1      -9.139  15.259  66.321  1.00  0.00    -0.302 A  
HETATM   17  H   UNL     1      -8.910  13.118  66.203  1.00  0.00     0.000 HD 
HETATM   18  C   UNL     1     -10.148  16.130  65.926  1.00  0.00    -0.354 A  
HETATM   19  N   UNL     1     -11.093  15.315  65.362  1.00  0.00    -0.351 NA 
HETATM   20  C   UNL     1     -10.081  17.515  66.107  1.00  0.00    -0.317 A  
HETATM   21  C   UNL     1      -8.932  18.028  66.729  1.00  0.00    -0.269 A  
HETATM   22  C   UNL     1      -7.891  17.177  67.113  1.00  0.00    -0.211 A  
HETATM   23  C   UNL     1      -7.987  15.787  66.924  1.00  0.00    -0.285 A  
BRANCH  21  24
HETATM   24  O   UNL     1      -8.934  19.389  66.882  1.00  0.00    -0.287 OA 
HETATM   25  C   UNL     1     -10.127  19.946  67.411  1.00  0.00    -0.430 C  
HETATM   26  F   UNL     1     -10.088  19.864  68.764  1.00  0.00    -0.485 F  
HETATM   27  F   UNL     1     -10.126  21.268  67.100  1.00  0.00    -0.446 F  
ENDBRANCH  21  24
ENDBRANCH  12  14
ENDBRANCH  11  12
ENDBRANCH   6  11
ENDBRANCH   2   3
TORSDOF 6
ENDMDL
MODEL       59
REMARK 921   NORMALIZED FREE ENERGY PREDICTED BY IDOCK:   -5.82 KCAL/MOL
REMARK 922        TOTAL FREE ENERGY PREDICTED BY IDOCK:   -8.61 KCAL/MOL
REMARK 923 INTER-LIGAND FREE ENERGY PREDICTED BY IDOCK:   -7.84 KCAL/MOL
REMARK 924 INTRA-LIGAND FREE ENERGY PREDICTED BY IDOCK:   -0.76 KCAL/MOL
REMARK 927      BINDING AFFINITY PREDICTED BY RF-SCORE:    0.00 PKD
ROOT
HETATM    1  C   UNL     1      -6.646  18.799  65.601  1.00  0.00    -0.273 C  
HETATM    2  O   UNL     1      -7.536  17.686  65.656  1.00  0.00    -0.521 OA 
ENDROOT
BRANCH   2   3
HETATM    3  C   UNL     1      -8.682  17.894  66.384  1.00  0.00    -0.224 A  
HETATM    4  C   UNL     1      -9.604  16.904  66.784  1.00  0.00    -0.262 A  
HETATM    5  C   UNL     1     -10.049  19.529  67.434  1.00  0.00    -0.406 A  
HETATM    6  C   UNL     1     -10.655  17.289  67.624  1.00  0.00    -0.350 A  
HETATM    7  C   UNL     1      -8.928  19.225  66.692  1.00  0.00    -0.369 A  
HETATM    8  N   UNL     1     -10.904  18.599  67.908  1.00  0.00    -0.293 NA 
BRANCH   4   9
HETATM    9  O   UNL     1      -9.356  15.609  66.400  1.00  0.00    -0.248 OA 
HETATM   10  C   UNL     1     -10.190  15.094  65.360  1.00  0.00    -0.372 C  
ENDBRANCH   4   9
BRANCH   6  11
HETATM   11  C   UNL     1     -11.548  16.309  68.343  1.00  0.00    -0.154 C  
BRANCH  11  12
HETATM   12  S   UNL     1     -10.868  15.857  69.964  1.00  0.00    -0.365 S  
HETATM   13  O   UNL     1     -11.724  16.395  71.074  1.00  0.00    -0.345 OA 
BRANCH  12  14
HETATM   14  C   UNL     1     -11.180  14.154  69.915  1.00  0.00    -0.107 A  
HETATM   15  N   UNL     1     -10.544  13.275  69.170  1.00  0.00    -0.432 NA 
HETATM   16  C   UNL     1     -11.041  12.052  69.564  1.00  0.00    -0.073 A  
HETATM   17  H   UNL     1      -9.838  13.459  68.457  1.00  0.00     0.000 HD 
HETATM   18  C   UNL     1     -12.018  12.200  70.542  1.00  0.00    -0.216 A  
HETATM   19  N   UNL     1     -12.100  13.553  70.732  1.00  0.00    -0.322 NA 
HETATM   20  C   UNL     1     -12.681  11.121  71.133  1.00  0.00    -0.510 A  
HETATM   21  C   UNL     1     -12.334   9.833  70.695  1.00  0.00    -0.168 A  
HETATM   22  C   UNL     1     -11.337   9.655  69.731  1.00  0.00    -0.159 A  
HETATM   23  C   UNL     1     -10.689  10.758  69.149  1.00  0.00    -0.265 A  
BRANCH  21  24
HETATM   24  O   UNL     1     -13.026   8.823  71.310  1.00  0.00    -0.290 OA 
HETATM   25  C   UNL     1     -12.237   7.766  71.831  1.00  0.00    -0.306 C  
HETATM   26  F   UNL     1     -11.791   8.117  73.063  1.00  0.00    -0.450 F  
HETATM   27  F   UNL     1     -13.058   6.698  72.003  1.00  0.00    -0.365 F  
ENDBRANCH  21  24
ENDBRANCH  12  14
ENDBRANCH  11  12
ENDBRANCH   6  11
ENDBRANCH   2   3
TORSDOF 6
ENDMDL
MODEL       60
REMARK 921   NORMALIZED FREE ENERGY PREDICTED BY IDOCK:   -5.80 KCAL/MOL
REMARK 922        TOTAL FREE ENERGY PREDICTED BY IDOCK:   -8.59 KCAL/MOL
REMARK 923 INTER-LIGAND FREE ENERGY PREDICTED BY IDOCK:   -7.83 KCAL/MOL
REMARK 924 INTRA-LIGAND FREE ENERGY PREDICTED BY IDOCK:   -0.76 KCAL/MOL
REMARK 927      BINDING AFFINITY PREDICTED BY RF-SCORE:    0.00 PKD
ROOT
HETATM    1  C   UNL     1      -7.675   7.775  65.690  1.00  0.00    -0.101 C  
HETATM    2  O   UNL     1      -7.664   9.113  66.184  1.00  0.00    -0.094 OA 
ENDROOT
BRANCH   2   3
HETATM    3  C   UNL     1      -8.511   9.978  65.536  1.00  0.00    -0.147 A  
HETATM    4  C   UNL     1      -9.321  10.959  66.144  1.00  0.00    -0.186 A  
HETATM    5  C   UNL     1      -9.380  10.633  63.423  1.00  0.00    -0.297 A  
HETATM    6  C   UNL     1     -10.033  11.830  65.310  1.00  0.00    -0.253 A  
HETATM    7  C   UNL     1      -8.566   9.799  64.160  1.00  0.00    -0.207 A  
HETATM    8  N   UNL     1     -10.100  11.638  63.963  1.00  0.00    -0.295 NA 
BRANCH   4   9
HETATM    9  O   UNL     1      -9.285  11.057  67.513  1.00  0.00    -0.144 OA 
HETATM   10  C   UNL     1      -8.232  11.857  68.056  1.00  0.00    -0.157 C  
ENDBRANCH   4   9
BRANCH   6  11
HETATM   11  C   UNL     1     -10.716  13.081  65.802  1.00  0.00    -0.274 C  
BRANCH  11  12
HETATM   12  S   UNL     1     -11.121  14.199  64.432  1.00  0.00    -0.156 S  
HETATM   13  O   UNL     1     -12.608  14.314  64.254  1.00  0.00    -0.678 OA 
BRANCH  12  14
HETATM   14  C   UNL     1     -10.619  15.692  65.151  1.00  0.00    -0.424 A  
HETATM   15  N   UNL     1     -11.052  16.891  64.823  1.00  0.00    -0.855 NA 
HETATM   16  C   UNL     1     -10.476  17.740  65.744  1.00  0.00    -0.198 A  
HETATM   17  H   UNL     1     -11.677  17.138  64.056  1.00  0.00     0.000 HD 
HETATM   18  C   UNL     1      -9.656  17.043  66.623  1.00  0.00    -0.266 A  
HETATM   19  N   UNL     1      -9.750  15.741  66.208  1.00  0.00    -0.277 NA 
HETATM   20  C   UNL     1      -8.957  17.654  67.668  1.00  0.00    -0.240 A  
HETATM   21  C   UNL     1      -9.100  19.043  67.813  1.00  0.00    -0.292 A  
HETATM   22  C   UNL     1      -9.939  19.764  66.958  1.00  0.00    -0.532 A  
HETATM   23  C   UNL     1     -10.626  19.125  65.912  1.00  0.00    -0.495 A  
BRANCH  21  24
HETATM   24  O   UNL     1      -8.384  19.577  68.851  1.00  0.00    -0.360 OA 
HETATM   25  C   UNL     1      -6.989  19.322  68.831  1.00  0.00    -0.338 C  
HETATM   26  F   UNL     1      -6.386  20.238  68.034  1.00  0.00    -0.255 F  
HETATM   27  F   UNL     1      -6.523  19.533  70.089  1.00  0.00    -0.306 F  
ENDBRANCH  21  24
ENDBRANCH  12  14
ENDBRANCH  11  12
ENDBRANCH   6  11
ENDBRANCH   2   3
TORSDOF 6
ENDMDL
MODEL       61
REMARK 921   NORMALIZED FREE ENERGY PREDICTED BY IDOCK:   -5.80 KCAL/MOL
REMARK 922        TOTAL FREE ENERGY PREDICTED BY IDOCK:   -8.58 KCAL/MOL
REMARK 923 INTER-LIGAND FREE ENERGY PREDICTED BY IDOCK:   -7.71 KCAL/MOL
REMARK 924 INTRA-LIGAND FREE ENERGY PREDICTED BY IDOCK:   -0.87 KCAL/MOL
REMARK 927      BINDING AFFINITY PREDICTED BY RF-SCORE:    0.00 PKD
ROOT
HETATM    1  C   UNL     1     -11.569   5.468  72.585  1.00  0.00    -0.232 C  
HETATM    2  O   UNL     1     -10.179   5.346  72.288  1.00  0.00    -0.184 OA 
ENDROOT
BRANCH   2   3
HETATM    3  C   UNL     1      -9.816   5.760  71.030  1.00  0.00    -0.178 A  
HETATM    4  C   UNL     1      -9.738   7.097  70.585  1.00  0.00    -0.175 A  
HETATM    5  C   UNL     1      -9.163   5.047  68.859  1.00  0.00    -0.115 A  
HETATM    6  C   UNL     1      -9.234   7.332  69.301  1.00  0.00    -0.144 A  
HETATM    7  C   UNL     1      -9.550   4.726  70.143  1.00  0.00    -0.265 A  
HETATM    8  N   UNL     1      -8.993   6.314  68.427  1.00  0.00    -0.117 NA 
BRANCH   4   9
HETATM    9  O   UNL     1     -10.073   8.086  71.477  1.00  0.00    -0.173 OA 
HETATM   10  C   UNL     1      -9.058   8.457  72.411  1.00  0.00    -0.256 C  
ENDBRANCH   4   9
BRANCH   6  11
HETATM   11  C   UNL     1      -8.842   8.698  68.797  1.00  0.00    -0.139 C  
BRANCH  11  12
HETATM   12  S   UNL     1     -10.062   9.347  67.620  1.00  0.00    -0.226 S  
HETATM   13  O   UNL     1     -10.979   8.258  67.142  1.00  0.00    -0.142 OA 
BRANCH  12  14
HETATM   14  C   UNL     1     -11.002  10.304  68.715  1.00  0.00    -0.243 A  
HETATM   15  N   UNL     1     -11.668   9.853  69.758  1.00  0.00    -0.450 NA 
HETATM   16  C   UNL     1     -12.142  10.983  70.389  1.00  0.00    -0.373 A  
HETATM   17  H   UNL     1     -11.802   8.882  70.037  1.00  0.00     0.000 HD 
HETATM   18  C   UNL     1     -11.783  12.133  69.696  1.00  0.00    -0.325 A  
HETATM   19  N   UNL     1     -11.074  11.668  68.621  1.00  0.00    -0.216 NA 
HETATM   20  C   UNL     1     -12.120  13.422  70.120  1.00  0.00    -0.415 A  
HETATM   21  C   UNL     1     -12.867  13.535  71.303  1.00  0.00    -0.338 A  
HETATM   22  C   UNL     1     -13.220  12.396  72.034  1.00  0.00    -0.514 A  
HETATM   23  C   UNL     1     -12.871  11.112  71.581  1.00  0.00    -0.524 A  
BRANCH  21  24
HETATM   24  O   UNL     1     -13.169  14.823  71.657  1.00  0.00    -0.311 OA 
HETATM   25  C   UNL     1     -13.006  15.137  73.031  1.00  0.00    -0.493 C  
HETATM   26  F   UNL     1     -11.707  15.452  73.259  1.00  0.00    -0.508 F  
HETATM   27  F   UNL     1     -13.728  16.261  73.275  1.00  0.00    -0.651 F  
ENDBRANCH  21  24
ENDBRANCH  12  14
ENDBRANCH  11  12
ENDBRANCH   6  11
ENDBRANCH   2   3
TORSDOF 6
ENDMDL
MODEL       62
REMARK 921   NORMALIZED FREE ENERGY PREDICTED BY IDOCK:   -5.76 KCAL/MOL
REMARK 922        TOTAL FREE ENERGY PREDICTED BY IDOCK:   -8.53 KCAL/MOL
REMARK 923 INTER-LIGAND FREE ENERGY PREDICTED BY IDOCK:   -7.83 KCAL/MOL
REMARK 924 INTRA-LIGAND FREE ENERGY PREDICTED BY IDOCK:   -0.69 KCAL/MOL
REMARK 927      BINDING AFFINITY PREDICTED BY RF-SCORE:    0.00 PKD
ROOT
HETATM    1  C   UNL     1      -7.267  18.486  68.442  1.00  0.00    -0.276 C  
HETATM    2  O   UNL     1      -7.098  17.884  67.160  1.00  0.00    -0.178 OA 
ENDROOT
BRANCH   2   3
HETATM    3  C   UNL     1      -7.743  16.683  66.993  1.00  0.00    -0.200 A  
HETATM    4  C   UNL     1      -8.945  16.478  66.283  1.00  0.00    -0.324 A  
HETATM    5  C   UNL     1      -7.705  14.365  67.511  1.00  0.00    -0.192 A  
HETATM    6  C   UNL     1      -9.393  15.162  66.119  1.00  0.00    -0.311 A  
HETATM    7  C   UNL     1      -7.135  15.614  67.636  1.00  0.00    -0.192 A  
HETATM    8  N   UNL     1      -8.804  14.118  66.769  1.00  0.00    -0.207 NA 
BRANCH   4   9
HETATM    9  O   UNL     1      -9.547  17.575  65.718  1.00  0.00    -0.523 OA 
HETATM   10  C   UNL     1     -10.407  18.329  66.576  1.00  0.00    -0.392 C  
ENDBRANCH   4   9
BRANCH   6  11
HETATM   11  C   UNL     1     -10.496  14.770  65.169  1.00  0.00    -0.418 C  
BRANCH  11  12
HETATM   12  S   UNL     1     -11.957  14.165  66.059  1.00  0.00    -0.419 S  
HETATM   13  O   UNL     1     -13.154  14.116  65.156  1.00  0.00    -0.757 OA 
BRANCH  12  14
HETATM   14  C   UNL     1     -11.468  12.518  66.280  1.00  0.00    -0.370 A  
HETATM   15  N   UNL     1     -10.795  11.791  65.413  1.00  0.00    -0.290 NA 
HETATM   16  C   UNL     1     -10.528  10.611  66.073  1.00  0.00    -0.183 A  
HETATM   17  H   UNL     1     -10.530  12.045  64.462  1.00  0.00     0.000 HD 
HETATM   18  C   UNL     1     -11.079  10.616  67.350  1.00  0.00    -0.272 A  
HETATM   19  N   UNL     1     -11.690  11.837  67.447  1.00  0.00    -0.588 NA 
HETATM   20  C   UNL     1     -10.949   9.550  68.245  1.00  0.00    -0.131 A  
HETATM   21  C   UNL     1     -10.230   8.426  67.809  1.00  0.00    -0.224 A  
HETATM   22  C   UNL     1      -9.644   8.406  66.539  1.00  0.00    -0.304 A  
HETATM   23  C   UNL     1      -9.796   9.489  65.657  1.00  0.00    -0.343 A  
BRANCH  21  24
HETATM   24  O   UNL     1     -10.146   7.418  68.732  1.00  0.00    -0.169 OA 
HETATM   25  C   UNL     1     -10.189   6.100  68.208  1.00  0.00    -0.175 C  
HETATM   26  F   UNL     1      -8.943   5.745  67.810  1.00  0.00    -0.112 F  
HETATM   27  F   UNL     1     -10.523   5.271  69.230  1.00  0.00    -0.285 F  
ENDBRANCH  21  24
ENDBRANCH  12  14
ENDBRANCH  11  12
ENDBRANCH   6  11
ENDBRANCH   2   3
TORSDOF 6
ENDMDL
MODEL       63
REMARK 921   NORMALIZED FREE ENERGY PREDICTED BY IDOCK:   -5.75 KCAL/MOL
REMARK 922        TOTAL FREE ENERGY PREDICTED BY IDOCK:   -8.52 KCAL/MOL
REMARK 923 INTER-LIGAND FREE ENERGY PREDICTED BY IDOCK:   -7.69 KCAL/MOL
REMARK 924 INTRA-LIGAND FREE ENERGY PREDICTED BY IDOCK:   -0.82 KCAL/MOL
REMARK 927      BINDING AFFINITY PREDICTED BY RF-SCORE:    0.00 PKD
ROOT
HETATM    1  C   UNL     1      -9.601   7.643  73.583  1.00  0.00    -0.275 C  
HETATM    2  O   UNL     1     -10.855   7.369  72.960  1.00  0.00    -0.313 OA 
ENDROOT
BRANCH   2   3
HETATM    3  C   UNL     1     -10.771   6.759  71.732  1.00  0.00    -0.224 A  
HETATM    4  C   UNL     1     -11.071   7.352  70.488  1.00  0.00    -0.261 A  
HETATM    5  C   UNL     1     -10.263   4.735  70.595  1.00  0.00    -0.180 A  
HETATM    6  C   UNL     1     -10.814   6.610  69.329  1.00  0.00    -0.289 A  
HETATM    7  C   UNL     1     -10.389   5.425  71.782  1.00  0.00    -0.271 A  
HETATM    8  N   UNL     1     -10.458   5.295  69.383  1.00  0.00    -0.250 NA 
BRANCH   4   9
HETATM    9  O   UNL     1     -11.509   8.653  70.491  1.00  0.00    -0.260 OA 
HETATM   10  C   UNL     1     -10.492   9.657  70.508  1.00  0.00    -0.303 C  
ENDBRANCH   4   9
BRANCH   6  11
HETATM   11  C   UNL     1     -10.828   7.201  67.942  1.00  0.00    -0.150 C  
BRANCH  11  12
HETATM   12  S   UNL     1      -9.148   7.381  67.279  1.00  0.00    -0.126 S  
HETATM   13  O   UNL     1      -8.836   6.284  66.303  1.00  0.00    -0.139 OA 
BRANCH  12  14
HETATM   14  C   UNL     1      -9.393   8.804  66.323  1.00  0.00    -0.222 A  
HETATM   15  N   UNL     1      -9.375   8.862  65.008  1.00  0.00    -0.430 NA 
HETATM   16  C   UNL     1      -9.745  10.155  64.706  1.00  0.00    -0.322 A  
HETATM   17  H   UNL     1      -9.139   8.115  64.356  1.00  0.00     0.000 HD 
HETATM   18  C   UNL     1      -9.959  10.898  65.862  1.00  0.00    -0.243 A  
HETATM   19  N   UNL     1      -9.707  10.016  66.879  1.00  0.00    -0.181 NA 
HETATM   20  C   UNL     1     -10.358  12.238  65.851  1.00  0.00    -0.280 A  
HETATM   21  C   UNL     1     -10.538  12.845  64.598  1.00  0.00    -0.363 A  
HETATM   22  C   UNL     1     -10.354  12.114  63.420  1.00  0.00    -0.438 A  
HETATM   23  C   UNL     1      -9.947  10.769  63.461  1.00  0.00    -0.403 A  
BRANCH  21  24
HETATM   24  O   UNL     1     -10.922  14.158  64.659  1.00  0.00    -0.391 OA 
HETATM   25  C   UNL     1     -12.264  14.424  64.284  1.00  0.00    -0.423 C  
HETATM   26  F   UNL     1     -13.070  14.210  65.353  1.00  0.00    -0.527 F  
HETATM   27  F   UNL     1     -12.346  15.748  63.992  1.00  0.00    -0.429 F  
ENDBRANCH  21  24
ENDBRANCH  12  14
ENDBRANCH  11  12
ENDBRANCH   6  11
ENDBRANCH   2   3
TORSDOF 6
ENDMDL
MODEL       64
REMARK 921   NORMALIZED FREE ENERGY PREDICTED BY IDOCK:   -5.74 KCAL/MOL
REMARK 922        TOTAL FREE ENERGY PREDICTED BY IDOCK:   -8.51 KCAL/MOL
REMARK 923 INTER-LIGAND FREE ENERGY PREDICTED BY IDOCK:   -7.68 KCAL/MOL
REMARK 924 INTRA-LIGAND FREE ENERGY PREDICTED BY IDOCK:   -0.82 KCAL/MOL
REMARK 927      BINDING AFFINITY PREDICTED BY RF-SCORE:    0.00 PKD
ROOT
HETATM    1  C   UNL     1      -8.049  19.529  68.615  1.00  0.00    -0.340 C  
HETATM    2  O   UNL     1      -8.948  18.422  68.647  1.00  0.00    -0.317 OA 
ENDROOT
BRANCH   2   3
HETATM    3  C   UNL     1      -9.515  18.098  67.439  1.00  0.00    -0.255 A  
HETATM    4  C   UNL     1      -9.342  16.887  66.738  1.00  0.00    -0.251 A  
HETATM    5  C   UNL     1     -10.908  18.869  65.675  1.00  0.00    -0.051 A  
HETATM    6  C   UNL     1     -10.095  16.690  65.574  1.00  0.00    -0.134 A  
HETATM    7  C   UNL     1     -10.286  19.109  66.882  1.00  0.00    -0.504 A  
HETATM    8  N   UNL     1     -10.835  17.692  65.021  1.00  0.00    -0.733 NA 
BRANCH   4   9
HETATM    9  O   UNL     1      -8.517  15.940  67.294  1.00  0.00    -0.165 OA 
HETATM   10  C   UNL     1      -7.127  16.062  66.986  1.00  0.00    -0.198 C  
ENDBRANCH   4   9
BRANCH   6  11
HETATM   11  C   UNL     1     -10.219  15.358  64.879  1.00  0.00    -0.127 C  
BRANCH  11  12
HETATM   12  S   UNL     1     -11.798  14.551  65.265  1.00  0.00    -0.339 S  
HETATM   13  O   UNL     1     -12.686  14.501  64.056  1.00  0.00    -0.759 OA 
BRANCH  12  14
HETATM   14  C   UNL     1     -11.220  12.934  65.489  1.00  0.00    -0.288 A  
HETATM   15  N   UNL     1     -10.227  12.371  64.832  1.00  0.00    -0.300 NA 
HETATM   16  C   UNL     1     -10.051  11.146  65.438  1.00  0.00    -0.264 A  
HETATM   17  H   UNL     1      -9.704  12.758  64.046  1.00  0.00     0.000 HD 
HETATM   18  C   UNL     1     -10.975  10.954  66.458  1.00  0.00    -0.121 A  
HETATM   19  N   UNL     1     -11.721  12.103  66.455  1.00  0.00    -0.564 NA 
HETATM   20  C   UNL     1     -11.016   9.803  67.251  1.00  0.00    -0.142 A  
HETATM   21  C   UNL     1     -10.071   8.801  66.978  1.00  0.00    -0.265 A  
HETATM   22  C   UNL     1      -9.114   8.979  65.974  1.00  0.00    -0.257 A  
HETATM   23  C   UNL     1      -9.100  10.145  65.189  1.00  0.00    -0.242 A  
BRANCH  21  24
HETATM   24  O   UNL     1     -10.171   7.699  67.786  1.00  0.00    -0.177 OA 
HETATM   25  C   UNL     1     -11.261   6.833  67.513  1.00  0.00    -0.167 C  
HETATM   26  F   UNL     1     -10.909   5.985  66.515  1.00  0.00    -0.321 F  
HETATM   27  F   UNL     1     -11.459   6.073  68.620  1.00  0.00    -0.399 F  
ENDBRANCH  21  24
ENDBRANCH  12  14
ENDBRANCH  11  12
ENDBRANCH   6  11
ENDBRANCH   2   3
TORSDOF 6
ENDMDL
MODEL       65
REMARK 921   NORMALIZED FREE ENERGY PREDICTED BY IDOCK:   -5.73 KCAL/MOL
REMARK 922        TOTAL FREE ENERGY PREDICTED BY IDOCK:   -8.49 KCAL/MOL
REMARK 923 INTER-LIGAND FREE ENERGY PREDICTED BY IDOCK:   -7.83 KCAL/MOL
REMARK 924 INTRA-LIGAND FREE ENERGY PREDICTED BY IDOCK:   -0.66 KCAL/MOL
REMARK 927      BINDING AFFINITY PREDICTED BY RF-SCORE:    0.00 PKD
ROOT
HETATM    1  C   UNL     1     -10.479  19.081  65.959  1.00  0.00    -0.458 C  
HETATM    2  O   UNL     1     -10.738  17.695  65.746  1.00  0.00    -0.408 OA 
ENDROOT
BRANCH   2   3
HETATM    3  C   UNL     1     -10.510  16.888  66.834  1.00  0.00    -0.271 A  
HETATM    4  C   UNL     1     -10.734  15.497  66.898  1.00  0.00    -0.317 A  
HETATM    5  C   UNL     1      -9.784  16.831  69.096  1.00  0.00    -0.204 A  
HETATM    6  C   UNL     1     -10.331  14.821  68.056  1.00  0.00    -0.237 A  
HETATM    7  C   UNL     1     -10.055  17.562  67.959  1.00  0.00    -0.332 A  
HETATM    8  N   UNL     1      -9.904  15.489  69.165  1.00  0.00    -0.229 NA 
BRANCH   4   9
HETATM    9  O   UNL     1     -11.248  14.882  65.783  1.00  0.00    -0.335 OA 
HETATM   10  C   UNL     1     -10.291  14.395  64.840  1.00  0.00    -0.389 C  
ENDBRANCH   4   9
BRANCH   6  11
HETATM   11  C   UNL     1     -10.258  13.319  68.160  1.00  0.00    -0.243 C  
BRANCH  11  12
HETATM   12  S   UNL     1     -11.908  12.567  68.092  1.00  0.00    -0.243 S  
HETATM   13  O   UNL     1     -12.088  11.780  66.826  1.00  0.00    -0.547 OA 
BRANCH  12  14
HETATM   14  C   UNL     1     -11.716  11.393  69.350  1.00  0.00    -0.338 A  
HETATM   15  N   UNL     1     -12.690  10.816  70.022  1.00  0.00    -0.404 NA 
HETATM   16  C   UNL     1     -12.066   9.874  70.811  1.00  0.00    -0.308 A  
HETATM   17  H   UNL     1     -13.688  11.022  69.971  1.00  0.00     0.000 HD 
HETATM   18  C   UNL     1     -10.688   9.906  70.634  1.00  0.00    -0.303 A  
HETATM   19  N   UNL     1     -10.491  10.898  69.711  1.00  0.00    -0.099 NA 
HETATM   20  C   UNL     1      -9.808   9.047  71.299  1.00  0.00    -0.376 A  
HETATM   21  C   UNL     1     -10.367   8.120  72.193  1.00  0.00    -0.274 A  
HETATM   22  C   UNL     1     -11.752   8.050  72.371  1.00  0.00    -0.444 A  
HETATM   23  C   UNL     1     -12.613   8.929  71.692  1.00  0.00    -0.403 A  
BRANCH  21  24
HETATM   24  O   UNL     1      -9.450   7.315  72.816  1.00  0.00    -0.141 OA 
HETATM   25  C   UNL     1      -8.193   7.913  73.090  1.00  0.00    -0.168 C  
HETATM   26  F   UNL     1      -8.278   8.601  74.255  1.00  0.00    -0.285 F  
HETATM   27  F   UNL     1      -7.305   6.907  73.295  1.00  0.00    -0.075 F  
ENDBRANCH  21  24
ENDBRANCH  12  14
ENDBRANCH  11  12
ENDBRANCH   6  11
ENDBRANCH   2   3
TORSDOF 6
ENDMDL
MODEL       66
REMARK 921   NORMALIZED FREE ENERGY PREDICTED BY IDOCK:   -5.73 KCAL/MOL
REMARK 922        TOTAL FREE ENERGY PREDICTED BY IDOCK:   -8.49 KCAL/MOL
REMARK 923 INTER-LIGAND FREE ENERGY PREDICTED BY IDOCK:   -7.74 KCAL/MOL
REMARK 924 INTRA-LIGAND FREE ENERGY PREDICTED BY IDOCK:   -0.75 KCAL/MOL
REMARK 927      BINDING AFFINITY PREDICTED BY RF-SCORE:    0.00 PKD
ROOT
HETATM    1  C   UNL     1     -10.005   3.890  72.156  1.00  0.00    -0.173 C  
HETATM    2  O   UNL     1      -9.562   5.221  72.413  1.00  0.00    -0.149 OA 
ENDROOT
BRANCH   2   3
HETATM    3  C   UNL     1     -10.512   6.195  72.226  1.00  0.00    -0.198 A  
HETATM    4  C   UNL     1     -10.269   7.577  72.080  1.00  0.00    -0.196 A  
HETATM    5  C   UNL     1     -12.840   6.630  72.033  1.00  0.00    -0.111 A  
HETATM    6  C   UNL     1     -11.356   8.406  71.780  1.00  0.00    -0.300 A  
HETATM    7  C   UNL     1     -11.819   5.726  72.229  1.00  0.00    -0.215 A  
HETATM    8  N   UNL     1     -12.638   7.944  71.803  1.00  0.00    -0.320 NA 
BRANCH   4   9
HETATM    9  O   UNL     1      -8.966   8.005  72.150  1.00  0.00    -0.133 OA 
HETATM   10  C   UNL     1      -8.443   8.208  73.465  1.00  0.00    -0.246 C  
ENDBRANCH   4   9
BRANCH   6  11
HETATM   11  C   UNL     1     -11.211   9.839  71.334  1.00  0.00    -0.298 C  
BRANCH  11  12
HETATM   12  S   UNL     1     -12.825  10.593  70.987  1.00  0.00    -0.393 S  
HETATM   13  O   UNL     1     -13.211  11.557  72.071  1.00  0.00    -0.509 OA 
BRANCH  12  14
HETATM   14  C   UNL     1     -12.373  11.569  69.630  1.00  0.00    -0.142 A  
HETATM   15  N   UNL     1     -12.257  12.881  69.628  1.00  0.00    -0.201 NA 
HETATM   16  C   UNL     1     -11.756  13.190  68.382  1.00  0.00    -0.351 A  
HETATM   17  H   UNL     1     -12.488  13.526  70.383  1.00  0.00     0.000 HD 
HETATM   18  C   UNL     1     -11.598  12.046  67.608  1.00  0.00    -0.321 A  
HETATM   19  N   UNL     1     -12.019  11.029  68.423  1.00  0.00    -0.581 NA 
HETATM   20  C   UNL     1     -11.092  12.065  66.305  1.00  0.00    -0.363 A  
HETATM   21  C   UNL     1     -10.742  13.314  65.768  1.00  0.00    -0.277 A  
HETATM   22  C   UNL     1     -10.867  14.477  66.534  1.00  0.00    -0.314 A  
HETATM   23  C   UNL     1     -11.384  14.429  67.840  1.00  0.00    -0.322 A  
BRANCH  21  24
HETATM   24  O   UNL     1     -10.261  13.261  64.487  1.00  0.00    -0.382 OA 
HETATM   25  C   UNL     1     -10.749  12.194  63.690  1.00  0.00    -0.467 C  
HETATM   26  F   UNL     1     -11.941  12.555  63.155  1.00  0.00    -0.522 F  
HETATM   27  F   UNL     1      -9.886  12.038  62.653  1.00  0.00    -0.262 F  
ENDBRANCH  21  24
ENDBRANCH  12  14
ENDBRANCH  11  12
ENDBRANCH   6  11
ENDBRANCH   2   3
TORSDOF 6
ENDMDL
MODEL       67
REMARK 921   NORMALIZED FREE ENERGY PREDICTED BY IDOCK:   -5.69 KCAL/MOL
REMARK 922        TOTAL FREE ENERGY PREDICTED BY IDOCK:   -8.44 KCAL/MOL
REMARK 923 INTER-LIGAND FREE ENERGY PREDICTED BY IDOCK:   -7.55 KCAL/MOL
REMARK 924 INTRA-LIGAND FREE ENERGY PREDICTED BY IDOCK:   -0.89 KCAL/MOL
REMARK 927      BINDING AFFINITY PREDICTED BY RF-SCORE:    0.00 PKD
ROOT
HETATM    1  C   UNL     1      -7.631   8.264  65.104  1.00  0.00    -0.093 C  
HETATM    2  O   UNL     1      -8.986   8.644  65.339  1.00  0.00    -0.189 OA 
ENDROOT
BRANCH   2   3
HETATM    3  C   UNL     1      -9.330   9.887  64.865  1.00  0.00    -0.268 A  
HETATM    4  C   UNL     1      -9.727  10.992  65.646  1.00  0.00    -0.232 A  
HETATM    5  C   UNL     1      -9.622  11.214  62.916  1.00  0.00    -0.348 A  
HETATM    6  C   UNL     1      -9.927  12.216  64.995  1.00  0.00    -0.220 A  
HETATM    7  C   UNL     1      -9.305   9.997  63.482  1.00  0.00    -0.301 A  
HETATM    8  N   UNL     1      -9.921  12.315  63.636  1.00  0.00    -0.344 NA 
BRANCH   4   9
HETATM    9  O   UNL     1      -9.802  10.819  67.006  1.00  0.00    -0.179 OA 
HETATM   10  C   UNL     1      -8.590  11.035  67.732  1.00  0.00    -0.130 C  
ENDBRANCH   4   9
BRANCH   6  11
HETATM   11  C   UNL     1     -10.086  13.528  65.721  1.00  0.00    -0.287 C  
BRANCH  11  12
HETATM   12  S   UNL     1     -11.822  14.054  65.769  1.00  0.00    -0.402 S  
HETATM   13  O   UNL     1     -12.682  13.146  64.938  1.00  0.00    -0.639 OA 
BRANCH  12  14
HETATM   14  C   UNL     1     -12.174  13.654  67.417  1.00  0.00    -0.244 A  
HETATM   15  N   UNL     1     -12.098  12.453  67.952  1.00  0.00    -0.404 NA 
HETATM   16  C   UNL     1     -12.337  12.650  69.295  1.00  0.00     0.132 A  
HETATM   17  H   UNL     1     -11.904  11.572  67.477  1.00  0.00     0.000 HD 
HETATM   18  C   UNL     1     -12.593  13.988  69.568  1.00  0.00     0.049 A  
HETATM   19  N   UNL     1     -12.503  14.603  68.348  1.00  0.00     0.075 NA 
HETATM   20  C   UNL     1     -12.855  14.473  70.853  1.00  0.00    -0.425 A  
HETATM   21  C   UNL     1     -12.862  13.542  71.903  1.00  0.00    -0.272 A  
HETATM   22  C   UNL     1     -12.582  12.193  71.660  1.00  0.00    -0.204 A  
HETATM   23  C   UNL     1     -12.328  11.733  70.357  1.00  0.00    -0.362 A  
BRANCH  21  24
HETATM   24  O   UNL     1     -13.131  14.082  73.133  1.00  0.00    -0.525 OA 
HETATM   25  C   UNL     1     -13.166  15.499  73.188  1.00  0.00    -0.549 C  
HETATM   26  F   UNL     1     -14.397  15.923  72.808  1.00  0.00    -0.663 F  
HETATM   27  F   UNL     1     -13.015  15.856  74.489  1.00  0.00    -0.525 F  
ENDBRANCH  21  24
ENDBRANCH  12  14
ENDBRANCH  11  12
ENDBRANCH   6  11
ENDBRANCH   2   3
TORSDOF 6
ENDMDL
MODEL       68
REMARK 921   NORMALIZED FREE ENERGY PREDICTED BY IDOCK:   -5.66 KCAL/MOL
REMARK 922        TOTAL FREE ENERGY PREDICTED BY IDOCK:   -8.39 KCAL/MOL
REMARK 923 INTER-LIGAND FREE ENERGY PREDICTED BY IDOCK:   -7.80 KCAL/MOL
REMARK 924 INTRA-LIGAND FREE ENERGY PREDICTED BY IDOCK:   -0.60 KCAL/MOL
REMARK 927      BINDING AFFINITY PREDICTED BY RF-SCORE:    0.00 PKD
ROOT
HETATM    1  C   UNL     1     -14.340   7.178  71.738  1.00  0.00    -0.354 C  
HETATM    2  O   UNL     1     -12.945   7.446  71.872  1.00  0.00    -0.314 OA 
ENDROOT
BRANCH   2   3
HETATM    3  C   UNL     1     -12.555   8.701  71.475  1.00  0.00    -0.322 A  
HETATM    4  C   UNL     1     -11.351   9.028  70.817  1.00  0.00    -0.277 A  
HETATM    5  C   UNL     1     -13.145  11.003  71.443  1.00  0.00    -0.341 A  
HETATM    6  C   UNL     1     -11.178  10.348  70.384  1.00  0.00    -0.321 A  
HETATM    7  C   UNL     1     -13.447   9.710  71.814  1.00  0.00    -0.477 A  
HETATM    8  N   UNL     1     -12.046  11.338  70.737  1.00  0.00    -0.364 NA 
BRANCH   4   9
HETATM    9  O   UNL     1     -10.468   8.008  70.560  1.00  0.00    -0.208 OA 
HETATM   10  C   UNL     1     -10.695   7.271  69.358  1.00  0.00    -0.225 C  
ENDBRANCH   4   9
BRANCH   6  11
HETATM   11  C   UNL     1     -10.082  10.778  69.443  1.00  0.00    -0.139 C  
BRANCH  11  12
HETATM   12  S   UNL     1     -10.739  11.201  67.805  1.00  0.00    -0.241 S  
HETATM   13  O   UNL     1     -12.238  11.119  67.791  1.00  0.00    -0.432 OA 
BRANCH  12  14
HETATM   14  C   UNL     1     -10.362  12.891  67.797  1.00  0.00    -0.222 A  
HETATM   15  N   UNL     1      -9.964  13.597  68.834  1.00  0.00    -0.422 NA 
HETATM   16  C   UNL     1      -9.663  14.840  68.321  1.00  0.00    -0.218 A  
HETATM   17  H   UNL     1      -9.894  13.292  69.804  1.00  0.00     0.000 HD 
HETATM   18  C   UNL     1      -9.915  14.892  66.954  1.00  0.00    -0.242 A  
HETATM   19  N   UNL     1     -10.379  13.640  66.651  1.00  0.00    -0.271 NA 
HETATM   20  C   UNL     1      -9.684  16.029  66.174  1.00  0.00    -0.353 A  
HETATM   21  C   UNL     1      -9.182  17.166  66.827  1.00  0.00    -0.254 A  
HETATM   22  C   UNL     1      -8.896  17.133  68.195  1.00  0.00    -0.237 A  
HETATM   23  C   UNL     1      -9.142  15.978  68.956  1.00  0.00    -0.242 A  
BRANCH  21  24
HETATM   24  O   UNL     1      -8.986  18.246  66.006  1.00  0.00    -0.500 OA 
HETATM   25  C   UNL     1      -7.852  19.045  66.302  1.00  0.00    -0.287 C  
HETATM   26  F   UNL     1      -6.760  18.491  65.719  1.00  0.00    -0.242 F  
HETATM   27  F   UNL     1      -8.042  20.250  65.706  1.00  0.00    -0.295 F  
ENDBRANCH  21  24
ENDBRANCH  12  14
ENDBRANCH  11  12
ENDBRANCH   6  11
ENDBRANCH   2   3
TORSDOF 6
ENDMDL
MODEL       69
REMARK 921   NORMALIZED FREE ENERGY PREDICTED BY IDOCK:   -5.66 KCAL/MOL
REMARK 922        TOTAL FREE ENERGY PREDICTED BY IDOCK:   -8.39 KCAL/MOL
REMARK 923 INTER-LIGAND FREE ENERGY PREDICTED BY IDOCK:   -7.61 KCAL/MOL
REMARK 924 INTRA-LIGAND FREE ENERGY PREDICTED BY IDOCK:   -0.78 KCAL/MOL
REMARK 927      BINDING AFFINITY PREDICTED BY RF-SCORE:    0.00 PKD
ROOT
HETATM    1  C   UNL     1     -13.370  15.022  71.539  1.00  0.00    -0.417 C  
HETATM    2  O   UNL     1     -12.541  14.974  70.379  1.00  0.00    -0.347 OA 
ENDROOT
BRANCH   2   3
HETATM    3  C   UNL     1     -12.235  13.710  69.936  1.00  0.00    -0.304 A  
HETATM    4  C   UNL     1     -11.813  13.365  68.636  1.00  0.00    -0.362 A  
HETATM    5  C   UNL     1     -12.116  11.414  70.536  1.00  0.00    -0.394 A  
HETATM    6  C   UNL     1     -11.432  12.039  68.400  1.00  0.00    -0.301 A  
HETATM    7  C   UNL     1     -12.413  12.714  70.887  1.00  0.00    -0.368 A  
HETATM    8  N   UNL     1     -11.627  11.061  69.329  1.00  0.00    -0.285 NA 
BRANCH   4   9
HETATM    9  O   UNL     1     -11.714  14.374  67.709  1.00  0.00    -0.342 OA 
HETATM   10  C   UNL     1     -12.381  14.150  66.465  1.00  0.00    -0.372 C  
ENDBRANCH   4   9
BRANCH   6  11
HETATM   11  C   UNL     1     -10.713  11.588  67.154  1.00  0.00    -0.254 C  
BRANCH  11  12
HETATM   12  S   UNL     1      -8.912  11.655  67.364  1.00  0.00    -0.171 S  
HETATM   13  O   UNL     1      -8.209  11.105  66.157  1.00  0.00    -0.169 OA 
BRANCH  12  14
HETATM   14  C   UNL     1      -8.700  13.372  67.288  1.00  0.00    -0.218 A  
HETATM   15  N   UNL     1      -8.937  14.132  66.239  1.00  0.00    -0.490 NA 
HETATM   16  C   UNL     1      -8.755  15.422  66.689  1.00  0.00    -0.296 A  
HETATM   17  H   UNL     1      -9.198  13.833  65.300  1.00  0.00     0.000 HD 
HETATM   18  C   UNL     1      -8.370  15.437  68.025  1.00  0.00    -0.142 A  
HETATM   19  N   UNL     1      -8.323  14.114  68.375  1.00  0.00    -0.158 NA 
HETATM   20  C   UNL     1      -8.131  16.613  68.742  1.00  0.00    -0.247 A  
HETATM   21  C   UNL     1      -8.285  17.828  68.055  1.00  0.00    -0.248 A  
HETATM   22  C   UNL     1      -8.696  17.842  66.718  1.00  0.00    -0.269 A  
HETATM   23  C   UNL     1      -8.924  16.644  66.021  1.00  0.00    -0.248 A  
BRANCH  21  24
HETATM   24  O   UNL     1      -8.029  18.940  68.813  1.00  0.00    -0.334 OA 
HETATM   25  C   UNL     1      -6.706  19.051  69.314  1.00  0.00    -0.296 C  
HETATM   26  F   UNL     1      -5.920  19.606  68.359  1.00  0.00    -0.230 F  
HETATM   27  F   UNL     1      -6.740  19.928  70.349  1.00  0.00    -0.350 F  
ENDBRANCH  21  24
ENDBRANCH  12  14
ENDBRANCH  11  12
ENDBRANCH   6  11
ENDBRANCH   2   3
TORSDOF 6
ENDMDL
MODEL       70
REMARK 921   NORMALIZED FREE ENERGY PREDICTED BY IDOCK:   -5.62 KCAL/MOL
REMARK 922        TOTAL FREE ENERGY PREDICTED BY IDOCK:   -8.35 KCAL/MOL
REMARK 923 INTER-LIGAND FREE ENERGY PREDICTED BY IDOCK:   -7.79 KCAL/MOL
REMARK 924 INTRA-LIGAND FREE ENERGY PREDICTED BY IDOCK:   -0.55 KCAL/MOL
REMARK 927      BINDING AFFINITY PREDICTED BY RF-SCORE:    0.00 PKD
ROOT
HETATM    1  C   UNL     1      -6.650  20.854  66.809  1.00  0.00    -0.298 C  
HETATM    2  O   UNL     1      -7.851  20.688  67.561  1.00  0.00    -0.317 OA 
ENDROOT
BRANCH   2   3
HETATM    3  C   UNL     1      -8.115  19.399  67.955  1.00  0.00    -0.310 A  
HETATM    4  C   UNL     1      -9.378  18.770  67.945  1.00  0.00    -0.298 A  
HETATM    5  C   UNL     1      -7.177  17.404  68.841  1.00  0.00    -0.250 A  
HETATM    6  C   UNL     1      -9.434  17.410  68.273  1.00  0.00    -0.290 A  
HETATM    7  C   UNL     1      -7.010  18.711  68.436  1.00  0.00    -0.278 A  
HETATM    8  N   UNL     1      -8.351  16.745  68.763  1.00  0.00    -0.248 NA 
BRANCH   4   9
HETATM    9  O   UNL     1     -10.455  19.509  67.524  1.00  0.00    -0.418 OA 
HETATM   10  C   UNL     1     -10.626  19.617  66.109  1.00  0.00    -0.483 C  
ENDBRANCH   4   9
BRANCH   6  11
HETATM   11  C   UNL     1     -10.652  16.550  68.047  1.00  0.00    -0.328 C  
BRANCH  11  12
HETATM   12  S   UNL     1     -10.681  15.869  66.365  1.00  0.00    -0.205 S  
HETATM   13  O   UNL     1      -9.357  16.064  65.683  1.00  0.00    -0.385 OA 
BRANCH  12  14
HETATM   14  C   UNL     1     -10.759  14.185  66.763  1.00  0.00    -0.286 A  
HETATM   15  N   UNL     1     -10.485  13.187  65.949  1.00  0.00    -0.275 NA 
HETATM   16  C   UNL     1     -10.557  12.059  66.738  1.00  0.00    -0.227 A  
HETATM   17  H   UNL     1     -10.266  13.237  64.955  1.00  0.00     0.000 HD 
HETATM   18  C   UNL     1     -10.913  12.381  68.042  1.00  0.00    -0.225 A  
HETATM   19  N   UNL     1     -11.056  13.743  68.024  1.00  0.00    -0.253 NA 
HETATM   20  C   UNL     1     -11.046  11.430  69.059  1.00  0.00    -0.300 A  
HETATM   21  C   UNL     1     -10.811  10.088  68.719  1.00  0.00    -0.219 A  
HETATM   22  C   UNL     1     -10.427   9.740  67.421  1.00  0.00    -0.319 A  
HETATM   23  C   UNL     1     -10.306  10.716  66.417  1.00  0.00    -0.291 A  
BRANCH  21  24
HETATM   24  O   UNL     1     -10.964   9.210  69.759  1.00  0.00    -0.233 OA 
HETATM   25  C   UNL     1     -10.951   9.784  71.056  1.00  0.00    -0.332 C  
HETATM   26  F   UNL     1     -12.195  10.240  71.348  1.00  0.00    -0.394 F  
HETATM   27  F   UNL     1     -10.686   8.785  71.936  1.00  0.00    -0.329 F  
ENDBRANCH  21  24
ENDBRANCH  12  14
ENDBRANCH  11  12
ENDBRANCH   6  11
ENDBRANCH   2   3
TORSDOF 6
ENDMDL
MODEL       71
REMARK 921   NORMALIZED FREE ENERGY PREDICTED BY IDOCK:   -5.62 KCAL/MOL
REMARK 922        TOTAL FREE ENERGY PREDICTED BY IDOCK:   -8.33 KCAL/MOL
REMARK 923 INTER-LIGAND FREE ENERGY PREDICTED BY IDOCK:   -7.33 KCAL/MOL
REMARK 924 INTRA-LIGAND FREE ENERGY PREDICTED BY IDOCK:   -1.00 KCAL/MOL
REMARK 927      BINDING AFFINITY PREDICTED BY RF-SCORE:    0.00 PKD
ROOT
HETATM    1  C   UNL     1     -10.837  16.295  64.969  1.00  0.00    -0.320 C  
HETATM    2  O   UNL     1     -10.948  14.999  64.383  1.00  0.00    -0.243 OA 
ENDROOT
BRANCH   2   3
HETATM    3  C   UNL     1     -11.173  13.977  65.273  1.00  0.00    -0.319 A  
HETATM    4  C   UNL     1     -10.701  12.653  65.155  1.00  0.00    -0.292 A  
HETATM    5  C   UNL     1     -12.248  13.366  67.302  1.00  0.00    -0.233 A  
HETATM    6  C   UNL     1     -10.933  11.777  66.222  1.00  0.00    -0.300 A  
HETATM    7  C   UNL     1     -11.979  14.324  66.348  1.00  0.00    -0.438 A  
HETATM    8  N   UNL     1     -11.741  12.116  67.266  1.00  0.00    -0.521 NA 
BRANCH   4   9
HETATM    9  O   UNL     1      -9.962  12.337  64.041  1.00  0.00    -0.313 OA 
HETATM   10  C   UNL     1     -10.646  11.601  63.025  1.00  0.00    -0.157 C  
ENDBRANCH   4   9
BRANCH   6  11
HETATM   11  C   UNL     1     -10.263  10.433  66.355  1.00  0.00    -0.230 C  
BRANCH  11  12
HETATM   12  S   UNL     1      -8.939  10.470  67.595  1.00  0.00    -0.138 S  
HETATM   13  O   UNL     1      -8.616  11.881  67.994  1.00  0.00    -0.152 OA 
BRANCH  12  14
HETATM   14  C   UNL     1      -9.808   9.792  68.931  1.00  0.00    -0.173 A  
HETATM   15  N   UNL     1     -10.635  10.443  69.722  1.00  0.00    -0.285 NA 
HETATM   16  C   UNL     1     -11.178   9.474  70.539  1.00  0.00    -0.287 A  
HETATM   17  H   UNL     1     -10.831  11.443  69.729  1.00  0.00     0.000 HD 
HETATM   18  C   UNL     1     -10.643   8.223  70.255  1.00  0.00    -0.227 A  
HETATM   19  N   UNL     1      -9.757   8.459  69.239  1.00  0.00    -0.174 NA 
HETATM   20  C   UNL     1     -11.026   7.056  70.923  1.00  0.00    -0.282 A  
HETATM   21  C   UNL     1     -11.993   7.180  71.933  1.00  0.00    -0.307 A  
HETATM   22  C   UNL     1     -12.565   8.423  72.221  1.00  0.00    -0.401 A  
HETATM   23  C   UNL     1     -12.158   9.581  71.537  1.00  0.00    -0.468 A  
BRANCH  21  24
HETATM   24  O   UNL     1     -12.316   6.000  72.551  1.00  0.00    -0.161 OA 
HETATM   25  C   UNL     1     -11.222   5.247  73.047  1.00  0.00    -0.324 C  
HETATM   26  F   UNL     1     -10.885   5.717  74.274  1.00  0.00    -0.268 F  
HETATM   27  F   UNL     1     -11.658   3.973  73.224  1.00  0.00    -0.315 F  
ENDBRANCH  21  24
ENDBRANCH  12  14
ENDBRANCH  11  12
ENDBRANCH   6  11
ENDBRANCH   2   3
TORSDOF 6
ENDMDL
MODEL       72
REMARK 921   NORMALIZED FREE ENERGY PREDICTED BY IDOCK:   -5.59 KCAL/MOL
REMARK 922        TOTAL FREE ENERGY PREDICTED BY IDOCK:   -8.30 KCAL/MOL
REMARK 923 INTER-LIGAND FREE ENERGY PREDICTED BY IDOCK:   -7.46 KCAL/MOL
REMARK 924 INTRA-LIGAND FREE ENERGY PREDICTED BY IDOCK:   -0.84 KCAL/MOL
REMARK 927      BINDING AFFINITY PREDICTED BY RF-SCORE:    0.00 PKD
ROOT
HETATM    1  C   UNL     1     -11.943   6.612  71.285  1.00  0.00    -0.355 C  
HETATM    2  O   UNL     1     -11.478   6.661  69.938  1.00  0.00    -0.358 OA 
ENDROOT
BRANCH   2   3
HETATM    3  C   UNL     1     -10.663   7.727  69.643  1.00  0.00    -0.223 A  
HETATM    4  C   UNL     1     -10.448   8.279  68.363  1.00  0.00    -0.162 A  
HETATM    5  C   UNL     1      -9.152   9.327  70.539  1.00  0.00    -0.259 A  
HETATM    6  C   UNL     1      -9.673   9.441  68.273  1.00  0.00    -0.145 A  
HETATM    7  C   UNL     1      -9.983   8.244  70.737  1.00  0.00    -0.217 A  
HETATM    8  N   UNL     1      -8.991   9.934  69.345  1.00  0.00    -0.181 NA 
BRANCH   4   9
HETATM    9  O   UNL     1     -11.090   7.693  67.300  1.00  0.00    -0.157 OA 
HETATM   10  C   UNL     1     -10.447   6.550  66.732  1.00  0.00    -0.230 C  
ENDBRANCH   4   9
BRANCH   6  11
HETATM   11  C   UNL     1      -9.582  10.286  67.027  1.00  0.00    -0.171 C  
BRANCH  11  12
HETATM   12  S   UNL     1     -11.063  11.311  66.810  1.00  0.00    -0.188 S  
HETATM   13  O   UNL     1     -11.934  11.263  68.032  1.00  0.00    -0.621 OA 
BRANCH  12  14
HETATM   14  C   UNL     1     -10.311  12.870  66.830  1.00  0.00    -0.243 A  
HETATM   15  N   UNL     1      -9.082  13.129  67.228  1.00  0.00    -0.208 NA 
HETATM   16  C   UNL     1      -8.891  14.463  66.941  1.00  0.00    -0.223 A  
HETATM   17  H   UNL     1      -8.419  12.483  67.655  1.00  0.00     0.000 HD 
HETATM   18  C   UNL     1     -10.036  15.026  66.389  1.00  0.00    -0.276 A  
HETATM   19  N   UNL     1     -10.933  13.991  66.350  1.00  0.00    -0.305 NA 
HETATM   20  C   UNL     1     -10.118  16.363  65.989  1.00  0.00    -0.373 A  
HETATM   21  C   UNL     1      -8.977  17.160  66.171  1.00  0.00    -0.182 A  
HETATM   22  C   UNL     1      -7.804  16.613  66.700  1.00  0.00    -0.316 A  
HETATM   23  C   UNL     1      -7.752  15.266  67.099  1.00  0.00    -0.238 A  
BRANCH  21  24
HETATM   24  O   UNL     1      -9.128  18.460  65.765  1.00  0.00    -0.432 OA 
HETATM   25  C   UNL     1     -10.286  19.123  66.244  1.00  0.00    -0.474 C  
HETATM   26  F   UNL     1     -10.031  19.612  67.483  1.00  0.00    -0.397 F  
HETATM   27  F   UNL     1     -10.499  20.195  65.438  1.00  0.00    -0.529 F  
ENDBRANCH  21  24
ENDBRANCH  12  14
ENDBRANCH  11  12
ENDBRANCH   6  11
ENDBRANCH   2   3
TORSDOF 6
ENDMDL
MODEL       73
REMARK 921   NORMALIZED FREE ENERGY PREDICTED BY IDOCK:   -5.58 KCAL/MOL
REMARK 922        TOTAL FREE ENERGY PREDICTED BY IDOCK:   -8.29 KCAL/MOL
REMARK 923 INTER-LIGAND FREE ENERGY PREDICTED BY IDOCK:   -7.09 KCAL/MOL
REMARK 924 INTRA-LIGAND FREE ENERGY PREDICTED BY IDOCK:   -1.20 KCAL/MOL
REMARK 927      BINDING AFFINITY PREDICTED BY RF-SCORE:    0.00 PKD
ROOT
HETATM    1  C   UNL     1      -6.586  18.971  65.645  1.00  0.00    -0.269 C  
HETATM    2  O   UNL     1      -7.581  17.948  65.645  1.00  0.00    -0.546 OA 
ENDROOT
BRANCH   2   3
HETATM    3  C   UNL     1      -8.509  18.042  66.653  1.00  0.00    -0.262 A  
HETATM    4  C   UNL     1      -9.607  17.180  66.853  1.00  0.00    -0.262 A  
HETATM    5  C   UNL     1      -9.200  19.292  68.552  1.00  0.00    -0.382 A  
HETATM    6  C   UNL     1     -10.381  17.361  68.006  1.00  0.00    -0.362 A  
HETATM    7  C   UNL     1      -8.324  19.126  67.500  1.00  0.00    -0.315 A  
HETATM    8  N   UNL     1     -10.208  18.438  68.824  1.00  0.00    -0.360 NA 
BRANCH   4   9
HETATM    9  O   UNL     1      -9.790  16.160  65.952  1.00  0.00    -0.320 OA 
HETATM   10  C   UNL     1     -10.849  16.339  65.009  1.00  0.00    -0.320 C  
ENDBRANCH   4   9
BRANCH   6  11
HETATM   11  C   UNL     1     -11.405  16.364  68.486  1.00  0.00    -0.289 C  
BRANCH  11  12
HETATM   12  S   UNL     1     -10.639  15.050  69.476  1.00  0.00    -0.238 S  
HETATM   13  O   UNL     1     -11.600  14.519  70.500  1.00  0.00    -0.275 OA 
BRANCH  12  14
HETATM   14  C   UNL     1     -10.533  13.827  68.254  1.00  0.00    -0.248 A  
HETATM   15  N   UNL     1     -11.408  13.621  67.291  1.00  0.00    -0.309 NA 
HETATM   16  C   UNL     1     -10.839  12.645  66.501  1.00  0.00    -0.258 A  
HETATM   17  H   UNL     1     -12.307  14.082  67.159  1.00  0.00     0.000 HD 
HETATM   18  C   UNL     1      -9.615  12.233  67.015  1.00  0.00    -0.208 A  
HETATM   19  N   UNL     1      -9.455  12.990  68.145  1.00  0.00    -0.216 NA 
HETATM   20  C   UNL     1      -8.814  11.263  66.406  1.00  0.00    -0.184 A  
HETATM   21  C   UNL     1      -9.294  10.684  65.221  1.00  0.00    -0.214 A  
HETATM   22  C   UNL     1     -10.510  11.098  64.668  1.00  0.00    -0.400 A  
HETATM   23  C   UNL     1     -11.298  12.072  65.305  1.00  0.00    -0.366 A  
BRANCH  21  24
HETATM   24  O   UNL     1      -8.464   9.738  64.681  1.00  0.00    -0.148 OA 
HETATM   25  C   UNL     1      -8.005   8.738  65.577  1.00  0.00    -0.102 C  
HETATM   26  F   UNL     1      -8.944   7.764  65.667  1.00  0.00    -0.179 F  
HETATM   27  F   UNL     1      -6.906   8.170  65.019  1.00  0.00    -0.059 F  
ENDBRANCH  21  24
ENDBRANCH  12  14
ENDBRANCH  11  12
ENDBRANCH   6  11
ENDBRANCH   2   3
TORSDOF 6
ENDMDL
MODEL       74
REMARK 921   NORMALIZED FREE ENERGY PREDICTED BY IDOCK:   -5.58 KCAL/MOL
REMARK 922        TOTAL FREE ENERGY PREDICTED BY IDOCK:   -8.28 KCAL/MOL
REMARK 923 INTER-LIGAND FREE ENERGY PREDICTED BY IDOCK:   -7.00 KCAL/MOL
REMARK 924 INTRA-LIGAND FREE ENERGY PREDICTED BY IDOCK:   -1.28 KCAL/MOL
REMARK 927      BINDING AFFINITY PREDICTED BY RF-SCORE:    0.00 PKD
ROOT
HETATM    1  C   UNL     1     -14.204  14.374  71.915  1.00  0.00    -0.524 C  
HETATM    2  O   UNL     1     -12.868  13.882  71.821  1.00  0.00    -0.328 OA 
ENDROOT
BRANCH   2   3
HETATM    3  C   UNL     1     -12.407  13.697  70.540  1.00  0.00    -0.355 A  
HETATM    4  C   UNL     1     -11.951  12.481  69.989  1.00  0.00    -0.299 A  
HETATM    5  C   UNL     1     -11.937  14.762  68.469  1.00  0.00    -0.248 A  
HETATM    6  C   UNL     1     -11.629  12.460  68.626  1.00  0.00    -0.319 A  
HETATM    7  C   UNL     1     -12.371  14.854  69.774  1.00  0.00    -0.283 A  
HETATM    8  N   UNL     1     -11.576  13.601  67.884  1.00  0.00    -0.320 NA 
BRANCH   4   9
HETATM    9  O   UNL     1     -11.942  11.375  70.803  1.00  0.00    -0.345 OA 
HETATM   10  C   UNL     1     -13.136  10.591  70.806  1.00  0.00    -0.257 C  
ENDBRANCH   4   9
BRANCH   6  11
HETATM   11  C   UNL     1     -11.392  11.191  67.848  1.00  0.00    -0.309 C  
BRANCH  11  12
HETATM   12  S   UNL     1      -9.639  10.719  67.864  1.00  0.00    -0.163 S  
HETATM   13  O   UNL     1      -8.785  11.843  68.375  1.00  0.00    -0.173 OA 
BRANCH  12  14
HETATM   14  C   UNL     1      -9.692   9.552  69.142  1.00  0.00    -0.178 A  
HETATM   15  N   UNL     1      -9.503   9.800  70.422  1.00  0.00    -0.356 NA 
HETATM   16  C   UNL     1      -9.771   8.607  71.056  1.00  0.00    -0.210 A  
HETATM   17  H   UNL     1      -9.222  10.682  70.849  1.00  0.00     0.000 HD 
HETATM   18  C   UNL     1     -10.095   7.613  70.140  1.00  0.00    -0.199 A  
HETATM   19  N   UNL     1     -10.017   8.240  68.925  1.00  0.00    -0.181 NA 
HETATM   20  C   UNL     1     -10.425   6.306  70.509  1.00  0.00    -0.274 A  
HETATM   21  C   UNL     1     -10.414   6.002  71.880  1.00  0.00    -0.218 A  
HETATM   22  C   UNL     1     -10.117   6.990  72.825  1.00  0.00    -0.211 A  
HETATM   23  C   UNL     1      -9.783   8.295  72.424  1.00  0.00    -0.373 A  
BRANCH  21  24
HETATM   24  O   UNL     1     -10.740   4.704  72.171  1.00  0.00    -0.151 OA 
HETATM   25  C   UNL     1     -11.435   4.504  73.392  1.00  0.00    -0.230 C  
HETATM   26  F   UNL     1     -12.758   4.718  73.185  1.00  0.00    -0.197 F  
HETATM   27  F   UNL     1     -11.298   3.195  73.723  1.00  0.00    -0.293 F  
ENDBRANCH  21  24
ENDBRANCH  12  14
ENDBRANCH  11  12
ENDBRANCH   6  11
ENDBRANCH   2   3
TORSDOF 6
ENDMDL
MODEL       75
REMARK 921   NORMALIZED FREE ENERGY PREDICTED BY IDOCK:   -5.53 KCAL/MOL
REMARK 922        TOTAL FREE ENERGY PREDICTED BY IDOCK:   -8.22 KCAL/MOL
REMARK 923 INTER-LIGAND FREE ENERGY PREDICTED BY IDOCK:   -7.32 KCAL/MOL
REMARK 924 INTRA-LIGAND FREE ENERGY PREDICTED BY IDOCK:   -0.89 KCAL/MOL
REMARK 927      BINDING AFFINITY PREDICTED BY RF-SCORE:    0.00 PKD
ROOT
HETATM    1  C   UNL     1      -9.587  11.169  63.037  1.00  0.00    -0.369 C  
HETATM    2  O   UNL     1     -10.599  11.147  64.043  1.00  0.00    -0.349 OA 
ENDROOT
BRANCH   2   3
HETATM    3  C   UNL     1     -10.186  11.550  65.290  1.00  0.00    -0.267 A  
HETATM    4  C   UNL     1     -11.011  12.066  66.311  1.00  0.00    -0.299 A  
HETATM    5  C   UNL     1      -8.312  11.826  66.724  1.00  0.00    -0.165 A  
HETATM    6  C   UNL     1     -10.429  12.313  67.560  1.00  0.00    -0.213 A  
HETATM    7  C   UNL     1      -8.816  11.457  65.495  1.00  0.00    -0.034 A  
HETATM    8  N   UNL     1      -9.082  12.240  67.752  1.00  0.00    -0.183 NA 
BRANCH   4   9
HETATM    9  O   UNL     1     -12.350  12.203  66.041  1.00  0.00    -0.550 OA 
HETATM   10  C   UNL     1     -12.722  13.356  65.284  1.00  0.00    -0.422 C  
ENDBRANCH   4   9
BRANCH   6  11
HETATM   11  C   UNL     1     -11.226  12.603  68.807  1.00  0.00    -0.280 C  
BRANCH  11  12
HETATM   12  S   UNL     1     -11.885  14.294  68.797  1.00  0.00    -0.331 S  
HETATM   13  O   UNL     1     -12.653  14.579  70.055  1.00  0.00    -0.318 OA 
BRANCH  12  14
HETATM   14  C   UNL     1     -10.393  15.160  68.953  1.00  0.00    -0.243 A  
HETATM   15  N   UNL     1      -9.284  14.694  69.488  1.00  0.00    -0.405 NA 
HETATM   16  C   UNL     1      -8.345  15.680  69.270  1.00  0.00    -0.256 A  
HETATM   17  H   UNL     1      -9.149  13.801  69.961  1.00  0.00     0.000 HD 
HETATM   18  C   UNL     1      -8.908  16.772  68.619  1.00  0.00    -0.255 A  
HETATM   19  N   UNL     1     -10.220  16.420  68.448  1.00  0.00    -0.247 NA 
HETATM   20  C   UNL     1      -8.180  17.910  68.260  1.00  0.00    -0.292 A  
HETATM   21  C   UNL     1      -6.816  17.932  68.591  1.00  0.00    -0.248 A  
HETATM   22  C   UNL     1      -6.219  16.836  69.223  1.00  0.00    -0.201 A  
HETATM   23  C   UNL     1      -6.977  15.707  69.577  1.00  0.00    -0.193 A  
BRANCH  21  24
HETATM   24  O   UNL     1      -6.164  19.077  68.217  1.00  0.00    -0.217 OA 
HETATM   25  C   UNL     1      -6.729  20.289  68.691  1.00  0.00    -0.259 C  
HETATM   26  F   UNL     1      -6.275  20.523  69.947  1.00  0.00    -0.376 F  
HETATM   27  F   UNL     1      -6.249  21.290  67.910  1.00  0.00    -0.354 F  
ENDBRANCH  21  24
ENDBRANCH  12  14
ENDBRANCH  11  12
ENDBRANCH   6  11
ENDBRANCH   2   3
TORSDOF 6
ENDMDL
MODEL       76
REMARK 921   NORMALIZED FREE ENERGY PREDICTED BY IDOCK:   -5.53 KCAL/MOL
REMARK 922        TOTAL FREE ENERGY PREDICTED BY IDOCK:   -8.22 KCAL/MOL
REMARK 923 INTER-LIGAND FREE ENERGY PREDICTED BY IDOCK:   -7.50 KCAL/MOL
REMARK 924 INTRA-LIGAND FREE ENERGY PREDICTED BY IDOCK:   -0.71 KCAL/MOL
REMARK 927      BINDING AFFINITY PREDICTED BY RF-SCORE:    0.00 PKD
ROOT
HETATM    1  C   UNL     1      -7.662   4.230  70.593  1.00  0.00    -0.052 C  
HETATM    2  O   UNL     1      -8.674   4.388  71.587  1.00  0.00    -0.113 OA 
ENDROOT
BRANCH   2   3
HETATM    3  C   UNL     1      -9.682   5.259  71.255  1.00  0.00    -0.166 A  
HETATM    4  C   UNL     1     -10.319   6.165  72.129  1.00  0.00    -0.197 A  
HETATM    5  C   UNL     1     -11.102   6.016  69.507  1.00  0.00    -0.398 A  
HETATM    6  C   UNL     1     -11.247   7.059  71.584  1.00  0.00    -0.245 A  
HETATM    7  C   UNL     1     -10.102   5.169  69.935  1.00  0.00    -0.342 A  
HETATM    8  N   UNL     1     -11.671   6.954  70.292  1.00  0.00    -0.319 NA 
BRANCH   4   9
HETATM    9  O   UNL     1      -9.917   6.173  73.442  1.00  0.00    -0.167 OA 
HETATM   10  C   UNL     1      -8.758   6.955  73.737  1.00  0.00    -0.147 C  
ENDBRANCH   4   9
BRANCH   6  11
HETATM   11  C   UNL     1     -11.798   8.246  72.332  1.00  0.00    -0.396 C  
BRANCH  11  12
HETATM   12  S   UNL     1     -13.422   8.742  71.690  1.00  0.00    -0.356 S  
HETATM   13  O   UNL     1     -14.392   8.981  72.810  1.00  0.00    -0.596 OA 
BRANCH  12  14
HETATM   14  C   UNL     1     -13.001  10.311  71.091  1.00  0.00    -0.409 A  
HETATM   15  N   UNL     1     -13.259  11.458  71.685  1.00  0.00    -0.386 NA 
HETATM   16  C   UNL     1     -12.626  12.406  70.911  1.00  0.00    -0.246 A  
HETATM   17  H   UNL     1     -13.806  11.610  72.531  1.00  0.00     0.000 HD 
HETATM   18  C   UNL     1     -12.003  11.824  69.813  1.00  0.00    -0.322 A  
HETATM   19  N   UNL     1     -12.276  10.488  69.943  1.00  0.00    -0.257 NA 
HETATM   20  C   UNL     1     -11.275  12.552  68.868  1.00  0.00    -0.330 A  
HETATM   21  C   UNL     1     -11.188  13.941  69.053  1.00  0.00    -0.274 A  
HETATM   22  C   UNL     1     -11.785  14.549  70.162  1.00  0.00    -0.357 A  
HETATM   23  C   UNL     1     -12.516  13.793  71.094  1.00  0.00    -0.450 A  
BRANCH  21  24
HETATM   24  O   UNL     1     -10.467  14.593  68.089  1.00  0.00    -0.232 OA 
HETATM   25  C   UNL     1     -10.473  16.009  68.169  1.00  0.00    -0.269 C  
HETATM   26  F   UNL     1      -9.522  16.404  69.050  1.00  0.00    -0.225 F  
HETATM   27  F   UNL     1     -10.099  16.483  66.953  1.00  0.00    -0.252 F  
ENDBRANCH  21  24
ENDBRANCH  12  14
ENDBRANCH  11  12
ENDBRANCH   6  11
ENDBRANCH   2   3
TORSDOF 6
ENDMDL
MODEL       77
REMARK 921   NORMALIZED FREE ENERGY PREDICTED BY IDOCK:   -5.50 KCAL/MOL
REMARK 922        TOTAL FREE ENERGY PREDICTED BY IDOCK:   -8.18 KCAL/MOL
REMARK 923 INTER-LIGAND FREE ENERGY PREDICTED BY IDOCK:   -7.29 KCAL/MOL
REMARK 924 INTRA-LIGAND FREE ENERGY PREDICTED BY IDOCK:   -0.89 KCAL/MOL
REMARK 927      BINDING AFFINITY PREDICTED BY RF-SCORE:    0.00 PKD
ROOT
HETATM    1  C   UNL     1      -8.274   8.415  70.561  1.00  0.00    -0.113 C  
HETATM    2  O   UNL     1      -9.062   9.557  70.227  1.00  0.00    -0.225 OA 
ENDROOT
BRANCH   2   3
HETATM    3  C   UNL     1      -9.447   9.631  68.911  1.00  0.00    -0.157 A  
HETATM    4  C   UNL     1      -9.333  10.761  68.074  1.00  0.00    -0.150 A  
HETATM    5  C   UNL     1     -10.439   8.448  67.104  1.00  0.00    -0.310 A  
HETATM    6  C   UNL     1      -9.671  10.613  66.724  1.00  0.00    -0.185 A  
HETATM    7  C   UNL     1     -10.034   8.472  68.422  1.00  0.00    -0.208 A  
HETATM    8  N   UNL     1     -10.265   9.480  66.253  1.00  0.00    -0.255 NA 
BRANCH   4   9
HETATM    9  O   UNL     1      -8.808  11.907  68.618  1.00  0.00    -0.139 OA 
HETATM   10  C   UNL     1      -7.383  12.019  68.587  1.00  0.00    -0.111 C  
ENDBRANCH   4   9
BRANCH   6  11
HETATM   11  C   UNL     1      -9.348  11.639  65.668  1.00  0.00    -0.180 C  
BRANCH  11  12
HETATM   12  S   UNL     1     -10.775  12.702  65.314  1.00  0.00    -0.298 S  
HETATM   13  O   UNL     1     -12.036  11.893  65.214  1.00  0.00    -0.324 OA 
BRANCH  12  14
HETATM   14  C   UNL     1     -10.870  13.531  66.832  1.00  0.00    -0.282 A  
HETATM   15  N   UNL     1     -10.083  14.509  67.227  1.00  0.00    -0.246 NA 
HETATM   16  C   UNL     1     -10.618  14.931  68.425  1.00  0.00    -0.244 A  
HETATM   17  H   UNL     1      -9.258  14.873  66.752  1.00  0.00     0.000 HD 
HETATM   18  C   UNL     1     -11.729  14.172  68.773  1.00  0.00    -0.345 A  
HETATM   19  N   UNL     1     -11.855  13.273  67.748  1.00  0.00    -0.356 NA 
HETATM   20  C   UNL     1     -12.477  14.393  69.934  1.00  0.00    -0.311 A  
HETATM   21  C   UNL     1     -12.060  15.433  70.779  1.00  0.00    -0.366 A  
HETATM   22  C   UNL     1     -10.960  16.228  70.440  1.00  0.00    -0.282 A  
HETATM   23  C   UNL     1     -10.224  15.980  69.270  1.00  0.00    -0.249 A  
BRANCH  21  24
HETATM   24  O   UNL     1     -12.831  15.591  71.900  1.00  0.00    -0.368 OA 
HETATM   25  C   UNL     1     -12.128  15.613  73.132  1.00  0.00    -0.487 C  
HETATM   26  F   UNL     1     -11.671  16.870  73.354  1.00  0.00    -0.515 F  
HETATM   27  F   UNL     1     -13.027  15.346  74.114  1.00  0.00    -0.591 F  
ENDBRANCH  21  24
ENDBRANCH  12  14
ENDBRANCH  11  12
ENDBRANCH   6  11
ENDBRANCH   2   3
TORSDOF 6
ENDMDL
MODEL       78
REMARK 921   NORMALIZED FREE ENERGY PREDICTED BY IDOCK:   -5.45 KCAL/MOL
REMARK 922        TOTAL FREE ENERGY PREDICTED BY IDOCK:   -8.11 KCAL/MOL
REMARK 923 INTER-LIGAND FREE ENERGY PREDICTED BY IDOCK:   -7.56 KCAL/MOL
REMARK 924 INTRA-LIGAND FREE ENERGY PREDICTED BY IDOCK:   -0.56 KCAL/MOL
REMARK 927      BINDING AFFINITY PREDICTED BY RF-SCORE:    0.00 PKD
ROOT
HETATM    1  C   UNL     1     -12.369  16.165  73.028  1.00  0.00    -0.525 C  
HETATM    2  O   UNL     1     -13.262  15.754  71.994  1.00  0.00    -0.457 OA 
ENDROOT
BRANCH   2   3
HETATM    3  C   UNL     1     -12.917  14.584  71.361  1.00  0.00    -0.333 A  
HETATM    4  C   UNL     1     -12.394  14.469  70.056  1.00  0.00    -0.323 A  
HETATM    5  C   UNL     1     -12.834  12.218  71.556  1.00  0.00    -0.280 A  
HETATM    6  C   UNL     1     -11.991  13.201  69.622  1.00  0.00    -0.306 A  
HETATM    7  C   UNL     1     -13.163  13.439  72.105  1.00  0.00    -0.557 A  
HETATM    8  N   UNL     1     -12.253  12.077  70.347  1.00  0.00    -0.325 NA 
BRANCH   4   9
HETATM    9  O   UNL     1     -12.229  15.623  69.331  1.00  0.00    -0.322 OA 
HETATM   10  C   UNL     1     -10.937  16.230  69.406  1.00  0.00    -0.337 C  
ENDBRANCH   4   9
BRANCH   6  11
HETATM   11  C   UNL     1     -11.176  12.968  68.375  1.00  0.00    -0.269 C  
BRANCH  11  12
HETATM   12  S   UNL     1     -12.134  13.331  66.877  1.00  0.00    -0.276 S  
HETATM   13  O   UNL     1     -11.857  14.722  66.386  1.00  0.00    -0.330 OA 
BRANCH  12  14
HETATM   14  C   UNL     1     -11.316  12.273  65.777  1.00  0.00    -0.355 A  
HETATM   15  N   UNL     1     -11.240  12.427  64.472  1.00  0.00    -0.308 NA 
HETATM   16  C   UNL     1     -10.390  11.429  64.047  1.00  0.00    -0.362 A  
HETATM   17  H   UNL     1     -11.707  13.131  63.901  1.00  0.00     0.000 HD 
HETATM   18  C   UNL     1      -9.973  10.639  65.112  1.00  0.00    -0.303 A  
HETATM   19  N   UNL     1     -10.595  11.189  66.201  1.00  0.00    -0.260 NA 
HETATM   20  C   UNL     1      -9.094   9.561  64.970  1.00  0.00    -0.281 A  
HETATM   21  C   UNL     1      -8.630   9.275  63.677  1.00  0.00    -0.196 A  
HETATM   22  C   UNL     1      -9.014  10.069  62.591  1.00  0.00    -0.278 A  
HETATM   23  C   UNL     1      -9.903  11.144  62.762  1.00  0.00    -0.261 A  
BRANCH  21  24
HETATM   24  O   UNL     1      -7.779   8.204  63.608  1.00  0.00    -0.127 OA 
HETATM   25  C   UNL     1      -6.397   8.519  63.544  1.00  0.00    -0.081 C  
HETATM   26  F   UNL     1      -5.934   8.719  64.802  1.00  0.00    -0.060 F  
HETATM   27  F   UNL     1      -5.756   7.424  63.062  1.00  0.00    -0.044 F  
ENDBRANCH  21  24
ENDBRANCH  12  14
ENDBRANCH  11  12
ENDBRANCH   6  11
ENDBRANCH   2   3
TORSDOF 6
ENDMDL
MODEL       79
REMARK 921   NORMALIZED FREE ENERGY PREDICTED BY IDOCK:   -5.45 KCAL/MOL
REMARK 922        TOTAL FREE ENERGY PREDICTED BY IDOCK:   -8.11 KCAL/MOL
REMARK 923 INTER-LIGAND FREE ENERGY PREDICTED BY IDOCK:   -7.12 KCAL/MOL
REMARK 924 INTRA-LIGAND FREE ENERGY PREDICTED BY IDOCK:   -0.99 KCAL/MOL
REMARK 927      BINDING AFFINITY PREDICTED BY RF-SCORE:    0.00 PKD
ROOT
HETATM    1  C   UNL     1      -6.812  10.046  68.404  1.00  0.00    -0.062 C  
HETATM    2  O   UNL     1      -6.984   8.717  68.893  1.00  0.00    -0.060 OA 
ENDROOT
BRANCH   2   3
HETATM    3  C   UNL     1      -8.266   8.398  69.271  1.00  0.00    -0.116 A  
HETATM    4  C   UNL     1      -8.838   8.626  70.540  1.00  0.00    -0.163 A  
HETATM    5  C   UNL     1     -10.313   7.416  68.572  1.00  0.00    -0.198 A  
HETATM    6  C   UNL     1     -10.199   8.341  70.705  1.00  0.00    -0.192 A  
HETATM    7  C   UNL     1      -9.009   7.760  68.287  1.00  0.00    -0.131 A  
HETATM    8  N   UNL     1     -10.919   7.697  69.744  1.00  0.00    -0.214 NA 
BRANCH   4   9
HETATM    9  O   UNL     1      -8.046   9.199  71.504  1.00  0.00    -0.337 OA 
HETATM   10  C   UNL     1      -7.366   8.294  72.376  1.00  0.00    -0.110 C  
ENDBRANCH   4   9
BRANCH   6  11
HETATM   11  C   UNL     1     -11.001   8.780  71.904  1.00  0.00    -0.365 C  
BRANCH  11  12
HETATM   12  S   UNL     1     -12.755   8.992  71.489  1.00  0.00    -0.339 S  
HETATM   13  O   UNL     1     -13.612   8.909  72.719  1.00  0.00    -0.405 OA 
BRANCH  12  14
HETATM   14  C   UNL     1     -12.723  10.667  71.052  1.00  0.00    -0.415 A  
HETATM   15  N   UNL     1     -13.057  11.674  71.831  1.00  0.00    -0.455 NA 
HETATM   16  C   UNL     1     -12.747  12.802  71.103  1.00  0.00    -0.263 A  
HETATM   17  H   UNL     1     -13.457  11.629  72.768  1.00  0.00     0.000 HD 
HETATM   18  C   UNL     1     -12.248  12.468  69.850  1.00  0.00    -0.163 A  
HETATM   19  N   UNL     1     -12.263  11.099  69.837  1.00  0.00    -0.321 NA 
HETATM   20  C   UNL     1     -11.839  13.418  68.909  1.00  0.00    -0.373 A  
HETATM   21  C   UNL     1     -11.957  14.770  69.266  1.00  0.00    -0.294 A  
HETATM   22  C   UNL     1     -12.432  15.133  70.530  1.00  0.00    -0.429 A  
HETATM   23  C   UNL     1     -12.841  14.157  71.455  1.00  0.00    -0.428 A  
BRANCH  21  24
HETATM   24  O   UNL     1     -11.545  15.646  68.297  1.00  0.00    -0.362 OA 
HETATM   25  C   UNL     1     -10.784  16.753  68.751  1.00  0.00    -0.341 C  
HETATM   26  F   UNL     1      -9.486  16.377  68.865  1.00  0.00    -0.214 F  
HETATM   27  F   UNL     1     -10.832  17.701  67.781  1.00  0.00    -0.370 F  
ENDBRANCH  21  24
ENDBRANCH  12  14
ENDBRANCH  11  12
ENDBRANCH   6  11
ENDBRANCH   2   3
TORSDOF 6
ENDMDL
MODEL       80
REMARK 921   NORMALIZED FREE ENERGY PREDICTED BY IDOCK:   -5.44 KCAL/MOL
REMARK 922        TOTAL FREE ENERGY PREDICTED BY IDOCK:   -8.10 KCAL/MOL
REMARK 923 INTER-LIGAND FREE ENERGY PREDICTED BY IDOCK:   -7.85 KCAL/MOL
REMARK 924 INTRA-LIGAND FREE ENERGY PREDICTED BY IDOCK:   -0.25 KCAL/MOL
REMARK 927      BINDING AFFINITY PREDICTED BY RF-SCORE:    0.00 PKD
ROOT
HETATM    1  C   UNL     1      -5.816  20.648  65.212  1.00  0.00    -0.224 C  
HETATM    2  O   UNL     1      -7.225  20.589  65.427  1.00  0.00    -0.202 OA 
ENDROOT
BRANCH   2   3
HETATM    3  C   UNL     1      -7.611  19.945  66.577  1.00  0.00    -0.282 A  
HETATM    4  C   UNL     1      -8.784  19.182  66.749  1.00  0.00    -0.307 A  
HETATM    5  C   UNL     1      -7.048  19.509  68.844  1.00  0.00    -0.359 A  
HETATM    6  C   UNL     1      -8.952  18.501  67.960  1.00  0.00    -0.301 A  
HETATM    7  C   UNL     1      -6.749  20.130  67.650  1.00  0.00    -0.284 A  
HETATM    8  N   UNL     1      -8.115  18.701  69.017  1.00  0.00    -0.188 NA 
BRANCH   4   9
HETATM    9  O   UNL     1      -9.641  19.080  65.680  1.00  0.00    -0.327 OA 
HETATM   10  C   UNL     1     -10.686  20.053  65.621  1.00  0.00    -0.216 C  
ENDBRANCH   4   9
BRANCH   6  11
HETATM   11  C   UNL     1     -10.005  17.446  68.183  1.00  0.00    -0.308 C  
BRANCH  11  12
HETATM   12  S   UNL     1     -10.088  16.285  66.791  1.00  0.00    -0.287 S  
HETATM   13  O   UNL     1      -8.714  15.965  66.275  1.00  0.00    -0.306 OA 
BRANCH  12  14
HETATM   14  C   UNL     1     -10.605  14.875  67.653  1.00  0.00    -0.264 A  
HETATM   15  N   UNL     1     -10.210  13.641  67.419  1.00  0.00    -0.239 NA 
HETATM   16  C   UNL     1     -10.779  12.891  68.427  1.00  0.00    -0.255 A  
HETATM   17  H   UNL     1      -9.614  13.311  66.660  1.00  0.00     0.000 HD 
HETATM   18  C   UNL     1     -11.556  13.684  69.263  1.00  0.00    -0.311 A  
HETATM   19  N   UNL     1     -11.443  14.942  68.733  1.00  0.00    -0.291 NA 
HETATM   20  C   UNL     1     -12.238  13.186  70.377  1.00  0.00    -0.389 A  
HETATM   21  C   UNL     1     -12.125  11.812  70.640  1.00  0.00    -0.311 A  
HETATM   22  C   UNL     1     -11.328  10.996  69.829  1.00  0.00    -0.366 A  
HETATM   23  C   UNL     1     -10.658  11.523  68.712  1.00  0.00    -0.241 A  
BRANCH  21  24
HETATM   24  O   UNL     1     -12.822  11.390  71.740  1.00  0.00    -0.405 OA 
HETATM   25  C   UNL     1     -13.046   9.991  71.827  1.00  0.00    -0.457 C  
HETATM   26  F   UNL     1     -11.955   9.406  72.379  1.00  0.00    -0.374 F  
HETATM   27  F   UNL     1     -14.072   9.801  72.695  1.00  0.00    -0.357 F  
ENDBRANCH  21  24
ENDBRANCH  12  14
ENDBRANCH  11  12
ENDBRANCH   6  11
ENDBRANCH   2   3
TORSDOF 6
ENDMDL
MODEL       81
REMARK 921   NORMALIZED FREE ENERGY PREDICTED BY IDOCK:   -5.41 KCAL/MOL
REMARK 922        TOTAL FREE ENERGY PREDICTED BY IDOCK:   -8.06 KCAL/MOL
REMARK 923 INTER-LIGAND FREE ENERGY PREDICTED BY IDOCK:   -7.89 KCAL/MOL
REMARK 924 INTRA-LIGAND FREE ENERGY PREDICTED BY IDOCK:   -0.16 KCAL/MOL
REMARK 927      BINDING AFFINITY PREDICTED BY RF-SCORE:    0.00 PKD
ROOT
HETATM    1  C   UNL     1     -12.047   6.926  71.044  1.00  0.00    -0.380 C  
HETATM    2  O   UNL     1     -11.117   7.929  70.637  1.00  0.00    -0.254 OA 
ENDROOT
BRANCH   2   3
HETATM    3  C   UNL     1     -11.569   9.221  70.751  1.00  0.00    -0.285 A  
HETATM    4  C   UNL     1     -11.093  10.335  70.030  1.00  0.00    -0.311 A  
HETATM    5  C   UNL     1     -13.085  10.658  71.884  1.00  0.00    -0.458 A  
HETATM    6  C   UNL     1     -11.757  11.556  70.195  1.00  0.00    -0.309 A  
HETATM    7  C   UNL     1     -12.559   9.396  71.708  1.00  0.00    -0.470 A  
HETATM    8  N   UNL     1     -12.715  11.728  71.150  1.00  0.00    -0.358 NA 
BRANCH   4   9
HETATM    9  O   UNL     1     -10.067  10.128  69.141  1.00  0.00    -0.189 OA 
HETATM   10  C   UNL     1     -10.418  10.180  67.756  1.00  0.00    -0.232 C  
ENDBRANCH   4   9
BRANCH   6  11
HETATM   11  C   UNL     1     -11.538  12.750  69.302  1.00  0.00    -0.314 C  
BRANCH  11  12
HETATM   12  S   UNL     1     -12.261  14.255  70.014  1.00  0.00    -0.362 S  
HETATM   13  O   UNL     1     -11.753  14.487  71.408  1.00  0.00    -0.311 OA 
BRANCH  12  14
HETATM   14  C   UNL     1     -11.461  15.428  69.022  1.00  0.00    -0.337 A  
HETATM   15  N   UNL     1     -11.599  15.558  67.719  1.00  0.00    -0.255 NA 
HETATM   16  C   UNL     1     -10.882  16.691  67.400  1.00  0.00    -0.186 A  
HETATM   17  H   UNL     1     -12.121  14.953  67.086  1.00  0.00     0.000 HD 
HETATM   18  C   UNL     1     -10.275  17.234  68.527  1.00  0.00    -0.358 A  
HETATM   19  N   UNL     1     -10.646  16.396  69.544  1.00  0.00    -0.308 NA 
HETATM   20  C   UNL     1      -9.498  18.395  68.495  1.00  0.00    -0.355 A  
HETATM   21  C   UNL     1      -9.328  19.022  67.250  1.00  0.00    -0.304 A  
HETATM   22  C   UNL     1      -9.948  18.511  66.106  1.00  0.00    -0.341 A  
HETATM   23  C   UNL     1     -10.720  17.338  66.166  1.00  0.00    -0.095 A  
BRANCH  21  24
HETATM   24  O   UNL     1      -8.551  20.149  67.289  1.00  0.00    -0.323 OA 
HETATM   25  C   UNL     1      -7.212  19.959  67.720  1.00  0.00    -0.278 C  
HETATM   26  F   UNL     1      -6.463  19.562  66.662  1.00  0.00    -0.185 F  
HETATM   27  F   UNL     1      -6.736  21.171  68.102  1.00  0.00    -0.336 F  
ENDBRANCH  21  24
ENDBRANCH  12  14
ENDBRANCH  11  12
ENDBRANCH   6  11
ENDBRANCH   2   3
TORSDOF 6
ENDMDL
MODEL       82
REMARK 921   NORMALIZED FREE ENERGY PREDICTED BY IDOCK:   -5.41 KCAL/MOL
REMARK 922        TOTAL FREE ENERGY PREDICTED BY IDOCK:   -8.05 KCAL/MOL
REMARK 923 INTER-LIGAND FREE ENERGY PREDICTED BY IDOCK:   -7.67 KCAL/MOL
REMARK 924 INTRA-LIGAND FREE ENERGY PREDICTED BY IDOCK:   -0.38 KCAL/MOL
REMARK 927      BINDING AFFINITY PREDICTED BY RF-SCORE:    0.00 PKD
ROOT
HETATM    1  C   UNL     1     -14.278   7.541  71.539  1.00  0.00    -0.445 C  
HETATM    2  O   UNL     1     -12.980   7.007  71.795  1.00  0.00    -0.359 OA 
ENDROOT
BRANCH   2   3
HETATM    3  C   UNL     1     -11.949   7.665  71.170  1.00  0.00    -0.297 A  
HETATM    4  C   UNL     1     -11.013   7.091  70.285  1.00  0.00    -0.271 A  
HETATM    5  C   UNL     1     -10.842   9.752  70.917  1.00  0.00    -0.328 A  
HETATM    6  C   UNL     1     -10.101   7.944  69.652  1.00  0.00    -0.197 A  
HETATM    7  C   UNL     1     -11.840   9.007  71.508  1.00  0.00    -0.415 A  
HETATM    8  N   UNL     1      -9.985   9.256  70.001  1.00  0.00    -0.196 NA 
BRANCH   4   9
HETATM    9  O   UNL     1     -11.117   5.746  70.030  1.00  0.00    -0.348 OA 
HETATM   10  C   UNL     1     -10.247   4.896  70.781  1.00  0.00    -0.206 C  
ENDBRANCH   4   9
BRANCH   6  11
HETATM   11  C   UNL     1      -9.233   7.522  68.493  1.00  0.00    -0.143 C  
BRANCH  11  12
HETATM   12  S   UNL     1     -10.192   7.384  66.959  1.00  0.00    -0.300 S  
HETATM   13  O   UNL     1     -11.500   6.689  67.204  1.00  0.00    -0.230 OA 
BRANCH  12  14
HETATM   14  C   UNL     1     -10.584   9.057  66.740  1.00  0.00    -0.131 A  
HETATM   15  N   UNL     1     -11.349   9.779  67.531  1.00  0.00    -0.395 NA 
HETATM   16  C   UNL     1     -11.260  11.062  67.034  1.00  0.00    -0.181 A  
HETATM   17  H   UNL     1     -11.889   9.460  68.335  1.00  0.00     0.000 HD 
HETATM   18  C   UNL     1     -10.452  11.106  65.903  1.00  0.00    -0.253 A  
HETATM   19  N   UNL     1     -10.051   9.808  65.728  1.00  0.00    -0.278 NA 
HETATM   20  C   UNL     1     -10.176  12.283  65.203  1.00  0.00    -0.305 A  
HETATM   21  C   UNL     1     -10.762  13.467  65.678  1.00  0.00    -0.281 A  
HETATM   22  C   UNL     1     -11.558  13.455  66.828  1.00  0.00    -0.404 A  
HETATM   23  C   UNL     1     -11.824  12.255  67.509  1.00  0.00    -0.331 A  
BRANCH  21  24
HETATM   24  O   UNL     1     -10.456  14.581  64.942  1.00  0.00    -0.418 OA 
HETATM   25  C   UNL     1     -11.019  15.798  65.406  1.00  0.00    -0.309 C  
HETATM   26  F   UNL     1     -10.224  16.307  66.379  1.00  0.00    -0.265 F  
HETATM   27  F   UNL     1     -10.983  16.678  64.373  1.00  0.00    -0.385 F  
ENDBRANCH  21  24
ENDBRANCH  12  14
ENDBRANCH  11  12
ENDBRANCH   6  11
ENDBRANCH   2   3
TORSDOF 6
ENDMDL
MODEL       83
REMARK 921   NORMALIZED FREE ENERGY PREDICTED BY IDOCK:   -5.41 KCAL/MOL
REMARK 922        TOTAL FREE ENERGY PREDICTED BY IDOCK:   -8.05 KCAL/MOL
REMARK 923 INTER-LIGAND FREE ENERGY PREDICTED BY IDOCK:   -6.97 KCAL/MOL
REMARK 924 INTRA-LIGAND FREE ENERGY PREDICTED BY IDOCK:   -1.08 KCAL/MOL
REMARK 927      BINDING AFFINITY PREDICTED BY RF-SCORE:    0.00 PKD
ROOT
HETATM    1  C   UNL     1      -8.078   6.031  71.780  1.00  0.00    -0.114 C  
HETATM    2  O   UNL     1      -9.064   7.057  71.891  1.00  0.00    -0.140 OA 
ENDROOT
BRANCH   2   3
HETATM    3  C   UNL     1      -8.992   8.038  70.933  1.00  0.00    -0.140 A  
HETATM    4  C   UNL     1      -9.949   8.289  69.928  1.00  0.00    -0.190 A  
HETATM    5  C   UNL     1      -7.678   9.817  70.065  1.00  0.00    -0.171 A  
HETATM    6  C   UNL     1      -9.762   9.410  69.110  1.00  0.00    -0.165 A  
HETATM    7  C   UNL     1      -7.831   8.797  70.980  1.00  0.00    -0.145 A  
HETATM    8  N   UNL     1      -8.611  10.140  69.147  1.00  0.00    -0.154 NA 
BRANCH   4   9
HETATM    9  O   UNL     1     -11.051   7.471  69.877  1.00  0.00    -0.246 OA 
HETATM   10  C   UNL     1     -10.888   6.245  69.161  1.00  0.00    -0.340 C  
ENDBRANCH   4   9
BRANCH   6  11
HETATM   11  C   UNL     1     -10.822   9.952  68.186  1.00  0.00    -0.234 C  
BRANCH  11  12
HETATM   12  S   UNL     1     -11.894  11.147  69.033  1.00  0.00    -0.322 S  
HETATM   13  O   UNL     1     -11.713  11.070  70.522  1.00  0.00    -0.322 OA 
BRANCH  12  14
HETATM   14  C   UNL     1     -11.104  12.607  68.540  1.00  0.00    -0.266 A  
HETATM   15  N   UNL     1      -9.839  12.907  68.746  1.00  0.00    -0.418 NA 
HETATM   16  C   UNL     1      -9.642  14.091  68.069  1.00  0.00    -0.217 A  
HETATM   17  H   UNL     1      -9.156  12.379  69.288  1.00  0.00     0.000 HD 
HETATM   18  C   UNL     1     -10.818  14.528  67.471  1.00  0.00    -0.289 A  
HETATM   19  N   UNL     1     -11.739  13.572  67.805  1.00  0.00    -0.338 NA 
HETATM   20  C   UNL     1     -10.902  15.696  66.707  1.00  0.00    -0.277 A  
HETATM   21  C   UNL     1      -9.730  16.454  66.558  1.00  0.00    -0.269 A  
HETATM   22  C   UNL     1      -8.528  16.024  67.128  1.00  0.00    -0.223 A  
HETATM   23  C   UNL     1      -8.473  14.848  67.896  1.00  0.00    -0.154 A  
BRANCH  21  24
HETATM   24  O   UNL     1      -9.885  17.588  65.805  1.00  0.00    -0.537 OA 
HETATM   25  C   UNL     1     -10.325  18.738  66.509  1.00  0.00    -0.424 C  
HETATM   26  F   UNL     1      -9.253  19.344  67.076  1.00  0.00    -0.308 F  
HETATM   27  F   UNL     1     -10.823  19.605  65.590  1.00  0.00    -0.568 F  
ENDBRANCH  21  24
ENDBRANCH  12  14
ENDBRANCH  11  12
ENDBRANCH   6  11
ENDBRANCH   2   3
TORSDOF 6
ENDMDL
MODEL       84
REMARK 921   NORMALIZED FREE ENERGY PREDICTED BY IDOCK:   -5.40 KCAL/MOL
REMARK 922        TOTAL FREE ENERGY PREDICTED BY IDOCK:   -8.05 KCAL/MOL
REMARK 923 INTER-LIGAND FREE ENERGY PREDICTED BY IDOCK:   -7.16 KCAL/MOL
REMARK 924 INTRA-LIGAND FREE ENERGY PREDICTED BY IDOCK:   -0.89 KCAL/MOL
REMARK 927      BINDING AFFINITY PREDICTED BY RF-SCORE:    0.00 PKD
ROOT
HETATM    1  C   UNL     1      -7.603   3.276  68.224  1.00  0.00    -0.056 C  
HETATM    2  O   UNL     1      -8.999   3.144  68.488  1.00  0.00    -0.107 OA 
ENDROOT
BRANCH   2   3
HETATM    3  C   UNL     1      -9.732   4.295  68.326  1.00  0.00    -0.096 A  
HETATM    4  C   UNL     1     -10.279   5.084  69.359  1.00  0.00    -0.198 A  
HETATM    5  C   UNL     1     -10.673   5.794  66.741  1.00  0.00    -0.297 A  
HETATM    6  C   UNL     1     -10.897   6.289  69.005  1.00  0.00    -0.337 A  
HETATM    7  C   UNL     1      -9.959   4.644  67.002  1.00  0.00    -0.227 A  
HETATM    8  N   UNL     1     -11.135   6.619  67.704  1.00  0.00    -0.302 NA 
BRANCH   4   9
HETATM    9  O   UNL     1     -10.086   4.665  70.652  1.00  0.00    -0.223 OA 
HETATM   10  C   UNL     1      -8.848   5.045  71.256  1.00  0.00    -0.134 C  
ENDBRANCH   4   9
BRANCH   6  11
HETATM   11  C   UNL     1     -11.281   7.352  70.003  1.00  0.00    -0.180 C  
BRANCH  11  12
HETATM   12  S   UNL     1      -9.922   8.522  70.284  1.00  0.00    -0.188 S  
HETATM   13  O   UNL     1      -8.724   8.164  69.453  1.00  0.00    -0.140 OA 
BRANCH  12  14
HETATM   14  C   UNL     1     -10.616   9.918  69.531  1.00  0.00    -0.242 A  
HETATM   15  N   UNL     1     -10.920  11.048  70.134  1.00  0.00    -0.467 NA 
HETATM   16  C   UNL     1     -11.313  11.896  69.120  1.00  0.00    -0.279 A  
HETATM   17  H   UNL     1     -10.876  11.252  71.132  1.00  0.00     0.000 HD 
HETATM   18  C   UNL     1     -11.274  11.253  67.888  1.00  0.00    -0.290 A  
HETATM   19  N   UNL     1     -10.845   9.987  68.183  1.00  0.00    -0.256 NA 
HETATM   20  C   UNL     1     -11.608  11.882  66.684  1.00  0.00    -0.337 A  
HETATM   21  C   UNL     1     -12.008  13.226  66.749  1.00  0.00    -0.382 A  
HETATM   22  C   UNL     1     -12.031  13.903  67.973  1.00  0.00    -0.390 A  
HETATM   23  C   UNL     1     -11.695  13.245  69.168  1.00  0.00    -0.379 A  
BRANCH  21  24
HETATM   24  O   UNL     1     -12.327  13.777  65.537  1.00  0.00    -0.415 OA 
HETATM   25  C   UNL     1     -11.549  14.897  65.147  1.00  0.00    -0.330 C  
HETATM   26  F   UNL     1     -10.405  14.457  64.568  1.00  0.00    -0.433 F  
HETATM   27  F   UNL     1     -12.244  15.556  64.185  1.00  0.00    -0.475 F  
ENDBRANCH  21  24
ENDBRANCH  12  14
ENDBRANCH  11  12
ENDBRANCH   6  11
ENDBRANCH   2   3
TORSDOF 6
ENDMDL
MODEL       85
REMARK 921   NORMALIZED FREE ENERGY PREDICTED BY IDOCK:   -5.40 KCAL/MOL
REMARK 922        TOTAL FREE ENERGY PREDICTED BY IDOCK:   -8.05 KCAL/MOL
REMARK 923 INTER-LIGAND FREE ENERGY PREDICTED BY IDOCK:   -7.21 KCAL/MOL
REMARK 924 INTRA-LIGAND FREE ENERGY PREDICTED BY IDOCK:   -0.84 KCAL/MOL
REMARK 927      BINDING AFFINITY PREDICTED BY RF-SCORE:    0.00 PKD
ROOT
HETATM    1  C   UNL     1      -7.174   6.429  67.785  1.00  0.00    -0.087 C  
HETATM    2  O   UNL     1      -7.341   6.796  69.153  1.00  0.00    -0.088 OA 
ENDROOT
BRANCH   2   3
HETATM    3  C   UNL     1      -8.518   6.379  69.726  1.00  0.00    -0.127 A  
HETATM    4  C   UNL     1      -9.644   7.186  69.990  1.00  0.00    -0.164 A  
HETATM    5  C   UNL     1      -9.678   4.530  70.665  1.00  0.00    -0.212 A  
HETATM    6  C   UNL     1     -10.800   6.561  70.471  1.00  0.00    -0.271 A  
HETATM    7  C   UNL     1      -8.531   5.041  70.095  1.00  0.00    -0.097 A  
HETATM    8  N   UNL     1     -10.802   5.252  70.851  1.00  0.00    -0.123 NA 
BRANCH   4   9
HETATM    9  O   UNL     1      -9.563   8.519  69.669  1.00  0.00    -0.167 OA 
HETATM   10  C   UNL     1      -9.917   8.862  68.327  1.00  0.00    -0.175 C  
ENDBRANCH   4   9
BRANCH   6  11
HETATM   11  C   UNL     1     -12.145   7.238  70.542  1.00  0.00    -0.113 C  
BRANCH  11  12
HETATM   12  S   UNL     1     -12.468   7.904  72.198  1.00  0.00    -0.231 S  
HETATM   13  O   UNL     1     -11.234   7.846  73.051  1.00  0.00    -0.411 OA 
BRANCH  12  14
HETATM   14  C   UNL     1     -12.670   9.572  71.778  1.00  0.00    -0.404 A  
HETATM   15  N   UNL     1     -13.376  10.457  72.450  1.00  0.00    -0.553 NA 
HETATM   16  C   UNL     1     -13.134  11.657  71.817  1.00  0.00    -0.382 A  
HETATM   17  H   UNL     1     -13.971  10.291  73.261  1.00  0.00     0.000 HD 
HETATM   18  C   UNL     1     -12.292  11.486  70.724  1.00  0.00    -0.375 A  
HETATM   19  N   UNL     1     -12.028  10.142  70.711  1.00  0.00    -0.322 NA 
HETATM   20  C   UNL     1     -11.869  12.540  69.908  1.00  0.00    -0.373 A  
HETATM   21  C   UNL     1     -12.337  13.825  70.223  1.00  0.00    -0.337 A  
HETATM   22  C   UNL     1     -13.165  14.029  71.332  1.00  0.00    -0.404 A  
HETATM   23  C   UNL     1     -13.579  12.950  72.132  1.00  0.00    -0.589 A  
BRANCH  21  24
HETATM   24  O   UNL     1     -11.890  14.809  69.381  1.00  0.00    -0.295 OA 
HETATM   25  C   UNL     1     -11.109  15.827  69.985  1.00  0.00    -0.344 C  
HETATM   26  F   UNL     1      -9.822  15.405  70.063  1.00  0.00    -0.275 F  
HETATM   27  F   UNL     1     -11.119  16.894  69.146  1.00  0.00    -0.289 F  
ENDBRANCH  21  24
ENDBRANCH  12  14
ENDBRANCH  11  12
ENDBRANCH   6  11
ENDBRANCH   2   3
TORSDOF 6
ENDMDL
MODEL       86
REMARK 921   NORMALIZED FREE ENERGY PREDICTED BY IDOCK:   -5.40 KCAL/MOL
REMARK 922        TOTAL FREE ENERGY PREDICTED BY IDOCK:   -8.04 KCAL/MOL
REMARK 923 INTER-LIGAND FREE ENERGY PREDICTED BY IDOCK:   -7.26 KCAL/MOL
REMARK 924 INTRA-LIGAND FREE ENERGY PREDICTED BY IDOCK:   -0.78 KCAL/MOL
REMARK 927      BINDING AFFINITY PREDICTED BY RF-SCORE:    0.00 PKD
ROOT
HETATM    1  C   UNL     1      -8.849   4.713  69.731  1.00  0.00    -0.089 C  
HETATM    2  O   UNL     1      -9.318   5.978  70.193  1.00  0.00    -0.151 OA 
ENDROOT
BRANCH   2   3
HETATM    3  C   UNL     1      -9.756   6.829  69.208  1.00  0.00    -0.151 A  
HETATM    4  C   UNL     1      -9.824   8.235  69.295  1.00  0.00    -0.186 A  
HETATM    5  C   UNL     1     -10.643   6.967  67.008  1.00  0.00    -0.333 A  
HETATM    6  C   UNL     1     -10.187   8.946  68.145  1.00  0.00    -0.201 A  
HETATM    7  C   UNL     1     -10.198   6.191  68.057  1.00  0.00    -0.210 A  
HETATM    8  N   UNL     1     -10.639   8.316  67.025  1.00  0.00    -0.310 NA 
BRANCH   4   9
HETATM    9  O   UNL     1      -9.439   8.821  70.476  1.00  0.00    -0.164 OA 
HETATM   10  C   UNL     1     -10.473   9.020  71.443  1.00  0.00    -0.324 C  
ENDBRANCH   4   9
BRANCH   6  11
HETATM   11  C   UNL     1     -10.042  10.441  68.011  1.00  0.00    -0.163 C  
BRANCH  11  12
HETATM   12  S   UNL     1     -11.657  11.254  67.852  1.00  0.00    -0.209 S  
HETATM   13  O   UNL     1     -12.489  11.041  69.084  1.00  0.00    -0.432 OA 
BRANCH  12  14
HETATM   14  C   UNL     1     -11.131  12.902  67.921  1.00  0.00    -0.252 A  
HETATM   15  N   UNL     1     -10.487  13.465  68.922  1.00  0.00    -0.398 NA 
HETATM   16  C   UNL     1     -10.169  14.729  68.471  1.00  0.00    -0.232 A  
HETATM   17  H   UNL     1     -10.270  13.056  69.830  1.00  0.00     0.000 HD 
HETATM   18  C   UNL     1     -10.660  14.941  67.188  1.00  0.00    -0.285 A  
HETATM   19  N   UNL     1     -11.286  13.766  66.870  1.00  0.00    -0.317 NA 
HETATM   20  C   UNL     1     -10.470  16.132  66.481  1.00  0.00    -0.298 A  
HETATM   21  C   UNL     1      -9.753  17.154  67.123  1.00  0.00    -0.261 A  
HETATM   22  C   UNL     1      -9.227  16.958  68.404  1.00  0.00    -0.253 A  
HETATM   23  C   UNL     1      -9.438  15.751  69.094  1.00  0.00    -0.255 A  
BRANCH  21  24
HETATM   24  O   UNL     1      -9.610  18.295  66.379  1.00  0.00    -0.312 OA 
HETATM   25  C   UNL     1     -10.587  19.299  66.599  1.00  0.00    -0.438 C  
HETATM   26  F   UNL     1     -10.223  20.039  67.675  1.00  0.00    -0.484 F  
HETATM   27  F   UNL     1     -10.558  20.131  65.526  1.00  0.00    -0.550 F  
ENDBRANCH  21  24
ENDBRANCH  12  14
ENDBRANCH  11  12
ENDBRANCH   6  11
ENDBRANCH   2   3
TORSDOF 6
ENDMDL
MODEL       87
REMARK 921   NORMALIZED FREE ENERGY PREDICTED BY IDOCK:   -5.39 KCAL/MOL
REMARK 922        TOTAL FREE ENERGY PREDICTED BY IDOCK:   -8.03 KCAL/MOL
REMARK 923 INTER-LIGAND FREE ENERGY PREDICTED BY IDOCK:   -7.21 KCAL/MOL
REMARK 924 INTRA-LIGAND FREE ENERGY PREDICTED BY IDOCK:   -0.82 KCAL/MOL
REMARK 927      BINDING AFFINITY PREDICTED BY RF-SCORE:    0.00 PKD
ROOT
HETATM    1  C   UNL     1      -7.046  19.560  66.273  1.00  0.00    -0.245 C  
HETATM    2  O   UNL     1      -7.375  18.996  67.542  1.00  0.00    -0.224 OA 
ENDROOT
BRANCH   2   3
HETATM    3  C   UNL     1      -7.822  17.699  67.502  1.00  0.00    -0.202 A  
HETATM    4  C   UNL     1      -9.162  17.277  67.634  1.00  0.00    -0.229 A  
HETATM    5  C   UNL     1      -7.174  15.422  67.292  1.00  0.00    -0.194 A  
HETATM    6  C   UNL     1      -9.443  15.919  67.449  1.00  0.00    -0.219 A  
HETATM    7  C   UNL     1      -6.817  16.753  67.357  1.00  0.00    -0.186 A  
HETATM    8  N   UNL     1      -8.452  14.991  67.326  1.00  0.00    -0.184 NA 
BRANCH   4   9
HETATM    9  O   UNL     1     -10.116  18.243  67.842  1.00  0.00    -0.326 OA 
HETATM   10  C   UNL     1     -10.602  18.906  66.673  1.00  0.00    -0.395 C  
ENDBRANCH   4   9
BRANCH   6  11
HETATM   11  C   UNL     1     -10.839  15.371  67.292  1.00  0.00    -0.316 C  
BRANCH  11  12
HETATM   12  S   UNL     1     -11.328  15.288  65.546  1.00  0.00    -0.156 S  
HETATM   13  O   UNL     1     -10.459  16.174  64.702  1.00  0.00    -0.526 OA 
BRANCH  12  14
HETATM   14  C   UNL     1     -10.817  13.668  65.206  1.00  0.00    -0.322 A  
HETATM   15  N   UNL     1     -10.314  13.242  64.066  1.00  0.00    -0.690 NA 
HETATM   16  C   UNL     1      -9.939  11.938  64.311  1.00  0.00    -0.246 A  
HETATM   17  H   UNL     1     -10.223  13.762  63.193  1.00  0.00     0.000 HD 
HETATM   18  C   UNL     1     -10.251  11.564  65.613  1.00  0.00    -0.248 A  
HETATM   19  N   UNL     1     -10.828  12.681  66.154  1.00  0.00    -0.268 NA 
HETATM   20  C   UNL     1      -9.968  10.298  66.136  1.00  0.00    -0.300 A  
HETATM   21  C   UNL     1      -9.345   9.374  65.282  1.00  0.00    -0.238 A  
HETATM   22  C   UNL     1      -8.998   9.733  63.976  1.00  0.00    -0.275 A  
HETATM   23  C   UNL     1      -9.299  11.011  63.475  1.00  0.00    -0.276 A  
BRANCH  21  24
HETATM   24  O   UNL     1      -9.102   8.154  65.855  1.00  0.00    -0.177 OA 
HETATM   25  C   UNL     1      -9.790   7.897  67.069  1.00  0.00    -0.225 C  
HETATM   26  F   UNL     1     -11.033   7.438  66.781  1.00  0.00    -0.426 F  
HETATM   27  F   UNL     1      -9.137   6.886  67.696  1.00  0.00    -0.121 F  
ENDBRANCH  21  24
ENDBRANCH  12  14
ENDBRANCH  11  12
ENDBRANCH   6  11
ENDBRANCH   2   3
TORSDOF 6
ENDMDL
MODEL       88
REMARK 921   NORMALIZED FREE ENERGY PREDICTED BY IDOCK:   -5.39 KCAL/MOL
REMARK 922        TOTAL FREE ENERGY PREDICTED BY IDOCK:   -8.03 KCAL/MOL
REMARK 923 INTER-LIGAND FREE ENERGY PREDICTED BY IDOCK:   -7.09 KCAL/MOL
REMARK 924 INTRA-LIGAND FREE ENERGY PREDICTED BY IDOCK:   -0.94 KCAL/MOL
REMARK 927      BINDING AFFINITY PREDICTED BY RF-SCORE:    0.00 PKD
ROOT
HETATM    1  C   UNL     1     -14.124  14.032  72.400  1.00  0.00    -0.476 C  
HETATM    2  O   UNL     1     -12.756  13.775  72.088  1.00  0.00    -0.276 OA 
ENDROOT
BRANCH   2   3
HETATM    3  C   UNL     1     -12.427  13.915  70.762  1.00  0.00    -0.375 A  
HETATM    4  C   UNL     1     -11.946  12.896  69.913  1.00  0.00    -0.307 A  
HETATM    5  C   UNL     1     -12.267  15.440  68.947  1.00  0.00    -0.086 A  
HETATM    6  C   UNL     1     -11.775  13.198  68.557  1.00  0.00    -0.352 A  
HETATM    7  C   UNL     1     -12.561  15.207  70.274  1.00  0.00    -0.370 A  
HETATM    8  N   UNL     1     -11.889  14.472  68.087  1.00  0.00    -0.329 NA 
BRANCH   4   9
HETATM    9  O   UNL     1     -11.766  11.647  70.455  1.00  0.00    -0.292 OA 
HETATM   10  C   UNL     1     -12.938  10.838  70.569  1.00  0.00    -0.184 C  
ENDBRANCH   4   9
BRANCH   6  11
HETATM   11  C   UNL     1     -11.532  12.155  67.496  1.00  0.00    -0.340 C  
BRANCH  11  12
HETATM   12  S   UNL     1      -9.767  11.765  67.340  1.00  0.00    -0.179 S  
HETATM   13  O   UNL     1      -9.473  11.130  66.011  1.00  0.00    -0.193 OA 
BRANCH  12  14
HETATM   14  C   UNL     1      -9.147  13.378  67.237  1.00  0.00    -0.222 A  
HETATM   15  N   UNL     1      -9.428  14.253  66.294  1.00  0.00    -0.409 NA 
HETATM   16  C   UNL     1      -8.818  15.420  66.701  1.00  0.00    -0.295 A  
HETATM   17  H   UNL     1      -9.977  14.101  65.448  1.00  0.00     0.000 HD 
HETATM   18  C   UNL     1      -8.129  15.235  67.895  1.00  0.00    -0.138 A  
HETATM   19  N   UNL     1      -8.341  13.918  68.203  1.00  0.00    -0.154 NA 
HETATM   20  C   UNL     1      -7.430  16.257  68.544  1.00  0.00    -0.176 A  
HETATM   21  C   UNL     1      -7.429  17.522  67.937  1.00  0.00    -0.205 A  
HETATM   22  C   UNL     1      -8.134  17.742  66.749  1.00  0.00    -0.265 A  
HETATM   23  C   UNL     1      -8.825  16.695  66.115  1.00  0.00    -0.323 A  
BRANCH  21  24
HETATM   24  O   UNL     1      -6.721  18.474  68.620  1.00  0.00    -0.241 OA 
HETATM   25  C   UNL     1      -7.235  19.795  68.547  1.00  0.00    -0.321 C  
HETATM   26  F   UNL     1      -8.204  19.942  69.483  1.00  0.00    -0.233 F  
HETATM   27  F   UNL     1      -6.228  20.638  68.891  1.00  0.00    -0.345 F  
ENDBRANCH  21  24
ENDBRANCH  12  14
ENDBRANCH  11  12
ENDBRANCH   6  11
ENDBRANCH   2   3
TORSDOF 6
ENDMDL
MODEL       89
REMARK 921   NORMALIZED FREE ENERGY PREDICTED BY IDOCK:   -5.38 KCAL/MOL
REMARK 922        TOTAL FREE ENERGY PREDICTED BY IDOCK:   -8.02 KCAL/MOL
REMARK 923 INTER-LIGAND FREE ENERGY PREDICTED BY IDOCK:   -7.37 KCAL/MOL
REMARK 924 INTRA-LIGAND FREE ENERGY PREDICTED BY IDOCK:   -0.65 KCAL/MOL
REMARK 927      BINDING AFFINITY PREDICTED BY RF-SCORE:    0.00 PKD
ROOT
HETATM    1  C   UNL     1     -11.378  15.866  68.988  1.00  0.00    -0.371 C  
HETATM    2  O   UNL     1     -12.198  15.080  68.126  1.00  0.00    -0.142 OA 
ENDROOT
BRANCH   2   3
HETATM    3  C   UNL     1     -11.544  14.511  67.061  1.00  0.00    -0.386 A  
HETATM    4  C   UNL     1     -11.442  13.131  66.789  1.00  0.00    -0.343 A  
HETATM    5  C   UNL     1     -10.236  14.944  65.124  1.00  0.00    -0.375 A  
HETATM    6  C   UNL     1     -10.833  12.742  65.590  1.00  0.00    -0.273 A  
HETATM    7  C   UNL     1     -10.907  15.422  66.229  1.00  0.00    -0.301 A  
HETATM    8  N   UNL     1     -10.193  13.638  64.787  1.00  0.00    -0.377 NA 
BRANCH   4   9
HETATM    9  O   UNL     1     -12.030  12.262  67.675  1.00  0.00    -0.494 OA 
HETATM   10  C   UNL     1     -11.385  12.127  68.943  1.00  0.00    -0.283 C  
ENDBRANCH   4   9
BRANCH   6  11
HETATM   11  C   UNL     1     -10.893  11.338  65.044  1.00  0.00    -0.216 C  
BRANCH  11  12
HETATM   12  S   UNL     1      -9.338  10.447  65.328  1.00  0.00    -0.237 S  
HETATM   13  O   UNL     1      -8.386  11.274  66.143  1.00  0.00    -0.167 OA 
BRANCH  12  14
HETATM   14  C   UNL     1      -9.928   9.221  66.399  1.00  0.00    -0.286 A  
HETATM   15  N   UNL     1     -10.114   7.954  66.093  1.00  0.00    -0.432 NA 
HETATM   16  C   UNL     1     -10.460   7.350  67.282  1.00  0.00    -0.315 A  
HETATM   17  H   UNL     1     -10.022   7.516  65.177  1.00  0.00     0.000 HD 
HETATM   18  C   UNL     1     -10.515   8.276  68.317  1.00  0.00    -0.161 A  
HETATM   19  N   UNL     1     -10.191   9.465  67.720  1.00  0.00    -0.208 NA 
HETATM   20  C   UNL     1     -10.829   7.935  69.636  1.00  0.00    -0.177 A  
HETATM   21  C   UNL     1     -11.106   6.586  69.904  1.00  0.00    -0.371 A  
HETATM   22  C   UNL     1     -11.033   5.629  68.886  1.00  0.00    -0.136 A  
HETATM   23  C   UNL     1     -10.721   6.001  67.567  1.00  0.00    -0.383 A  
BRANCH  21  24
HETATM   24  O   UNL     1     -11.412   6.323  71.213  1.00  0.00    -0.298 OA 
HETATM   25  C   UNL     1     -10.450   5.564  71.928  1.00  0.00    -0.225 C  
HETATM   26  F   UNL     1      -9.488   6.400  72.392  1.00  0.00    -0.146 F  
HETATM   27  F   UNL     1     -11.074   5.045  73.016  1.00  0.00    -0.264 F  
ENDBRANCH  21  24
ENDBRANCH  12  14
ENDBRANCH  11  12
ENDBRANCH   6  11
ENDBRANCH   2   3
TORSDOF 6
ENDMDL
MODEL       90
REMARK 921   NORMALIZED FREE ENERGY PREDICTED BY IDOCK:   -5.37 KCAL/MOL
REMARK 922        TOTAL FREE ENERGY PREDICTED BY IDOCK:   -8.01 KCAL/MOL
REMARK 923 INTER-LIGAND FREE ENERGY PREDICTED BY IDOCK:   -6.99 KCAL/MOL
REMARK 924 INTRA-LIGAND FREE ENERGY PREDICTED BY IDOCK:   -1.02 KCAL/MOL
REMARK 927      BINDING AFFINITY PREDICTED BY RF-SCORE:    0.00 PKD
ROOT
HETATM    1  C   UNL     1     -11.739  12.529  68.447  1.00  0.00    -0.328 C  
HETATM    2  O   UNL     1     -12.150  11.176  68.630  1.00  0.00    -0.556 OA 
ENDROOT
BRANCH   2   3
HETATM    3  C   UNL     1     -11.360  10.438  69.477  1.00  0.00    -0.265 A  
HETATM    4  C   UNL     1     -11.755   9.890  70.715  1.00  0.00    -0.341 A  
HETATM    5  C   UNL     1      -9.187   9.541  69.823  1.00  0.00    -0.208 A  
HETATM    6  C   UNL     1     -10.844   9.066  71.387  1.00  0.00    -0.330 A  
HETATM    7  C   UNL     1     -10.051  10.281  69.043  1.00  0.00    -0.225 A  
HETATM    8  N   UNL     1      -9.554   8.931  70.968  1.00  0.00    -0.230 NA 
BRANCH   4   9
HETATM    9  O   UNL     1     -13.040  10.126  71.136  1.00  0.00    -0.371 OA 
HETATM   10  C   UNL     1     -13.237  11.305  71.919  1.00  0.00    -0.386 C  
ENDBRANCH   4   9
BRANCH   6  11
HETATM   11  C   UNL     1     -11.216   8.204  72.567  1.00  0.00    -0.391 C  
BRANCH  11  12
HETATM   12  S   UNL     1     -12.058   6.685  72.042  1.00  0.00    -0.272 S  
HETATM   13  O   UNL     1     -13.426   6.988  71.503  1.00  0.00    -0.360 OA 
BRANCH  12  14
HETATM   14  C   UNL     1     -11.083   6.305  70.663  1.00  0.00    -0.327 A  
HETATM   15  N   UNL     1      -9.879   5.774  70.692  1.00  0.00    -0.180 NA 
HETATM   16  C   UNL     1      -9.565   5.537  69.371  1.00  0.00    -0.147 A  
HETATM   17  H   UNL     1      -9.304   5.581  71.512  1.00  0.00     0.000 HD 
HETATM   18  C   UNL     1     -10.586   5.963  68.529  1.00  0.00    -0.252 A  
HETATM   19  N   UNL     1     -11.533   6.467  69.380  1.00  0.00    -0.379 NA 
HETATM   20  C   UNL     1     -10.539   5.831  67.138  1.00  0.00    -0.365 A  
HETATM   21  C   UNL     1      -9.390   5.244  66.586  1.00  0.00    -0.138 A  
HETATM   22  C   UNL     1      -8.359   4.784  67.411  1.00  0.00    -0.105 A  
HETATM   23  C   UNL     1      -8.430   4.935  68.807  1.00  0.00    -0.089 A  
BRANCH  21  24
HETATM   24  O   UNL     1      -9.406   5.151  65.219  1.00  0.00    -0.135 OA 
HETATM   25  C   UNL     1      -9.954   3.955  64.691  1.00  0.00    -0.204 C  
HETATM   26  F   UNL     1     -11.303   4.078  64.630  1.00  0.00    -0.290 F  
HETATM   27  F   UNL     1      -9.515   3.841  63.411  1.00  0.00    -0.111 F  
ENDBRANCH  21  24
ENDBRANCH  12  14
ENDBRANCH  11  12
ENDBRANCH   6  11
ENDBRANCH   2   3
TORSDOF 6
ENDMDL
MODEL       91
REMARK 921   NORMALIZED FREE ENERGY PREDICTED BY IDOCK:   -5.36 KCAL/MOL
REMARK 922        TOTAL FREE ENERGY PREDICTED BY IDOCK:   -7.98 KCAL/MOL
REMARK 923 INTER-LIGAND FREE ENERGY PREDICTED BY IDOCK:   -7.26 KCAL/MOL
REMARK 924 INTRA-LIGAND FREE ENERGY PREDICTED BY IDOCK:   -0.72 KCAL/MOL
REMARK 927      BINDING AFFINITY PREDICTED BY RF-SCORE:    0.00 PKD
ROOT
HETATM    1  C   UNL     1      -6.493  21.219  67.359  1.00  0.00    -0.346 C  
HETATM    2  O   UNL     1      -6.795  19.889  67.777  1.00  0.00    -0.234 OA 
ENDROOT
BRANCH   2   3
HETATM    3  C   UNL     1      -8.081  19.479  67.525  1.00  0.00    -0.290 A  
HETATM    4  C   UNL     1      -8.462  18.366  66.747  1.00  0.00    -0.264 A  
HETATM    5  C   UNL     1     -10.381  19.954  67.889  1.00  0.00    -0.406 A  
HETATM    6  C   UNL     1      -9.821  18.034  66.698  1.00  0.00    -0.352 A  
HETATM    7  C   UNL     1      -9.059  20.296  68.077  1.00  0.00    -0.226 A  
HETATM    8  N   UNL     1     -10.778  18.849  67.225  1.00  0.00    -0.461 NA 
BRANCH   4   9
HETATM    9  O   UNL     1      -7.463  17.624  66.164  1.00  0.00    -0.285 OA 
HETATM   10  C   UNL     1      -6.849  16.638  66.996  1.00  0.00    -0.209 C  
ENDBRANCH   4   9
BRANCH   6  11
HETATM   11  C   UNL     1     -10.340  16.733  66.140  1.00  0.00    -0.330 C  
BRANCH  11  12
HETATM   12  S   UNL     1     -10.341  15.423  67.396  1.00  0.00    -0.267 S  
HETATM   13  O   UNL     1     -11.664  15.358  68.102  1.00  0.00    -0.351 OA 
BRANCH  12  14
HETATM   14  C   UNL     1     -10.303  14.048  66.343  1.00  0.00    -0.289 A  
HETATM   15  N   UNL     1     -10.868  13.969  65.157  1.00  0.00    -0.346 NA 
HETATM   16  C   UNL     1     -10.460  12.754  64.651  1.00  0.00    -0.350 A  
HETATM   17  H   UNL     1     -11.474  14.657  64.710  1.00  0.00     0.000 HD 
HETATM   18  C   UNL     1      -9.662  12.074  65.564  1.00  0.00    -0.202 A  
HETATM   19  N   UNL     1      -9.595  12.915  66.642  1.00  0.00    -0.252 NA 
HETATM   20  C   UNL     1      -9.098  10.821  65.307  1.00  0.00    -0.217 A  
HETATM   21  C   UNL     1      -9.373  10.235  64.061  1.00  0.00    -0.289 A  
HETATM   22  C   UNL     1     -10.153  10.908  63.115  1.00  0.00    -0.317 A  
HETATM   23  C   UNL     1     -10.711  12.165  63.403  1.00  0.00    -0.461 A  
BRANCH  21  24
HETATM   24  O   UNL     1      -8.796   9.006  63.877  1.00  0.00    -0.145 OA 
HETATM   25  C   UNL     1      -8.145   8.813  62.632  1.00  0.00    -0.171 C  
HETATM   26  F   UNL     1      -6.888   9.315  62.710  1.00  0.00    -0.095 F  
HETATM   27  F   UNL     1      -8.020   7.474  62.446  1.00  0.00    -0.112 F  
ENDBRANCH  21  24
ENDBRANCH  12  14
ENDBRANCH  11  12
ENDBRANCH   6  11
ENDBRANCH   2   3
TORSDOF 6
ENDMDL
MODEL       92
REMARK 921   NORMALIZED FREE ENERGY PREDICTED BY IDOCK:   -5.36 KCAL/MOL
REMARK 922        TOTAL FREE ENERGY PREDICTED BY IDOCK:   -7.98 KCAL/MOL
REMARK 923 INTER-LIGAND FREE ENERGY PREDICTED BY IDOCK:   -6.94 KCAL/MOL
REMARK 924 INTRA-LIGAND FREE ENERGY PREDICTED BY IDOCK:   -1.04 KCAL/MOL
REMARK 927      BINDING AFFINITY PREDICTED BY RF-SCORE:    0.00 PKD
ROOT
HETATM    1  C   UNL     1     -13.415  15.401  71.290  1.00  0.00    -0.519 C  
HETATM    2  O   UNL     1     -12.282  15.204  70.445  1.00  0.00    -0.299 OA 
ENDROOT
BRANCH   2   3
HETATM    3  C   UNL     1     -12.216  13.973  69.841  1.00  0.00    -0.340 A  
HETATM    4  C   UNL     1     -12.017  13.731  68.465  1.00  0.00    -0.367 A  
HETATM    5  C   UNL     1     -12.343  11.626  70.189  1.00  0.00    -0.219 A  
HETATM    6  C   UNL     1     -11.860  12.404  68.049  1.00  0.00    -0.316 A  
HETATM    7  C   UNL     1     -12.408  12.903  70.704  1.00  0.00    -0.385 A  
HETATM    8  N   UNL     1     -12.069  11.357  68.896  1.00  0.00    -0.469 NA 
BRANCH   4   9
HETATM    9  O   UNL     1     -11.898  14.821  67.638  1.00  0.00    -0.358 OA 
HETATM   10  C   UNL     1     -10.587  15.376  67.518  1.00  0.00    -0.283 C  
ENDBRANCH   4   9
BRANCH   6  11
HETATM   11  C   UNL     1     -11.378  12.015  66.674  1.00  0.00    -0.340 C  
BRANCH  11  12
HETATM   12  S   UNL     1      -9.592  11.690  66.663  1.00  0.00    -0.210 S  
HETATM   13  O   UNL     1      -8.963  12.106  67.961  1.00  0.00    -0.175 OA 
BRANCH  12  14
HETATM   14  C   UNL     1      -9.639   9.960  66.696  1.00  0.00    -0.184 A  
HETATM   15  N   UNL     1     -10.537   9.224  67.317  1.00  0.00    -0.261 NA 
HETATM   16  C   UNL     1     -10.244   7.927  66.954  1.00  0.00    -0.310 A  
HETATM   17  H   UNL     1     -11.285   9.544  67.932  1.00  0.00     0.000 HD 
HETATM   18  C   UNL     1      -9.129   7.879  66.125  1.00  0.00    -0.163 A  
HETATM   19  N   UNL     1      -8.752   9.188  65.994  1.00  0.00    -0.144 NA 
HETATM   20  C   UNL     1      -8.619   6.691  65.594  1.00  0.00    -0.130 A  
HETATM   21  C   UNL     1      -9.275   5.498  65.937  1.00  0.00    -0.147 A  
HETATM   22  C   UNL     1     -10.414   5.521  66.748  1.00  0.00    -0.355 A  
HETATM   23  C   UNL     1     -10.903   6.730  67.272  1.00  0.00    -0.443 A  
BRANCH  21  24
HETATM   24  O   UNL     1      -8.720   4.372  65.389  1.00  0.00    -0.119 OA 
HETATM   25  C   UNL     1      -9.550   3.650  64.493  1.00  0.00    -0.168 C  
HETATM   26  F   UNL     1      -9.459   4.211  63.262  1.00  0.00    -0.133 F  
HETATM   27  F   UNL     1      -9.037   2.397  64.390  1.00  0.00    -0.102 F  
ENDBRANCH  21  24
ENDBRANCH  12  14
ENDBRANCH  11  12
ENDBRANCH   6  11
ENDBRANCH   2   3
TORSDOF 6
ENDMDL
MODEL       93
REMARK 921   NORMALIZED FREE ENERGY PREDICTED BY IDOCK:   -5.35 KCAL/MOL
REMARK 922        TOTAL FREE ENERGY PREDICTED BY IDOCK:   -7.98 KCAL/MOL
REMARK 923 INTER-LIGAND FREE ENERGY PREDICTED BY IDOCK:   -6.97 KCAL/MOL
REMARK 924 INTRA-LIGAND FREE ENERGY PREDICTED BY IDOCK:   -1.01 KCAL/MOL
REMARK 927      BINDING AFFINITY PREDICTED BY RF-SCORE:    0.00 PKD
ROOT
HETATM    1  C   UNL     1     -13.837  13.766  72.423  1.00  0.00    -0.579 C  
HETATM    2  O   UNL     1     -12.497  13.474  72.028  1.00  0.00    -0.123 OA 
ENDROOT
BRANCH   2   3
HETATM    3  C   UNL     1     -12.381  12.683  70.912  1.00  0.00    -0.260 A  
HETATM    4  C   UNL     1     -11.896  13.091  69.652  1.00  0.00    -0.319 A  
HETATM    5  C   UNL     1     -12.741  10.510  70.021  1.00  0.00    -0.060 A  
HETATM    6  C   UNL     1     -11.739  12.113  68.662  1.00  0.00    -0.330 A  
HETATM    7  C   UNL     1     -12.833  11.382  71.084  1.00  0.00    -0.440 A  
HETATM    8  N   UNL     1     -12.203  10.842  68.829  1.00  0.00    -0.474 NA 
BRANCH   4   9
HETATM    9  O   UNL     1     -11.521  14.404  69.507  1.00  0.00    -0.261 OA 
HETATM   10  C   UNL     1     -12.563  15.318  69.160  1.00  0.00     0.211 C  
ENDBRANCH   4   9
BRANCH   6  11
HETATM   11  C   UNL     1     -10.989  12.345  67.375  1.00  0.00    -0.254 C  
BRANCH  11  12
HETATM   12  S   UNL     1      -9.198  12.161  67.607  1.00  0.00    -0.188 S  
HETATM   13  O   UNL     1      -8.586  11.393  66.471  1.00  0.00    -0.169 OA 
BRANCH  12  14
HETATM   14  C   UNL     1      -8.730  13.810  67.364  1.00  0.00    -0.207 A  
HETATM   15  N   UNL     1      -7.502  14.282  67.438  1.00  0.00    -0.258 NA 
HETATM   16  C   UNL     1      -7.606  15.599  67.045  1.00  0.00    -0.210 A  
HETATM   17  H   UNL     1      -6.661  13.783  67.723  1.00  0.00     0.000 HD 
HETATM   18  C   UNL     1      -8.925  15.935  66.761  1.00  0.00    -0.251 A  
HETATM   19  N   UNL     1      -9.622  14.780  66.993  1.00  0.00    -0.233 NA 
HETATM   20  C   UNL     1      -9.317  17.204  66.325  1.00  0.00    -0.260 A  
HETATM   21  C   UNL     1      -8.312  18.174  66.183  1.00  0.00    -0.122 A  
HETATM   22  C   UNL     1      -6.975  17.856  66.438  1.00  0.00    -0.284 A  
HETATM   23  C   UNL     1      -6.610  16.573  66.880  1.00  0.00    -0.212 A  
BRANCH  21  24
HETATM   24  O   UNL     1      -8.766  19.396  65.760  1.00  0.00    -0.403 OA 
HETATM   25  C   UNL     1     -10.104  19.709  66.109  1.00  0.00    -0.480 C  
HETATM   26  F   UNL     1     -10.123  20.215  67.367  1.00  0.00    -0.483 F  
HETATM   27  F   UNL     1     -10.513  20.706  65.282  1.00  0.00    -0.325 F  
ENDBRANCH  21  24
ENDBRANCH  12  14
ENDBRANCH  11  12
ENDBRANCH   6  11
ENDBRANCH   2   3
TORSDOF 6
ENDMDL
MODEL       94
REMARK 921   NORMALIZED FREE ENERGY PREDICTED BY IDOCK:   -5.35 KCAL/MOL
REMARK 922        TOTAL FREE ENERGY PREDICTED BY IDOCK:   -7.98 KCAL/MOL
REMARK 923 INTER-LIGAND FREE ENERGY PREDICTED BY IDOCK:   -7.10 KCAL/MOL
REMARK 924 INTRA-LIGAND FREE ENERGY PREDICTED BY IDOCK:   -0.87 KCAL/MOL
REMARK 927      BINDING AFFINITY PREDICTED BY RF-SCORE:    0.00 PKD
ROOT
HETATM    1  C   UNL     1      -9.456  10.805  62.886  1.00  0.00    -0.350 C  
HETATM    2  O   UNL     1     -10.405  11.692  63.476  1.00  0.00    -0.360 OA 
ENDROOT
BRANCH   2   3
HETATM    3  C   UNL     1     -10.306  11.825  64.839  1.00  0.00    -0.289 A  
HETATM    4  C   UNL     1     -11.338  12.227  65.712  1.00  0.00    -0.355 A  
HETATM    5  C   UNL     1      -8.849  11.659  66.709  1.00  0.00    -0.184 A  
HETATM    6  C   UNL     1     -11.084  12.191  67.088  1.00  0.00    -0.291 A  
HETATM    7  C   UNL     1      -9.040  11.565  65.347  1.00  0.00    -0.063 A  
HETATM    8  N   UNL     1      -9.835  11.955  67.581  1.00  0.00    -0.184 NA 
BRANCH   4   9
HETATM    9  O   UNL     1     -12.556  12.537  65.159  1.00  0.00    -0.631 OA 
HETATM   10  C   UNL     1     -12.729  13.895  64.749  1.00  0.00    -0.211 C  
ENDBRANCH   4   9
BRANCH   6  11
HETATM   11  C   UNL     1     -12.158  12.329  68.137  1.00  0.00    -0.013 C  
BRANCH  11  12
HETATM   12  S   UNL     1     -11.461  12.298  69.812  1.00  0.00    -0.097 S  
HETATM   13  O   UNL     1     -12.410  12.910  70.800  1.00  0.00    -0.368 OA 
BRANCH  12  14
HETATM   14  C   UNL     1     -11.527  10.590  70.094  1.00  0.00    -0.325 A  
HETATM   15  N   UNL     1     -11.038   9.658  69.302  1.00  0.00    -0.401 NA 
HETATM   16  C   UNL     1     -11.208   8.480  69.997  1.00  0.00    -0.086 A  
HETATM   17  H   UNL     1     -10.624   9.782  68.379  1.00  0.00     0.000 HD 
HETATM   18  C   UNL     1     -11.841   8.703  71.215  1.00  0.00    -0.295 A  
HETATM   19  N   UNL     1     -12.050  10.056  71.241  1.00  0.00    -0.367 NA 
HETATM   20  C   UNL     1     -12.127   7.685  72.129  1.00  0.00    -0.325 A  
HETATM   21  C   UNL     1     -11.755   6.379  71.774  1.00  0.00    -0.324 A  
HETATM   22  C   UNL     1     -11.095   6.130  70.567  1.00  0.00    -0.405 A  
HETATM   23  C   UNL     1     -10.825   7.172  69.664  1.00  0.00    -0.254 A  
BRANCH  21  24
HETATM   24  O   UNL     1     -12.070   5.430  72.711  1.00  0.00    -0.182 OA 
HETATM   25  C   UNL     1     -11.007   4.575  73.101  1.00  0.00    -0.264 C  
HETATM   26  F   UNL     1     -10.281   5.188  74.067  1.00  0.00    -0.168 F  
HETATM   27  F   UNL     1     -11.564   3.475  73.670  1.00  0.00    -0.313 F  
ENDBRANCH  21  24
ENDBRANCH  12  14
ENDBRANCH  11  12
ENDBRANCH   6  11
ENDBRANCH   2   3
TORSDOF 6
ENDMDL
MODEL       95
REMARK 921   NORMALIZED FREE ENERGY PREDICTED BY IDOCK:   -5.34 KCAL/MOL
REMARK 922        TOTAL FREE ENERGY PREDICTED BY IDOCK:   -7.97 KCAL/MOL
REMARK 923 INTER-LIGAND FREE ENERGY PREDICTED BY IDOCK:   -7.20 KCAL/MOL
REMARK 924 INTRA-LIGAND FREE ENERGY PREDICTED BY IDOCK:   -0.77 KCAL/MOL
REMARK 927      BINDING AFFINITY PREDICTED BY RF-SCORE:    0.00 PKD
ROOT
HETATM    1  C   UNL     1     -10.403   5.370  70.610  1.00  0.00    -0.262 C  
HETATM    2  O   UNL     1     -10.300   6.789  70.702  1.00  0.00    -0.198 OA 
ENDROOT
BRANCH   2   3
HETATM    3  C   UNL     1     -10.445   7.461  69.513  1.00  0.00    -0.232 A  
HETATM    4  C   UNL     1     -10.683   8.843  69.362  1.00  0.00    -0.181 A  
HETATM    5  C   UNL     1     -10.503   7.238  67.148  1.00  0.00    -0.324 A  
HETATM    6  C   UNL     1     -10.685   9.370  68.066  1.00  0.00    -0.190 A  
HETATM    7  C   UNL     1     -10.383   6.649  68.389  1.00  0.00    -0.220 A  
HETATM    8  N   UNL     1     -10.644   8.567  66.965  1.00  0.00    -0.290 NA 
BRANCH   4   9
HETATM    9  O   UNL     1     -10.803   9.597  70.504  1.00  0.00    -0.260 OA 
HETATM   10  C   UNL     1     -12.137   9.863  70.941  1.00  0.00    -0.341 C  
ENDBRANCH   4   9
BRANCH   6  11
HETATM   11  C   UNL     1     -10.655  10.847  67.768  1.00  0.00    -0.217 C  
BRANCH  11  12
HETATM   12  S   UNL     1      -9.014  11.556  68.081  1.00  0.00    -0.177 S  
HETATM   13  O   UNL     1      -7.996  10.993  67.131  1.00  0.00    -0.124 OA 
BRANCH  12  14
HETATM   14  C   UNL     1      -9.317  13.173  67.540  1.00  0.00    -0.207 A  
HETATM   15  N   UNL     1      -9.448  13.555  66.287  1.00  0.00    -0.424 NA 
HETATM   16  C   UNL     1      -9.805  14.884  66.359  1.00  0.00    -0.274 A  
HETATM   17  H   UNL     1      -9.316  12.991  65.448  1.00  0.00     0.000 HD 
HETATM   18  C   UNL     1      -9.858  15.319  67.679  1.00  0.00    -0.217 A  
HETATM   19  N   UNL     1      -9.521  14.211  68.409  1.00  0.00    -0.211 NA 
HETATM   20  C   UNL     1     -10.208  16.622  68.044  1.00  0.00    -0.280 A  
HETATM   21  C   UNL     1     -10.509  17.521  67.010  1.00  0.00    -0.293 A  
HETATM   22  C   UNL     1     -10.489  17.104  65.675  1.00  0.00    -0.208 A  
HETATM   23  C   UNL     1     -10.128  15.789  65.336  1.00  0.00    -0.337 A  
BRANCH  21  24
HETATM   24  O   UNL     1     -10.837  18.781  67.437  1.00  0.00    -0.449 OA 
HETATM   25  C   UNL     1      -9.927  19.378  68.347  1.00  0.00    -0.437 C  
HETATM   26  F   UNL     1      -8.919  19.953  67.646  1.00  0.00    -0.349 F  
HETATM   27  F   UNL     1     -10.587  20.383  68.976  1.00  0.00    -0.493 F  
ENDBRANCH  21  24
ENDBRANCH  12  14
ENDBRANCH  11  12
ENDBRANCH   6  11
ENDBRANCH   2   3
TORSDOF 6
ENDMDL
MODEL       96
REMARK 921   NORMALIZED FREE ENERGY PREDICTED BY IDOCK:   -5.34 KCAL/MOL
REMARK 922        TOTAL FREE ENERGY PREDICTED BY IDOCK:   -7.96 KCAL/MOL
REMARK 923 INTER-LIGAND FREE ENERGY PREDICTED BY IDOCK:   -7.23 KCAL/MOL
REMARK 924 INTRA-LIGAND FREE ENERGY PREDICTED BY IDOCK:   -0.73 KCAL/MOL
REMARK 927      BINDING AFFINITY PREDICTED BY RF-SCORE:    0.00 PKD
ROOT
HETATM    1  C   UNL     1     -13.357  15.833  72.827  1.00  0.00    -0.547 C  
HETATM    2  O   UNL     1     -12.425  15.987  71.758  1.00  0.00    -0.459 OA 
ENDROOT
BRANCH   2   3
HETATM    3  C   UNL     1     -12.324  14.907  70.916  1.00  0.00    -0.328 A  
HETATM    4  C   UNL     1     -12.038  14.953  69.535  1.00  0.00    -0.279 A  
HETATM    5  C   UNL     1     -12.480  12.541  70.759  1.00  0.00    -0.268 A  
HETATM    6  C   UNL     1     -11.857  13.739  68.862  1.00  0.00    -0.360 A  
HETATM    7  C   UNL     1     -12.574  13.684  71.524  1.00  0.00    -0.385 A  
HETATM    8  N   UNL     1     -12.123  12.542  69.458  1.00  0.00    -0.235 NA 
BRANCH   4   9
HETATM    9  O   UNL     1     -11.862  16.189  68.962  1.00  0.00    -0.327 OA 
HETATM   10  C   UNL     1     -10.578  16.788  69.146  1.00  0.00    -0.343 C  
ENDBRANCH   4   9
BRANCH   6  11
HETATM   11  C   UNL     1     -11.289  13.636  67.470  1.00  0.00    -0.308 C  
BRANCH  11  12
HETATM   12  S   UNL     1      -9.519  13.234  67.502  1.00  0.00    -0.229 S  
HETATM   13  O   UNL     1      -8.830  13.933  68.638  1.00  0.00    -0.161 OA 
BRANCH  12  14
HETATM   14  C   UNL     1      -9.635  11.572  67.974  1.00  0.00    -0.180 A  
HETATM   15  N   UNL     1      -9.530  11.111  69.203  1.00  0.00    -0.407 NA 
HETATM   16  C   UNL     1      -9.819   9.767  69.102  1.00  0.00    -0.188 A  
HETATM   17  H   UNL     1      -9.288  11.633  70.045  1.00  0.00     0.000 HD 
HETATM   18  C   UNL     1     -10.070   9.407  67.783  1.00  0.00    -0.198 A  
HETATM   19  N   UNL     1      -9.926  10.575  67.083  1.00  0.00    -0.186 NA 
HETATM   20  C   UNL     1     -10.404   8.106  67.393  1.00  0.00    -0.351 A  
HETATM   21  C   UNL     1     -10.475   7.130  68.400  1.00  0.00    -0.197 A  
HETATM   22  C   UNL     1     -10.250   7.471  69.737  1.00  0.00    -0.211 A  
HETATM   23  C   UNL     1      -9.911   8.786  70.100  1.00  0.00    -0.201 A  
BRANCH  21  24
HETATM   24  O   UNL     1     -10.799   5.879  67.948  1.00  0.00    -0.271 OA 
HETATM   25  C   UNL     1      -9.886   4.847  68.286  1.00  0.00    -0.136 C  
HETATM   26  F   UNL     1     -10.172   4.397  69.532  1.00  0.00    -0.285 F  
HETATM   27  F   UNL     1     -10.114   3.813  67.436  1.00  0.00    -0.189 F  
ENDBRANCH  21  24
ENDBRANCH  12  14
ENDBRANCH  11  12
ENDBRANCH   6  11
ENDBRANCH   2   3
TORSDOF 6
ENDMDL
MODEL       97
REMARK 921   NORMALIZED FREE ENERGY PREDICTED BY IDOCK:   -5.32 KCAL/MOL
REMARK 922        TOTAL FREE ENERGY PREDICTED BY IDOCK:   -7.94 KCAL/MOL
REMARK 923 INTER-LIGAND FREE ENERGY PREDICTED BY IDOCK:   -7.01 KCAL/MOL
REMARK 924 INTRA-LIGAND FREE ENERGY PREDICTED BY IDOCK:   -0.94 KCAL/MOL
REMARK 927      BINDING AFFINITY PREDICTED BY RF-SCORE:    0.00 PKD
ROOT
HETATM    1  C   UNL     1     -10.317   4.127  74.534  1.00  0.00    -0.237 C  
HETATM    2  O   UNL     1     -11.087   4.621  73.440  1.00  0.00    -0.286 OA 
ENDROOT
BRANCH   2   3
HETATM    3  C   UNL     1     -10.593   5.758  72.848  1.00  0.00    -0.232 A  
HETATM    4  C   UNL     1      -9.863   5.816  71.643  1.00  0.00    -0.167 A  
HETATM    5  C   UNL     1     -10.379   8.116  73.041  1.00  0.00    -0.187 A  
HETATM    6  C   UNL     1      -9.541   7.080  71.133  1.00  0.00    -0.165 A  
HETATM    7  C   UNL     1     -10.827   6.923  73.566  1.00  0.00    -0.265 A  
HETATM    8  N   UNL     1      -9.755   8.219  71.850  1.00  0.00    -0.207 NA 
BRANCH   4   9
HETATM    9  O   UNL     1      -9.596   4.632  71.000  1.00  0.00    -0.152 OA 
HETATM   10  C   UNL     1      -8.350   4.012  71.322  1.00  0.00    -0.080 C  
ENDBRANCH   4   9
BRANCH   6  11
HETATM   11  C   UNL     1      -9.010   7.304  69.739  1.00  0.00    -0.142 C  
BRANCH  11  12
HETATM   12  S   UNL     1     -10.330   7.189  68.499  1.00  0.00    -0.187 S  
HETATM   13  O   UNL     1     -11.483   6.377  69.015  1.00  0.00    -0.337 OA 
BRANCH  12  14
HETATM   14  C   UNL     1     -10.865   8.835  68.528  1.00  0.00     0.034 A  
HETATM   15  N   UNL     1     -11.325   9.478  69.581  1.00  0.00    -0.429 NA 
HETATM   16  C   UNL     1     -11.495  10.778  69.156  1.00  0.00    -0.298 A  
HETATM   17  H   UNL     1     -11.513   9.098  70.508  1.00  0.00     0.000 HD 
HETATM   18  C   UNL     1     -11.161  10.913  67.813  1.00  0.00    -0.317 A  
HETATM   19  N   UNL     1     -10.782   9.653  67.433  1.00  0.00    -0.272 NA 
HETATM   20  C   UNL     1     -11.226  12.128  67.124  1.00  0.00    -0.372 A  
HETATM   21  C   UNL     1     -11.661  13.252  67.843  1.00  0.00    -0.334 A  
HETATM   22  C   UNL     1     -11.978  13.150  69.202  1.00  0.00    -0.329 A  
HETATM   23  C   UNL     1     -11.909  11.914  69.867  1.00  0.00    -0.418 A  
BRANCH  21  24
HETATM   24  O   UNL     1     -11.707  14.407  67.108  1.00  0.00    -0.368 OA 
HETATM   25  C   UNL     1     -12.011  14.247  65.731  1.00  0.00    -0.393 C  
HETATM   26  F   UNL     1     -13.357  14.180  65.583  1.00  0.00    -0.541 F  
HETATM   27  F   UNL     1     -11.605  15.376  65.096  1.00  0.00    -0.326 F  
ENDBRANCH  21  24
ENDBRANCH  12  14
ENDBRANCH  11  12
ENDBRANCH   6  11
ENDBRANCH   2   3
TORSDOF 6
ENDMDL
MODEL       98
REMARK 921   NORMALIZED FREE ENERGY PREDICTED BY IDOCK:   -5.31 KCAL/MOL
REMARK 922        TOTAL FREE ENERGY PREDICTED BY IDOCK:   -7.92 KCAL/MOL
REMARK 923 INTER-LIGAND FREE ENERGY PREDICTED BY IDOCK:   -7.02 KCAL/MOL
REMARK 924 INTRA-LIGAND FREE ENERGY PREDICTED BY IDOCK:   -0.90 KCAL/MOL
REMARK 927      BINDING AFFINITY PREDICTED BY RF-SCORE:    0.00 PKD
ROOT
HETATM    1  C   UNL     1     -10.770   9.808  70.331  1.00  0.00    -0.308 C  
HETATM    2  O   UNL     1     -10.284   9.357  69.067  1.00  0.00    -0.191 OA 
ENDROOT
BRANCH   2   3
HETATM    3  C   UNL     1      -9.783  10.343  68.253  1.00  0.00    -0.151 A  
HETATM    4  C   UNL     1      -9.811  10.350  66.842  1.00  0.00    -0.191 A  
HETATM    5  C   UNL     1      -8.648  12.430  68.196  1.00  0.00    -0.185 A  
HETATM    6  C   UNL     1      -9.356  11.498  66.183  1.00  0.00    -0.215 A  
HETATM    7  C   UNL     1      -9.168  11.387  68.931  1.00  0.00    -0.035 A  
HETATM    8  N   UNL     1      -8.735  12.510  66.852  1.00  0.00    -0.200 NA 
BRANCH   4   9
HETATM    9  O   UNL     1     -10.369   9.266  66.211  1.00  0.00    -0.240 OA 
HETATM   10  C   UNL     1      -9.527   8.119  66.071  1.00  0.00    -0.087 C  
ENDBRANCH   4   9
BRANCH   6  11
HETATM   11  C   UNL     1      -9.573  11.755  64.714  1.00  0.00    -0.089 C  
BRANCH  11  12
HETATM   12  S   UNL     1     -11.208  12.478  64.400  1.00  0.00    -0.367 S  
HETATM   13  O   UNL     1     -12.293  11.637  65.006  1.00  0.00    -0.085 OA 
BRANCH  12  14
HETATM   14  C   UNL     1     -11.077  13.876  65.414  1.00  0.00    -0.310 A  
HETATM   15  N   UNL     1     -11.654  14.035  66.587  1.00  0.00    -0.363 NA 
HETATM   16  C   UNL     1     -11.159  15.228  67.066  1.00  0.00    -0.305 A  
HETATM   17  H   UNL     1     -12.321  13.411  67.041  1.00  0.00     0.000 HD 
HETATM   18  C   UNL     1     -10.292  15.815  66.150  1.00  0.00    -0.320 A  
HETATM   19  N   UNL     1     -10.275  14.940  65.097  1.00  0.00    -0.388 NA 
HETATM   20  C   UNL     1      -9.634  17.026  66.383  1.00  0.00    -0.301 A  
HETATM   21  C   UNL     1      -9.882  17.668  67.606  1.00  0.00    -0.294 A  
HETATM   22  C   UNL     1     -10.730  17.088  68.556  1.00  0.00    -0.352 A  
HETATM   23  C   UNL     1     -11.383  15.872  68.292  1.00  0.00    -0.342 A  
BRANCH  21  24
HETATM   24  O   UNL     1      -9.211  18.852  67.767  1.00  0.00    -0.287 OA 
HETATM   25  C   UNL     1      -9.971  20.026  67.528  1.00  0.00    -0.427 C  
HETATM   26  F   UNL     1     -10.658  20.342  68.653  1.00  0.00    -0.517 F  
HETATM   27  F   UNL     1      -9.091  21.037  67.311  1.00  0.00    -0.472 F  
ENDBRANCH  21  24
ENDBRANCH  12  14
ENDBRANCH  11  12
ENDBRANCH   6  11
ENDBRANCH   2   3
TORSDOF 6
ENDMDL
MODEL       99
REMARK 921   NORMALIZED FREE ENERGY PREDICTED BY IDOCK:   -5.30 KCAL/MOL
REMARK 922        TOTAL FREE ENERGY PREDICTED BY IDOCK:   -7.91 KCAL/MOL
REMARK 923 INTER-LIGAND FREE ENERGY PREDICTED BY IDOCK:   -7.15 KCAL/MOL
REMARK 924 INTRA-LIGAND FREE ENERGY PREDICTED BY IDOCK:   -0.76 KCAL/MOL
REMARK 927      BINDING AFFINITY PREDICTED BY RF-SCORE:    0.00 PKD
ROOT
HETATM    1  C   UNL     1     -13.568  13.060  72.429  1.00  0.00    -0.529 C  
HETATM    2  O   UNL     1     -12.626  13.773  71.629  1.00  0.00    -0.332 OA 
ENDROOT
BRANCH   2   3
HETATM    3  C   UNL     1     -12.378  13.224  70.395  1.00  0.00    -0.295 A  
HETATM    4  C   UNL     1     -12.269  13.928  69.178  1.00  0.00    -0.267 A  
HETATM    5  C   UNL     1     -12.012  11.200  69.205  1.00  0.00    -0.343 A  
HETATM    6  C   UNL     1     -11.896  13.210  68.036  1.00  0.00    -0.358 A  
HETATM    7  C   UNL     1     -12.275  11.839  70.397  1.00  0.00    -0.416 A  
HETATM    8  N   UNL     1     -11.815  11.850  68.039  1.00  0.00    -0.526 NA 
BRANCH   4   9
HETATM    9  O   UNL     1     -12.445  15.290  69.212  1.00  0.00    -0.132 OA 
HETATM   10  C   UNL     1     -11.295  16.061  69.565  1.00  0.00    -0.344 C  
ENDBRANCH   4   9
BRANCH   6  11
HETATM   11  C   UNL     1     -11.482  13.862  66.742  1.00  0.00    -0.352 C  
BRANCH  11  12
HETATM   12  S   UNL     1     -12.127  12.960  65.306  1.00  0.00    -0.475 S  
HETATM   13  O   UNL     1     -12.316  13.879  64.134  1.00  0.00    -0.614 OA 
BRANCH  12  14
HETATM   14  C   UNL     1     -10.724  12.013  64.937  1.00  0.00    -0.301 A  
HETATM   15  N   UNL     1      -9.594  12.013  65.613  1.00  0.00    -0.337 NA 
HETATM   16  C   UNL     1      -8.835  11.020  65.032  1.00  0.00    -0.083 A  
HETATM   17  H   UNL     1      -9.338  12.615  66.394  1.00  0.00     0.000 HD 
HETATM   18  C   UNL     1      -9.508  10.434  63.966  1.00  0.00    -0.299 A  
HETATM   19  N   UNL     1     -10.703  11.101  63.916  1.00  0.00    -0.378 NA 
HETATM   20  C   UNL     1      -8.977   9.388  63.205  1.00  0.00    -0.166 A  
HETATM   21  C   UNL     1      -7.695   8.930  63.547  1.00  0.00    -0.128 A  
HETATM   22  C   UNL     1      -7.006   9.486  64.630  1.00  0.00    -0.102 A  
HETATM   23  C   UNL     1      -7.562  10.540  65.375  1.00  0.00    -0.097 A  
BRANCH  21  24
HETATM   24  O   UNL     1      -7.232   7.911  62.757  1.00  0.00    -0.084 OA 
HETATM   25  C   UNL     1      -7.238   6.623  63.351  1.00  0.00    -0.065 C  
HETATM   26  F   UNL     1      -8.472   6.079  63.211  1.00  0.00    -0.102 F  
HETATM   27  F   UNL     1      -6.385   5.845  62.635  1.00  0.00    -0.024 F  
ENDBRANCH  21  24
ENDBRANCH  12  14
ENDBRANCH  11  12
ENDBRANCH   6  11
ENDBRANCH   2   3
TORSDOF 6
ENDMDL
MODEL      100
REMARK 921   NORMALIZED FREE ENERGY PREDICTED BY IDOCK:   -5.29 KCAL/MOL
REMARK 922        TOTAL FREE ENERGY PREDICTED BY IDOCK:   -7.90 KCAL/MOL
REMARK 923 INTER-LIGAND FREE ENERGY PREDICTED BY IDOCK:   -7.07 KCAL/MOL
REMARK 924 INTRA-LIGAND FREE ENERGY PREDICTED BY IDOCK:   -0.83 KCAL/MOL
REMARK 927      BINDING AFFINITY PREDICTED BY RF-SCORE:    0.00 PKD
ROOT
HETATM    1  C   UNL     1      -5.457  10.256  64.686  1.00  0.00    -0.126 C  
HETATM    2  O   UNL     1      -6.738   9.640  64.805  1.00  0.00    -0.091 OA 
ENDROOT
BRANCH   2   3
HETATM    3  C   UNL     1      -7.692  10.401  65.435  1.00  0.00    -0.136 A  
HETATM    4  C   UNL     1      -9.047  10.513  65.060  1.00  0.00    -0.201 A  
HETATM    5  C   UNL     1      -8.105  11.923  67.213  1.00  0.00    -0.171 A  
HETATM    6  C   UNL     1      -9.900  11.246  65.894  1.00  0.00    -0.232 A  
HETATM    7  C   UNL     1      -7.215  11.139  66.510  1.00  0.00    -0.124 A  
HETATM    8  N   UNL     1      -9.424  11.984  66.936  1.00  0.00    -0.198 NA 
BRANCH   4   9
HETATM    9  O   UNL     1      -9.461   9.817  63.951  1.00  0.00    -0.232 OA 
HETATM   10  C   UNL     1      -9.021  10.327  62.691  1.00  0.00    -0.261 C  
ENDBRANCH   4   9
BRANCH   6  11
HETATM   11  C   UNL     1     -11.403  11.227  65.772  1.00  0.00     0.092 C  
BRANCH  11  12
HETATM   12  S   UNL     1     -11.986  12.447  64.561  1.00  0.00    -0.403 S  
HETATM   13  O   UNL     1     -13.481  12.401  64.430  1.00  0.00    -0.626 OA 
BRANCH  12  14
HETATM   14  C   UNL     1     -11.638  13.890  65.453  1.00  0.00    -0.325 A  
HETATM   15  N   UNL     1     -11.782  14.048  66.752  1.00  0.00    -0.385 NA 
HETATM   16  C   UNL     1     -11.262  15.297  67.016  1.00  0.00    -0.275 A  
HETATM   17  H   UNL     1     -12.189  13.390  67.417  1.00  0.00     0.000 HD 
HETATM   18  C   UNL     1     -10.826  15.915  65.850  1.00  0.00    -0.233 A  
HETATM   19  N   UNL     1     -11.097  15.003  64.865  1.00  0.00    -0.408 NA 
HETATM   20  C   UNL     1     -10.241  17.185  65.827  1.00  0.00    -0.234 A  
HETATM   21  C   UNL     1     -10.105  17.853  67.054  1.00  0.00    -0.340 A  
HETATM   22  C   UNL     1     -10.512  17.243  68.245  1.00  0.00    -0.385 A  
HETATM   23  C   UNL     1     -11.102  15.968  68.238  1.00  0.00    -0.351 A  
BRANCH  21  24
HETATM   24  O   UNL     1      -9.531  19.093  66.958  1.00  0.00    -0.302 OA 
HETATM   25  C   UNL     1      -9.660  19.919  68.104  1.00  0.00    -0.354 C  
HETATM   26  F   UNL     1      -8.676  19.607  68.984  1.00  0.00    -0.386 F  
HETATM   27  F   UNL     1      -9.436  21.198  67.706  1.00  0.00    -0.385 F  
ENDBRANCH  21  24
ENDBRANCH  12  14
ENDBRANCH  11  12
ENDBRANCH   6  11
ENDBRANCH   2   3
TORSDOF 6
ENDMDL
MODEL      101
REMARK 921   NORMALIZED FREE ENERGY PREDICTED BY IDOCK:   -5.29 KCAL/MOL
REMARK 922        TOTAL FREE ENERGY PREDICTED BY IDOCK:   -7.89 KCAL/MOL
REMARK 923 INTER-LIGAND FREE ENERGY PREDICTED BY IDOCK:   -7.26 KCAL/MOL
REMARK 924 INTRA-LIGAND FREE ENERGY PREDICTED BY IDOCK:   -0.64 KCAL/MOL
REMARK 927      BINDING AFFINITY PREDICTED BY RF-SCORE:    0.00 PKD
ROOT
HETATM    1  C   UNL     1     -14.188   7.724  71.745  1.00  0.00    -0.444 C  
HETATM    2  O   UNL     1     -12.808   7.388  71.608  1.00  0.00    -0.344 OA 
ENDROOT
BRANCH   2   3
HETATM    3  C   UNL     1     -12.028   8.362  71.033  1.00  0.00    -0.231 A  
HETATM    4  C   UNL     1     -10.794   8.161  70.381  1.00  0.00    -0.236 A  
HETATM    5  C   UNL     1     -11.821  10.692  70.612  1.00  0.00    -0.363 A  
HETATM    6  C   UNL     1     -10.198   9.261  69.752  1.00  0.00    -0.211 A  
HETATM    7  C   UNL     1     -12.529   9.650  71.171  1.00  0.00    -0.421 A  
HETATM    8  N   UNL     1     -10.683  10.525  69.907  1.00  0.00    -0.266 NA 
BRANCH   4   9
HETATM    9  O   UNL     1     -10.303   6.880  70.325  1.00  0.00    -0.194 OA 
HETATM   10  C   UNL     1     -11.089   5.940  69.589  1.00  0.00    -0.343 C  
ENDBRANCH   4   9
BRANCH   6  11
HETATM   11  C   UNL     1      -9.035   9.145  68.800  1.00  0.00    -0.136 C  
BRANCH  11  12
HETATM   12  S   UNL     1      -9.593   8.809  67.106  1.00  0.00    -0.190 S  
HETATM   13  O   UNL     1     -11.015   8.325  67.095  1.00  0.00    -0.142 OA 
BRANCH  12  14
HETATM   14  C   UNL     1      -9.648  10.437  66.517  1.00  0.00    -0.179 A  
HETATM   15  N   UNL     1     -10.326  10.855  65.470  1.00  0.00    -0.263 NA 
HETATM   16  C   UNL     1     -10.172  12.225  65.473  1.00  0.00    -0.269 A  
HETATM   17  H   UNL     1     -10.851  10.291  64.803  1.00  0.00     0.000 HD 
HETATM   18  C   UNL     1      -9.358  12.635  66.523  1.00  0.00    -0.228 A  
HETATM   19  N   UNL     1      -9.022  11.471  67.161  1.00  0.00    -0.162 NA 
HETATM   20  C   UNL     1      -9.044  13.974  66.773  1.00  0.00    -0.250 A  
HETATM   21  C   UNL     1      -9.582  14.934  65.902  1.00  0.00    -0.308 A  
HETATM   22  C   UNL     1     -10.423  14.552  64.853  1.00  0.00    -0.435 A  
HETATM   23  C   UNL     1     -10.718  13.197  64.621  1.00  0.00    -0.398 A  
BRANCH  21  24
HETATM   24  O   UNL     1      -9.229  16.224  66.200  1.00  0.00    -0.297 OA 
HETATM   25  C   UNL     1     -10.282  17.174  66.159  1.00  0.00    -0.334 C  
HETATM   26  F   UNL     1     -10.940  17.153  67.345  1.00  0.00    -0.305 F  
HETATM   27  F   UNL     1      -9.713  18.402  66.051  1.00  0.00    -0.307 F  
ENDBRANCH  21  24
ENDBRANCH  12  14
ENDBRANCH  11  12
ENDBRANCH   6  11
ENDBRANCH   2   3
TORSDOF 6
ENDMDL
MODEL      102
REMARK 921   NORMALIZED FREE ENERGY PREDICTED BY IDOCK:   -5.28 KCAL/MOL
REMARK 922        TOTAL FREE ENERGY PREDICTED BY IDOCK:   -7.89 KCAL/MOL
REMARK 923 INTER-LIGAND FREE ENERGY PREDICTED BY IDOCK:   -6.97 KCAL/MOL
REMARK 924 INTRA-LIGAND FREE ENERGY PREDICTED BY IDOCK:   -0.92 KCAL/MOL
REMARK 927      BINDING AFFINITY PREDICTED BY RF-SCORE:    0.00 PKD
ROOT
HETATM    1  C   UNL     1      -6.859  18.081  65.874  1.00  0.00    -0.297 C  
HETATM    2  O   UNL     1      -8.180  17.545  65.917  1.00  0.00    -0.538 OA 
ENDROOT
BRANCH   2   3
HETATM    3  C   UNL     1      -8.402  16.625  66.913  1.00  0.00    -0.210 A  
HETATM    4  C   UNL     1      -9.456  16.651  67.849  1.00  0.00    -0.225 A  
HETATM    5  C   UNL     1      -7.594  14.642  67.944  1.00  0.00    -0.142 A  
HETATM    6  C   UNL     1      -9.588  15.562  68.718  1.00  0.00    -0.208 A  
HETATM    7  C   UNL     1      -7.446  15.620  66.984  1.00  0.00    -0.228 A  
HETATM    8  N   UNL     1      -8.638  14.589  68.798  1.00  0.00    -0.166 NA 
BRANCH   4   9
HETATM    9  O   UNL     1     -10.341  17.700  67.784  1.00  0.00    -0.333 OA 
HETATM   10  C   UNL     1     -10.020  18.840  68.583  1.00  0.00    -0.394 C  
ENDBRANCH   4   9
BRANCH   6  11
HETATM   11  C   UNL     1     -10.805  15.324  69.575  1.00  0.00    -0.271 C  
BRANCH  11  12
HETATM   12  S   UNL     1     -12.088  14.414  68.670  1.00  0.00    -0.174 S  
HETATM   13  O   UNL     1     -11.819  14.432  67.194  1.00  0.00    -0.388 OA 
BRANCH  12  14
HETATM   14  C   UNL     1     -11.699  12.812  69.199  1.00  0.00    -0.322 A  
HETATM   15  N   UNL     1     -11.957  12.308  70.388  1.00  0.00    -0.502 NA 
HETATM   16  C   UNL     1     -11.589  10.983  70.297  1.00  0.00    -0.322 A  
HETATM   17  H   UNL     1     -12.345  12.791  71.197  1.00  0.00     0.000 HD 
HETATM   18  C   UNL     1     -11.069  10.692  69.041  1.00  0.00    -0.254 A  
HETATM   19  N   UNL     1     -11.133  11.882  68.368  1.00  0.00    -0.225 NA 
HETATM   20  C   UNL     1     -10.630   9.418  68.668  1.00  0.00    -0.230 A  
HETATM   21  C   UNL     1     -10.719   8.399  69.630  1.00  0.00    -0.198 A  
HETATM   22  C   UNL     1     -11.262   8.659  70.893  1.00  0.00    -0.311 A  
HETATM   23  C   UNL     1     -11.691   9.951  71.242  1.00  0.00    -0.472 A  
BRANCH  21  24
HETATM   24  O   UNL     1     -10.266   7.180  69.202  1.00  0.00    -0.182 OA 
HETATM   25  C   UNL     1      -8.859   7.002  69.230  1.00  0.00    -0.139 C  
HETATM   26  F   UNL     1      -8.488   6.625  70.479  1.00  0.00    -0.128 F  
HETATM   27  F   UNL     1      -8.567   5.964  68.406  1.00  0.00    -0.112 F  
ENDBRANCH  21  24
ENDBRANCH  12  14
ENDBRANCH  11  12
ENDBRANCH   6  11
ENDBRANCH   2   3
TORSDOF 6
ENDMDL
MODEL      103
REMARK 921   NORMALIZED FREE ENERGY PREDICTED BY IDOCK:   -5.27 KCAL/MOL
REMARK 922        TOTAL FREE ENERGY PREDICTED BY IDOCK:   -7.87 KCAL/MOL
REMARK 923 INTER-LIGAND FREE ENERGY PREDICTED BY IDOCK:   -7.14 KCAL/MOL
REMARK 924 INTRA-LIGAND FREE ENERGY PREDICTED BY IDOCK:   -0.72 KCAL/MOL
REMARK 927      BINDING AFFINITY PREDICTED BY RF-SCORE:    0.00 PKD
ROOT
HETATM    1  C   UNL     1      -7.529   5.150  67.363  1.00  0.00    -0.083 C  
HETATM    2  O   UNL     1      -8.888   5.576  67.277  1.00  0.00    -0.108 OA 
ENDROOT
BRANCH   2   3
HETATM    3  C   UNL     1      -9.066   6.936  67.206  1.00  0.00    -0.124 A  
HETATM    4  C   UNL     1      -9.629   7.753  68.208  1.00  0.00    -0.155 A  
HETATM    5  C   UNL     1      -8.803   8.864  65.842  1.00  0.00    -0.179 A  
HETATM    6  C   UNL     1      -9.622   9.138  68.005  1.00  0.00    -0.147 A  
HETATM    7  C   UNL     1      -8.675   7.500  66.000  1.00  0.00    -0.178 A  
HETATM    8  N   UNL     1      -9.256   9.686  66.811  1.00  0.00    -0.145 NA 
BRANCH   4   9
HETATM    9  O   UNL     1     -10.063   7.143  69.359  1.00  0.00    -0.169 OA 
HETATM   10  C   UNL     1     -11.352   6.529  69.295  1.00  0.00    -0.294 C  
ENDBRANCH   4   9
BRANCH   6  11
HETATM   11  C   UNL     1      -9.936  10.140  69.087  1.00  0.00    -0.210 C  
BRANCH  11  12
HETATM   12  S   UNL     1     -11.635  10.761  68.944  1.00  0.00    -0.264 S  
HETATM   13  O   UNL     1     -12.092  11.378  70.234  1.00  0.00    -0.331 OA 
BRANCH  12  14
HETATM   14  C   UNL     1     -11.342  12.087  67.869  1.00  0.00    -0.305 A  
HETATM   15  N   UNL     1     -11.879  12.246  66.677  1.00  0.00    -0.594 NA 
HETATM   16  C   UNL     1     -11.458  13.492  66.264  1.00  0.00    -0.326 A  
HETATM   17  H   UNL     1     -12.475  11.592  66.171  1.00  0.00     0.000 HD 
HETATM   18  C   UNL     1     -10.627  14.080  67.211  1.00  0.00    -0.273 A  
HETATM   19  N   UNL     1     -10.555  13.152  68.215  1.00  0.00    -0.241 NA 
HETATM   20  C   UNL     1     -10.067  15.351  67.057  1.00  0.00    -0.249 A  
HETATM   21  C   UNL     1     -10.366  16.048  65.875  1.00  0.00    -0.368 A  
HETATM   22  C   UNL     1     -11.220  15.490  64.918  1.00  0.00    -0.396 A  
HETATM   23  C   UNL     1     -11.764  14.207  65.096  1.00  0.00    -0.361 A  
BRANCH  21  24
HETATM   24  O   UNL     1      -9.780  17.283  65.786  1.00  0.00    -0.530 OA 
HETATM   25  C   UNL     1     -10.604  18.381  66.143  1.00  0.00    -0.315 C  
HETATM   26  F   UNL     1     -10.569  18.538  67.489  1.00  0.00    -0.382 F  
HETATM   27  F   UNL     1     -10.045  19.495  65.606  1.00  0.00    -0.413 F  
ENDBRANCH  21  24
ENDBRANCH  12  14
ENDBRANCH  11  12
ENDBRANCH   6  11
ENDBRANCH   2   3
TORSDOF 6
ENDMDL
MODEL      104
REMARK 921   NORMALIZED FREE ENERGY PREDICTED BY IDOCK:   -5.27 KCAL/MOL
REMARK 922        TOTAL FREE ENERGY PREDICTED BY IDOCK:   -7.86 KCAL/MOL
REMARK 923 INTER-LIGAND FREE ENERGY PREDICTED BY IDOCK:   -7.35 KCAL/MOL
REMARK 924 INTRA-LIGAND FREE ENERGY PREDICTED BY IDOCK:   -0.51 KCAL/MOL
REMARK 927      BINDING AFFINITY PREDICTED BY RF-SCORE:    0.00 PKD
ROOT
HETATM    1  C   UNL     1      -7.141   8.743  63.618  1.00  0.00    -0.089 C  
HETATM    2  O   UNL     1      -8.542   8.725  63.886  1.00  0.00    -0.150 OA 
ENDROOT
BRANCH   2   3
HETATM    3  C   UNL     1      -9.090   9.945  64.196  1.00  0.00    -0.252 A  
HETATM    4  C   UNL     1      -9.303  10.455  65.494  1.00  0.00    -0.197 A  
HETATM    5  C   UNL     1     -10.037  11.935  63.307  1.00  0.00    -0.396 A  
HETATM    6  C   UNL     1      -9.766  11.770  65.614  1.00  0.00    -0.233 A  
HETATM    7  C   UNL     1      -9.489  10.688  63.093  1.00  0.00    -0.360 A  
HETATM    8  N   UNL     1     -10.175  12.489  64.530  1.00  0.00    -0.319 NA 
BRANCH   4   9
HETATM    9  O   UNL     1      -8.954   9.658  66.557  1.00  0.00    -0.142 OA 
HETATM   10  C   UNL     1      -9.735   8.475  66.735  1.00  0.00    -0.236 C  
ENDBRANCH   4   9
BRANCH   6  11
HETATM   11  C   UNL     1      -9.782  12.531  66.915  1.00  0.00    -0.232 C  
BRANCH  11  12
HETATM   12  S   UNL     1     -11.475  12.941  67.425  1.00  0.00    -0.356 S  
HETATM   13  O   UNL     1     -12.474  12.436  66.424  1.00  0.00    -0.418 OA 
BRANCH  12  14
HETATM   14  C   UNL     1     -11.603  11.884  68.790  1.00  0.00    -0.309 A  
HETATM   15  N   UNL     1     -12.518  11.952  69.734  1.00  0.00    -0.032 NA 
HETATM   16  C   UNL     1     -12.298  10.841  70.520  1.00  0.00    -0.369 A  
HETATM   17  H   UNL     1     -13.233  12.668  69.857  1.00  0.00     0.000 HD 
HETATM   18  C   UNL     1     -11.210  10.109  70.059  1.00  0.00    -0.299 A  
HETATM   19  N   UNL     1     -10.774  10.809  68.966  1.00  0.00    -0.213 NA 
HETATM   20  C   UNL     1     -10.772   8.925  70.659  1.00  0.00    -0.282 A  
HETATM   21  C   UNL     1     -11.476   8.477  71.788  1.00  0.00    -0.310 A  
HETATM   22  C   UNL     1     -12.589   9.181  72.258  1.00  0.00    -0.425 A  
HETATM   23  C   UNL     1     -13.005  10.371  71.637  1.00  0.00    -0.581 A  
BRANCH  21  24
HETATM   24  O   UNL     1     -10.990   7.316  72.331  1.00  0.00    -0.239 OA 
HETATM   25  C   UNL     1     -11.723   6.141  72.024  1.00  0.00    -0.299 C  
HETATM   26  F   UNL     1     -11.313   5.669  70.821  1.00  0.00    -0.318 F  
HETATM   27  F   UNL     1     -11.384   5.204  72.946  1.00  0.00    -0.292 F  
ENDBRANCH  21  24
ENDBRANCH  12  14
ENDBRANCH  11  12
ENDBRANCH   6  11
ENDBRANCH   2   3
TORSDOF 6
ENDMDL
MODEL      105
REMARK 921   NORMALIZED FREE ENERGY PREDICTED BY IDOCK:   -5.22 KCAL/MOL
REMARK 922        TOTAL FREE ENERGY PREDICTED BY IDOCK:   -7.80 KCAL/MOL
REMARK 923 INTER-LIGAND FREE ENERGY PREDICTED BY IDOCK:   -7.01 KCAL/MOL
REMARK 924 INTRA-LIGAND FREE ENERGY PREDICTED BY IDOCK:   -0.79 KCAL/MOL
REMARK 927      BINDING AFFINITY PREDICTED BY RF-SCORE:    0.00 PKD
ROOT
HETATM    1  C   UNL     1     -12.464  14.480  64.345  1.00  0.00    -0.309 C  
HETATM    2  O   UNL     1     -12.815  13.117  64.581  1.00  0.00    -0.693 OA 
ENDROOT
BRANCH   2   3
HETATM    3  C   UNL     1     -11.751  12.256  64.699  1.00  0.00    -0.356 A  
HETATM    4  C   UNL     1     -11.215  11.759  65.905  1.00  0.00    -0.290 A  
HETATM    5  C   UNL     1     -10.096  11.034  63.511  1.00  0.00    -0.373 A  
HETATM    6  C   UNL     1     -10.202  10.796  65.824  1.00  0.00    -0.257 A  
HETATM    7  C   UNL     1     -11.163  11.907  63.491  1.00  0.00    -0.501 A  
HETATM    8  N   UNL     1      -9.614  10.472  64.638  1.00  0.00    -0.264 NA 
BRANCH   4   9
HETATM    9  O   UNL     1     -11.787  12.183  67.080  1.00  0.00    -0.547 OA 
HETATM   10  C   UNL     1     -11.215  13.354  67.667  1.00  0.00    -0.276 C  
ENDBRANCH   4   9
BRANCH   6  11
HETATM   11  C   UNL     1      -9.728   9.986  67.004  1.00  0.00    -0.181 C  
BRANCH  11  12
HETATM   12  S   UNL     1     -10.366   8.289  66.945  1.00  0.00    -0.285 S  
HETATM   13  O   UNL     1      -9.342   7.349  66.377  1.00  0.00    -0.177 OA 
BRANCH  12  14
HETATM   14  C   UNL     1     -10.410   7.963  68.645  1.00  0.00    -0.201 A  
HETATM   15  N   UNL     1     -11.367   8.323  69.475  1.00  0.00    -0.413 NA 
HETATM   16  C   UNL     1     -11.033   7.735  70.676  1.00  0.00    -0.249 A  
HETATM   17  H   UNL     1     -12.177   8.908  69.273  1.00  0.00     0.000 HD 
HETATM   18  C   UNL     1      -9.836   7.035  70.575  1.00  0.00    -0.179 A  
HETATM   19  N   UNL     1      -9.451   7.215  69.273  1.00  0.00    -0.153 NA 
HETATM   20  C   UNL     1      -9.267   6.330  71.640  1.00  0.00    -0.147 A  
HETATM   21  C   UNL     1      -9.953   6.351  72.865  1.00  0.00    -0.174 A  
HETATM   22  C   UNL     1     -11.172   7.026  72.986  1.00  0.00    -0.242 A  
HETATM   23  C   UNL     1     -11.717   7.732  71.900  1.00  0.00    -0.335 A  
BRANCH  21  24
HETATM   24  O   UNL     1      -9.339   5.646  73.866  1.00  0.00    -0.132 OA 
HETATM   25  C   UNL     1      -7.927   5.541  73.767  1.00  0.00    -0.108 C  
HETATM   26  F   UNL     1      -7.365   6.654  74.299  1.00  0.00    -0.096 F  
HETATM   27  F   UNL     1      -7.545   4.500  74.549  1.00  0.00    -0.076 F  
ENDBRANCH  21  24
ENDBRANCH  12  14
ENDBRANCH  11  12
ENDBRANCH   6  11
ENDBRANCH   2   3
TORSDOF 6
ENDMDL
MODEL      106
REMARK 921   NORMALIZED FREE ENERGY PREDICTED BY IDOCK:   -5.20 KCAL/MOL
REMARK 922        TOTAL FREE ENERGY PREDICTED BY IDOCK:   -7.78 KCAL/MOL
REMARK 923 INTER-LIGAND FREE ENERGY PREDICTED BY IDOCK:   -6.96 KCAL/MOL
REMARK 924 INTRA-LIGAND FREE ENERGY PREDICTED BY IDOCK:   -0.82 KCAL/MOL
REMARK 927      BINDING AFFINITY PREDICTED BY RF-SCORE:    0.00 PKD
ROOT
HETATM    1  C   UNL     1     -13.285  15.638  71.352  1.00  0.00    -0.465 C  
HETATM    2  O   UNL     1     -12.335  15.404  70.314  1.00  0.00    -0.357 OA 
ENDROOT
BRANCH   2   3
HETATM    3  C   UNL     1     -12.216  14.093  69.921  1.00  0.00    -0.359 A  
HETATM    4  C   UNL     1     -12.029  13.636  68.601  1.00  0.00    -0.360 A  
HETATM    5  C   UNL     1     -12.217  11.834  70.657  1.00  0.00    -0.349 A  
HETATM    6  C   UNL     1     -11.810  12.267  68.406  1.00  0.00    -0.304 A  
HETATM    7  C   UNL     1     -12.338  13.174  70.955  1.00  0.00    -0.393 A  
HETATM    8  N   UNL     1     -11.951  11.367  69.420  1.00  0.00    -0.336 NA 
BRANCH   4   9
HETATM    9  O   UNL     1     -11.980  14.576  67.601  1.00  0.00    -0.374 OA 
HETATM   10  C   UNL     1     -10.694  15.137  67.331  1.00  0.00    -0.286 C  
ENDBRANCH   4   9
BRANCH   6  11
HETATM   11  C   UNL     1     -11.333  11.677  67.103  1.00  0.00    -0.306 C  
BRANCH  11  12
HETATM   12  S   UNL     1      -9.608  11.125  67.216  1.00  0.00    -0.165 S  
HETATM   13  O   UNL     1      -8.819  12.011  68.137  1.00  0.00    -0.171 OA 
BRANCH  12  14
HETATM   14  C   UNL     1      -9.859   9.649  68.087  1.00  0.00    -0.150 A  
HETATM   15  N   UNL     1     -10.757   8.729  67.802  1.00  0.00    -0.462 NA 
HETATM   16  C   UNL     1     -10.494   7.696  68.676  1.00  0.00    -0.177 A  
HETATM   17  H   UNL     1     -11.487   8.772  67.091  1.00  0.00     0.000 HD 
HETATM   18  C   UNL     1      -9.439   8.014  69.524  1.00  0.00    -0.160 A  
HETATM   19  N   UNL     1      -9.067   9.274  69.139  1.00  0.00    -0.142 NA 
HETATM   20  C   UNL     1      -8.951   7.142  70.501  1.00  0.00    -0.155 A  
HETATM   21  C   UNL     1      -9.578   5.892  70.620  1.00  0.00    -0.173 A  
HETATM   22  C   UNL     1     -10.625   5.537  69.763  1.00  0.00    -0.388 A  
HETATM   23  C   UNL     1     -11.099   6.436  68.793  1.00  0.00    -0.404 A  
BRANCH  21  24
HETATM   24  O   UNL     1      -9.056   5.090  71.600  1.00  0.00    -0.137 OA 
HETATM   25  C   UNL     1      -8.927   5.688  72.880  1.00  0.00    -0.123 C  
HETATM   26  F   UNL     1     -10.113   5.593  73.530  1.00  0.00    -0.160 F  
HETATM   27  F   UNL     1      -8.035   4.945  73.584  1.00  0.00    -0.100 F  
ENDBRANCH  21  24
ENDBRANCH  12  14
ENDBRANCH  11  12
ENDBRANCH   6  11
ENDBRANCH   2   3
TORSDOF 6
ENDMDL
MODEL      107
REMARK 921   NORMALIZED FREE ENERGY PREDICTED BY IDOCK:   -5.19 KCAL/MOL
REMARK 922        TOTAL FREE ENERGY PREDICTED BY IDOCK:   -7.75 KCAL/MOL
REMARK 923 INTER-LIGAND FREE ENERGY PREDICTED BY IDOCK:   -7.10 KCAL/MOL
REMARK 924 INTRA-LIGAND FREE ENERGY PREDICTED BY IDOCK:   -0.66 KCAL/MOL
REMARK 927      BINDING AFFINITY PREDICTED BY RF-SCORE:    0.00 PKD
ROOT
HETATM    1  C   UNL     1      -7.946   6.035  65.618  1.00  0.00    -0.116 C  
HETATM    2  O   UNL     1      -9.236   5.458  65.816  1.00  0.00    -0.158 OA 
ENDROOT
BRANCH   2   3
HETATM    3  C   UNL     1      -9.666   5.432  67.120  1.00  0.00    -0.146 A  
HETATM    4  C   UNL     1     -10.494   6.389  67.742  1.00  0.00    -0.226 A  
HETATM    5  C   UNL     1      -9.568   4.246  69.177  1.00  0.00    -0.179 A  
HETATM    6  C   UNL     1     -10.926   6.134  69.048  1.00  0.00    -0.367 A  
HETATM    7  C   UNL     1      -9.178   4.363  67.861  1.00  0.00    -0.170 A  
HETATM    8  N   UNL     1     -10.428   5.095  69.778  1.00  0.00    -0.265 NA 
BRANCH   4   9
HETATM    9  O   UNL     1     -10.900   7.465  66.990  1.00  0.00    -0.354 OA 
HETATM   10  C   UNL     1     -10.143   8.666  67.156  1.00  0.00    -0.261 C  
ENDBRANCH   4   9
BRANCH   6  11
HETATM   11  C   UNL     1     -12.015   6.918  69.734  1.00  0.00     0.101 C  
BRANCH  11  12
HETATM   12  S   UNL     1     -11.482   7.515  71.363  1.00  0.00    -0.273 S  
HETATM   13  O   UNL     1      -9.985   7.486  71.481  1.00  0.00    -0.177 OA 
BRANCH  12  14
HETATM   14  C   UNL     1     -11.906   9.184  71.185  1.00  0.00    -0.307 A  
HETATM   15  N   UNL     1     -12.703   9.866  71.982  1.00  0.00    -0.387 NA 
HETATM   16  C   UNL     1     -12.633  11.164  71.524  1.00  0.00    -0.325 A  
HETATM   17  H   UNL     1     -13.251   9.511  72.765  1.00  0.00     0.000 HD 
HETATM   18  C   UNL     1     -11.805  11.260  70.412  1.00  0.00    -0.350 A  
HETATM   19  N   UNL     1     -11.371   9.977  70.206  1.00  0.00    -0.286 NA 
HETATM   20  C   UNL     1     -11.542  12.464  69.752  1.00  0.00    -0.302 A  
HETATM   21  C   UNL     1     -12.163  13.619  70.250  1.00  0.00    -0.353 A  
HETATM   22  C   UNL     1     -12.981  13.556  71.383  1.00  0.00    -0.421 A  
HETATM   23  C   UNL     1     -13.233  12.330  72.023  1.00  0.00    -0.508 A  
BRANCH  21  24
HETATM   24  O   UNL     1     -11.868  14.762  69.554  1.00  0.00    -0.293 OA 
HETATM   25  C   UNL     1     -11.351  14.569  68.247  1.00  0.00    -0.297 C  
HETATM   26  F   UNL     1     -12.385  14.394  67.387  1.00  0.00    -0.410 F  
HETATM   27  F   UNL     1     -10.733  15.722  67.884  1.00  0.00    -0.266 F  
ENDBRANCH  21  24
ENDBRANCH  12  14
ENDBRANCH  11  12
ENDBRANCH   6  11
ENDBRANCH   2   3
TORSDOF 6
ENDMDL
MODEL      108
REMARK 921   NORMALIZED FREE ENERGY PREDICTED BY IDOCK:   -5.18 KCAL/MOL
REMARK 922        TOTAL FREE ENERGY PREDICTED BY IDOCK:   -7.75 KCAL/MOL
REMARK 923 INTER-LIGAND FREE ENERGY PREDICTED BY IDOCK:   -7.06 KCAL/MOL
REMARK 924 INTRA-LIGAND FREE ENERGY PREDICTED BY IDOCK:   -0.69 KCAL/MOL
REMARK 927      BINDING AFFINITY PREDICTED BY RF-SCORE:    0.00 PKD
ROOT
HETATM    1  C   UNL     1      -7.541   3.634  71.891  1.00  0.00    -0.057 C  
HETATM    2  O   UNL     1      -8.288   4.778  72.299  1.00  0.00    -0.112 OA 
ENDROOT
BRANCH   2   3
HETATM    3  C   UNL     1      -8.391   5.771  71.356  1.00  0.00    -0.127 A  
HETATM    4  C   UNL     1      -9.578   6.195  70.722  1.00  0.00    -0.169 A  
HETATM    5  C   UNL     1      -7.187   7.367  70.072  1.00  0.00    -0.073 A  
HETATM    6  C   UNL     1      -9.506   7.304  69.871  1.00  0.00    -0.157 A  
HETATM    7  C   UNL     1      -7.180   6.350  71.002  1.00  0.00    -0.078 A  
HETATM    8  N   UNL     1      -8.312   7.856  69.511  1.00  0.00    -0.130 NA 
BRANCH   4   9
HETATM    9  O   UNL     1     -10.744   5.550  71.054  1.00  0.00    -0.244 OA 
HETATM   10  C   UNL     1     -11.294   5.870  72.334  1.00  0.00    -0.307 C  
ENDBRANCH   4   9
BRANCH   6  11
HETATM   11  C   UNL     1     -10.718   8.029  69.344  1.00  0.00    -0.159 C  
BRANCH  11  12
HETATM   12  S   UNL     1     -11.512   9.024  70.637  1.00  0.00    -0.216 S  
HETATM   13  O   UNL     1     -10.549   9.328  71.748  1.00  0.00    -0.355 OA 
BRANCH  12  14
HETATM   14  C   UNL     1     -11.695  10.504  69.757  1.00  0.00    -0.281 A  
HETATM   15  N   UNL     1     -11.754  11.711  70.281  1.00  0.00    -0.492 NA 
HETATM   16  C   UNL     1     -11.766  12.566  69.199  1.00  0.00    -0.321 A  
HETATM   17  H   UNL     1     -11.784  11.959  71.269  1.00  0.00     0.000 HD 
HETATM   18  C   UNL     1     -11.746  11.859  68.002  1.00  0.00    -0.312 A  
HETATM   19  N   UNL     1     -11.721  10.546  68.388  1.00  0.00    -0.363 NA 
HETATM   20  C   UNL     1     -11.738  12.476  66.747  1.00  0.00    -0.453 A  
HETATM   21  C   UNL     1     -11.760  13.879  66.720  1.00  0.00    -0.399 A  
HETATM   22  C   UNL     1     -11.755  14.614  67.909  1.00  0.00    -0.379 A  
HETATM   23  C   UNL     1     -11.768  13.968  69.157  1.00  0.00    -0.375 A  
BRANCH  21  24
HETATM   24  O   UNL     1     -11.757  14.417  65.460  1.00  0.00    -0.341 OA 
HETATM   25  C   UNL     1     -11.092  15.663  65.325  1.00  0.00    -0.303 C  
HETATM   26  F   UNL     1      -9.766  15.436  65.157  1.00  0.00    -0.322 F  
HETATM   27  F   UNL     1     -11.538  16.235  64.178  1.00  0.00    -0.534 F  
ENDBRANCH  21  24
ENDBRANCH  12  14
ENDBRANCH  11  12
ENDBRANCH   6  11
ENDBRANCH   2   3
TORSDOF 6
ENDMDL
MODEL      109
REMARK 921   NORMALIZED FREE ENERGY PREDICTED BY IDOCK:   -5.17 KCAL/MOL
REMARK 922        TOTAL FREE ENERGY PREDICTED BY IDOCK:   -7.73 KCAL/MOL
REMARK 923 INTER-LIGAND FREE ENERGY PREDICTED BY IDOCK:   -6.96 KCAL/MOL
REMARK 924 INTRA-LIGAND FREE ENERGY PREDICTED BY IDOCK:   -0.77 KCAL/MOL
REMARK 927      BINDING AFFINITY PREDICTED BY RF-SCORE:    0.00 PKD
ROOT
HETATM    1  C   UNL     1     -13.956  14.628  72.026  1.00  0.00    -0.485 C  
HETATM    2  O   UNL     1     -12.648  14.557  71.462  1.00  0.00    -0.314 OA 
ENDROOT
BRANCH   2   3
HETATM    3  C   UNL     1     -12.444  13.508  70.599  1.00  0.00    -0.333 A  
HETATM    4  C   UNL     1     -12.262  13.603  69.204  1.00  0.00    -0.224 A  
HETATM    5  C   UNL     1     -12.256  11.146  70.419  1.00  0.00    -0.369 A  
HETATM    6  C   UNL     1     -11.949  12.433  68.503  1.00  0.00    -0.223 A  
HETATM    7  C   UNL     1     -12.467  12.259  71.205  1.00  0.00    -0.328 A  
HETATM    8  N   UNL     1     -11.993  11.207  69.097  1.00  0.00    -0.358 NA 
BRANCH   4   9
HETATM    9  O   UNL     1     -12.312  14.853  68.638  1.00  0.00    -0.116 OA 
HETATM   10  C   UNL     1     -11.463  15.841  69.225  1.00  0.00    -0.365 C  
ENDBRANCH   4   9
BRANCH   6  11
HETATM   11  C   UNL     1     -11.467  12.422  67.074  1.00  0.00    -0.358 C  
BRANCH  11  12
HETATM   12  S   UNL     1      -9.717  11.952  66.966  1.00  0.00    -0.196 S  
HETATM   13  O   UNL     1      -9.292  11.791  65.535  1.00  0.00    -0.208 OA 
BRANCH  12  14
HETATM   14  C   UNL     1      -9.011  13.440  67.501  1.00  0.00    -0.207 A  
HETATM   15  N   UNL     1      -8.383  13.629  68.643  1.00  0.00    -0.309 NA 
HETATM   16  C   UNL     1      -7.888  14.913  68.565  1.00  0.00    -0.126 A  
HETATM   17  H   UNL     1      -8.285  12.970  69.415  1.00  0.00     0.000 HD 
HETATM   18  C   UNL     1      -8.251  15.519  67.368  1.00  0.00    -0.177 A  
HETATM   19  N   UNL     1      -8.984  14.563  66.718  1.00  0.00    -0.255 NA 
HETATM   20  C   UNL     1      -7.872  16.818  67.020  1.00  0.00    -0.229 A  
HETATM   21  C   UNL     1      -7.092  17.531  67.944  1.00  0.00    -0.182 A  
HETATM   22  C   UNL     1      -6.691  16.936  69.145  1.00  0.00    -0.232 A  
HETATM   23  C   UNL     1      -7.092  15.629  69.472  1.00  0.00    -0.195 A  
BRANCH  21  24
HETATM   24  O   UNL     1      -6.761  18.798  67.543  1.00  0.00    -0.198 OA 
HETATM   25  C   UNL     1      -7.635  19.828  67.978  1.00  0.00    -0.299 C  
HETATM   26  F   UNL     1      -7.279  20.206  69.231  1.00  0.00    -0.309 F  
HETATM   27  F   UNL     1      -7.425  20.901  67.173  1.00  0.00    -0.360 F  
ENDBRANCH  21  24
ENDBRANCH  12  14
ENDBRANCH  11  12
ENDBRANCH   6  11
ENDBRANCH   2   3
TORSDOF 6
ENDMDL
MODEL      110
REMARK 921   NORMALIZED FREE ENERGY PREDICTED BY IDOCK:   -5.11 KCAL/MOL
REMARK 922        TOTAL FREE ENERGY PREDICTED BY IDOCK:   -7.65 KCAL/MOL
REMARK 923 INTER-LIGAND FREE ENERGY PREDICTED BY IDOCK:   -7.24 KCAL/MOL
REMARK 924 INTRA-LIGAND FREE ENERGY PREDICTED BY IDOCK:   -0.41 KCAL/MOL
REMARK 927      BINDING AFFINITY PREDICTED BY RF-SCORE:    0.00 PKD
ROOT
HETATM    1  C   UNL     1      -5.572  21.339  66.527  1.00  0.00    -0.271 C  
HETATM    2  O   UNL     1      -5.169  20.391  67.515  1.00  0.00    -0.174 OA 
ENDROOT
BRANCH   2   3
HETATM    3  C   UNL     1      -5.897  19.226  67.531  1.00  0.00    -0.186 A  
HETATM    4  C   UNL     1      -6.997  18.945  68.367  1.00  0.00    -0.254 A  
HETATM    5  C   UNL     1      -6.115  17.056  66.587  1.00  0.00    -0.196 A  
HETATM    6  C   UNL     1      -7.689  17.745  68.159  1.00  0.00    -0.254 A  
HETATM    7  C   UNL     1      -5.438  18.254  66.651  1.00  0.00    -0.169 A  
HETATM    8  N   UNL     1      -7.223  16.787  67.309  1.00  0.00    -0.157 NA 
BRANCH   4   9
HETATM    9  O   UNL     1      -7.376  19.909  69.268  1.00  0.00    -0.285 OA 
HETATM   10  C   UNL     1      -6.515  20.085  70.396  1.00  0.00    -0.228 C  
ENDBRANCH   4   9
BRANCH   6  11
HETATM   11  C   UNL     1      -9.027  17.438  68.782  1.00  0.00    -0.219 C  
BRANCH  11  12
HETATM   12  S   UNL     1     -10.343  17.379  67.535  1.00  0.00    -0.353 S  
HETATM   13  O   UNL     1      -9.771  17.423  66.147  1.00  0.00    -0.390 OA 
BRANCH  12  14
HETATM   14  C   UNL     1     -10.864  15.745  67.776  1.00  0.00    -0.316 A  
HETATM   15  N   UNL     1     -10.824  14.783  66.878  1.00  0.00    -0.309 NA 
HETATM   16  C   UNL     1     -11.211  13.648  67.559  1.00  0.00    -0.294 A  
HETATM   17  H   UNL     1     -10.565  14.860  65.895  1.00  0.00     0.000 HD 
HETATM   18  C   UNL     1     -11.519  13.939  68.883  1.00  0.00    -0.301 A  
HETATM   19  N   UNL     1     -11.308  15.288  68.988  1.00  0.00    -0.280 NA 
HETATM   20  C   UNL     1     -11.926  12.972  69.806  1.00  0.00    -0.377 A  
HETATM   21  C   UNL     1     -12.030  11.649  69.349  1.00  0.00    -0.316 A  
HETATM   22  C   UNL     1     -11.702  11.325  68.029  1.00  0.00    -0.305 A  
HETATM   23  C   UNL     1     -11.300  12.319  67.120  1.00  0.00    -0.398 A  
BRANCH  21  24
HETATM   24  O   UNL     1     -12.440  10.754  70.302  1.00  0.00    -0.321 OA 
HETATM   25  C   UNL     1     -11.652   9.581  70.424  1.00  0.00    -0.212 C  
HETATM   26  F   UNL     1     -10.591   9.846  71.226  1.00  0.00    -0.373 F  
HETATM   27  F   UNL     1     -12.406   8.654  71.067  1.00  0.00    -0.300 F  
ENDBRANCH  21  24
ENDBRANCH  12  14
ENDBRANCH  11  12
ENDBRANCH   6  11
ENDBRANCH   2   3
TORSDOF 6
ENDMDL
MODEL      111
REMARK 921   NORMALIZED FREE ENERGY PREDICTED BY IDOCK:   -5.09 KCAL/MOL
REMARK 922        TOTAL FREE ENERGY PREDICTED BY IDOCK:   -7.62 KCAL/MOL
REMARK 923 INTER-LIGAND FREE ENERGY PREDICTED BY IDOCK:   -6.93 KCAL/MOL
REMARK 924 INTRA-LIGAND FREE ENERGY PREDICTED BY IDOCK:   -0.69 KCAL/MOL
REMARK 927      BINDING AFFINITY PREDICTED BY RF-SCORE:    0.00 PKD
ROOT
HETATM    1  C   UNL     1     -13.777  15.712  72.845  1.00  0.00    -0.545 C  
HETATM    2  O   UNL     1     -12.933  15.660  71.695  1.00  0.00    -0.436 OA 
ENDROOT
BRANCH   2   3
HETATM    3  C   UNL     1     -12.699  14.399  71.205  1.00  0.00    -0.352 A  
HETATM    4  C   UNL     1     -11.917  14.079  70.075  1.00  0.00    -0.339 A  
HETATM    5  C   UNL     1     -13.158  12.085  71.487  1.00  0.00    -0.261 A  
HETATM    6  C   UNL     1     -11.695  12.726  69.794  1.00  0.00    -0.282 A  
HETATM    7  C   UNL     1     -13.347  13.387  71.899  1.00  0.00    -0.539 A  
HETATM    8  N   UNL     1     -12.349  11.737  70.465  1.00  0.00    -0.325 NA 
BRANCH   4   9
HETATM    9  O   UNL     1     -11.349  15.117  69.378  1.00  0.00    -0.258 OA 
HETATM   10  C   UNL     1     -11.600  15.140  67.972  1.00  0.00    -0.328 C  
ENDBRANCH   4   9
BRANCH   6  11
HETATM   11  C   UNL     1     -10.674  12.241  68.796  1.00  0.00    -0.214 C  
BRANCH  11  12
HETATM   12  S   UNL     1     -11.461  11.381  67.405  1.00  0.00    -0.183 S  
HETATM   13  O   UNL     1     -10.762  11.697  66.114  1.00  0.00    -0.260 OA 
BRANCH  12  14
HETATM   14  C   UNL     1     -11.000   9.759  67.802  1.00  0.00    -0.180 A  
HETATM   15  N   UNL     1     -11.113   9.194  68.986  1.00  0.00    -0.443 NA 
HETATM   16  C   UNL     1     -10.750   7.879  68.786  1.00  0.00    -0.051 A  
HETATM   17  H   UNL     1     -11.406   9.632  69.859  1.00  0.00     0.000 HD 
HETATM   18  C   UNL     1     -10.380   7.658  67.464  1.00  0.00    -0.257 A  
HETATM   19  N   UNL     1     -10.531   8.879  66.864  1.00  0.00    -0.262 NA 
HETATM   20  C   UNL     1      -9.980   6.409  66.978  1.00  0.00    -0.209 A  
HETATM   21  C   UNL     1      -9.948   5.343  67.891  1.00  0.00    -0.160 A  
HETATM   22  C   UNL     1     -10.339   5.533  69.221  1.00  0.00    -0.335 A  
HETATM   23  C   UNL     1     -10.732   6.801  69.683  1.00  0.00    -0.290 A  
BRANCH  21  24
HETATM   24  O   UNL     1      -9.541   4.152  67.352  1.00  0.00    -0.176 OA 
HETATM   25  C   UNL     1      -8.202   4.115  66.884  1.00  0.00    -0.101 C  
HETATM   26  F   UNL     1      -7.379   3.846  67.927  1.00  0.00    -0.062 F  
HETATM   27  F   UNL     1      -8.104   3.066  66.028  1.00  0.00    -0.082 F  
ENDBRANCH  21  24
ENDBRANCH  12  14
ENDBRANCH  11  12
ENDBRANCH   6  11
ENDBRANCH   2   3
TORSDOF 6
ENDMDL
MODEL      112
REMARK 921   NORMALIZED FREE ENERGY PREDICTED BY IDOCK:   -5.08 KCAL/MOL
REMARK 922        TOTAL FREE ENERGY PREDICTED BY IDOCK:   -7.61 KCAL/MOL
REMARK 923 INTER-LIGAND FREE ENERGY PREDICTED BY IDOCK:   -7.03 KCAL/MOL
REMARK 924 INTRA-LIGAND FREE ENERGY PREDICTED BY IDOCK:   -0.58 KCAL/MOL
REMARK 927      BINDING AFFINITY PREDICTED BY RF-SCORE:    0.00 PKD
ROOT
HETATM    1  C   UNL     1      -9.960   4.880  66.067  1.00  0.00    -0.223 C  
HETATM    2  O   UNL     1      -9.648   6.263  66.232  1.00  0.00    -0.153 OA 
ENDROOT
BRANCH   2   3
HETATM    3  C   UNL     1     -10.014   6.800  67.442  1.00  0.00    -0.148 A  
HETATM    4  C   UNL     1      -9.726   8.105  67.893  1.00  0.00    -0.161 A  
HETATM    5  C   UNL     1     -11.114   6.377  69.506  1.00  0.00    -0.396 A  
HETATM    6  C   UNL     1     -10.284   8.516  69.110  1.00  0.00    -0.211 A  
HETATM    7  C   UNL     1     -10.693   5.921  68.275  1.00  0.00    -0.319 A  
HETATM    8  N   UNL     1     -10.932   7.644  69.932  1.00  0.00    -0.234 NA 
BRANCH   4   9
HETATM    9  O   UNL     1      -8.995   8.919  67.064  1.00  0.00    -0.124 OA 
HETATM   10  C   UNL     1      -7.685   9.264  67.520  1.00  0.00    -0.092 C  
ENDBRANCH   4   9
BRANCH   6  11
HETATM   11  C   UNL     1     -10.289   9.947  69.581  1.00  0.00    -0.241 C  
BRANCH  11  12
HETATM   12  S   UNL     1     -11.952  10.477  70.081  1.00  0.00    -0.316 S  
HETATM   13  O   UNL     1     -12.106  10.424  71.573  1.00  0.00    -0.353 OA 
BRANCH  12  14
HETATM   14  C   UNL     1     -11.825  12.157  69.682  1.00  0.00    -0.322 A  
HETATM   15  N   UNL     1     -12.151  13.163  70.466  1.00  0.00    -0.489 NA 
HETATM   16  C   UNL     1     -11.758  14.290  69.778  1.00  0.00    -0.309 A  
HETATM   17  H   UNL     1     -12.597  13.118  71.382  1.00  0.00     0.000 HD 
HETATM   18  C   UNL     1     -11.214  13.958  68.542  1.00  0.00    -0.270 A  
HETATM   19  N   UNL     1     -11.289  12.592  68.499  1.00  0.00    -0.272 NA 
HETATM   20  C   UNL     1     -10.720  14.907  67.642  1.00  0.00    -0.270 A  
HETATM   21  C   UNL     1     -10.794  16.256  68.022  1.00  0.00    -0.339 A  
HETATM   22  C   UNL     1     -11.313  16.615  69.270  1.00  0.00    -0.025 A  
HETATM   23  C   UNL     1     -11.808  15.641  70.154  1.00  0.00    -0.381 A  
BRANCH  21  24
HETATM   24  O   UNL     1     -10.299  17.131  67.092  1.00  0.00    -0.303 OA 
HETATM   25  C   UNL     1     -10.304  18.498  67.471  1.00  0.00    -0.409 C  
HETATM   26  F   UNL     1      -9.192  18.755  68.204  1.00  0.00    -0.295 F  
HETATM   27  F   UNL     1     -10.200  19.232  66.333  1.00  0.00    -0.372 F  
ENDBRANCH  21  24
ENDBRANCH  12  14
ENDBRANCH  11  12
ENDBRANCH   6  11
ENDBRANCH   2   3
TORSDOF 6
ENDMDL
MODEL      113
REMARK 921   NORMALIZED FREE ENERGY PREDICTED BY IDOCK:   -5.07 KCAL/MOL
REMARK 922        TOTAL FREE ENERGY PREDICTED BY IDOCK:   -7.60 KCAL/MOL
REMARK 923 INTER-LIGAND FREE ENERGY PREDICTED BY IDOCK:   -6.65 KCAL/MOL
REMARK 924 INTRA-LIGAND FREE ENERGY PREDICTED BY IDOCK:   -0.95 KCAL/MOL
REMARK 927      BINDING AFFINITY PREDICTED BY RF-SCORE:    0.00 PKD
ROOT
HETATM    1  C   UNL     1     -11.362  10.221  70.149  1.00  0.00    -0.316 C  
HETATM    2  O   UNL     1     -10.597   9.475  69.204  1.00  0.00    -0.214 OA 
ENDROOT
BRANCH   2   3
HETATM    3  C   UNL     1      -9.781  10.226  68.395  1.00  0.00    -0.156 A  
HETATM    4  C   UNL     1      -9.657  10.103  66.995  1.00  0.00    -0.171 A  
HETATM    5  C   UNL     1      -8.157  11.960  68.342  1.00  0.00    -0.155 A  
HETATM    6  C   UNL     1      -8.860  11.037  66.323  1.00  0.00    -0.180 A  
HETATM    7  C   UNL     1      -8.998  11.150  69.074  1.00  0.00    -0.027 A  
HETATM    8  N   UNL     1      -8.078  11.929  66.995  1.00  0.00    -0.167 NA 
BRANCH   4   9
HETATM    9  O   UNL     1     -10.401   9.132  66.372  1.00  0.00    -0.258 OA 
HETATM   10  C   UNL     1      -9.834   7.820  66.361  1.00  0.00    -0.128 C  
ENDBRANCH   4   9
BRANCH   6  11
HETATM   11  C   UNL     1      -8.849  11.197  64.824  1.00  0.00     0.046 C  
BRANCH  11  12
HETATM   12  S   UNL     1     -10.279  12.154  64.247  1.00  0.00    -0.320 S  
HETATM   13  O   UNL     1     -11.511  11.299  64.192  1.00  0.00    -0.221 OA 
BRANCH  12  14
HETATM   14  C   UNL     1     -10.482  13.182  65.625  1.00  0.00    -0.282 A  
HETATM   15  N   UNL     1      -9.755  14.242  65.911  1.00  0.00    -0.451 NA 
HETATM   16  C   UNL     1     -10.365  14.804  67.011  1.00  0.00    -0.255 A  
HETATM   17  H   UNL     1      -8.923  14.575  65.424  1.00  0.00     0.000 HD 
HETATM   18  C   UNL     1     -11.461  14.050  67.416  1.00  0.00    -0.348 A  
HETATM   19  N   UNL     1     -11.499  13.010  66.525  1.00  0.00    -0.323 NA 
HETATM   20  C   UNL     1     -12.274  14.396  68.499  1.00  0.00    -0.178 A  
HETATM   21  C   UNL     1     -11.942  15.563  69.205  1.00  0.00    -0.309 A  
HETATM   22  C   UNL     1     -10.860  16.354  68.804  1.00  0.00    -0.338 A  
HETATM   23  C   UNL     1     -10.057  15.979  67.714  1.00  0.00    -0.243 A  
BRANCH  21  24
HETATM   24  O   UNL     1     -12.774  15.840  70.257  1.00  0.00    -0.353 OA 
HETATM   25  C   UNL     1     -12.192  15.728  71.546  1.00  0.00    -0.453 C  
HETATM   26  F   UNL     1     -11.548  16.884  71.840  1.00  0.00    -0.443 F  
HETATM   27  F   UNL     1     -13.209  15.611  72.438  1.00  0.00    -0.407 F  
ENDBRANCH  21  24
ENDBRANCH  12  14
ENDBRANCH  11  12
ENDBRANCH   6  11
ENDBRANCH   2   3
TORSDOF 6
ENDMDL
MODEL      114
REMARK 921   NORMALIZED FREE ENERGY PREDICTED BY IDOCK:   -5.07 KCAL/MOL
REMARK 922        TOTAL FREE ENERGY PREDICTED BY IDOCK:   -7.60 KCAL/MOL
REMARK 923 INTER-LIGAND FREE ENERGY PREDICTED BY IDOCK:   -6.84 KCAL/MOL
REMARK 924 INTRA-LIGAND FREE ENERGY PREDICTED BY IDOCK:   -0.76 KCAL/MOL
REMARK 927      BINDING AFFINITY PREDICTED BY RF-SCORE:    0.00 PKD
ROOT
HETATM    1  C   UNL     1      -6.444  19.988  65.061  1.00  0.00    -0.289 C  
HETATM    2  O   UNL     1      -7.158  18.796  65.385  1.00  0.00    -0.505 OA 
ENDROOT
BRANCH   2   3
HETATM    3  C   UNL     1      -8.279  18.983  66.156  1.00  0.00    -0.231 A  
HETATM    4  C   UNL     1      -9.275  18.020  66.421  1.00  0.00    -0.242 A  
HETATM    5  C   UNL     1      -9.503  20.544  67.463  1.00  0.00    -0.380 A  
HETATM    6  C   UNL     1     -10.287  18.356  67.327  1.00  0.00    -0.392 A  
HETATM    7  C   UNL     1      -8.414  20.267  66.664  1.00  0.00    -0.295 A  
HETATM    8  N   UNL     1     -10.428  19.624  67.808  1.00  0.00    -0.442 NA 
BRANCH   4   9
HETATM    9  O   UNL     1      -9.135  16.782  65.843  1.00  0.00    -0.492 OA 
HETATM   10  C   UNL     1      -8.093  15.959  66.373  1.00  0.00    -0.162 C  
ENDBRANCH   4   9
BRANCH   6  11
HETATM   11  C   UNL     1     -11.251  17.353  67.908  1.00  0.00     0.154 C  
BRANCH  11  12
HETATM   12  S   UNL     1     -10.474  16.362  69.214  1.00  0.00    -0.318 S  
HETATM   13  O   UNL     1     -11.309  16.366  70.461  1.00  0.00    -0.363 OA 
BRANCH  12  14
HETATM   14  C   UNL     1     -10.683  14.792  68.514  1.00  0.00    -0.247 A  
HETATM   15  N   UNL     1     -11.083  14.542  67.285  1.00  0.00    -0.302 NA 
HETATM   16  C   UNL     1     -10.971  13.176  67.147  1.00  0.00    -0.268 A  
HETATM   17  H   UNL     1     -11.405  15.213  66.587  1.00  0.00     0.000 HD 
HETATM   18  C   UNL     1     -10.526  12.588  68.325  1.00  0.00    -0.234 A  
HETATM   19  N   UNL     1     -10.370  13.641  69.187  1.00  0.00    -0.025 NA 
HETATM   20  C   UNL     1     -10.309  11.214  68.464  1.00  0.00    -0.207 A  
HETATM   21  C   UNL     1     -10.568  10.406  67.345  1.00  0.00    -0.269 A  
HETATM   22  C   UNL     1     -10.992  10.974  66.140  1.00  0.00    -0.157 A  
HETATM   23  C   UNL     1     -11.207  12.359  66.031  1.00  0.00    -0.374 A  
BRANCH  21  24
HETATM   24  O   UNL     1     -10.341   9.071  67.551  1.00  0.00    -0.231 OA 
HETATM   25  C   UNL     1     -10.010   8.701  68.880  1.00  0.00    -0.189 C  
HETATM   26  F   UNL     1     -11.154   8.546  69.591  1.00  0.00    -0.232 F  
HETATM   27  F   UNL     1      -9.418   7.481  68.823  1.00  0.00    -0.147 F  
ENDBRANCH  21  24
ENDBRANCH  12  14
ENDBRANCH  11  12
ENDBRANCH   6  11
ENDBRANCH   2   3
TORSDOF 6
ENDMDL
MODEL      115
REMARK 921   NORMALIZED FREE ENERGY PREDICTED BY IDOCK:   -5.03 KCAL/MOL
REMARK 922        TOTAL FREE ENERGY PREDICTED BY IDOCK:   -7.54 KCAL/MOL
REMARK 923 INTER-LIGAND FREE ENERGY PREDICTED BY IDOCK:   -6.49 KCAL/MOL
REMARK 924 INTRA-LIGAND FREE ENERGY PREDICTED BY IDOCK:   -1.05 KCAL/MOL
REMARK 927      BINDING AFFINITY PREDICTED BY RF-SCORE:    0.00 PKD
ROOT
HETATM    1  C   UNL     1      -6.680   4.012  72.485  1.00  0.00    -0.041 C  
HETATM    2  O   UNL     1      -7.599   4.999  72.949  1.00  0.00    -0.092 OA 
ENDROOT
BRANCH   2   3
HETATM    3  C   UNL     1      -8.131   5.802  71.970  1.00  0.00    -0.112 A  
HETATM    4  C   UNL     1      -9.490   5.871  71.599  1.00  0.00    -0.149 A  
HETATM    5  C   UNL     1      -7.638   7.414  70.295  1.00  0.00    -0.088 A  
HETATM    6  C   UNL     1      -9.864   6.837  70.658  1.00  0.00    -0.179 A  
HETATM    7  C   UNL     1      -7.194   6.565  71.287  1.00  0.00    -0.079 A  
HETATM    8  N   UNL     1      -8.940   7.570  69.975  1.00  0.00    -0.144 NA 
BRANCH   4   9
HETATM    9  O   UNL     1     -10.373   5.050  72.257  1.00  0.00    -0.197 OA 
HETATM   10  C   UNL     1     -10.903   5.555  73.484  1.00  0.00    -0.276 C  
ENDBRANCH   4   9
BRANCH   6  11
HETATM   11  C   UNL     1     -11.297   7.207  70.369  1.00  0.00    -0.289 C  
BRANCH  11  12
HETATM   12  S   UNL     1     -11.827   8.634  71.357  1.00  0.00    -0.311 S  
HETATM   13  O   UNL     1     -10.830   8.940  72.437  1.00  0.00    -0.272 OA 
BRANCH  12  14
HETATM   14  C   UNL     1     -11.621   9.872  70.163  1.00  0.00    -0.218 A  
HETATM   15  N   UNL     1     -11.310   9.680  68.899  1.00  0.00    -0.464 NA 
HETATM   16  C   UNL     1     -11.387  10.929  68.322  1.00  0.00    -0.308 A  
HETATM   17  H   UNL     1     -11.065   8.800  68.445  1.00  0.00     0.000 HD 
HETATM   18  C   UNL     1     -11.720  11.896  69.264  1.00  0.00    -0.328 A  
HETATM   19  N   UNL     1     -11.843  11.196  70.434  1.00  0.00    -0.353 NA 
HETATM   20  C   UNL     1     -11.880  13.249  68.951  1.00  0.00    -0.367 A  
HETATM   21  C   UNL     1     -11.682  13.628  67.614  1.00  0.00    -0.363 A  
HETATM   22  C   UNL     1     -11.372  12.672  66.642  1.00  0.00    -0.379 A  
HETATM   23  C   UNL     1     -11.211  11.319  66.985  1.00  0.00    -0.324 A  
BRANCH  21  24
HETATM   24  O   UNL     1     -11.848  14.968  67.378  1.00  0.00    -0.309 OA 
HETATM   25  C   UNL     1     -10.871  15.819  67.955  1.00  0.00    -0.314 C  
HETATM   26  F   UNL     1      -9.797  15.877  67.130  1.00  0.00    -0.223 F  
HETATM   27  F   UNL     1     -11.400  17.069  67.995  1.00  0.00    -0.314 F  
ENDBRANCH  21  24
ENDBRANCH  12  14
ENDBRANCH  11  12
ENDBRANCH   6  11
ENDBRANCH   2   3
TORSDOF 6
ENDMDL
MODEL      116
REMARK 921   NORMALIZED FREE ENERGY PREDICTED BY IDOCK:   -5.03 KCAL/MOL
REMARK 922        TOTAL FREE ENERGY PREDICTED BY IDOCK:   -7.54 KCAL/MOL
REMARK 923 INTER-LIGAND FREE ENERGY PREDICTED BY IDOCK:   -6.72 KCAL/MOL
REMARK 924 INTRA-LIGAND FREE ENERGY PREDICTED BY IDOCK:   -0.82 KCAL/MOL
REMARK 927      BINDING AFFINITY PREDICTED BY RF-SCORE:    0.00 PKD
ROOT
HETATM    1  C   UNL     1      -5.871  12.595  70.235  1.00  0.00    -0.156 C  
HETATM    2  O   UNL     1      -6.457  11.321  69.973  1.00  0.00    -0.141 OA 
ENDROOT
BRANCH   2   3
HETATM    3  C   UNL     1      -7.417  11.314  68.991  1.00  0.00    -0.116 A  
HETATM    4  C   UNL     1      -8.627  10.589  69.015  1.00  0.00    -0.157 A  
HETATM    5  C   UNL     1      -8.008  12.142  66.843  1.00  0.00    -0.089 A  
HETATM    6  C   UNL     1      -9.537  10.799  67.974  1.00  0.00    -0.163 A  
HETATM    7  C   UNL     1      -7.097  12.077  67.876  1.00  0.00    -0.097 A  
HETATM    8  N   UNL     1      -9.211  11.532  66.872  1.00  0.00    -0.172 NA 
BRANCH   4   9
HETATM    9  O   UNL     1      -8.872   9.795  70.109  1.00  0.00    -0.218 OA 
HETATM   10  C   UNL     1      -8.469   8.429  69.994  1.00  0.00    -0.125 C  
ENDBRANCH   4   9
BRANCH   6  11
HETATM   11  C   UNL     1     -10.963  10.310  68.004  1.00  0.00    -0.289 C  
BRANCH  11  12
HETATM   12  S   UNL     1     -11.983  11.302  69.130  1.00  0.00    -0.291 S  
HETATM   13  O   UNL     1     -11.615  11.039  70.562  1.00  0.00    -0.314 OA 
BRANCH  12  14
HETATM   14  C   UNL     1     -11.339  12.867  68.761  1.00  0.00    -0.290 A  
HETATM   15  N   UNL     1     -10.388  13.486  69.429  1.00  0.00    -0.375 NA 
HETATM   16  C   UNL     1     -10.123  14.623  68.695  1.00  0.00    -0.238 A  
HETATM   17  H   UNL     1      -9.945  13.191  70.298  1.00  0.00     0.000 HD 
HETATM   18  C   UNL     1     -10.953  14.705  67.582  1.00  0.00    -0.293 A  
HETATM   19  N   UNL     1     -11.731  13.581  67.661  1.00  0.00    -0.342 NA 
HETATM   20  C   UNL     1     -10.891  15.748  66.654  1.00  0.00    -0.241 A  
HETATM   21  C   UNL     1      -9.943  16.758  66.883  1.00  0.00    -0.273 A  
HETATM   22  C   UNL     1      -9.079  16.687  67.980  1.00  0.00    -0.218 A  
HETATM   23  C   UNL     1      -9.167  15.628  68.900  1.00  0.00    -0.226 A  
BRANCH  21  24
HETATM   24  O   UNL     1      -9.940  17.752  65.940  1.00  0.00    -0.527 OA 
HETATM   25  C   UNL     1     -10.533  18.977  66.339  1.00  0.00    -0.446 C  
HETATM   26  F   UNL     1      -9.615  19.711  67.015  1.00  0.00    -0.356 F  
HETATM   27  F   UNL     1     -10.828  19.668  65.208  1.00  0.00    -0.563 F  
ENDBRANCH  21  24
ENDBRANCH  12  14
ENDBRANCH  11  12
ENDBRANCH   6  11
ENDBRANCH   2   3
TORSDOF 6
ENDMDL
MODEL      117
REMARK 921   NORMALIZED FREE ENERGY PREDICTED BY IDOCK:   -5.00 KCAL/MOL
REMARK 922        TOTAL FREE ENERGY PREDICTED BY IDOCK:   -7.51 KCAL/MOL
REMARK 923 INTER-LIGAND FREE ENERGY PREDICTED BY IDOCK:   -6.50 KCAL/MOL
REMARK 924 INTRA-LIGAND FREE ENERGY PREDICTED BY IDOCK:   -1.01 KCAL/MOL
REMARK 927      BINDING AFFINITY PREDICTED BY RF-SCORE:    0.00 PKD
ROOT
HETATM    1  C   UNL     1     -12.201  15.502  72.786  1.00  0.00    -0.432 C  
HETATM    2  O   UNL     1     -12.448  14.212  72.230  1.00  0.00    -0.254 OA 
ENDROOT
BRANCH   2   3
HETATM    3  C   UNL     1     -12.199  14.102  70.884  1.00  0.00    -0.363 A  
HETATM    4  C   UNL     1     -11.912  12.911  70.187  1.00  0.00    -0.301 A  
HETATM    5  C   UNL     1     -11.978  15.298  68.843  1.00  0.00    -0.264 A  
HETATM    6  C   UNL     1     -11.801  12.977  68.793  1.00  0.00    -0.317 A  
HETATM    7  C   UNL     1     -12.204  15.312  70.203  1.00  0.00    -0.402 A  
HETATM    8  N   UNL     1     -11.786  14.169  68.131  1.00  0.00    -0.349 NA 
BRANCH   4   9
HETATM    9  O   UNL     1     -11.852  11.746  70.912  1.00  0.00    -0.158 OA 
HETATM   10  C   UNL     1     -13.109  11.164  71.266  1.00  0.00    -0.256 C  
ENDBRANCH   4   9
BRANCH   6  11
HETATM   11  C   UNL     1     -11.767  11.762  67.901  1.00  0.00    -0.276 C  
BRANCH  11  12
HETATM   12  S   UNL     1     -10.079  11.125  67.710  1.00  0.00    -0.183 S  
HETATM   13  O   UNL     1      -9.080  12.051  68.342  1.00  0.00    -0.188 OA 
BRANCH  12  14
HETATM   14  C   UNL     1     -10.189   9.761  68.771  1.00  0.00    -0.194 A  
HETATM   15  N   UNL     1     -11.295   9.289  69.308  1.00  0.00    -0.431 NA 
HETATM   16  C   UNL     1     -10.909   8.136  69.958  1.00  0.00    -0.233 A  
HETATM   17  H   UNL     1     -12.231   9.689  69.255  1.00  0.00     0.000 HD 
HETATM   18  C   UNL     1      -9.540   7.928  69.836  1.00  0.00    -0.168 A  
HETATM   19  N   UNL     1      -9.104   8.990  69.091  1.00  0.00    -0.139 NA 
HETATM   20  C   UNL     1      -8.880   6.825  70.387  1.00  0.00    -0.152 A  
HETATM   21  C   UNL     1      -9.658   5.900  71.101  1.00  0.00    -0.169 A  
HETATM   22  C   UNL     1     -11.041   6.073  71.217  1.00  0.00    -0.337 A  
HETATM   23  C   UNL     1     -11.677   7.194  70.658  1.00  0.00    -0.348 A  
BRANCH  21  24
HETATM   24  O   UNL     1      -8.948   4.849  71.619  1.00  0.00    -0.134 OA 
HETATM   25  C   UNL     1      -9.653   3.622  71.720  1.00  0.00    -0.151 C  
HETATM   26  F   UNL     1      -9.595   2.983  70.525  1.00  0.00    -0.214 F  
HETATM   27  F   UNL     1      -8.984   2.846  72.610  1.00  0.00    -0.084 F  
ENDBRANCH  21  24
ENDBRANCH  12  14
ENDBRANCH  11  12
ENDBRANCH   6  11
ENDBRANCH   2   3
TORSDOF 6
ENDMDL
MODEL      118
REMARK 921   NORMALIZED FREE ENERGY PREDICTED BY IDOCK:   -5.00 KCAL/MOL
REMARK 922        TOTAL FREE ENERGY PREDICTED BY IDOCK:   -7.50 KCAL/MOL
REMARK 923 INTER-LIGAND FREE ENERGY PREDICTED BY IDOCK:   -7.18 KCAL/MOL
REMARK 924 INTRA-LIGAND FREE ENERGY PREDICTED BY IDOCK:   -0.32 KCAL/MOL
REMARK 927      BINDING AFFINITY PREDICTED BY RF-SCORE:    0.00 PKD
ROOT
HETATM    1  C   UNL     1     -10.697   5.236  73.925  1.00  0.00    -0.272 C  
HETATM    2  O   UNL     1      -9.475   5.578  73.273  1.00  0.00    -0.145 OA 
ENDROOT
BRANCH   2   3
HETATM    3  C   UNL     1      -9.546   5.639  71.903  1.00  0.00    -0.152 A  
HETATM    4  C   UNL     1      -9.484   6.810  71.119  1.00  0.00    -0.163 A  
HETATM    5  C   UNL     1      -9.805   4.372  69.909  1.00  0.00    -0.220 A  
HETATM    6  C   UNL     1      -9.454   6.667  69.727  1.00  0.00    -0.147 A  
HETATM    7  C   UNL     1      -9.736   4.410  71.286  1.00  0.00    -0.252 A  
HETATM    8  N   UNL     1      -9.661   5.461  69.126  1.00  0.00    -0.147 NA 
BRANCH   4   9
HETATM    9  O   UNL     1      -9.362   8.011  71.775  1.00  0.00    -0.145 OA 
HETATM   10  C   UNL     1     -10.583   8.697  72.058  1.00  0.00    -0.351 C  
ENDBRANCH   4   9
BRANCH   6  11
HETATM   11  C   UNL     1      -9.120   7.792  68.781  1.00  0.00    -0.140 C  
BRANCH  11  12
HETATM   12  S   UNL     1      -9.942   7.579  67.177  1.00  0.00    -0.246 S  
HETATM   13  O   UNL     1     -11.210   6.789  67.325  1.00  0.00    -0.348 OA 
BRANCH  12  14
HETATM   14  C   UNL     1     -10.438   9.217  66.915  1.00  0.00    -0.217 A  
HETATM   15  N   UNL     1     -11.043   9.990  67.792  1.00  0.00    -0.452 NA 
HETATM   16  C   UNL     1     -11.115  11.225  67.185  1.00  0.00    -0.301 A  
HETATM   17  H   UNL     1     -11.383   9.731  68.718  1.00  0.00     0.000 HD 
HETATM   18  C   UNL     1     -10.573  11.187  65.906  1.00  0.00    -0.234 A  
HETATM   19  N   UNL     1     -10.167   9.888  65.752  1.00  0.00    -0.235 NA 
HETATM   20  C   UNL     1     -10.502  12.304  65.069  1.00  0.00    -0.322 A  
HETATM   21  C   UNL     1     -11.018  13.512  65.563  1.00  0.00    -0.288 A  
HETATM   22  C   UNL     1     -11.547  13.584  66.855  1.00  0.00    -0.398 A  
HETATM   23  C   UNL     1     -11.610  12.443  67.674  1.00  0.00    -0.421 A  
BRANCH  21  24
HETATM   24  O   UNL     1     -10.923  14.564  64.690  1.00  0.00    -0.382 OA 
HETATM   25  C   UNL     1     -10.825  15.848  65.283  1.00  0.00    -0.387 C  
HETATM   26  F   UNL     1      -9.529  16.086  65.604  1.00  0.00    -0.335 F  
HETATM   27  F   UNL     1     -11.166  16.757  64.334  1.00  0.00    -0.477 F  
ENDBRANCH  21  24
ENDBRANCH  12  14
ENDBRANCH  11  12
ENDBRANCH   6  11
ENDBRANCH   2   3
TORSDOF 6
ENDMDL
MODEL      119
REMARK 921   NORMALIZED FREE ENERGY PREDICTED BY IDOCK:   -4.99 KCAL/MOL
REMARK 922        TOTAL FREE ENERGY PREDICTED BY IDOCK:   -7.50 KCAL/MOL
REMARK 923 INTER-LIGAND FREE ENERGY PREDICTED BY IDOCK:   -7.20 KCAL/MOL
REMARK 924 INTRA-LIGAND FREE ENERGY PREDICTED BY IDOCK:   -0.30 KCAL/MOL
REMARK 927      BINDING AFFINITY PREDICTED BY RF-SCORE:    0.00 PKD
ROOT
HETATM    1  C   UNL     1     -13.697  15.912  72.845  1.00  0.00    -0.511 C  
HETATM    2  O   UNL     1     -12.758  14.844  72.738  1.00  0.00    -0.355 OA 
ENDROOT
BRANCH   2   3
HETATM    3  C   UNL     1     -12.106  14.763  71.531  1.00  0.00    -0.350 A  
HETATM    4  C   UNL     1     -12.345  13.808  70.521  1.00  0.00    -0.359 A  
HETATM    5  C   UNL     1     -10.404  15.712  70.172  1.00  0.00    -0.254 A  
HETATM    6  C   UNL     1     -11.663  13.955  69.307  1.00  0.00    -0.334 A  
HETATM    7  C   UNL     1     -11.103  15.707  71.360  1.00  0.00    -0.293 A  
HETATM    8  N   UNL     1     -10.665  14.870  69.151  1.00  0.00    -0.245 NA 
BRANCH   4   9
HETATM    9  O   UNL     1     -13.301  12.852  70.760  1.00  0.00     0.209 OA 
HETATM   10  C   UNL     1     -13.359  12.345  72.094  1.00  0.00    -0.403 C  
ENDBRANCH   4   9
BRANCH   6  11
HETATM   11  C   UNL     1     -12.010  13.184  68.059  1.00  0.00    -0.304 C  
BRANCH  11  12
HETATM   12  S   UNL     1     -10.817  11.854  67.744  1.00  0.00    -0.223 S  
HETATM   13  O   UNL     1      -9.410  12.334  67.955  1.00  0.00    -0.177 OA 
BRANCH  12  14
HETATM   14  C   UNL     1     -11.177  10.848  69.106  1.00  0.00    -0.256 A  
HETATM   15  N   UNL     1     -12.362  10.364  69.416  1.00  0.00    -0.651 NA 
HETATM   16  C   UNL     1     -12.134   9.527  70.486  1.00  0.00    -0.085 A  
HETATM   17  H   UNL     1     -13.253  10.565  68.962  1.00  0.00     0.000 HD 
HETATM   18  C   UNL     1     -10.792   9.531  70.848  1.00  0.00    -0.337 A  
HETATM   19  N   UNL     1     -10.209  10.398  69.963  1.00  0.00    -0.167 NA 
HETATM   20  C   UNL     1     -10.277   8.760  71.894  1.00  0.00    -0.415 A  
HETATM   21  C   UNL     1     -11.180   7.955  72.606  1.00  0.00    -0.398 A  
HETATM   22  C   UNL     1     -12.531   7.913  72.247  1.00  0.00    -0.265 A  
HETATM   23  C   UNL     1     -13.023   8.703  71.193  1.00  0.00    -0.095 A  
BRANCH  21  24
HETATM   24  O   UNL     1     -10.611   7.232  73.621  1.00  0.00    -0.375 OA 
HETATM   25  C   UNL     1     -10.320   5.876  73.321  1.00  0.00    -0.217 C  
HETATM   26  F   UNL     1      -9.119   5.813  72.695  1.00  0.00    -0.132 F  
HETATM   27  F   UNL     1     -10.178   5.224  74.503  1.00  0.00    -0.205 F  
ENDBRANCH  21  24
ENDBRANCH  12  14
ENDBRANCH  11  12
ENDBRANCH   6  11
ENDBRANCH   2   3
TORSDOF 6
ENDMDL
MODEL      120
REMARK 921   NORMALIZED FREE ENERGY PREDICTED BY IDOCK:   -4.99 KCAL/MOL
REMARK 922        TOTAL FREE ENERGY PREDICTED BY IDOCK:   -7.49 KCAL/MOL
REMARK 923 INTER-LIGAND FREE ENERGY PREDICTED BY IDOCK:   -6.92 KCAL/MOL
REMARK 924 INTRA-LIGAND FREE ENERGY PREDICTED BY IDOCK:   -0.57 KCAL/MOL
REMARK 927      BINDING AFFINITY PREDICTED BY RF-SCORE:    0.00 PKD
ROOT
HETATM    1  C   UNL     1      -7.603   8.768  64.359  1.00  0.00    -0.116 C  
HETATM    2  O   UNL     1      -8.729   8.916  65.222  1.00  0.00    -0.174 OA 
ENDROOT
BRANCH   2   3
HETATM    3  C   UNL     1      -9.321  10.155  65.197  1.00  0.00    -0.235 A  
HETATM    4  C   UNL     1      -9.398  11.061  66.275  1.00  0.00    -0.183 A  
HETATM    5  C   UNL     1     -10.523  11.711  63.862  1.00  0.00    -0.382 A  
HETATM    6  C   UNL     1      -9.937  12.329  66.029  1.00  0.00    -0.252 A  
HETATM    7  C   UNL     1      -9.916  10.479  63.985  1.00  0.00    -0.363 A  
HETATM    8  N   UNL     1     -10.539  12.635  64.845  1.00  0.00    -0.295 NA 
BRANCH   4   9
HETATM    9  O   UNL     1      -8.853  10.672  67.475  1.00  0.00    -0.131 OA 
HETATM   10  C   UNL     1      -9.750  10.634  68.587  1.00  0.00    -0.178 C  
ENDBRANCH   4   9
BRANCH   6  11
HETATM   11  C   UNL     1      -9.838  13.478  66.999  1.00  0.00    -0.251 C  
BRANCH  11  12
HETATM   12  S   UNL     1     -11.377  14.440  67.050  1.00  0.00    -0.359 S  
HETATM   13  O   UNL     1     -12.020  14.352  68.404  1.00  0.00    -0.331 OA 
BRANCH  12  14
HETATM   14  C   UNL     1     -10.698  16.030  66.957  1.00  0.00    -0.277 A  
HETATM   15  N   UNL     1     -11.264  17.137  67.389  1.00  0.00     0.084 NA 
HETATM   16  C   UNL     1     -10.306  18.113  67.222  1.00  0.00    -0.386 A  
HETATM   17  H   UNL     1     -12.205  17.248  67.766  1.00  0.00     0.000 HD 
HETATM   18  C   UNL     1      -9.153  17.590  66.647  1.00  0.00    -0.269 A  
HETATM   19  N   UNL     1      -9.439  16.263  66.471  1.00  0.00    -0.246 NA 
HETATM   20  C   UNL     1      -8.015  18.356  66.378  1.00  0.00    -0.288 A  
HETATM   21  C   UNL     1      -8.064  19.720  66.704  1.00  0.00    -0.315 A  
HETATM   22  C   UNL     1      -9.203  20.267  67.305  1.00  0.00    -0.523 A  
HETATM   23  C   UNL     1     -10.335  19.475  67.560  1.00  0.00    -0.567 A  
BRANCH  21  24
HETATM   24  O   UNL     1      -6.920  20.412  66.407  1.00  0.00    -0.241 OA 
HETATM   25  C   UNL     1      -6.456  20.289  65.072  1.00  0.00    -0.292 C  
HETATM   26  F   UNL     1      -7.115  21.182  64.294  1.00  0.00    -0.161 F  
HETATM   27  F   UNL     1      -5.149  20.656  65.065  1.00  0.00    -0.187 F  
ENDBRANCH  21  24
ENDBRANCH  12  14
ENDBRANCH  11  12
ENDBRANCH   6  11
ENDBRANCH   2   3
TORSDOF 6
ENDMDL
MODEL      121
REMARK 921   NORMALIZED FREE ENERGY PREDICTED BY IDOCK:   -4.97 KCAL/MOL
REMARK 922        TOTAL FREE ENERGY PREDICTED BY IDOCK:   -7.46 KCAL/MOL
REMARK 923 INTER-LIGAND FREE ENERGY PREDICTED BY IDOCK:   -6.48 KCAL/MOL
REMARK 924 INTRA-LIGAND FREE ENERGY PREDICTED BY IDOCK:   -0.98 KCAL/MOL
REMARK 927      BINDING AFFINITY PREDICTED BY RF-SCORE:    0.00 PKD
ROOT
HETATM    1  C   UNL     1      -7.384  17.542  66.098  1.00  0.00    -0.311 C  
HETATM    2  O   UNL     1      -8.504  16.743  65.721  1.00  0.00    -0.472 OA 
ENDROOT
BRANCH   2   3
HETATM    3  C   UNL     1      -8.824  15.740  66.602  1.00  0.00    -0.288 A  
HETATM    4  C   UNL     1     -10.081  15.111  66.725  1.00  0.00    -0.258 A  
HETATM    5  C   UNL     1      -8.015  14.367  68.365  1.00  0.00    -0.141 A  
HETATM    6  C   UNL     1     -10.188  14.025  67.601  1.00  0.00    -0.241 A  
HETATM    7  C   UNL     1      -7.790  15.378  67.455  1.00  0.00    -0.215 A  
HETATM    8  N   UNL     1      -9.176  13.686  68.450  1.00  0.00    -0.192 NA 
BRANCH   4   9
HETATM    9  O   UNL     1     -11.094  15.547  65.907  1.00  0.00    -0.301 OA 
HETATM   10  C   UNL     1     -11.124  14.984  64.594  1.00  0.00    -0.321 C  
ENDBRANCH   4   9
BRANCH   6  11
HETATM   11  C   UNL     1     -11.375  13.097  67.636  1.00  0.00    -0.298 C  
BRANCH  11  12
HETATM   12  S   UNL     1     -11.084  11.607  66.641  1.00  0.00    -0.295 S  
HETATM   13  O   UNL     1      -9.759  11.680  65.940  1.00  0.00    -0.222 OA 
BRANCH  12  14
HETATM   14  C   UNL     1     -10.872  10.468  67.927  1.00  0.00    -0.282 A  
HETATM   15  N   UNL     1     -10.799  10.757  69.210  1.00  0.00    -0.227 NA 
HETATM   16  C   UNL     1     -10.765   9.535  69.846  1.00  0.00    -0.240 A  
HETATM   17  H   UNL     1     -10.774  11.682  69.638  1.00  0.00     0.000 HD 
HETATM   18  C   UNL     1     -10.785   8.491  68.928  1.00  0.00    -0.073 A  
HETATM   19  N   UNL     1     -10.833   9.116  67.711  1.00  0.00    -0.171 NA 
HETATM   20  C   UNL     1     -10.773   7.143  69.298  1.00  0.00    -0.231 A  
HETATM   21  C   UNL     1     -10.730   6.853  70.671  1.00  0.00    -0.236 A  
HETATM   22  C   UNL     1     -10.735   7.884  71.616  1.00  0.00    -0.268 A  
HETATM   23  C   UNL     1     -10.742   9.231  71.215  1.00  0.00    -0.422 A  
BRANCH  21  24
HETATM   24  O   UNL     1     -10.713   5.515  70.964  1.00  0.00    -0.244 OA 
HETATM   25  C   UNL     1      -9.503   4.836  70.668  1.00  0.00    -0.171 C  
HETATM   26  F   UNL     1      -8.642   5.003  71.702  1.00  0.00    -0.118 F  
HETATM   27  F   UNL     1      -9.789   3.511  70.609  1.00  0.00    -0.241 F  
ENDBRANCH  21  24
ENDBRANCH  12  14
ENDBRANCH  11  12
ENDBRANCH   6  11
ENDBRANCH   2   3
TORSDOF 6
ENDMDL
MODEL      122
REMARK 921   NORMALIZED FREE ENERGY PREDICTED BY IDOCK:   -4.96 KCAL/MOL
REMARK 922        TOTAL FREE ENERGY PREDICTED BY IDOCK:   -7.44 KCAL/MOL
REMARK 923 INTER-LIGAND FREE ENERGY PREDICTED BY IDOCK:   -6.53 KCAL/MOL
REMARK 924 INTRA-LIGAND FREE ENERGY PREDICTED BY IDOCK:   -0.91 KCAL/MOL
REMARK 927      BINDING AFFINITY PREDICTED BY RF-SCORE:    0.00 PKD
ROOT
HETATM    1  C   UNL     1     -12.810  12.093  63.344  1.00  0.00    -0.272 C  
HETATM    2  O   UNL     1     -11.612  12.592  63.935  1.00  0.00    -0.378 OA 
ENDROOT
BRANCH   2   3
HETATM    3  C   UNL     1     -11.317  12.077  65.174  1.00  0.00    -0.304 A  
HETATM    4  C   UNL     1     -10.592  10.895  65.430  1.00  0.00    -0.173 A  
HETATM    5  C   UNL     1     -11.580  12.372  67.517  1.00  0.00    -0.365 A  
HETATM    6  C   UNL     1     -10.287  10.589  66.762  1.00  0.00    -0.245 A  
HETATM    7  C   UNL     1     -11.838  12.806  66.234  1.00  0.00    -0.485 A  
HETATM    8  N   UNL     1     -10.818  11.296  67.800  1.00  0.00    -0.218 NA 
BRANCH   4   9
HETATM    9  O   UNL     1     -10.151  10.170  64.350  1.00  0.00    -0.282 OA 
HETATM   10  C   UNL     1      -8.888  10.560  63.807  1.00  0.00    -0.200 C  
ENDBRANCH   4   9
BRANCH   6  11
HETATM   11  C   UNL     1      -9.303   9.521  67.166  1.00  0.00    -0.143 C  
BRANCH  11  12
HETATM   12  S   UNL     1     -10.059   7.872  67.130  1.00  0.00    -0.287 S  
HETATM   13  O   UNL     1      -9.082   6.844  66.635  1.00  0.00    -0.140 OA 
BRANCH  12  14
HETATM   14  C   UNL     1     -10.195   7.606  68.836  1.00  0.00    -0.210 A  
HETATM   15  N   UNL     1     -10.421   8.532  69.745  1.00  0.00    -0.218 NA 
HETATM   16  C   UNL     1     -10.577   7.837  70.925  1.00  0.00    -0.213 A  
HETATM   17  H   UNL     1     -10.469   9.541  69.606  1.00  0.00     0.000 HD 
HETATM   18  C   UNL     1     -10.411   6.471  70.728  1.00  0.00    -0.204 A  
HETATM   19  N   UNL     1     -10.148   6.355  69.389  1.00  0.00    -0.166 NA 
HETATM   20  C   UNL     1     -10.530   5.528  71.753  1.00  0.00    -0.287 A  
HETATM   21  C   UNL     1     -10.824   6.008  73.039  1.00  0.00    -0.260 A  
HETATM   22  C   UNL     1     -11.021   7.375  73.260  1.00  0.00    -0.367 A  
HETATM   23  C   UNL     1     -10.890   8.302  72.211  1.00  0.00    -0.408 A  
BRANCH  21  24
HETATM   24  O   UNL     1     -10.920   5.033  73.996  1.00  0.00    -0.287 OA 
HETATM   25  C   UNL     1     -10.105   3.890  73.792  1.00  0.00    -0.130 C  
HETATM   26  F   UNL     1      -8.863   4.143  74.273  1.00  0.00    -0.094 F  
HETATM   27  F   UNL     1     -10.620   2.888  74.551  1.00  0.00    -0.195 F  
ENDBRANCH  21  24
ENDBRANCH  12  14
ENDBRANCH  11  12
ENDBRANCH   6  11
ENDBRANCH   2   3
TORSDOF 6
ENDMDL
MODEL      123
REMARK 921   NORMALIZED FREE ENERGY PREDICTED BY IDOCK:   -4.95 KCAL/MOL
REMARK 922        TOTAL FREE ENERGY PREDICTED BY IDOCK:   -7.44 KCAL/MOL
REMARK 923 INTER-LIGAND FREE ENERGY PREDICTED BY IDOCK:   -6.79 KCAL/MOL
REMARK 924 INTRA-LIGAND FREE ENERGY PREDICTED BY IDOCK:   -0.65 KCAL/MOL
REMARK 927      BINDING AFFINITY PREDICTED BY RF-SCORE:    0.00 PKD
ROOT
HETATM    1  C   UNL     1     -10.619  17.337  68.128  1.00  0.00    -0.386 C  
HETATM    2  O   UNL     1      -9.560  16.876  67.291  1.00  0.00    -0.239 OA 
ENDROOT
BRANCH   2   3
HETATM    3  C   UNL     1      -9.874  15.802  66.495  1.00  0.00    -0.269 A  
HETATM    4  C   UNL     1      -9.390  14.486  66.647  1.00  0.00    -0.281 A  
HETATM    5  C   UNL     1     -11.101  15.084  64.591  1.00  0.00    -0.321 A  
HETATM    6  C   UNL     1      -9.914  13.494  65.810  1.00  0.00    -0.252 A  
HETATM    7  C   UNL     1     -10.718  16.104  65.436  1.00  0.00    -0.374 A  
HETATM    8  N   UNL     1     -10.726  13.798  64.759  1.00  0.00    -0.396 NA 
BRANCH   4   9
HETATM    9  O   UNL     1      -8.504  14.246  67.669  1.00  0.00    -0.157 OA 
HETATM   10  C   UNL     1      -7.164  14.694  67.455  1.00  0.00    -0.192 C  
ENDBRANCH   4   9
BRANCH   6  11
HETATM   11  C   UNL     1      -9.698  12.019  66.032  1.00  0.00    -0.239 C  
BRANCH  11  12
HETATM   12  S   UNL     1     -10.509  11.449  67.552  1.00  0.00    -0.211 S  
HETATM   13  O   UNL     1     -11.995  11.653  67.476  1.00  0.00    -0.622 OA 
BRANCH  12  14
HETATM   14  C   UNL     1     -10.260   9.746  67.362  1.00  0.00    -0.230 A  
HETATM   15  N   UNL     1     -10.946   8.795  67.961  1.00  0.00    -0.480 NA 
HETATM   16  C   UNL     1     -10.483   7.621  67.405  1.00  0.00    -0.297 A  
HETATM   17  H   UNL     1     -11.662   8.902  68.678  1.00  0.00     0.000 HD 
HETATM   18  C   UNL     1      -9.477   7.869  66.478  1.00  0.00    -0.214 A  
HETATM   19  N   UNL     1      -9.342   9.232  66.486  1.00  0.00    -0.165 NA 
HETATM   20  C   UNL     1      -8.838   6.860  65.751  1.00  0.00    -0.088 A  
HETATM   21  C   UNL     1      -9.242   5.538  65.993  1.00  0.00    -0.158 A  
HETATM   22  C   UNL     1     -10.269   5.263  66.903  1.00  0.00    -0.279 A  
HETATM   23  C   UNL     1     -10.891   6.297  67.623  1.00  0.00    -0.433 A  
BRANCH  21  24
HETATM   24  O   UNL     1      -8.571   4.600  65.254  1.00  0.00    -0.123 OA 
HETATM   25  C   UNL     1      -9.365   3.549  64.729  1.00  0.00    -0.152 C  
HETATM   26  F   UNL     1      -9.928   3.962  63.566  1.00  0.00    -0.149 F  
HETATM   27  F   UNL     1      -8.526   2.529  64.415  1.00  0.00    -0.084 F  
ENDBRANCH  21  24
ENDBRANCH  12  14
ENDBRANCH  11  12
ENDBRANCH   6  11
ENDBRANCH   2   3
TORSDOF 6
ENDMDL
MODEL      124
REMARK 921   NORMALIZED FREE ENERGY PREDICTED BY IDOCK:   -4.93 KCAL/MOL
REMARK 922        TOTAL FREE ENERGY PREDICTED BY IDOCK:   -7.41 KCAL/MOL
REMARK 923 INTER-LIGAND FREE ENERGY PREDICTED BY IDOCK:   -6.69 KCAL/MOL
REMARK 924 INTRA-LIGAND FREE ENERGY PREDICTED BY IDOCK:   -0.72 KCAL/MOL
REMARK 927      BINDING AFFINITY PREDICTED BY RF-SCORE:    0.00 PKD
ROOT
HETATM    1  C   UNL     1     -11.592  16.029  64.259  1.00  0.00    -0.138 C  
HETATM    2  O   UNL     1     -12.390  14.938  64.715  1.00  0.00    -0.355 OA 
ENDROOT
BRANCH   2   3
HETATM    3  C   UNL     1     -11.738  13.731  64.784  1.00  0.00    -0.381 A  
HETATM    4  C   UNL     1     -10.757  13.369  65.731  1.00  0.00    -0.274 A  
HETATM    5  C   UNL     1     -11.491  11.592  63.778  1.00  0.00    -0.364 A  
HETATM    6  C   UNL     1     -10.287  12.051  65.717  1.00  0.00    -0.254 A  
HETATM    7  C   UNL     1     -12.085  12.837  63.780  1.00  0.00    -0.596 A  
HETATM    8  N   UNL     1     -10.615  11.183  64.719  1.00  0.00    -0.319 NA 
BRANCH   4   9
HETATM    9  O   UNL     1     -10.397  14.309  66.666  1.00  0.00    -0.272 OA 
HETATM   10  C   UNL     1     -11.357  14.573  67.691  1.00  0.00    -0.337 C  
ENDBRANCH   4   9
BRANCH   6  11
HETATM   11  C   UNL     1      -9.454  11.453  66.822  1.00  0.00    -0.182 C  
BRANCH  11  12
HETATM   12  S   UNL     1     -10.482  10.558  68.020  1.00  0.00    -0.215 S  
HETATM   13  O   UNL     1     -11.941  10.798  67.762  1.00  0.00    -0.470 OA 
BRANCH  12  14
HETATM   14  C   UNL     1     -10.171   8.942  67.481  1.00  0.00    -0.248 A  
HETATM   15  N   UNL     1     -10.932   7.892  67.709  1.00  0.00    -0.498 NA 
HETATM   16  C   UNL     1     -10.356   6.873  66.982  1.00  0.00    -0.278 A  
HETATM   17  H   UNL     1     -11.765   7.845  68.294  1.00  0.00     0.000 HD 
HETATM   18  C   UNL     1      -9.208   7.309  66.330  1.00  0.00    -0.130 A  
HETATM   19  N   UNL     1      -9.103   8.628  66.683  1.00  0.00    -0.155 NA 
HETATM   20  C   UNL     1      -8.432   6.486  65.509  1.00  0.00    -0.139 A  
HETATM   21  C   UNL     1      -8.847   5.153  65.358  1.00  0.00    -0.153 A  
HETATM   22  C   UNL     1     -10.011   4.695  65.982  1.00  0.00    -0.262 A  
HETATM   23  C   UNL     1     -10.770   5.544  66.806  1.00  0.00    -0.329 A  
BRANCH  21  24
HETATM   24  O   UNL     1      -8.038   4.401  64.547  1.00  0.00    -0.092 OA 
HETATM   25  C   UNL     1      -8.697   3.691  63.511  1.00  0.00    -0.096 C  
HETATM   26  F   UNL     1      -8.870   4.520  62.452  1.00  0.00    -0.093 F  
HETATM   27  F   UNL     1      -7.857   2.706  63.101  1.00  0.00    -0.062 F  
ENDBRANCH  21  24
ENDBRANCH  12  14
ENDBRANCH  11  12
ENDBRANCH   6  11
ENDBRANCH   2   3
TORSDOF 6
ENDMDL
MODEL      125
REMARK 921   NORMALIZED FREE ENERGY PREDICTED BY IDOCK:   -4.92 KCAL/MOL
REMARK 922        TOTAL FREE ENERGY PREDICTED BY IDOCK:   -7.40 KCAL/MOL
REMARK 923 INTER-LIGAND FREE ENERGY PREDICTED BY IDOCK:   -6.63 KCAL/MOL
REMARK 924 INTRA-LIGAND FREE ENERGY PREDICTED BY IDOCK:   -0.77 KCAL/MOL
REMARK 927      BINDING AFFINITY PREDICTED BY RF-SCORE:    0.00 PKD
ROOT
HETATM    1  C   UNL     1      -7.716   4.485  69.607  1.00  0.00    -0.054 C  
HETATM    2  O   UNL     1      -8.778   5.290  70.118  1.00  0.00    -0.116 OA 
ENDROOT
BRANCH   2   3
HETATM    3  C   UNL     1      -9.491   5.981  69.169  1.00  0.00    -0.128 A  
HETATM    4  C   UNL     1      -9.841   7.346  69.224  1.00  0.00    -0.168 A  
HETATM    5  C   UNL     1     -10.625   5.818  67.088  1.00  0.00    -0.291 A  
HETATM    6  C   UNL     1     -10.470   7.906  68.106  1.00  0.00    -0.173 A  
HETATM    7  C   UNL     1      -9.915   5.206  68.098  1.00  0.00    -0.203 A  
HETATM    8  N   UNL     1     -10.902   7.138  67.066  1.00  0.00    -0.362 NA 
BRANCH   4   9
HETATM    9  O   UNL     1      -9.458   8.059  70.333  1.00  0.00    -0.165 OA 
HETATM   10  C   UNL     1     -10.413   8.127  71.394  1.00  0.00    -0.212 C  
ENDBRANCH   4   9
BRANCH   6  11
HETATM   11  C   UNL     1     -10.656   9.390  67.912  1.00  0.00    -0.237 C  
BRANCH  11  12
HETATM   12  S   UNL     1      -9.185  10.154  67.175  1.00  0.00    -0.138 S  
HETATM   13  O   UNL     1      -9.001   9.707  65.754  1.00  0.00    -0.150 OA 
BRANCH  12  14
HETATM   14  C   UNL     1      -9.753  11.787  67.083  1.00  0.00    -0.183 A  
HETATM   15  N   UNL     1     -10.405  12.432  68.029  1.00  0.00    -0.210 NA 
HETATM   16  C   UNL     1     -10.527  13.721  67.558  1.00  0.00    -0.245 A  
HETATM   17  H   UNL     1     -10.744  12.058  68.915  1.00  0.00     0.000 HD 
HETATM   18  C   UNL     1      -9.967  13.847  66.292  1.00  0.00    -0.306 A  
HETATM   19  N   UNL     1      -9.499  12.593  66.006  1.00  0.00    -0.189 NA 
HETATM   20  C   UNL     1      -9.938  15.051  65.582  1.00  0.00    -0.387 A  
HETATM   21  C   UNL     1     -10.516  16.174  66.195  1.00  0.00    -0.325 A  
HETATM   22  C   UNL     1     -11.064  16.081  67.479  1.00  0.00    -0.207 A  
HETATM   23  C   UNL     1     -11.084  14.856  68.167  1.00  0.00    -0.290 A  
BRANCH  21  24
HETATM   24  O   UNL     1     -10.460  17.318  65.443  1.00  0.00    -0.635 OA 
HETATM   25  C   UNL     1     -10.460  18.534  66.174  1.00  0.00    -0.413 C  
HETATM   26  F   UNL     1      -9.192  18.811  66.565  1.00  0.00    -0.292 F  
HETATM   27  F   UNL     1     -10.826  19.519  65.315  1.00  0.00    -0.550 F  
ENDBRANCH  21  24
ENDBRANCH  12  14
ENDBRANCH  11  12
ENDBRANCH   6  11
ENDBRANCH   2   3
TORSDOF 6
ENDMDL
MODEL      126
REMARK 921   NORMALIZED FREE ENERGY PREDICTED BY IDOCK:   -4.91 KCAL/MOL
REMARK 922        TOTAL FREE ENERGY PREDICTED BY IDOCK:   -7.38 KCAL/MOL
REMARK 923 INTER-LIGAND FREE ENERGY PREDICTED BY IDOCK:   -6.42 KCAL/MOL
REMARK 924 INTRA-LIGAND FREE ENERGY PREDICTED BY IDOCK:   -0.95 KCAL/MOL
REMARK 927      BINDING AFFINITY PREDICTED BY RF-SCORE:    0.00 PKD
ROOT
HETATM    1  C   UNL     1     -10.250  17.115  67.688  1.00  0.00    -0.329 C  
HETATM    2  O   UNL     1      -9.630  15.878  67.341  1.00  0.00    -0.219 OA 
ENDROOT
BRANCH   2   3
HETATM    3  C   UNL     1     -10.494  14.824  67.172  1.00  0.00    -0.265 A  
HETATM    4  C   UNL     1     -10.997  14.351  65.942  1.00  0.00    -0.312 A  
HETATM    5  C   UNL     1     -11.766  13.153  68.284  1.00  0.00    -0.349 A  
HETATM    6  C   UNL     1     -11.776  13.188  65.956  1.00  0.00    -0.379 A  
HETATM    7  C   UNL     1     -10.909  14.230  68.356  1.00  0.00    -0.263 A  
HETATM    8  N   UNL     1     -12.197  12.620  67.122  1.00  0.00    -0.406 NA 
BRANCH   4   9
HETATM    9  O   UNL     1     -10.612  15.010  64.800  1.00  0.00    -0.402 OA 
HETATM   10  C   UNL     1     -11.460  16.081  64.379  1.00  0.00    -0.242 C  
ENDBRANCH   4   9
BRANCH   6  11
HETATM   11  C   UNL     1     -12.151  12.422  64.712  1.00  0.00    -0.416 C  
BRANCH  11  12
HETATM   12  S   UNL     1     -10.765  11.419  64.106  1.00  0.00    -0.372 S  
HETATM   13  O   UNL     1      -9.676  12.289  63.549  1.00  0.00    -0.301 OA 
BRANCH  12  14
HETATM   14  C   UNL     1     -10.172  10.841  65.626  1.00  0.00    -0.257 A  
HETATM   15  N   UNL     1      -9.208  11.388  66.336  1.00  0.00    -0.192 NA 
HETATM   16  C   UNL     1      -9.180  10.667  67.510  1.00  0.00    -0.143 A  
HETATM   17  H   UNL     1      -8.612  12.174  66.075  1.00  0.00     0.000 HD 
HETATM   18  C   UNL     1     -10.123   9.646  67.493  1.00  0.00    -0.197 A  
HETATM   19  N   UNL     1     -10.728   9.768  66.271  1.00  0.00     0.019 NA 
HETATM   20  C   UNL     1     -10.322   8.767  68.562  1.00  0.00    -0.231 A  
HETATM   21  C   UNL     1      -9.511   8.937  69.695  1.00  0.00    -0.168 A  
HETATM   22  C   UNL     1      -8.572   9.972  69.748  1.00  0.00    -0.192 A  
HETATM   23  C   UNL     1      -8.389  10.838  68.657  1.00  0.00    -0.141 A  
BRANCH  21  24
HETATM   24  O   UNL     1      -9.754   8.040  70.701  1.00  0.00    -0.172 OA 
HETATM   25  C   UNL     1      -9.488   6.681  70.390  1.00  0.00    -0.166 C  
HETATM   26  F   UNL     1      -8.168   6.437  70.583  1.00  0.00    -0.115 F  
HETATM   27  F   UNL     1     -10.161   5.922  71.292  1.00  0.00    -0.215 F  
ENDBRANCH  21  24
ENDBRANCH  12  14
ENDBRANCH  11  12
ENDBRANCH   6  11
ENDBRANCH   2   3
TORSDOF 6
ENDMDL
MODEL      127
REMARK 921   NORMALIZED FREE ENERGY PREDICTED BY IDOCK:   -4.89 KCAL/MOL
REMARK 922        TOTAL FREE ENERGY PREDICTED BY IDOCK:   -7.36 KCAL/MOL
REMARK 923 INTER-LIGAND FREE ENERGY PREDICTED BY IDOCK:   -6.71 KCAL/MOL
REMARK 924 INTRA-LIGAND FREE ENERGY PREDICTED BY IDOCK:   -0.65 KCAL/MOL
REMARK 927      BINDING AFFINITY PREDICTED BY RF-SCORE:    0.00 PKD
ROOT
HETATM    1  C   UNL     1      -6.880  17.984  65.878  1.00  0.00    -0.297 C  
HETATM    2  O   UNL     1      -7.411  16.866  66.586  1.00  0.00    -0.210 OA 
ENDROOT
BRANCH   2   3
HETATM    3  C   UNL     1      -8.621  17.088  67.199  1.00  0.00    -0.202 A  
HETATM    4  C   UNL     1      -9.711  16.193  67.234  1.00  0.00    -0.233 A  
HETATM    5  C   UNL     1      -9.916  18.646  68.440  1.00  0.00    -0.387 A  
HETATM    6  C   UNL     1     -10.822  16.545  68.008  1.00  0.00    -0.337 A  
HETATM    7  C   UNL     1      -8.741  18.339  67.787  1.00  0.00    -0.263 A  
HETATM    8  N   UNL     1     -10.944  17.782  68.568  1.00  0.00     0.004 NA 
BRANCH   4   9
HETATM    9  O   UNL     1      -9.572  14.993  66.582  1.00  0.00    -0.237 OA 
HETATM   10  C   UNL     1     -10.076  14.944  65.246  1.00  0.00    -0.345 C  
ENDBRANCH   4   9
BRANCH   6  11
HETATM   11  C   UNL     1     -11.932  15.586  68.356  1.00  0.00    -0.102 C  
BRANCH  11  12
HETATM   12  S   UNL     1     -12.083  15.367  70.152  1.00  0.00    -0.381 S  
HETATM   13  O   UNL     1     -13.495  15.599  70.604  1.00  0.00    -0.476 OA 
BRANCH  12  14
HETATM   14  C   UNL     1     -11.841  13.654  70.230  1.00  0.00    -0.266 A  
HETATM   15  N   UNL     1     -12.294  12.854  71.173  1.00  0.00    -0.357 NA 
HETATM   16  C   UNL     1     -11.970  11.584  70.744  1.00  0.00    -0.214 A  
HETATM   17  H   UNL     1     -12.779  13.116  72.031  1.00  0.00     0.000 HD 
HETATM   18  C   UNL     1     -11.281  11.623  69.538  1.00  0.00    -0.213 A  
HETATM   19  N   UNL     1     -11.195  12.958  69.244  1.00  0.00    -0.224 NA 
HETATM   20  C   UNL     1     -10.842  10.478  68.867  1.00  0.00    -0.275 A  
HETATM   21  C   UNL     1     -11.115   9.238  69.465  1.00  0.00    -0.080 A  
HETATM   22  C   UNL     1     -11.829   9.169  70.666  1.00  0.00    -0.222 A  
HETATM   23  C   UNL     1     -12.253  10.337  71.321  1.00  0.00    -0.496 A  
BRANCH  21  24
HETATM   24  O   UNL     1     -10.653   8.158  68.760  1.00  0.00    -0.200 OA 
HETATM   25  C   UNL     1     -10.322   8.407  67.403  1.00  0.00    -0.285 C  
HETATM   26  F   UNL     1      -9.061   8.901  67.342  1.00  0.00    -0.130 F  
HETATM   27  F   UNL     1     -10.302   7.208  66.767  1.00  0.00    -0.285 F  
ENDBRANCH  21  24
ENDBRANCH  12  14
ENDBRANCH  11  12
ENDBRANCH   6  11
ENDBRANCH   2   3
TORSDOF 6
ENDMDL
MODEL      128
REMARK 921   NORMALIZED FREE ENERGY PREDICTED BY IDOCK:   -4.89 KCAL/MOL
REMARK 922        TOTAL FREE ENERGY PREDICTED BY IDOCK:   -7.35 KCAL/MOL
REMARK 923 INTER-LIGAND FREE ENERGY PREDICTED BY IDOCK:   -6.68 KCAL/MOL
REMARK 924 INTRA-LIGAND FREE ENERGY PREDICTED BY IDOCK:   -0.67 KCAL/MOL
REMARK 927      BINDING AFFINITY PREDICTED BY RF-SCORE:    0.00 PKD
ROOT
HETATM    1  C   UNL     1     -10.062   3.435  72.148  1.00  0.00    -0.129 C  
HETATM    2  O   UNL     1     -10.482   4.797  72.085  1.00  0.00    -0.205 OA 
ENDROOT
BRANCH   2   3
HETATM    3  C   UNL     1     -10.001   5.503  71.010  1.00  0.00    -0.194 A  
HETATM    4  C   UNL     1     -10.744   6.376  70.189  1.00  0.00    -0.271 A  
HETATM    5  C   UNL     1      -8.087   5.946  69.673  1.00  0.00    -0.106 A  
HETATM    6  C   UNL     1     -10.055   7.101  69.210  1.00  0.00    -0.176 A  
HETATM    7  C   UNL     1      -8.662   5.269  70.727  1.00  0.00    -0.140 A  
HETATM    8  N   UNL     1      -8.746   6.853  68.922  1.00  0.00    -0.130 NA 
BRANCH   4   9
HETATM    9  O   UNL     1     -12.081   6.528  70.465  1.00  0.00    -0.367 OA 
HETATM   10  C   UNL     1     -12.398   7.340  71.597  1.00  0.00    -0.352 C  
ENDBRANCH   4   9
BRANCH   6  11
HETATM   11  C   UNL     1     -10.658   8.255  68.450  1.00  0.00    -0.099 C  
BRANCH  11  12
HETATM   12  S   UNL     1     -10.612   9.788  69.421  1.00  0.00    -0.239 S  
HETATM   13  O   UNL     1      -9.317   9.910  70.170  1.00  0.00    -0.234 OA 
BRANCH  12  14
HETATM   14  C   UNL     1     -10.509  10.923  68.118  1.00  0.00    -0.182 A  
HETATM   15  N   UNL     1     -10.544  10.630  66.834  1.00  0.00    -0.257 NA 
HETATM   16  C   UNL     1     -10.564  11.850  66.193  1.00  0.00    -0.258 A  
HETATM   17  H   UNL     1     -10.554   9.704  66.409  1.00  0.00     0.000 HD 
HETATM   18  C   UNL     1     -10.507  12.897  67.106  1.00  0.00    -0.238 A  
HETATM   19  N   UNL     1     -10.452  12.275  68.325  1.00  0.00    -0.220 NA 
HETATM   20  C   UNL     1     -10.527  14.243  66.732  1.00  0.00    -0.273 A  
HETATM   21  C   UNL     1     -10.599  14.529  65.360  1.00  0.00    -0.370 A  
HETATM   22  C   UNL     1     -10.682  13.495  64.421  1.00  0.00    -0.402 A  
HETATM   23  C   UNL     1     -10.655  12.149  64.826  1.00  0.00    -0.335 A  
BRANCH  21  24
HETATM   24  O   UNL     1     -10.608  15.866  65.062  1.00  0.00    -0.497 OA 
HETATM   25  C   UNL     1      -9.958  16.708  66.001  1.00  0.00    -0.324 C  
HETATM   26  F   UNL     1      -8.630  16.727  65.730  1.00  0.00    -0.303 F  
HETATM   27  F   UNL     1     -10.416  17.970  65.794  1.00  0.00    -0.378 F  
ENDBRANCH  21  24
ENDBRANCH  12  14
ENDBRANCH  11  12
ENDBRANCH   6  11
ENDBRANCH   2   3
TORSDOF 6
ENDMDL
MODEL      129
REMARK 921   NORMALIZED FREE ENERGY PREDICTED BY IDOCK:   -4.86 KCAL/MOL
REMARK 922        TOTAL FREE ENERGY PREDICTED BY IDOCK:   -7.32 KCAL/MOL
REMARK 923 INTER-LIGAND FREE ENERGY PREDICTED BY IDOCK:   -6.25 KCAL/MOL
REMARK 924 INTRA-LIGAND FREE ENERGY PREDICTED BY IDOCK:   -1.07 KCAL/MOL
REMARK 927      BINDING AFFINITY PREDICTED BY RF-SCORE:    0.00 PKD
ROOT
HETATM    1  C   UNL     1      -8.022   6.268  66.854  1.00  0.00    -0.109 C  
HETATM    2  O   UNL     1      -7.973   6.887  68.138  1.00  0.00    -0.112 OA 
ENDROOT
BRANCH   2   3
HETATM    3  C   UNL     1      -8.814   6.342  69.077  1.00  0.00    -0.124 A  
HETATM    4  C   UNL     1      -8.425   5.755  70.299  1.00  0.00    -0.128 A  
HETATM    5  C   UNL     1     -11.076   5.848  69.611  1.00  0.00    -0.343 A  
HETATM    6  C   UNL     1      -9.432   5.357  71.185  1.00  0.00    -0.156 A  
HETATM    7  C   UNL     1     -10.156   6.361  68.722  1.00  0.00    -0.182 A  
HETATM    8  N   UNL     1     -10.747   5.359  70.825  1.00  0.00    -0.224 NA 
BRANCH   4   9
HETATM    9  O   UNL     1      -7.082   5.698  70.580  1.00  0.00    -0.062 OA 
HETATM   10  C   UNL     1      -6.405   4.510  70.164  1.00  0.00    -0.027 C  
ENDBRANCH   4   9
BRANCH   6  11
HETATM   11  C   UNL     1      -9.174   4.970  72.620  1.00  0.00    -0.131 C  
BRANCH  11  12
HETATM   12  S   UNL     1      -9.031   6.431  73.687  1.00  0.00    -0.127 S  
HETATM   13  O   UNL     1      -7.696   7.096  73.510  1.00  0.00    -0.091 OA 
BRANCH  12  14
HETATM   14  C   UNL     1     -10.175   7.455  72.888  1.00  0.00    -0.261 A  
HETATM   15  N   UNL     1     -11.477   7.459  73.086  1.00  0.00    -0.604 NA 
HETATM   16  C   UNL     1     -11.945   8.517  72.337  1.00  0.00    -0.364 A  
HETATM   17  H   UNL     1     -12.019   6.820  73.667  1.00  0.00     0.000 HD 
HETATM   18  C   UNL     1     -10.910   9.141  71.649  1.00  0.00    -0.372 A  
HETATM   19  N   UNL     1      -9.795   8.430  72.004  1.00  0.00    -0.254 NA 
HETATM   20  C   UNL     1     -11.099  10.253  70.824  1.00  0.00    -0.303 A  
HETATM   21  C   UNL     1     -12.408  10.741  70.690  1.00  0.00    -0.372 A  
HETATM   22  C   UNL     1     -13.463  10.148  71.390  1.00  0.00    -0.325 A  
HETATM   23  C   UNL     1     -13.246   9.027  72.210  1.00  0.00    -0.519 A  
BRANCH  21  24
HETATM   24  O   UNL     1     -12.523  11.827  69.862  1.00  0.00    -0.148 OA 
HETATM   25  C   UNL     1     -11.571  11.903  68.813  1.00  0.00    -0.309 C  
HETATM   26  F   UNL     1     -12.004  11.149  67.772  1.00  0.00    -0.310 F  
HETATM   27  F   UNL     1     -11.550  13.189  68.381  1.00  0.00    -0.289 F  
ENDBRANCH  21  24
ENDBRANCH  12  14
ENDBRANCH  11  12
ENDBRANCH   6  11
ENDBRANCH   2   3
TORSDOF 6
ENDMDL
MODEL      130
REMARK 921   NORMALIZED FREE ENERGY PREDICTED BY IDOCK:   -4.86 KCAL/MOL
REMARK 922        TOTAL FREE ENERGY PREDICTED BY IDOCK:   -7.32 KCAL/MOL
REMARK 923 INTER-LIGAND FREE ENERGY PREDICTED BY IDOCK:   -6.20 KCAL/MOL
REMARK 924 INTRA-LIGAND FREE ENERGY PREDICTED BY IDOCK:   -1.11 KCAL/MOL
REMARK 927      BINDING AFFINITY PREDICTED BY RF-SCORE:    0.00 PKD
ROOT
HETATM    1  C   UNL     1     -10.443  20.326  68.333  1.00  0.00    -0.088 C  
HETATM    2  O   UNL     1      -9.665  20.175  67.147  1.00  0.00    -0.383 OA 
ENDROOT
BRANCH   2   3
HETATM    3  C   UNL     1      -9.508  18.880  66.716  1.00  0.00    -0.326 A  
HETATM    4  C   UNL     1      -8.392  18.053  66.959  1.00  0.00    -0.236 A  
HETATM    5  C   UNL     1     -10.496  17.110  65.477  1.00  0.00    -0.144 A  
HETATM    6  C   UNL     1      -8.462  16.719  66.540  1.00  0.00    -0.283 A  
HETATM    7  C   UNL     1     -10.558  18.406  65.941  1.00  0.00    -0.313 A  
HETATM    8  N   UNL     1      -9.485  16.263  65.763  1.00  0.00    -0.477 NA 
BRANCH   4   9
HETATM    9  O   UNL     1      -7.348  18.585  67.674  1.00  0.00    -0.214 OA 
HETATM   10  C   UNL     1      -6.307  19.192  66.904  1.00  0.00    -0.186 C  
ENDBRANCH   4   9
BRANCH   6  11
HETATM   11  C   UNL     1      -7.475  15.661  66.963  1.00  0.00    -0.193 C  
BRANCH  11  12
HETATM   12  S   UNL     1      -8.069  14.738  68.409  1.00  0.00    -0.152 S  
HETATM   13  O   UNL     1      -9.303  15.372  68.981  1.00  0.00    -0.201 OA 
BRANCH  12  14
HETATM   14  C   UNL     1      -8.608  13.303  67.602  1.00  0.00    -0.196 A  
HETATM   15  N   UNL     1      -9.183  13.254  66.419  1.00  0.00    -0.440 NA 
HETATM   16  C   UNL     1      -9.309  11.909  66.143  1.00  0.00    -0.219 A  
HETATM   17  H   UNL     1      -9.472  14.038  65.835  1.00  0.00     0.000 HD 
HETATM   18  C   UNL     1      -8.830  11.135  67.194  1.00  0.00    -0.143 A  
HETATM   19  N   UNL     1      -8.408  12.052  68.120  1.00  0.00    -0.159 NA 
HETATM   20  C   UNL     1      -8.823   9.738  67.176  1.00  0.00    -0.141 A  
HETATM   21  C   UNL     1      -9.337   9.106  66.033  1.00  0.00    -0.238 A  
HETATM   22  C   UNL     1      -9.802   9.861  64.951  1.00  0.00    -0.282 A  
HETATM   23  C   UNL     1      -9.802  11.265  64.998  1.00  0.00    -0.307 A  
BRANCH  21  24
HETATM   24  O   UNL     1      -9.306   7.737  66.084  1.00  0.00    -0.169 OA 
HETATM   25  C   UNL     1     -10.110   7.141  67.089  1.00  0.00    -0.225 C  
HETATM   26  F   UNL     1     -11.379   7.026  66.625  1.00  0.00    -0.375 F  
HETATM   27  F   UNL     1      -9.648   5.879  67.278  1.00  0.00    -0.113 F  
ENDBRANCH  21  24
ENDBRANCH  12  14
ENDBRANCH  11  12
ENDBRANCH   6  11
ENDBRANCH   2   3
TORSDOF 6
ENDMDL
MODEL      131
REMARK 921   NORMALIZED FREE ENERGY PREDICTED BY IDOCK:   -4.85 KCAL/MOL
REMARK 922        TOTAL FREE ENERGY PREDICTED BY IDOCK:   -7.30 KCAL/MOL
REMARK 923 INTER-LIGAND FREE ENERGY PREDICTED BY IDOCK:   -6.85 KCAL/MOL
REMARK 924 INTRA-LIGAND FREE ENERGY PREDICTED BY IDOCK:   -0.45 KCAL/MOL
REMARK 927      BINDING AFFINITY PREDICTED BY RF-SCORE:    0.00 PKD
ROOT
HETATM    1  C   UNL     1      -7.956   6.199  63.779  1.00  0.00    -0.101 C  
HETATM    2  O   UNL     1      -7.951   7.167  64.827  1.00  0.00    -0.122 OA 
ENDROOT
BRANCH   2   3
HETATM    3  C   UNL     1      -8.579   8.351  64.526  1.00  0.00     0.012 A  
HETATM    4  C   UNL     1      -9.485   9.046  65.355  1.00  0.00    -0.092 A  
HETATM    5  C   UNL     1      -8.865  10.037  62.876  1.00  0.00    -0.237 A  
HETATM    6  C   UNL     1      -9.935  10.300  64.927  1.00  0.00    -0.323 A  
HETATM    7  C   UNL     1      -8.291   8.844  63.261  1.00  0.00    -0.180 A  
HETATM    8  N   UNL     1      -9.666  10.771  63.677  1.00  0.00    -0.298 NA 
BRANCH   4   9
HETATM    9  O   UNL     1      -9.792   8.488  66.572  1.00  0.00    -0.237 OA 
HETATM   10  C   UNL     1      -9.185   9.099  67.712  1.00  0.00    -0.133 C  
ENDBRANCH   4   9
BRANCH   6  11
HETATM   11  C   UNL     1     -10.679  11.265  65.816  1.00  0.00    -0.223 C  
BRANCH  11  12
HETATM   12  S   UNL     1     -11.502  12.561  64.848  1.00  0.00    -0.339 S  
HETATM   13  O   UNL     1     -12.995  12.440  64.949  1.00  0.00    -0.762 OA 
BRANCH  12  14
HETATM   14  C   UNL     1     -11.076  13.928  65.821  1.00  0.00    -0.294 A  
HETATM   15  N   UNL     1     -11.856  14.522  66.700  1.00  0.00    -0.389 NA 
HETATM   16  C   UNL     1     -11.050  15.459  67.311  1.00  0.00    -0.302 A  
HETATM   17  H   UNL     1     -12.839  14.330  66.888  1.00  0.00     0.000 HD 
HETATM   18  C   UNL     1      -9.771  15.451  66.767  1.00  0.00    -0.240 A  
HETATM   19  N   UNL     1      -9.822  14.478  65.804  1.00  0.00    -0.324 NA 
HETATM   20  C   UNL     1      -8.744  16.290  67.208  1.00  0.00    -0.200 A  
HETATM   21  C   UNL     1      -9.045  17.184  68.248  1.00  0.00    -0.259 A  
HETATM   22  C   UNL     1     -10.317  17.195  68.830  1.00  0.00    -0.348 A  
HETATM   23  C   UNL     1     -11.332  16.343  68.363  1.00  0.00    -0.268 A  
BRANCH  21  24
HETATM   24  O   UNL     1      -7.997  17.981  68.626  1.00  0.00    -0.304 OA 
HETATM   25  C   UNL     1      -8.150  19.366  68.357  1.00  0.00    -0.343 C  
HETATM   26  F   UNL     1      -8.856  19.934  69.365  1.00  0.00    -0.245 F  
HETATM   27  F   UNL     1      -6.911  19.920  68.388  1.00  0.00    -0.295 F  
ENDBRANCH  21  24
ENDBRANCH  12  14
ENDBRANCH  11  12
ENDBRANCH   6  11
ENDBRANCH   2   3
TORSDOF 6
ENDMDL
MODEL      132
REMARK 921   NORMALIZED FREE ENERGY PREDICTED BY IDOCK:   -4.85 KCAL/MOL
REMARK 922        TOTAL FREE ENERGY PREDICTED BY IDOCK:   -7.29 KCAL/MOL
REMARK 923 INTER-LIGAND FREE ENERGY PREDICTED BY IDOCK:   -6.33 KCAL/MOL
REMARK 924 INTRA-LIGAND FREE ENERGY PREDICTED BY IDOCK:   -0.97 KCAL/MOL
REMARK 927      BINDING AFFINITY PREDICTED BY RF-SCORE:    0.00 PKD
ROOT
HETATM    1  C   UNL     1     -10.718   6.676  73.402  1.00  0.00    -0.289 C  
HETATM    2  O   UNL     1      -9.405   7.080  73.018  1.00  0.00    -0.140 OA 
ENDROOT
BRANCH   2   3
HETATM    3  C   UNL     1      -9.127   6.952  71.679  1.00  0.00    -0.139 A  
HETATM    4  C   UNL     1      -9.187   7.981  70.716  1.00  0.00    -0.157 A  
HETATM    5  C   UNL     1      -8.493   5.440  69.959  1.00  0.00    -0.111 A  
HETATM    6  C   UNL     1      -8.754   7.689  69.417  1.00  0.00    -0.136 A  
HETATM    7  C   UNL     1      -8.802   5.662  71.284  1.00  0.00    -0.141 A  
HETATM    8  N   UNL     1      -8.455   6.417  69.029  1.00  0.00    -0.124 NA 
BRANCH   4   9
HETATM    9  O   UNL     1      -9.578   9.228  71.139  1.00  0.00    -0.273 OA 
HETATM   10  C   UNL     1     -10.985   9.478  71.135  1.00  0.00    -0.368 C  
ENDBRANCH   4   9
BRANCH   6  11
HETATM   11  C   UNL     1      -8.507   8.742  68.366  1.00  0.00    -0.130 C  
BRANCH  11  12
HETATM   12  S   UNL     1      -9.765   8.684  67.059  1.00  0.00    -0.224 S  
HETATM   13  O   UNL     1     -10.952   7.872  67.491  1.00  0.00    -0.141 OA 
BRANCH  12  14
HETATM   14  C   UNL     1     -10.282  10.336  67.116  1.00  0.00    -0.225 A  
HETATM   15  N   UNL     1     -10.847  11.001  66.130  1.00  0.00    -0.197 NA 
HETATM   16  C   UNL     1     -11.196  12.216  66.679  1.00  0.00    -0.324 A  
HETATM   17  H   UNL     1     -10.995  10.686  65.172  1.00  0.00     0.000 HD 
HETATM   18  C   UNL     1     -10.804  12.296  68.010  1.00  0.00    -0.220 A  
HETATM   19  N   UNL     1     -10.205  11.089  68.256  1.00  0.00    -0.169 NA 
HETATM   20  C   UNL     1     -11.045  13.413  68.815  1.00  0.00    -0.297 A  
HETATM   21  C   UNL     1     -11.709  14.500  68.226  1.00  0.00    -0.335 A  
HETATM   22  C   UNL     1     -12.136  14.436  66.896  1.00  0.00    -0.386 A  
HETATM   23  C   UNL     1     -11.876  13.302  66.108  1.00  0.00    -0.437 A  
BRANCH  21  24
HETATM   24  O   UNL     1     -11.906  15.563  69.067  1.00  0.00    -0.361 OA 
HETATM   25  C   UNL     1     -10.893  15.775  70.037  1.00  0.00    -0.342 C  
HETATM   26  F   UNL     1      -9.891  16.495  69.475  1.00  0.00    -0.241 F  
HETATM   27  F   UNL     1     -11.428  16.550  71.015  1.00  0.00    -0.422 F  
ENDBRANCH  21  24
ENDBRANCH  12  14
ENDBRANCH  11  12
ENDBRANCH   6  11
ENDBRANCH   2   3
TORSDOF 6
ENDMDL
MODEL      133
REMARK 921   NORMALIZED FREE ENERGY PREDICTED BY IDOCK:   -4.84 KCAL/MOL
REMARK 922        TOTAL FREE ENERGY PREDICTED BY IDOCK:   -7.29 KCAL/MOL
REMARK 923 INTER-LIGAND FREE ENERGY PREDICTED BY IDOCK:   -6.73 KCAL/MOL
REMARK 924 INTRA-LIGAND FREE ENERGY PREDICTED BY IDOCK:   -0.56 KCAL/MOL
REMARK 927      BINDING AFFINITY PREDICTED BY RF-SCORE:    0.00 PKD
ROOT
HETATM    1  C   UNL     1     -10.949   6.175  67.280  1.00  0.00    -0.326 C  
HETATM    2  O   UNL     1     -10.584   7.401  66.648  1.00  0.00    -0.257 OA 
ENDROOT
BRANCH   2   3
HETATM    3  C   UNL     1     -10.302   8.436  67.506  1.00  0.00    -0.265 A  
HETATM    4  C   UNL     1      -9.708   9.667  67.156  1.00  0.00    -0.174 A  
HETATM    5  C   UNL     1     -10.378   9.165  69.766  1.00  0.00    -0.215 A  
HETATM    6  C   UNL     1      -9.606  10.649  68.147  1.00  0.00    -0.157 A  
HETATM    7  C   UNL     1     -10.613   8.177  68.833  1.00  0.00    -0.161 A  
HETATM    8  N   UNL     1      -9.894  10.384  69.453  1.00  0.00    -0.225 NA 
BRANCH   4   9
HETATM    9  O   UNL     1      -9.356   9.854  65.842  1.00  0.00    -0.165 OA 
HETATM   10  C   UNL     1     -10.280  10.599  65.046  1.00  0.00    -0.310 C  
ENDBRANCH   4   9
BRANCH   6  11
HETATM   11  C   UNL     1      -9.249  12.086  67.861  1.00  0.00    -0.190 C  
BRANCH  11  12
HETATM   12  S   UNL     1      -7.468  12.379  68.048  1.00  0.00    -0.128 S  
HETATM   13  O   UNL     1      -6.694  11.700  66.955  1.00  0.00    -0.127 OA 
BRANCH  12  14
HETATM   14  C   UNL     1      -7.436  14.068  67.666  1.00  0.00    -0.174 A  
HETATM   15  N   UNL     1      -6.356  14.811  67.546  1.00  0.00    -0.320 NA 
HETATM   16  C   UNL     1      -6.816  16.035  67.110  1.00  0.00    -0.188 A  
HETATM   17  H   UNL     1      -5.391  14.540  67.733  1.00  0.00     0.000 HD 
HETATM   18  C   UNL     1      -8.202  16.038  66.998  1.00  0.00    -0.220 A  
HETATM   19  N   UNL     1      -8.572  14.776  67.378  1.00  0.00    -0.183 NA 
HETATM   20  C   UNL     1      -8.933  17.147  66.562  1.00  0.00    -0.300 A  
HETATM   21  C   UNL     1      -8.212  18.306  66.236  1.00  0.00    -0.212 A  
HETATM   22  C   UNL     1      -6.816  18.322  66.316  1.00  0.00    -0.275 A  
HETATM   23  C   UNL     1      -6.106  17.194  66.762  1.00  0.00    -0.243 A  
BRANCH  21  24
HETATM   24  O   UNL     1      -8.990  19.356  65.824  1.00  0.00    -0.385 OA 
HETATM   25  C   UNL     1     -10.386  19.202  66.025  1.00  0.00    -0.463 C  
HETATM   26  F   UNL     1     -10.690  19.566  67.296  1.00  0.00    -0.498 F  
HETATM   27  F   UNL     1     -11.011  20.087  65.207  1.00  0.00    -0.567 F  
ENDBRANCH  21  24
ENDBRANCH  12  14
ENDBRANCH  11  12
ENDBRANCH   6  11
ENDBRANCH   2   3
TORSDOF 6
ENDMDL
MODEL      134
REMARK 921   NORMALIZED FREE ENERGY PREDICTED BY IDOCK:   -4.83 KCAL/MOL
REMARK 922        TOTAL FREE ENERGY PREDICTED BY IDOCK:   -7.27 KCAL/MOL
REMARK 923 INTER-LIGAND FREE ENERGY PREDICTED BY IDOCK:   -6.45 KCAL/MOL
REMARK 924 INTRA-LIGAND FREE ENERGY PREDICTED BY IDOCK:   -0.82 KCAL/MOL
REMARK 927      BINDING AFFINITY PREDICTED BY RF-SCORE:    0.00 PKD
ROOT
HETATM    1  C   UNL     1     -11.394  15.871  64.362  1.00  0.00    -0.267 C  
HETATM    2  O   UNL     1     -12.092  14.779  64.961  1.00  0.00    -0.359 OA 
ENDROOT
BRANCH   2   3
HETATM    3  C   UNL     1     -11.298  13.729  65.352  1.00  0.00    -0.308 A  
HETATM    4  C   UNL     1     -10.770  13.522  66.643  1.00  0.00    -0.282 A  
HETATM    5  C   UNL     1     -10.206  11.743  64.636  1.00  0.00    -0.284 A  
HETATM    6  C   UNL     1     -10.078  12.329  66.885  1.00  0.00    -0.211 A  
HETATM    7  C   UNL     1     -10.987  12.839  64.333  1.00  0.00    -0.393 A  
HETATM    8  N   UNL     1      -9.757  11.469  65.878  1.00  0.00    -0.225 NA 
BRANCH   4   9
HETATM    9  O   UNL     1     -11.049  14.462  67.604  1.00  0.00    -0.282 OA 
HETATM   10  C   UNL     1     -10.044  15.455  67.821  1.00  0.00    -0.227 C  
ENDBRANCH   4   9
BRANCH   6  11
HETATM   11  C   UNL     1      -9.698  11.853  68.264  1.00  0.00    -0.200 C  
BRANCH  11  12
HETATM   12  S   UNL     1     -11.140  11.234  69.175  1.00  0.00    -0.271 S  
HETATM   13  O   UNL     1     -12.371  11.260  68.315  1.00  0.00    -0.542 OA 
BRANCH  12  14
HETATM   14  C   UNL     1     -10.685   9.568  69.291  1.00  0.00    -0.222 A  
HETATM   15  N   UNL     1     -11.316   8.642  69.983  1.00  0.00    -0.448 NA 
HETATM   16  C   UNL     1     -10.671   7.465  69.668  1.00  0.00    -0.235 A  
HETATM   17  H   UNL     1     -12.108   8.768  70.612  1.00  0.00     0.000 HD 
HETATM   18  C   UNL     1      -9.613   7.691  68.796  1.00  0.00    -0.153 A  
HETATM   19  N   UNL     1      -9.632   9.044  68.589  1.00  0.00    -0.151 NA 
HETATM   20  C   UNL     1      -8.795   6.671  68.301  1.00  0.00    -0.124 A  
HETATM   21  C   UNL     1      -9.071   5.362  68.725  1.00  0.00    -0.118 A  
HETATM   22  C   UNL     1     -10.146   5.103  69.582  1.00  0.00    -0.332 A  
HETATM   23  C   UNL     1     -10.948   6.149  70.069  1.00  0.00    -0.441 A  
BRANCH  21  24
HETATM   24  O   UNL     1      -8.229   4.413  68.208  1.00  0.00    -0.088 OA 
HETATM   25  C   UNL     1      -8.651   3.813  66.994  1.00  0.00    -0.108 C  
HETATM   26  F   UNL     1      -8.280   4.607  65.959  1.00  0.00    -0.107 F  
HETATM   27  F   UNL     1      -7.963   2.650  66.859  1.00  0.00    -0.072 F  
ENDBRANCH  21  24
ENDBRANCH  12  14
ENDBRANCH  11  12
ENDBRANCH   6  11
ENDBRANCH   2   3
TORSDOF 6
ENDMDL
MODEL      135
REMARK 921   NORMALIZED FREE ENERGY PREDICTED BY IDOCK:   -4.82 KCAL/MOL
REMARK 922        TOTAL FREE ENERGY PREDICTED BY IDOCK:   -7.27 KCAL/MOL
REMARK 923 INTER-LIGAND FREE ENERGY PREDICTED BY IDOCK:   -6.66 KCAL/MOL
REMARK 924 INTRA-LIGAND FREE ENERGY PREDICTED BY IDOCK:   -0.60 KCAL/MOL
REMARK 927      BINDING AFFINITY PREDICTED BY RF-SCORE:    0.00 PKD
ROOT
HETATM    1  C   UNL     1      -6.938  18.222  69.321  1.00  0.00    -0.160 C  
HETATM    2  O   UNL     1      -7.332  16.868  69.103  1.00  0.00    -0.239 OA 
ENDROOT
BRANCH   2   3
HETATM    3  C   UNL     1      -8.555  16.710  68.498  1.00  0.00    -0.234 A  
HETATM    4  C   UNL     1      -8.782  16.542  67.116  1.00  0.00    -0.195 A  
HETATM    5  C   UNL     1     -10.902  16.605  68.851  1.00  0.00    -0.321 A  
HETATM    6  C   UNL     1     -10.090  16.277  66.694  1.00  0.00    -0.276 A  
HETATM    7  C   UNL     1      -9.635  16.769  69.368  1.00  0.00    -0.010 A  
HETATM    8  N   UNL     1     -11.149  16.355  67.549  1.00  0.00    -0.183 NA 
BRANCH   4   9
HETATM    9  O   UNL     1      -7.690  16.557  66.284  1.00  0.00    -0.291 OA 
HETATM   10  C   UNL     1      -7.117  17.840  66.024  1.00  0.00    -0.300 C  
ENDBRANCH   4   9
BRANCH   6  11
HETATM   11  C   UNL     1     -10.438  15.813  65.302  1.00  0.00    -0.401 C  
BRANCH  11  12
HETATM   12  S   UNL     1     -11.960  14.826  65.292  1.00  0.00    -0.181 S  
HETATM   13  O   UNL     1     -12.412  14.550  63.887  1.00  0.00    -0.814 OA 
BRANCH  12  14
HETATM   14  C   UNL     1     -11.310  13.331  65.878  1.00  0.00    -0.311 A  
HETATM   15  N   UNL     1     -10.705  12.416  65.150  1.00  0.00    -0.283 NA 
HETATM   16  C   UNL     1     -10.251  11.485  66.059  1.00  0.00    -0.242 A  
HETATM   17  H   UNL     1     -10.596  12.400  64.136  1.00  0.00     0.000 HD 
HETATM   18  C   UNL     1     -10.618  11.830  67.355  1.00  0.00    -0.224 A  
HETATM   19  N   UNL     1     -11.310  13.002  67.206  1.00  0.00    -0.290 NA 
HETATM   20  C   UNL     1     -10.277  11.070  68.478  1.00  0.00    -0.203 A  
HETATM   21  C   UNL     1      -9.533   9.899  68.260  1.00  0.00    -0.139 A  
HETATM   22  C   UNL     1      -9.130   9.542  66.970  1.00  0.00    -0.154 A  
HETATM   23  C   UNL     1      -9.492  10.323  65.859  1.00  0.00    -0.241 A  
BRANCH  21  24
HETATM   24  O   UNL     1      -9.239   9.199  69.401  1.00  0.00    -0.148 OA 
HETATM   25  C   UNL     1      -9.958   9.585  70.561  1.00  0.00    -0.273 C  
HETATM   26  F   UNL     1     -11.158   8.954  70.565  1.00  0.00    -0.240 F  
HETATM   27  F   UNL     1      -9.269   9.120  71.635  1.00  0.00    -0.310 F  
ENDBRANCH  21  24
ENDBRANCH  12  14
ENDBRANCH  11  12
ENDBRANCH   6  11
ENDBRANCH   2   3
TORSDOF 6
ENDMDL
MODEL      136
REMARK 921   NORMALIZED FREE ENERGY PREDICTED BY IDOCK:   -4.81 KCAL/MOL
REMARK 922        TOTAL FREE ENERGY PREDICTED BY IDOCK:   -7.25 KCAL/MOL
REMARK 923 INTER-LIGAND FREE ENERGY PREDICTED BY IDOCK:   -6.55 KCAL/MOL
REMARK 924 INTRA-LIGAND FREE ENERGY PREDICTED BY IDOCK:   -0.70 KCAL/MOL
REMARK 927      BINDING AFFINITY PREDICTED BY RF-SCORE:    0.00 PKD
ROOT
HETATM    1  C   UNL     1      -7.662   6.724  64.869  1.00  0.00    -0.110 C  
HETATM    2  O   UNL     1      -7.546   5.997  66.090  1.00  0.00    -0.084 OA 
ENDROOT
BRANCH   2   3
HETATM    3  C   UNL     1      -8.518   6.268  67.022  1.00  0.00    -0.108 A  
HETATM    4  C   UNL     1      -8.374   7.094  68.157  1.00  0.00    -0.124 A  
HETATM    5  C   UNL     1     -10.761   5.837  67.676  1.00  0.00    -0.229 A  
HETATM    6  C   UNL     1      -9.512   7.348  68.931  1.00  0.00    -0.144 A  
HETATM    7  C   UNL     1      -9.721   5.613  66.800  1.00  0.00    -0.169 A  
HETATM    8  N   UNL     1     -10.685   6.687  68.721  1.00  0.00    -0.237 NA 
BRANCH   4   9
HETATM    9  O   UNL     1      -7.146   7.670  68.374  1.00  0.00    -0.076 OA 
HETATM   10  C   UNL     1      -6.283   6.982  69.282  1.00  0.00    -0.034 C  
ENDBRANCH   4   9
BRANCH   6  11
HETATM   11  C   UNL     1      -9.571   8.411  69.999  1.00  0.00    -0.168 C  
BRANCH  11  12
HETATM   12  S   UNL     1     -11.259   8.624  70.631  1.00  0.00    -0.238 S  
HETATM   13  O   UNL     1     -11.258   8.772  72.125  1.00  0.00    -0.353 OA 
BRANCH  12  14
HETATM   14  C   UNL     1     -11.578  10.206  70.004  1.00  0.00    -0.253 A  
HETATM   15  N   UNL     1     -11.766  11.296  70.719  1.00  0.00    -0.393 NA 
HETATM   16  C   UNL     1     -11.850  12.315  69.795  1.00  0.00    -0.318 A  
HETATM   17  H   UNL     1     -11.834  11.370  71.733  1.00  0.00     0.000 HD 
HETATM   18  C   UNL     1     -11.743  11.825  68.498  1.00  0.00    -0.330 A  
HETATM   19  N   UNL     1     -11.591  10.474  68.661  1.00  0.00    -0.267 NA 
HETATM   20  C   UNL     1     -11.780  12.642  67.364  1.00  0.00    -0.432 A  
HETATM   21  C   UNL     1     -11.943  14.021  67.569  1.00  0.00    -0.395 A  
HETATM   22  C   UNL     1     -12.028  14.543  68.864  1.00  0.00    -0.326 A  
HETATM   23  C   UNL     1     -11.993  13.698  69.986  1.00  0.00    -0.413 A  
BRANCH  21  24
HETATM   24  O   UNL     1     -11.978  14.761  66.417  1.00  0.00    -0.299 OA 
HETATM   25  C   UNL     1     -11.720  14.046  65.219  1.00  0.00    -0.346 C  
HETATM   26  F   UNL     1     -12.869  13.464  64.798  1.00  0.00    -0.394 F  
HETATM   27  F   UNL     1     -11.375  14.957  64.273  1.00  0.00    -0.312 F  
ENDBRANCH  21  24
ENDBRANCH  12  14
ENDBRANCH  11  12
ENDBRANCH   6  11
ENDBRANCH   2   3
TORSDOF 6
ENDMDL
MODEL      137
REMARK 921   NORMALIZED FREE ENERGY PREDICTED BY IDOCK:   -4.79 KCAL/MOL
REMARK 922        TOTAL FREE ENERGY PREDICTED BY IDOCK:   -7.22 KCAL/MOL
REMARK 923 INTER-LIGAND FREE ENERGY PREDICTED BY IDOCK:   -6.29 KCAL/MOL
REMARK 924 INTRA-LIGAND FREE ENERGY PREDICTED BY IDOCK:   -0.94 KCAL/MOL
REMARK 927      BINDING AFFINITY PREDICTED BY RF-SCORE:    0.00 PKD
ROOT
HETATM    1  C   UNL     1      -7.270   4.105  65.813  1.00  0.00    -0.072 C  
HETATM    2  O   UNL     1      -8.640   4.442  66.026  1.00  0.00    -0.113 OA 
ENDROOT
BRANCH   2   3
HETATM    3  C   UNL     1      -8.930   4.925  67.279  1.00  0.00    -0.111 A  
HETATM    4  C   UNL     1      -9.620   6.120  67.570  1.00  0.00    -0.112 A  
HETATM    5  C   UNL     1      -8.698   4.543  69.613  1.00  0.00    -0.081 A  
HETATM    6  C   UNL     1      -9.928   6.391  68.908  1.00  0.00    -0.147 A  
HETATM    7  C   UNL     1      -8.442   4.145  68.318  1.00  0.00    -0.104 A  
HETATM    8  N   UNL     1      -9.429   5.634  69.926  1.00  0.00    -0.152 NA 
BRANCH   4   9
HETATM    9  O   UNL     1     -10.028   6.895  66.511  1.00  0.00    -0.162 OA 
HETATM   10  C   UNL     1      -9.118   7.916  66.096  1.00  0.00    -0.163 C  
ENDBRANCH   4   9
BRANCH   6  11
HETATM   11  C   UNL     1     -10.882   7.475  69.340  1.00  0.00    -0.150 C  
BRANCH  11  12
HETATM   12  S   UNL     1     -10.026   8.789  70.254  1.00  0.00    -0.195 S  
HETATM   13  O   UNL     1      -8.565   8.818  69.909  1.00  0.00    -0.124 OA 
BRANCH  12  14
HETATM   14  C   UNL     1     -10.723  10.161  69.459  1.00  0.00    -0.249 A  
HETATM   15  N   UNL     1     -11.038  11.305  70.030  1.00  0.00    -0.477 NA 
HETATM   16  C   UNL     1     -11.429  12.122  68.991  1.00  0.00    -0.297 A  
HETATM   17  H   UNL     1     -11.001  11.535  71.022  1.00  0.00     0.000 HD 
HETATM   18  C   UNL     1     -11.379  11.447  67.776  1.00  0.00    -0.287 A  
HETATM   19  N   UNL     1     -10.944  10.192  68.108  1.00  0.00    -0.266 NA 
HETATM   20  C   UNL     1     -11.709  12.041  66.555  1.00  0.00    -0.330 A  
HETATM   21  C   UNL     1     -12.117  13.384  66.581  1.00  0.00    -0.373 A  
HETATM   22  C   UNL     1     -12.152  14.093  67.786  1.00  0.00    -0.321 A  
HETATM   23  C   UNL     1     -11.820  13.469  69.000  1.00  0.00    -0.385 A  
BRANCH  21  24
HETATM   24  O   UNL     1     -12.432  13.901  65.352  1.00  0.00    -0.447 OA 
HETATM   25  C   UNL     1     -11.628  14.986  64.918  1.00  0.00    -0.374 C  
HETATM   26  F   UNL     1     -10.500  14.497  64.347  1.00  0.00    -0.383 F  
HETATM   27  F   UNL     1     -12.315  15.628  63.938  1.00  0.00    -0.411 F  
ENDBRANCH  21  24
ENDBRANCH  12  14
ENDBRANCH  11  12
ENDBRANCH   6  11
ENDBRANCH   2   3
TORSDOF 6
ENDMDL
MODEL      138
REMARK 921   NORMALIZED FREE ENERGY PREDICTED BY IDOCK:   -4.79 KCAL/MOL
REMARK 922        TOTAL FREE ENERGY PREDICTED BY IDOCK:   -7.22 KCAL/MOL
REMARK 923 INTER-LIGAND FREE ENERGY PREDICTED BY IDOCK:   -6.96 KCAL/MOL
REMARK 924 INTRA-LIGAND FREE ENERGY PREDICTED BY IDOCK:   -0.26 KCAL/MOL
REMARK 927      BINDING AFFINITY PREDICTED BY RF-SCORE:    0.00 PKD
ROOT
HETATM    1  C   UNL     1     -13.560  13.412  72.356  1.00  0.00    -0.606 C  
HETATM    2  O   UNL     1     -12.574  14.048  71.544  1.00  0.00    -0.336 OA 
ENDROOT
BRANCH   2   3
HETATM    3  C   UNL     1     -12.293  13.407  70.362  1.00  0.00    -0.312 A  
HETATM    4  C   UNL     1     -12.065  14.026  69.115  1.00  0.00    -0.337 A  
HETATM    5  C   UNL     1     -11.997  11.293  69.319  1.00  0.00    -0.342 A  
HETATM    6  C   UNL     1     -11.676  13.214  68.043  1.00  0.00    -0.355 A  
HETATM    7  C   UNL     1     -12.285  12.022  70.453  1.00  0.00    -0.379 A  
HETATM    8  N   UNL     1     -11.688  11.854  68.131  1.00  0.00    -0.425 NA 
BRANCH   4   9
HETATM    9  O   UNL     1     -12.149  15.395  69.058  1.00  0.00    -0.312 OA 
HETATM   10  C   UNL     1     -10.980  16.112  69.459  1.00  0.00    -0.341 C  
ENDBRANCH   4   9
BRANCH   6  11
HETATM   11  C   UNL     1     -11.143  13.756  66.741  1.00  0.00    -0.308 C  
BRANCH  11  12
HETATM   12  S   UNL     1     -11.693  12.756  65.330  1.00  0.00    -0.391 S  
HETATM   13  O   UNL     1     -11.478  13.487  64.037  1.00  0.00    -0.379 OA 
BRANCH  12  14
HETATM   14  C   UNL     1     -10.473  11.528  65.384  1.00  0.00    -0.281 A  
HETATM   15  N   UNL     1      -9.180  11.720  65.231  1.00  0.00    -0.419 NA 
HETATM   16  C   UNL     1      -8.608  10.491  65.484  1.00  0.00    -0.180 A  
HETATM   17  H   UNL     1      -8.705  12.586  64.981  1.00  0.00     0.000 HD 
HETATM   18  C   UNL     1      -9.579   9.535  65.763  1.00  0.00    -0.270 A  
HETATM   19  N   UNL     1     -10.760  10.221  65.672  1.00  0.00     0.031 NA 
HETATM   20  C   UNL     1      -9.279   8.205  66.070  1.00  0.00    -0.207 A  
HETATM   21  C   UNL     1      -7.925   7.836  66.084  1.00  0.00    -0.105 A  
HETATM   22  C   UNL     1      -6.927   8.784  65.832  1.00  0.00    -0.076 A  
HETATM   23  C   UNL     1      -7.257  10.114  65.521  1.00  0.00    -0.142 A  
BRANCH  21  24
HETATM   24  O   UNL     1      -7.702   6.519  66.385  1.00  0.00    -0.095 OA 
HETATM   25  C   UNL     1      -8.790   5.641  66.143  1.00  0.00    -0.142 C  
HETATM   26  F   UNL     1      -8.776   5.274  64.837  1.00  0.00    -0.142 F  
HETATM   27  F   UNL     1      -8.568   4.515  66.867  1.00  0.00    -0.106 F  
ENDBRANCH  21  24
ENDBRANCH  12  14
ENDBRANCH  11  12
ENDBRANCH   6  11
ENDBRANCH   2   3
TORSDOF 6
ENDMDL
MODEL      139
REMARK 921   NORMALIZED FREE ENERGY PREDICTED BY IDOCK:   -4.77 KCAL/MOL
REMARK 922        TOTAL FREE ENERGY PREDICTED BY IDOCK:   -7.19 KCAL/MOL
REMARK 923 INTER-LIGAND FREE ENERGY PREDICTED BY IDOCK:   -6.59 KCAL/MOL
REMARK 924 INTRA-LIGAND FREE ENERGY PREDICTED BY IDOCK:   -0.60 KCAL/MOL
REMARK 927      BINDING AFFINITY PREDICTED BY RF-SCORE:    0.00 PKD
ROOT
HETATM    1  C   UNL     1     -10.184  19.510  66.634  1.00  0.00    -0.449 C  
HETATM    2  O   UNL     1     -10.769  18.209  66.615  1.00  0.00    -0.307 OA 
ENDROOT
BRANCH   2   3
HETATM    3  C   UNL     1      -9.902  17.178  66.884  1.00  0.00    -0.285 A  
HETATM    4  C   UNL     1     -10.208  15.999  67.595  1.00  0.00    -0.262 A  
HETATM    5  C   UNL     1      -7.671  16.399  66.637  1.00  0.00    -0.275 A  
HETATM    6  C   UNL     1      -9.225  15.005  67.669  1.00  0.00    -0.182 A  
HETATM    7  C   UNL     1      -8.608  17.387  66.426  1.00  0.00    -0.282 A  
HETATM    8  N   UNL     1      -7.951  15.222  67.235  1.00  0.00    -0.186 NA 
BRANCH   4   9
HETATM    9  O   UNL     1     -11.483  15.864  68.087  1.00  0.00    -0.350 OA 
HETATM   10  C   UNL     1     -11.607  15.867  69.511  1.00  0.00    -0.335 C  
ENDBRANCH   4   9
BRANCH   6  11
HETATM   11  C   UNL     1      -9.495  13.603  68.153  1.00  0.00    -0.217 C  
BRANCH  11  12
HETATM   12  S   UNL     1     -10.481  12.664  66.954  1.00  0.00    -0.234 S  
HETATM   13  O   UNL     1      -9.663  12.310  65.746  1.00  0.00    -0.247 OA 
BRANCH  12  14
HETATM   14  C   UNL     1     -10.656  11.192  67.850  1.00  0.00    -0.198 A  
HETATM   15  N   UNL     1     -10.559   9.974  67.359  1.00  0.00    -0.261 NA 
HETATM   16  C   UNL     1     -10.637   9.144  68.456  1.00  0.00    -0.169 A  
HETATM   17  H   UNL     1     -10.451   9.705  66.381  1.00  0.00     0.000 HD 
HETATM   18  C   UNL     1     -10.816   9.874  69.625  1.00  0.00    -0.253 A  
HETATM   19  N   UNL     1     -10.844  11.177  69.206  1.00  0.00    -0.233 NA 
HETATM   20  C   UNL     1     -10.912   9.286  70.890  1.00  0.00    -0.368 A  
HETATM   21  C   UNL     1     -10.831   7.886  70.957  1.00  0.00    -0.235 A  
HETATM   22  C   UNL     1     -10.626   7.129  69.799  1.00  0.00    -0.250 A  
HETATM   23  C   UNL     1     -10.537   7.747  68.539  1.00  0.00    -0.153 A  
BRANCH  21  24
HETATM   24  O   UNL     1     -10.940   7.376  72.223  1.00  0.00    -0.230 OA 
HETATM   25  C   UNL     1     -10.493   6.039  72.388  1.00  0.00    -0.201 C  
HETATM   26  F   UNL     1      -9.150   6.046  72.580  1.00  0.00    -0.137 F  
HETATM   27  F   UNL     1     -11.048   5.567  73.533  1.00  0.00    -0.291 F  
ENDBRANCH  21  24
ENDBRANCH  12  14
ENDBRANCH  11  12
ENDBRANCH   6  11
ENDBRANCH   2   3
TORSDOF 6
ENDMDL
MODEL      140
REMARK 921   NORMALIZED FREE ENERGY PREDICTED BY IDOCK:   -4.76 KCAL/MOL
REMARK 922        TOTAL FREE ENERGY PREDICTED BY IDOCK:   -7.18 KCAL/MOL
REMARK 923 INTER-LIGAND FREE ENERGY PREDICTED BY IDOCK:   -6.50 KCAL/MOL
REMARK 924 INTRA-LIGAND FREE ENERGY PREDICTED BY IDOCK:   -0.68 KCAL/MOL
REMARK 927      BINDING AFFINITY PREDICTED BY RF-SCORE:    0.00 PKD
ROOT
HETATM    1  C   UNL     1     -13.682  13.353  72.371  1.00  0.00    -0.597 C  
HETATM    2  O   UNL     1     -12.398  13.634  71.815  1.00  0.00    -0.184 OA 
ENDROOT
BRANCH   2   3
HETATM    3  C   UNL     1     -12.247  13.280  70.496  1.00  0.00    -0.340 A  
HETATM    4  C   UNL     1     -12.189  14.164  69.399  1.00  0.00    -0.287 A  
HETATM    5  C   UNL     1     -12.024  11.460  68.985  1.00  0.00    -0.320 A  
HETATM    6  C   UNL     1     -11.912  13.626  68.137  1.00  0.00    -0.355 A  
HETATM    7  C   UNL     1     -12.191  11.910  70.277  1.00  0.00    -0.353 A  
HETATM    8  N   UNL     1     -11.878  12.280  67.923  1.00  0.00    -0.457 NA 
BRANCH   4   9
HETATM    9  O   UNL     1     -12.315  15.507  69.656  1.00  0.00    -0.313 OA 
HETATM   10  C   UNL     1     -11.231  16.114  70.363  1.00  0.00    -0.381 C  
ENDBRANCH   4   9
BRANCH   6  11
HETATM   11  C   UNL     1     -11.556  14.463  66.935  1.00  0.00    -0.388 C  
BRANCH  11  12
HETATM   12  S   UNL     1      -9.758  14.581  66.716  1.00  0.00    -0.270 S  
HETATM   13  O   UNL     1      -9.064  14.727  68.040  1.00  0.00    -0.172 OA 
BRANCH  12  14
HETATM   14  C   UNL     1      -9.447  12.957  66.202  1.00  0.00    -0.154 A  
HETATM   15  N   UNL     1      -9.876  12.406  65.085  1.00  0.00    -0.431 NA 
HETATM   16  C   UNL     1      -9.275  11.167  65.049  1.00  0.00    -0.170 A  
HETATM   17  H   UNL     1     -10.513  12.809  64.398  1.00  0.00     0.000 HD 
HETATM   18  C   UNL     1      -8.496  10.954  66.180  1.00  0.00    -0.171 A  
HETATM   19  N   UNL     1      -8.640  12.105  66.907  1.00  0.00    -0.196 NA 
HETATM   20  C   UNL     1      -7.761   9.785  66.397  1.00  0.00    -0.102 A  
HETATM   21  C   UNL     1      -7.836   8.786  65.414  1.00  0.00    -0.100 A  
HETATM   22  C   UNL     1      -8.593   8.984  64.254  1.00  0.00    -0.171 A  
HETATM   23  C   UNL     1      -9.326  10.167  64.065  1.00  0.00    -0.339 A  
BRANCH  21  24
HETATM   24  O   UNL     1      -7.098   7.666  65.692  1.00  0.00    -0.059 OA 
HETATM   25  C   UNL     1      -6.863   7.410  67.068  1.00  0.00    -0.074 C  
HETATM   26  F   UNL     1      -7.931   6.751  67.581  1.00  0.00    -0.105 F  
HETATM   27  F   UNL     1      -5.807   6.562  67.145  1.00  0.00    -0.014 F  
ENDBRANCH  21  24
ENDBRANCH  12  14
ENDBRANCH  11  12
ENDBRANCH   6  11
ENDBRANCH   2   3
TORSDOF 6
ENDMDL
MODEL      141
REMARK 921   NORMALIZED FREE ENERGY PREDICTED BY IDOCK:   -4.75 KCAL/MOL
REMARK 922        TOTAL FREE ENERGY PREDICTED BY IDOCK:   -7.17 KCAL/MOL
REMARK 923 INTER-LIGAND FREE ENERGY PREDICTED BY IDOCK:   -6.41 KCAL/MOL
REMARK 924 INTRA-LIGAND FREE ENERGY PREDICTED BY IDOCK:   -0.76 KCAL/MOL
REMARK 927      BINDING AFFINITY PREDICTED BY RF-SCORE:    0.00 PKD
ROOT
HETATM    1  C   UNL     1      -7.424  19.559  65.858  1.00  0.00    -0.300 C  
HETATM    2  O   UNL     1      -7.287  19.257  67.245  1.00  0.00    -0.222 OA 
ENDROOT
BRANCH   2   3
HETATM    3  C   UNL     1      -7.863  18.074  67.641  1.00  0.00    -0.220 A  
HETATM    4  C   UNL     1      -9.244  17.833  67.795  1.00  0.00    -0.256 A  
HETATM    5  C   UNL     1      -7.441  15.841  68.334  1.00  0.00    -0.121 A  
HETATM    6  C   UNL     1      -9.652  16.528  68.093  1.00  0.00    -0.226 A  
HETATM    7  C   UNL     1      -6.953  17.069  67.942  1.00  0.00    -0.169 A  
HETATM    8  N   UNL     1      -8.756  15.550  68.408  1.00  0.00    -0.169 NA 
BRANCH   4   9
HETATM    9  O   UNL     1     -10.104  18.875  67.550  1.00  0.00    -0.328 OA 
HETATM   10  C   UNL     1     -10.398  19.720  68.664  1.00  0.00    -0.308 C  
ENDBRANCH   4   9
BRANCH   6  11
HETATM   11  C   UNL     1     -11.086  16.067  68.021  1.00  0.00    -0.334 C  
BRANCH  11  12
HETATM   12  S   UNL     1     -11.430  15.208  66.459  1.00  0.00    -0.088 S  
HETATM   13  O   UNL     1     -10.396  15.542  65.423  1.00  0.00    -0.350 OA 
BRANCH  12  14
HETATM   14  C   UNL     1     -11.081  13.589  66.965  1.00  0.00    -0.296 A  
HETATM   15  N   UNL     1     -11.433  13.047  68.113  1.00  0.00    -0.297 NA 
HETATM   16  C   UNL     1     -11.057  11.725  68.009  1.00  0.00    -0.242 A  
HETATM   17  H   UNL     1     -11.885  13.505  68.904  1.00  0.00     0.000 HD 
HETATM   18  C   UNL     1     -10.438  11.475  66.789  1.00  0.00    -0.239 A  
HETATM   19  N   UNL     1     -10.450  12.687  66.152  1.00  0.00    -0.253 NA 
HETATM   20  C   UNL     1      -9.968  10.213  66.412  1.00  0.00    -0.295 A  
HETATM   21  C   UNL     1     -10.133   9.164  67.330  1.00  0.00    -0.230 A  
HETATM   22  C   UNL     1     -10.774   9.384  68.554  1.00  0.00    -0.203 A  
HETATM   23  C   UNL     1     -11.232  10.664  68.909  1.00  0.00    -0.333 A  
BRANCH  21  24
HETATM   24  O   UNL     1      -9.645   7.958  66.901  1.00  0.00    -0.174 OA 
HETATM   25  C   UNL     1     -10.209   6.812  67.518  1.00  0.00    -0.190 C  
HETATM   26  F   UNL     1     -11.363   6.494  66.883  1.00  0.00    -0.456 F  
HETATM   27  F   UNL     1      -9.351   5.780  67.310  1.00  0.00    -0.115 F  
ENDBRANCH  21  24
ENDBRANCH  12  14
ENDBRANCH  11  12
ENDBRANCH   6  11
ENDBRANCH   2   3
TORSDOF 6
ENDMDL
MODEL      142
REMARK 921   NORMALIZED FREE ENERGY PREDICTED BY IDOCK:   -4.75 KCAL/MOL
REMARK 922        TOTAL FREE ENERGY PREDICTED BY IDOCK:   -7.17 KCAL/MOL
REMARK 923 INTER-LIGAND FREE ENERGY PREDICTED BY IDOCK:   -6.57 KCAL/MOL
REMARK 924 INTRA-LIGAND FREE ENERGY PREDICTED BY IDOCK:   -0.59 KCAL/MOL
REMARK 927      BINDING AFFINITY PREDICTED BY RF-SCORE:    0.00 PKD
ROOT
HETATM    1  C   UNL     1      -6.898  17.654  69.241  1.00  0.00    -0.194 C  
HETATM    2  O   UNL     1      -7.416  16.330  69.359  1.00  0.00    -0.233 OA 
ENDROOT
BRANCH   2   3
HETATM    3  C   UNL     1      -8.685  16.157  68.862  1.00  0.00    -0.248 A  
HETATM    4  C   UNL     1      -9.029  15.976  67.506  1.00  0.00    -0.194 A  
HETATM    5  C   UNL     1     -10.992  16.037  69.417  1.00  0.00    -0.321 A  
HETATM    6  C   UNL     1     -10.366  15.698  67.201  1.00  0.00    -0.285 A  
HETATM    7  C   UNL     1      -9.686  16.215  69.822  1.00  0.00     0.012 A  
HETATM    8  N   UNL     1     -11.348  15.775  68.143  1.00  0.00    -0.353 NA 
BRANCH   4   9
HETATM    9  O   UNL     1      -8.012  15.992  66.583  1.00  0.00    -0.243 OA 
HETATM   10  C   UNL     1      -7.636  17.278  66.087  1.00  0.00    -0.282 C  
ENDBRANCH   4   9
BRANCH   6  11
HETATM   11  C   UNL     1     -10.829  15.219  65.848  1.00  0.00    -0.342 C  
BRANCH  11  12
HETATM   12  S   UNL     1     -12.149  13.983  65.995  1.00  0.00    -0.456 S  
HETATM   13  O   UNL     1     -12.915  13.859  64.710  1.00  0.00    -0.686 OA 
BRANCH  12  14
HETATM   14  C   UNL     1     -11.168  12.559  66.095  1.00  0.00    -0.321 A  
HETATM   15  N   UNL     1     -11.378  11.532  66.892  1.00  0.00    -0.420 NA 
HETATM   16  C   UNL     1     -10.430  10.601  66.526  1.00  0.00    -0.224 A  
HETATM   17  H   UNL     1     -12.087  11.445  67.620  1.00  0.00     0.000 HD 
HETATM   18  C   UNL     1      -9.614  11.089  65.512  1.00  0.00    -0.222 A  
HETATM   19  N   UNL     1     -10.095  12.348  65.272  1.00  0.00    -0.277 NA 
HETATM   20  C   UNL     1      -8.575  10.349  64.939  1.00  0.00    -0.190 A  
HETATM   21  C   UNL     1      -8.360   9.053  65.435  1.00  0.00    -0.144 A  
HETATM   22  C   UNL     1      -9.183   8.528  66.436  1.00  0.00    -0.251 A  
HETATM   23  C   UNL     1     -10.216   9.297  66.998  1.00  0.00    -0.331 A  
BRANCH  21  24
HETATM   24  O   UNL     1      -7.324   8.386  64.835  1.00  0.00    -0.082 OA 
HETATM   25  C   UNL     1      -7.697   7.351  63.939  1.00  0.00    -0.124 C  
HETATM   26  F   UNL     1      -7.959   7.895  62.725  1.00  0.00    -0.126 F  
HETATM   27  F   UNL     1      -6.614   6.547  63.780  1.00  0.00    -0.034 F  
ENDBRANCH  21  24
ENDBRANCH  12  14
ENDBRANCH  11  12
ENDBRANCH   6  11
ENDBRANCH   2   3
TORSDOF 6
ENDMDL
MODEL      143
REMARK 921   NORMALIZED FREE ENERGY PREDICTED BY IDOCK:   -4.75 KCAL/MOL
REMARK 922        TOTAL FREE ENERGY PREDICTED BY IDOCK:   -7.16 KCAL/MOL
REMARK 923 INTER-LIGAND FREE ENERGY PREDICTED BY IDOCK:   -6.31 KCAL/MOL
REMARK 924 INTRA-LIGAND FREE ENERGY PREDICTED BY IDOCK:   -0.85 KCAL/MOL
REMARK 927      BINDING AFFINITY PREDICTED BY RF-SCORE:    0.00 PKD
ROOT
HETATM    1  C   UNL     1      -5.603   8.740  67.335  1.00  0.00    -0.039 C  
HETATM    2  O   UNL     1      -6.183   9.178  68.563  1.00  0.00    -0.048 OA 
ENDROOT
BRANCH   2   3
HETATM    3  C   UNL     1      -7.532   8.951  68.682  1.00  0.00    -0.088 A  
HETATM    4  C   UNL     1      -8.561   9.836  68.297  1.00  0.00    -0.119 A  
HETATM    5  C   UNL     1      -9.189   7.418  69.426  1.00  0.00    -0.145 A  
HETATM    6  C   UNL     1      -9.882   9.382  68.385  1.00  0.00    -0.160 A  
HETATM    7  C   UNL     1      -7.856   7.740  69.278  1.00  0.00    -0.116 A  
HETATM    8  N   UNL     1     -10.197   8.202  68.990  1.00  0.00    -0.216 NA 
BRANCH   4   9
HETATM    9  O   UNL     1      -8.194  11.050  67.772  1.00  0.00    -0.114 OA 
HETATM   10  C   UNL     1      -7.941  11.074  66.365  1.00  0.00    -0.161 C  
ENDBRANCH   4   9
BRANCH   6  11
HETATM   11  C   UNL     1     -11.053  10.103  67.765  1.00  0.00    -0.227 C  
BRANCH  11  12
HETATM   12  S   UNL     1     -11.870  11.195  68.962  1.00  0.00    -0.322 S  
HETATM   13  O   UNL     1     -11.330  10.977  70.345  1.00  0.00    -0.277 OA 
BRANCH  12  14
HETATM   14  C   UNL     1     -11.211  12.707  68.433  1.00  0.00    -0.279 A  
HETATM   15  N   UNL     1     -10.330  12.868  67.468  1.00  0.00    -0.222 NA 
HETATM   16  C   UNL     1     -10.211  14.234  67.323  1.00  0.00    -0.252 A  
HETATM   17  H   UNL     1      -9.844  12.142  66.942  1.00  0.00     0.000 HD 
HETATM   18  C   UNL     1     -11.010  14.906  68.240  1.00  0.00    -0.264 A  
HETATM   19  N   UNL     1     -11.621  13.907  68.949  1.00  0.00    -0.292 NA 
HETATM   20  C   UNL     1     -11.094  16.300  68.308  1.00  0.00    -0.346 A  
HETATM   21  C   UNL     1     -10.317  17.036  67.399  1.00  0.00    -0.319 A  
HETATM   22  C   UNL     1      -9.524  16.385  66.450  1.00  0.00    -0.320 A  
HETATM   23  C   UNL     1      -9.454  14.982  66.408  1.00  0.00    -0.325 A  
BRANCH  21  24
HETATM   24  O   UNL     1     -10.442  18.395  67.524  1.00  0.00    -0.384 OA 
HETATM   25  C   UNL     1      -9.806  18.969  68.655  1.00  0.00    -0.413 C  
HETATM   26  F   UNL     1      -8.500  19.185  68.362  1.00  0.00    -0.326 F  
HETATM   27  F   UNL     1     -10.367  20.189  68.856  1.00  0.00    -0.538 F  
ENDBRANCH  21  24
ENDBRANCH  12  14
ENDBRANCH  11  12
ENDBRANCH   6  11
ENDBRANCH   2   3
TORSDOF 6
ENDMDL
MODEL      144
REMARK 921   NORMALIZED FREE ENERGY PREDICTED BY IDOCK:   -4.75 KCAL/MOL
REMARK 922        TOTAL FREE ENERGY PREDICTED BY IDOCK:   -7.16 KCAL/MOL
REMARK 923 INTER-LIGAND FREE ENERGY PREDICTED BY IDOCK:   -6.60 KCAL/MOL
REMARK 924 INTRA-LIGAND FREE ENERGY PREDICTED BY IDOCK:   -0.56 KCAL/MOL
REMARK 927      BINDING AFFINITY PREDICTED BY RF-SCORE:    0.00 PKD
ROOT
HETATM    1  C   UNL     1      -9.276   6.999  73.667  1.00  0.00    -0.179 C  
HETATM    2  O   UNL     1     -10.463   7.732  73.366  1.00  0.00    -0.338 OA 
ENDROOT
BRANCH   2   3
HETATM    3  C   UNL     1     -10.412   8.470  72.209  1.00  0.00    -0.332 A  
HETATM    4  C   UNL     1     -11.520   8.921  71.463  1.00  0.00    -0.321 A  
HETATM    5  C   UNL     1      -8.977   9.481  70.608  1.00  0.00    -0.166 A  
HETATM    6  C   UNL     1     -11.276   9.763  70.371  1.00  0.00    -0.300 A  
HETATM    7  C   UNL     1      -9.126   8.733  71.756  1.00  0.00    -0.305 A  
HETATM    8  N   UNL     1     -10.013  10.002  69.918  1.00  0.00    -0.246 NA 
BRANCH   4   9
HETATM    9  O   UNL     1     -12.773   8.582  71.912  1.00  0.00    -0.324 OA 
HETATM   10  C   UNL     1     -13.370   7.438  71.296  1.00  0.00    -0.271 C  
ENDBRANCH   4   9
BRANCH   6  11
HETATM   11  C   UNL     1     -12.357  10.532  69.655  1.00  0.00    -0.075 C  
BRANCH  11  12
HETATM   12  S   UNL     1     -13.001  11.885  70.680  1.00  0.00     0.303 S  
HETATM   13  O   UNL     1     -12.442  11.817  72.072  1.00  0.00     0.051 OA 
BRANCH  12  14
HETATM   14  C   UNL     1     -12.189  13.208  69.912  1.00  0.00    -0.225 A  
HETATM   15  N   UNL     1     -11.913  13.302  68.628  1.00  0.00    -0.342 NA 
HETATM   16  C   UNL     1     -11.391  14.568  68.472  1.00  0.00    -0.286 A  
HETATM   17  H   UNL     1     -12.054  12.594  67.908  1.00  0.00     0.000 HD 
HETATM   18  C   UNL     1     -11.323  15.236  69.689  1.00  0.00    -0.290 A  
HETATM   19  N   UNL     1     -11.820  14.336  70.593  1.00  0.00    -0.300 NA 
HETATM   20  C   UNL     1     -10.847  16.544  69.821  1.00  0.00    -0.302 A  
HETATM   21  C   UNL     1     -10.413  17.192  68.654  1.00  0.00    -0.366 A  
HETATM   22  C   UNL     1     -10.495  16.553  67.413  1.00  0.00    -0.310 A  
HETATM   23  C   UNL     1     -10.973  15.235  67.310  1.00  0.00    -0.327 A  
BRANCH  21  24
HETATM   24  O   UNL     1      -9.953  18.467  68.856  1.00  0.00    -0.381 OA 
HETATM   25  C   UNL     1      -8.628  18.719  68.416  1.00  0.00    -0.341 C  
HETATM   26  F   UNL     1      -8.653  19.011  67.092  1.00  0.00    -0.271 F  
HETATM   27  F   UNL     1      -8.198  19.837  69.054  1.00  0.00    -0.359 F  
ENDBRANCH  21  24
ENDBRANCH  12  14
ENDBRANCH  11  12
ENDBRANCH   6  11
ENDBRANCH   2   3
TORSDOF 6
ENDMDL
MODEL      145
REMARK 921   NORMALIZED FREE ENERGY PREDICTED BY IDOCK:   -4.74 KCAL/MOL
REMARK 922        TOTAL FREE ENERGY PREDICTED BY IDOCK:   -7.15 KCAL/MOL
REMARK 923 INTER-LIGAND FREE ENERGY PREDICTED BY IDOCK:   -6.47 KCAL/MOL
REMARK 924 INTRA-LIGAND FREE ENERGY PREDICTED BY IDOCK:   -0.68 KCAL/MOL
REMARK 927      BINDING AFFINITY PREDICTED BY RF-SCORE:    0.00 PKD
ROOT
HETATM    1  C   UNL     1     -10.233  17.545  66.001  1.00  0.00    -0.299 C  
HETATM    2  O   UNL     1      -9.869  16.245  65.541  1.00  0.00    -0.489 OA 
ENDROOT
BRANCH   2   3
HETATM    3  C   UNL     1     -10.022  15.238  66.463  1.00  0.00    -0.265 A  
HETATM    4  C   UNL     1     -10.852  14.106  66.327  1.00  0.00    -0.300 A  
HETATM    5  C   UNL     1      -9.381  14.456  68.613  1.00  0.00    -0.188 A  
HETATM    6  C   UNL     1     -10.789  13.124  67.323  1.00  0.00    -0.257 A  
HETATM    7  C   UNL     1      -9.301  15.424  67.635  1.00  0.00    -0.203 A  
HETATM    8  N   UNL     1     -10.096  13.319  68.480  1.00  0.00    -0.232 NA 
BRANCH   4   9
HETATM    9  O   UNL     1     -11.598  13.996  65.179  1.00  0.00    -0.320 OA 
HETATM   10  C   UNL     1     -11.022  13.215  64.130  1.00  0.00    -0.390 C  
ENDBRANCH   4   9
BRANCH   6  11
HETATM   11  C   UNL     1     -11.404  11.755  67.181  1.00  0.00    -0.322 C  
BRANCH  11  12
HETATM   12  S   UNL     1     -10.239  10.576  66.442  1.00  0.00    -0.226 S  
HETATM   13  O   UNL     1      -8.845  11.133  66.432  1.00  0.00    -0.167 OA 
BRANCH  12  14
HETATM   14  C   UNL     1     -10.254   9.373  67.687  1.00  0.00    -0.227 A  
HETATM   15  N   UNL     1     -10.993   8.283  67.697  1.00  0.00    -0.489 NA 
HETATM   16  C   UNL     1     -10.571   7.580  68.805  1.00  0.00    -0.156 A  
HETATM   17  H   UNL     1     -11.718   8.017  67.031  1.00  0.00     0.000 HD 
HETATM   18  C   UNL     1      -9.582   8.275  69.493  1.00  0.00    -0.171 A  
HETATM   19  N   UNL     1      -9.415   9.424  68.767  1.00  0.00    -0.148 NA 
HETATM   20  C   UNL     1      -8.964   7.788  70.648  1.00  0.00    -0.145 A  
HETATM   21  C   UNL     1      -9.385   6.536  71.124  1.00  0.00    -0.163 A  
HETATM   22  C   UNL     1     -10.359   5.805  70.437  1.00  0.00    -0.310 A  
HETATM   23  C   UNL     1     -10.968   6.321  69.281  1.00  0.00    -0.435 A  
BRANCH  21  24
HETATM   24  O   UNL     1      -8.744   6.122  72.261  1.00  0.00    -0.136 OA 
HETATM   25  C   UNL     1      -9.005   6.887  73.427  1.00  0.00    -0.133 C  
HETATM   26  F   UNL     1     -10.153   6.443  73.995  1.00  0.00    -0.196 F  
HETATM   27  F   UNL     1      -8.007   6.628  74.311  1.00  0.00    -0.105 F  
ENDBRANCH  21  24
ENDBRANCH  12  14
ENDBRANCH  11  12
ENDBRANCH   6  11
ENDBRANCH   2   3
TORSDOF 6
ENDMDL
MODEL      146
REMARK 921   NORMALIZED FREE ENERGY PREDICTED BY IDOCK:   -4.73 KCAL/MOL
REMARK 922        TOTAL FREE ENERGY PREDICTED BY IDOCK:   -7.13 KCAL/MOL
REMARK 923 INTER-LIGAND FREE ENERGY PREDICTED BY IDOCK:   -6.06 KCAL/MOL
REMARK 924 INTRA-LIGAND FREE ENERGY PREDICTED BY IDOCK:   -1.08 KCAL/MOL
REMARK 927      BINDING AFFINITY PREDICTED BY RF-SCORE:    0.00 PKD
ROOT
HETATM    1  C   UNL     1      -6.923   5.925  67.041  1.00  0.00    -0.069 C  
HETATM    2  O   UNL     1      -8.080   5.184  67.427  1.00  0.00    -0.100 OA 
ENDROOT
BRANCH   2   3
HETATM    3  C   UNL     1      -8.456   5.337  68.739  1.00  0.00    -0.092 A  
HETATM    4  C   UNL     1      -9.408   6.255  69.229  1.00  0.00    -0.136 A  
HETATM    5  C   UNL     1      -8.099   4.587  70.966  1.00  0.00    -0.081 A  
HETATM    6  C   UNL     1      -9.748   6.185  70.585  1.00  0.00    -0.174 A  
HETATM    7  C   UNL     1      -7.776   4.514  69.627  1.00  0.00    -0.054 A  
HETATM    8  N   UNL     1      -9.065   5.391  71.456  1.00  0.00    -0.141 NA 
BRANCH   4   9
HETATM    9  O   UNL     1     -10.008   7.095  68.323  1.00  0.00    -0.148 OA 
HETATM   10  C   UNL     1     -11.106   6.545  67.591  1.00  0.00    -0.287 C  
ENDBRANCH   4   9
BRANCH   6  11
HETATM   11  C   UNL     1     -10.928   6.908  71.185  1.00  0.00    -0.251 C  
BRANCH  11  12
HETATM   12  S   UNL     1     -10.412   8.412  72.060  1.00  0.00    -0.341 S  
HETATM   13  O   UNL     1      -9.016   8.270  72.595  1.00  0.00    -0.205 OA 
BRANCH  12  14
HETATM   14  C   UNL     1     -10.287   9.478  70.701  1.00  0.00    -0.302 A  
HETATM   15  N   UNL     1      -9.174   9.815  70.085  1.00  0.00    -0.312 NA 
HETATM   16  C   UNL     1      -9.582  10.564  69.002  1.00  0.00    -0.202 A  
HETATM   17  H   UNL     1      -8.219   9.575  70.351  1.00  0.00     0.000 HD 
HETATM   18  C   UNL     1     -10.964  10.707  68.984  1.00  0.00    -0.248 A  
HETATM   19  N   UNL     1     -11.387  10.021  70.092  1.00  0.00    -0.274 NA 
HETATM   20  C   UNL     1     -11.651  11.407  67.988  1.00  0.00    -0.357 A  
HETATM   21  C   UNL     1     -10.884  11.995  66.970  1.00  0.00    -0.253 A  
HETATM   22  C   UNL     1      -9.493  11.845  66.950  1.00  0.00    -0.205 A  
HETATM   23  C   UNL     1      -8.829  11.139  67.968  1.00  0.00    -0.142 A  
BRANCH  21  24
HETATM   24  O   UNL     1     -11.617  12.671  66.031  1.00  0.00    -0.349 OA 
HETATM   25  C   UNL     1     -12.180  13.900  66.459  1.00  0.00    -0.442 C  
HETATM   26  F   UNL     1     -11.248  14.877  66.334  1.00  0.00    -0.326 F  
HETATM   27  F   UNL     1     -13.183  14.206  65.597  1.00  0.00    -0.568 F  
ENDBRANCH  21  24
ENDBRANCH  12  14
ENDBRANCH  11  12
ENDBRANCH   6  11
ENDBRANCH   2   3
TORSDOF 6
ENDMDL
MODEL      147
REMARK 921   NORMALIZED FREE ENERGY PREDICTED BY IDOCK:   -4.72 KCAL/MOL
REMARK 922        TOTAL FREE ENERGY PREDICTED BY IDOCK:   -7.13 KCAL/MOL
REMARK 923 INTER-LIGAND FREE ENERGY PREDICTED BY IDOCK:   -6.80 KCAL/MOL
REMARK 924 INTRA-LIGAND FREE ENERGY PREDICTED BY IDOCK:   -0.33 KCAL/MOL
REMARK 927      BINDING AFFINITY PREDICTED BY RF-SCORE:    0.00 PKD
ROOT
HETATM    1  C   UNL     1     -13.905  15.088  72.330  1.00  0.00    -0.493 C  
HETATM    2  O   UNL     1     -13.289  13.821  72.103  1.00  0.00    -0.394 OA 
ENDROOT
BRANCH   2   3
HETATM    3  C   UNL     1     -12.628  13.703  70.905  1.00  0.00    -0.346 A  
HETATM    4  C   UNL     1     -12.329  12.498  70.236  1.00  0.00    -0.190 A  
HETATM    5  C   UNL     1     -11.541  14.892  69.158  1.00  0.00    -0.307 A  
HETATM    6  C   UNL     1     -11.751  12.581  68.964  1.00  0.00    -0.318 A  
HETATM    7  C   UNL     1     -12.202  14.910  70.368  1.00  0.00    -0.393 A  
HETATM    8  N   UNL     1     -11.316  13.766  68.449  1.00  0.00    -0.274 NA 
BRANCH   4   9
HETATM    9  O   UNL     1     -12.711  11.324  70.836  1.00  0.00    -0.347 OA 
HETATM   10  C   UNL     1     -11.680  10.352  71.023  1.00  0.00    -0.337 C  
ENDBRANCH   4   9
BRANCH   6  11
HETATM   11  C   UNL     1     -11.626  11.406  68.028  1.00  0.00    -0.286 C  
BRANCH  11  12
HETATM   12  S   UNL     1      -9.938  11.246  67.383  1.00  0.00    -0.185 S  
HETATM   13  O   UNL     1      -8.924  11.554  68.447  1.00  0.00    -0.167 OA 
BRANCH  12  14
HETATM   14  C   UNL     1      -9.894   9.527  67.178  1.00  0.00    -0.185 A  
HETATM   15  N   UNL     1     -10.809   8.677  67.597  1.00  0.00    -0.493 NA 
HETATM   16  C   UNL     1     -10.414   7.456  67.095  1.00  0.00    -0.333 A  
HETATM   17  H   UNL     1     -11.630   8.879  68.167  1.00  0.00     0.000 HD 
HETATM   18  C   UNL     1      -9.221   7.567  66.389  1.00  0.00    -0.167 A  
HETATM   19  N   UNL     1      -8.903   8.896  66.476  1.00  0.00    -0.131 NA 
HETATM   20  C   UNL     1      -8.598   6.485  65.761  1.00  0.00    -0.149 A  
HETATM   21  C   UNL     1      -9.221   5.232  65.869  1.00  0.00    -0.159 A  
HETATM   22  C   UNL     1     -10.434   5.097  66.552  1.00  0.00    -0.346 A  
HETATM   23  C   UNL     1     -11.036   6.201  67.179  1.00  0.00    -0.420 A  
BRANCH  21  24
HETATM   24  O   UNL     1      -8.555   4.216  65.237  1.00  0.00    -0.115 OA 
HETATM   25  C   UNL     1      -8.803   4.089  63.846  1.00  0.00    -0.117 C  
HETATM   26  F   UNL     1      -7.994   4.945  63.175  1.00  0.00    -0.066 F  
HETATM   27  F   UNL     1      -8.432   2.835  63.483  1.00  0.00    -0.083 F  
ENDBRANCH  21  24
ENDBRANCH  12  14
ENDBRANCH  11  12
ENDBRANCH   6  11
ENDBRANCH   2   3
TORSDOF 6
ENDMDL
MODEL      148
REMARK 921   NORMALIZED FREE ENERGY PREDICTED BY IDOCK:   -4.71 KCAL/MOL
REMARK 922        TOTAL FREE ENERGY PREDICTED BY IDOCK:   -7.11 KCAL/MOL
REMARK 923 INTER-LIGAND FREE ENERGY PREDICTED BY IDOCK:   -6.53 KCAL/MOL
REMARK 924 INTRA-LIGAND FREE ENERGY PREDICTED BY IDOCK:   -0.58 KCAL/MOL
REMARK 927      BINDING AFFINITY PREDICTED BY RF-SCORE:    0.00 PKD
ROOT
HETATM    1  C   UNL     1     -10.277  19.877  65.724  1.00  0.00    -0.386 C  
HETATM    2  O   UNL     1      -9.159  19.815  66.607  1.00  0.00    -0.336 OA 
ENDROOT
BRANCH   2   3
HETATM    3  C   UNL     1      -8.572  18.578  66.715  1.00  0.00    -0.284 A  
HETATM    4  C   UNL     1      -9.093  17.469  67.414  1.00  0.00    -0.237 A  
HETATM    5  C   UNL     1      -6.677  17.267  66.135  1.00  0.00    -0.169 A  
HETATM    6  C   UNL     1      -8.409  16.252  67.314  1.00  0.00    -0.180 A  
HETATM    7  C   UNL     1      -7.335  18.477  66.093  1.00  0.00    -0.295 A  
HETATM    8  N   UNL     1      -7.186  16.162  66.720  1.00  0.00    -0.197 NA 
BRANCH   4   9
HETATM    9  O   UNL     1     -10.288  17.633  68.071  1.00  0.00    -0.339 OA 
HETATM   10  C   UNL     1     -10.200  18.041  69.438  1.00  0.00     0.091 C  
ENDBRANCH   4   9
BRANCH   6  11
HETATM   11  C   UNL     1      -8.982  14.936  67.776  1.00  0.00    -0.177 C  
BRANCH  11  12
HETATM   12  S   UNL     1     -10.465  14.488  66.830  1.00  0.00    -0.274 S  
HETATM   13  O   UNL     1     -10.205  14.571  65.353  1.00  0.00    -0.343 OA 
BRANCH  12  14
HETATM   14  C   UNL     1     -10.516  12.798  67.203  1.00  0.00    -0.233 A  
HETATM   15  N   UNL     1     -10.410  11.813  66.335  1.00  0.00    -0.216 NA 
HETATM   16  C   UNL     1     -10.374  10.668  67.102  1.00  0.00    -0.228 A  
HETATM   17  H   UNL     1     -10.364  11.882  65.319  1.00  0.00     0.000 HD 
HETATM   18  C   UNL     1     -10.493  10.968  68.454  1.00  0.00    -0.180 A  
HETATM   19  N   UNL     1     -10.602  12.332  68.487  1.00  0.00    -0.230 NA 
HETATM   20  C   UNL     1     -10.473   9.997  69.460  1.00  0.00    -0.260 A  
HETATM   21  C   UNL     1     -10.333   8.658  69.060  1.00  0.00    -0.213 A  
HETATM   22  C   UNL     1     -10.186   8.332  67.708  1.00  0.00    -0.282 A  
HETATM   23  C   UNL     1     -10.215   9.328  66.717  1.00  0.00    -0.325 A  
BRANCH  21  24
HETATM   24  O   UNL     1     -10.328   7.759  70.093  1.00  0.00    -0.209 OA 
HETATM   25  C   UNL     1     -11.537   7.045  70.292  1.00  0.00    -0.262 C  
HETATM   26  F   UNL     1     -11.560   5.978  69.455  1.00  0.00    -0.481 F  
HETATM   27  F   UNL     1     -11.508   6.549  71.556  1.00  0.00    -0.287 F  
ENDBRANCH  21  24
ENDBRANCH  12  14
ENDBRANCH  11  12
ENDBRANCH   6  11
ENDBRANCH   2   3
TORSDOF 6
ENDMDL
MODEL      149
REMARK 921   NORMALIZED FREE ENERGY PREDICTED BY IDOCK:   -4.69 KCAL/MOL
REMARK 922        TOTAL FREE ENERGY PREDICTED BY IDOCK:   -7.08 KCAL/MOL
REMARK 923 INTER-LIGAND FREE ENERGY PREDICTED BY IDOCK:   -6.34 KCAL/MOL
REMARK 924 INTRA-LIGAND FREE ENERGY PREDICTED BY IDOCK:   -0.74 KCAL/MOL
REMARK 927      BINDING AFFINITY PREDICTED BY RF-SCORE:    0.00 PKD
ROOT
HETATM    1  C   UNL     1     -10.741   5.679  68.902  1.00  0.00    -0.209 C  
HETATM    2  O   UNL     1     -11.024   7.074  68.799  1.00  0.00    -0.183 OA 
ENDROOT
BRANCH   2   3
HETATM    3  C   UNL     1     -10.333   7.735  67.814  1.00  0.00    -0.221 A  
HETATM    4  C   UNL     1     -10.376   9.121  67.555  1.00  0.00    -0.261 A  
HETATM    5  C   UNL     1      -8.826   7.488  65.993  1.00  0.00    -0.150 A  
HETATM    6  C   UNL     1      -9.511   9.633  66.582  1.00  0.00    -0.170 A  
HETATM    7  C   UNL     1      -9.567   6.910  67.002  1.00  0.00    -0.197 A  
HETATM    8  N   UNL     1      -8.776   8.818  65.774  1.00  0.00    -0.168 NA 
BRANCH   4   9
HETATM    9  O   UNL     1     -11.198   9.891  68.341  1.00  0.00    -0.188 OA 
HETATM   10  C   UNL     1     -10.753  10.117  69.680  1.00  0.00    -0.264 C  
ENDBRANCH   4   9
BRANCH   6  11
HETATM   11  C   UNL     1      -9.253  11.107  66.390  1.00  0.00    -0.183 C  
BRANCH  11  12
HETATM   12  S   UNL     1      -8.033  11.729  67.580  1.00  0.00    -0.158 S  
HETATM   13  O   UNL     1      -6.747  12.088  66.892  1.00  0.00    -0.129 OA 
BRANCH  12  14
HETATM   14  C   UNL     1      -8.791  13.236  67.972  1.00  0.00    -0.190 A  
HETATM   15  N   UNL     1      -9.729  13.414  68.879  1.00  0.00    -0.417 NA 
HETATM   16  C   UNL     1      -9.921  14.778  68.926  1.00  0.00    -0.233 A  
HETATM   17  H   UNL     1     -10.208  12.699  69.427  1.00  0.00     0.000 HD 
HETATM   18  C   UNL     1      -9.106  15.430  68.008  1.00  0.00    -0.175 A  
HETATM   19  N   UNL     1      -8.411  14.420  67.399  1.00  0.00    -0.191 NA 
HETATM   20  C   UNL     1      -9.085  16.819  67.852  1.00  0.00    -0.224 A  
HETATM   21  C   UNL     1      -9.944  17.572  68.668  1.00  0.00    -0.347 A  
HETATM   22  C   UNL     1     -10.755  16.943  69.618  1.00  0.00    -0.151 A  
HETATM   23  C   UNL     1     -10.760  15.543  69.750  1.00  0.00    -0.301 A  
BRANCH  21  24
HETATM   24  O   UNL     1      -9.878  18.924  68.459  1.00  0.00    -0.356 OA 
HETATM   25  C   UNL     1     -10.029  19.346  67.113  1.00  0.00    -0.360 C  
HETATM   26  F   UNL     1     -11.351  19.436  66.827  1.00  0.00    -0.403 F  
HETATM   27  F   UNL     1      -9.525  20.604  67.027  1.00  0.00    -0.509 F  
ENDBRANCH  21  24
ENDBRANCH  12  14
ENDBRANCH  11  12
ENDBRANCH   6  11
ENDBRANCH   2   3
TORSDOF 6
ENDMDL
MODEL      150
REMARK 921   NORMALIZED FREE ENERGY PREDICTED BY IDOCK:   -4.69 KCAL/MOL
REMARK 922        TOTAL FREE ENERGY PREDICTED BY IDOCK:   -7.08 KCAL/MOL
REMARK 923 INTER-LIGAND FREE ENERGY PREDICTED BY IDOCK:   -6.44 KCAL/MOL
REMARK 924 INTRA-LIGAND FREE ENERGY PREDICTED BY IDOCK:   -0.64 KCAL/MOL
REMARK 927      BINDING AFFINITY PREDICTED BY RF-SCORE:    0.00 PKD
ROOT
HETATM    1  C   UNL     1      -7.360   4.411  70.649  1.00  0.00    -0.048 C  
HETATM    2  O   UNL     1      -8.333   4.387  71.692  1.00  0.00    -0.097 OA 
ENDROOT
BRANCH   2   3
HETATM    3  C   UNL     1      -9.456   5.141  71.456  1.00  0.00    -0.151 A  
HETATM    4  C   UNL     1     -10.058   6.041  72.360  1.00  0.00    -0.175 A  
HETATM    5  C   UNL     1     -11.158   5.656  69.880  1.00  0.00    -0.114 A  
HETATM    6  C   UNL     1     -11.132   6.813  71.900  1.00  0.00    -0.247 A  
HETATM    7  C   UNL     1     -10.034   4.930  70.211  1.00  0.00    -0.321 A  
HETATM    8  N   UNL     1     -11.708   6.588  70.686  1.00  0.00    -0.390 NA 
BRANCH   4   9
HETATM    9  O   UNL     1      -9.490   6.170  73.604  1.00  0.00    -0.137 OA 
HETATM   10  C   UNL     1      -8.359   7.039  73.690  1.00  0.00    -0.123 C  
ENDBRANCH   4   9
BRANCH   6  11
HETATM   11  C   UNL     1     -11.692   7.992  72.654  1.00  0.00    -0.358 C  
BRANCH  11  12
HETATM   12  S   UNL     1     -13.018   8.808  71.721  1.00  0.00    -0.382 S  
HETATM   13  O   UNL     1     -13.827   9.705  72.612  1.00  0.00    -0.310 OA 
BRANCH  12  14
HETATM   14  C   UNL     1     -12.047   9.863  70.751  1.00  0.00    -0.308 A  
HETATM   15  N   UNL     1     -10.787   9.666  70.420  1.00  0.00    -0.271 NA 
HETATM   16  C   UNL     1     -10.487  10.688  69.545  1.00  0.00    -0.204 A  
HETATM   17  H   UNL     1     -10.170   8.921  70.741  1.00  0.00     0.000 HD 
HETATM   18  C   UNL     1     -11.576  11.535  69.372  1.00  0.00    -0.321 A  
HETATM   19  N   UNL     1     -12.551  10.995  70.169  1.00  0.00    -0.254 NA 
HETATM   20  C   UNL     1     -11.556  12.648  68.526  1.00  0.00    -0.363 A  
HETATM   21  C   UNL     1     -10.362  12.909  67.835  1.00  0.00    -0.231 A  
HETATM   22  C   UNL     1      -9.260  12.059  67.972  1.00  0.00    -0.192 A  
HETATM   23  C   UNL     1      -9.307  10.949  68.833  1.00  0.00    -0.169 A  
BRANCH  21  24
HETATM   24  O   UNL     1     -10.409  14.016  67.030  1.00  0.00    -0.264 OA 
HETATM   25  C   UNL     1     -10.817  13.787  65.691  1.00  0.00    -0.287 C  
HETATM   26  F   UNL     1     -12.172  13.778  65.640  1.00  0.00    -0.358 F  
HETATM   27  F   UNL     1     -10.406  14.852  64.957  1.00  0.00    -0.361 F  
ENDBRANCH  21  24
ENDBRANCH  12  14
ENDBRANCH  11  12
ENDBRANCH   6  11
ENDBRANCH   2   3
TORSDOF 6
ENDMDL
MODEL      151
REMARK 921   NORMALIZED FREE ENERGY PREDICTED BY IDOCK:   -4.68 KCAL/MOL
REMARK 922        TOTAL FREE ENERGY PREDICTED BY IDOCK:   -7.08 KCAL/MOL
REMARK 923 INTER-LIGAND FREE ENERGY PREDICTED BY IDOCK:   -6.71 KCAL/MOL
REMARK 924 INTRA-LIGAND FREE ENERGY PREDICTED BY IDOCK:   -0.36 KCAL/MOL
REMARK 927      BINDING AFFINITY PREDICTED BY RF-SCORE:    0.00 PKD
ROOT
HETATM    1  C   UNL     1      -9.755  12.049  63.889  1.00  0.00    -0.146 C  
HETATM    2  O   UNL     1     -10.350  13.342  63.988  1.00  0.00    -0.354 OA 
ENDROOT
BRANCH   2   3
HETATM    3  C   UNL     1     -10.339  13.891  65.247  1.00  0.00    -0.378 A  
HETATM    4  C   UNL     1     -11.464  14.354  65.961  1.00  0.00    -0.349 A  
HETATM    5  C   UNL     1      -8.966  14.542  67.073  1.00  0.00    -0.240 A  
HETATM    6  C   UNL     1     -11.273  14.775  67.282  1.00  0.00    -0.346 A  
HETATM    7  C   UNL     1      -9.074  14.014  65.804  1.00  0.00     0.442 A  
HETATM    8  N   UNL     1     -10.028  14.914  67.819  1.00  0.00    -0.221 NA 
BRANCH   4   9
HETATM    9  O   UNL     1     -12.688  14.274  65.345  1.00  0.00    -0.507 OA 
HETATM   10  C   UNL     1     -13.024  13.003  64.782  1.00  0.00    -0.131 C  
ENDBRANCH   4   9
BRANCH   6  11
HETATM   11  C   UNL     1     -12.405  15.036  68.244  1.00  0.00     0.242 C  
BRANCH  11  12
HETATM   12  S   UNL     1     -11.867  14.853  69.968  1.00  0.00    -0.329 S  
HETATM   13  O   UNL     1     -12.918  15.357  70.914  1.00  0.00    -0.437 OA 
BRANCH  12  14
HETATM   14  C   UNL     1     -11.923  13.126  70.081  1.00  0.00    -0.310 A  
HETATM   15  N   UNL     1     -11.226  12.283  69.348  1.00  0.00    -0.429 NA 
HETATM   16  C   UNL     1     -11.500  11.042  69.881  1.00  0.00    -0.320 A  
HETATM   17  H   UNL     1     -10.617  12.500  68.560  1.00  0.00     0.000 HD 
HETATM   18  C   UNL     1     -12.404  11.137  70.934  1.00  0.00    -0.399 A  
HETATM   19  N   UNL     1     -12.672  12.476  71.025  1.00  0.00    -0.291 NA 
HETATM   20  C   UNL     1     -12.847  10.032  71.667  1.00  0.00    -0.543 A  
HETATM   21  C   UNL     1     -12.348   8.773  71.298  1.00  0.00    -0.270 A  
HETATM   22  C   UNL     1     -11.418   8.652  70.260  1.00  0.00    -0.084 A  
HETATM   23  C   UNL     1     -10.994   9.779  69.536  1.00  0.00    -0.256 A  
BRANCH  21  24
HETATM   24  O   UNL     1     -12.828   7.735  72.052  1.00  0.00    -0.299 OA 
HETATM   25  C   UNL     1     -12.032   6.560  72.058  1.00  0.00    -0.326 C  
HETATM   26  F   UNL     1     -11.056   6.695  72.990  1.00  0.00    -0.252 F  
HETATM   27  F   UNL     1     -12.825   5.538  72.469  1.00  0.00    -0.180 F  
ENDBRANCH  21  24
ENDBRANCH  12  14
ENDBRANCH  11  12
ENDBRANCH   6  11
ENDBRANCH   2   3
TORSDOF 6
ENDMDL
MODEL      152
REMARK 921   NORMALIZED FREE ENERGY PREDICTED BY IDOCK:   -4.67 KCAL/MOL
REMARK 922        TOTAL FREE ENERGY PREDICTED BY IDOCK:   -7.06 KCAL/MOL
REMARK 923 INTER-LIGAND FREE ENERGY PREDICTED BY IDOCK:   -6.45 KCAL/MOL
REMARK 924 INTRA-LIGAND FREE ENERGY PREDICTED BY IDOCK:   -0.61 KCAL/MOL
REMARK 927      BINDING AFFINITY PREDICTED BY RF-SCORE:    0.00 PKD
ROOT
HETATM    1  C   UNL     1      -8.051   9.223  63.847  1.00  0.00    -0.151 C  
HETATM    2  O   UNL     1      -8.622   8.195  64.655  1.00  0.00    -0.081 OA 
ENDROOT
BRANCH   2   3
HETATM    3  C   UNL     1      -8.388   8.318  66.003  1.00  0.00    -0.128 A  
HETATM    4  C   UNL     1      -9.322   8.082  67.033  1.00  0.00    -0.156 A  
HETATM    5  C   UNL     1      -6.780   8.896  67.653  1.00  0.00    -0.066 A  
HETATM    6  C   UNL     1      -8.869   8.145  68.355  1.00  0.00    -0.133 A  
HETATM    7  C   UNL     1      -7.111   8.757  66.322  1.00  0.00    -0.082 A  
HETATM    8  N   UNL     1      -7.620   8.595  68.665  1.00  0.00    -0.096 NA 
BRANCH   4   9
HETATM    9  O   UNL     1     -10.594   7.713  66.668  1.00  0.00    -0.274 OA 
HETATM   10  C   UNL     1     -10.875   6.313  66.705  1.00  0.00    -0.296 C  
ENDBRANCH   4   9
BRANCH   6  11
HETATM   11  C   UNL     1      -9.672   7.657  69.535  1.00  0.00    -0.168 C  
BRANCH  11  12
HETATM   12  S   UNL     1      -9.967   8.987  70.733  1.00  0.00    -0.269 S  
HETATM   13  O   UNL     1      -8.736   9.259  71.549  1.00  0.00    -0.323 OA 
BRANCH  12  14
HETATM   14  C   UNL     1     -10.099  10.314  69.629  1.00  0.00    -0.224 A  
HETATM   15  N   UNL     1      -9.169  11.215  69.390  1.00  0.00    -0.374 NA 
HETATM   16  C   UNL     1      -9.672  11.978  68.358  1.00  0.00    -0.199 A  
HETATM   17  H   UNL     1      -8.273  11.324  69.865  1.00  0.00     0.000 HD 
HETATM   18  C   UNL     1     -10.942  11.548  67.991  1.00  0.00    -0.231 A  
HETATM   19  N   UNL     1     -11.197  10.498  68.832  1.00  0.00    -0.258 NA 
HETATM   20  C   UNL     1     -11.682  12.135  66.959  1.00  0.00    -0.373 A  
HETATM   21  C   UNL     1     -11.096  13.216  66.282  1.00  0.00    -0.287 A  
HETATM   22  C   UNL     1      -9.810  13.652  66.615  1.00  0.00    -0.284 A  
HETATM   23  C   UNL     1      -9.091  13.047  67.660  1.00  0.00    -0.198 A  
BRANCH  21  24
HETATM   24  O   UNL     1     -11.877  13.747  65.289  1.00  0.00    -0.327 OA 
HETATM   25  C   UNL     1     -11.993  12.963  64.113  1.00  0.00    -0.423 C  
HETATM   26  F   UNL     1     -12.971  12.041  64.294  1.00  0.00    -0.524 F  
HETATM   27  F   UNL     1     -12.413  13.787  63.119  1.00  0.00    -0.527 F  
ENDBRANCH  21  24
ENDBRANCH  12  14
ENDBRANCH  11  12
ENDBRANCH   6  11
ENDBRANCH   2   3
TORSDOF 6
ENDMDL
MODEL      153
REMARK 921   NORMALIZED FREE ENERGY PREDICTED BY IDOCK:   -4.66 KCAL/MOL
REMARK 922        TOTAL FREE ENERGY PREDICTED BY IDOCK:   -7.05 KCAL/MOL
REMARK 923 INTER-LIGAND FREE ENERGY PREDICTED BY IDOCK:   -6.25 KCAL/MOL
REMARK 924 INTRA-LIGAND FREE ENERGY PREDICTED BY IDOCK:   -0.80 KCAL/MOL
REMARK 927      BINDING AFFINITY PREDICTED BY RF-SCORE:    0.00 PKD
ROOT
HETATM    1  C   UNL     1     -13.830   7.354  71.431  1.00  0.00    -0.328 C  
HETATM    2  O   UNL     1     -12.617   6.936  72.055  1.00  0.00    -0.302 OA 
ENDROOT
BRANCH   2   3
HETATM    3  C   UNL     1     -11.477   7.513  71.552  1.00  0.00    -0.265 A  
HETATM    4  C   UNL     1     -10.349   6.828  71.053  1.00  0.00    -0.206 A  
HETATM    5  C   UNL     1     -10.371   9.568  71.102  1.00  0.00    -0.260 A  
HETATM    6  C   UNL     1      -9.326   7.586  70.471  1.00  0.00    -0.160 A  
HETATM    7  C   UNL     1     -11.470   8.901  71.600  1.00  0.00    -0.409 A  
HETATM    8  N   UNL     1      -9.315   8.947  70.538  1.00  0.00    -0.185 NA 
BRANCH   4   9
HETATM    9  O   UNL     1     -10.372   5.455  71.086  1.00  0.00    -0.219 OA 
HETATM   10  C   UNL     1      -9.895   4.850  72.290  1.00  0.00    -0.169 C  
ENDBRANCH   4   9
BRANCH   6  11
HETATM   11  C   UNL     1      -8.203   6.986  69.664  1.00  0.00    -0.131 C  
BRANCH  11  12
HETATM   12  S   UNL     1      -8.686   6.739  67.933  1.00  0.00    -0.119 S  
HETATM   13  O   UNL     1      -9.956   5.944  67.838  1.00  0.00    -0.118 OA 
BRANCH  12  14
HETATM   14  C   UNL     1      -9.123   8.369  67.545  1.00  0.00    -0.134 A  
HETATM   15  N   UNL     1      -8.368   9.433  67.721  1.00  0.00    -0.115 NA 
HETATM   16  C   UNL     1      -9.077  10.468  67.152  1.00  0.00    -0.143 A  
HETATM   17  H   UNL     1      -7.458   9.480  68.178  1.00  0.00     0.000 HD 
HETATM   18  C   UNL     1     -10.296  10.025  66.652  1.00  0.00    -0.213 A  
HETATM   19  N   UNL     1     -10.308   8.686  66.936  1.00  0.00    -0.293 NA 
HETATM   20  C   UNL     1     -11.212  10.863  66.009  1.00  0.00     0.144 A  
HETATM   21  C   UNL     1     -10.865  12.217  65.879  1.00  0.00    -0.278 A  
HETATM   22  C   UNL     1      -9.633  12.684  66.350  1.00  0.00    -0.248 A  
HETATM   23  C   UNL     1      -8.734  11.820  66.998  1.00  0.00    -0.181 A  
BRANCH  21  24
HETATM   24  O   UNL     1     -11.808  12.982  65.245  1.00  0.00    -0.336 OA 
HETATM   25  C   UNL     1     -11.771  12.953  63.827  1.00  0.00    -0.492 C  
HETATM   26  F   UNL     1     -12.458  11.868  63.392  1.00  0.00    -0.600 F  
HETATM   27  F   UNL     1     -12.446  14.045  63.385  1.00  0.00    -0.487 F  
ENDBRANCH  21  24
ENDBRANCH  12  14
ENDBRANCH  11  12
ENDBRANCH   6  11
ENDBRANCH   2   3
TORSDOF 6
ENDMDL
MODEL      154
REMARK 921   NORMALIZED FREE ENERGY PREDICTED BY IDOCK:   -4.66 KCAL/MOL
REMARK 922        TOTAL FREE ENERGY PREDICTED BY IDOCK:   -7.04 KCAL/MOL
REMARK 923 INTER-LIGAND FREE ENERGY PREDICTED BY IDOCK:   -6.19 KCAL/MOL
REMARK 924 INTRA-LIGAND FREE ENERGY PREDICTED BY IDOCK:   -0.85 KCAL/MOL
REMARK 927      BINDING AFFINITY PREDICTED BY RF-SCORE:    0.00 PKD
ROOT
HETATM    1  C   UNL     1     -10.082  10.185  66.370  1.00  0.00    -0.236 C  
HETATM    2  O   UNL     1      -9.211   9.636  67.358  1.00  0.00    -0.130 OA 
ENDROOT
BRANCH   2   3
HETATM    3  C   UNL     1      -9.405   8.303  67.626  1.00  0.00    -0.137 A  
HETATM    4  C   UNL     1      -8.466   7.427  68.210  1.00  0.00    -0.125 A  
HETATM    5  C   UNL     1     -10.933   6.490  67.471  1.00  0.00    -0.359 A  
HETATM    6  C   UNL     1      -8.884   6.127  68.515  1.00  0.00    -0.113 A  
HETATM    7  C   UNL     1     -10.643   7.815  67.229  1.00  0.00    -0.376 A  
HETATM    8  N   UNL     1     -10.092   5.647  68.106  1.00  0.00    -0.155 NA 
BRANCH   4   9
HETATM    9  O   UNL     1      -7.230   7.936  68.526  1.00  0.00    -0.081 OA 
HETATM   10  C   UNL     1      -6.227   7.819  67.515  1.00  0.00    -0.050 C  
ENDBRANCH   4   9
BRANCH   6  11
HETATM   11  C   UNL     1      -8.089   5.177  69.375  1.00  0.00    -0.087 C  
BRANCH  11  12
HETATM   12  S   UNL     1      -8.094   5.693  71.115  1.00  0.00    -0.118 S  
HETATM   13  O   UNL     1      -7.067   6.759  71.363  1.00  0.00    -0.073 OA 
BRANCH  12  14
HETATM   14  C   UNL     1      -9.625   6.501  71.147  1.00  0.00    -0.171 A  
HETATM   15  N   UNL     1     -10.803   5.928  71.006  1.00  0.00    -0.273 NA 
HETATM   16  C   UNL     1     -11.715   6.936  71.233  1.00  0.00    -0.328 A  
HETATM   17  H   UNL     1     -10.996   4.953  70.779  1.00  0.00     0.000 HD 
HETATM   18  C   UNL     1     -11.075   8.144  71.483  1.00  0.00    -0.252 A  
HETATM   19  N   UNL     1      -9.742   7.841  71.401  1.00  0.00    -0.165 NA 
HETATM   20  C   UNL     1     -11.759   9.332  71.760  1.00  0.00    -0.456 A  
HETATM   21  C   UNL     1     -13.162   9.279  71.772  1.00  0.00    -0.403 A  
HETATM   22  C   UNL     1     -13.830   8.071  71.549  1.00  0.00    -0.394 A  
HETATM   23  C   UNL     1     -13.117   6.893  71.268  1.00  0.00    -0.273 A  
BRANCH  21  24
HETATM   24  O   UNL     1     -13.768  10.477  72.043  1.00  0.00    -0.212 OA 
HETATM   25  C   UNL     1     -12.937  11.623  71.943  1.00  0.00    -0.337 C  
HETATM   26  F   UNL     1     -12.890  12.018  70.647  1.00  0.00    -0.286 F  
HETATM   27  F   UNL     1     -13.544  12.622  72.633  1.00  0.00    -0.599 F  
ENDBRANCH  21  24
ENDBRANCH  12  14
ENDBRANCH  11  12
ENDBRANCH   6  11
ENDBRANCH   2   3
TORSDOF 6
ENDMDL
MODEL      155
REMARK 921   NORMALIZED FREE ENERGY PREDICTED BY IDOCK:   -4.64 KCAL/MOL
REMARK 922        TOTAL FREE ENERGY PREDICTED BY IDOCK:   -7.02 KCAL/MOL
REMARK 923 INTER-LIGAND FREE ENERGY PREDICTED BY IDOCK:   -6.29 KCAL/MOL
REMARK 924 INTRA-LIGAND FREE ENERGY PREDICTED BY IDOCK:   -0.73 KCAL/MOL
REMARK 927      BINDING AFFINITY PREDICTED BY RF-SCORE:    0.00 PKD
ROOT
HETATM    1  C   UNL     1     -10.744  19.833  65.765  1.00  0.00    -0.370 C  
HETATM    2  O   UNL     1     -10.281  19.991  67.105  1.00  0.00    -0.415 OA 
ENDROOT
BRANCH   2   3
HETATM    3  C   UNL     1      -9.055  19.430  67.366  1.00  0.00    -0.299 A  
HETATM    4  C   UNL     1      -8.723  18.065  67.243  1.00  0.00    -0.243 A  
HETATM    5  C   UNL     1      -6.837  19.858  68.102  1.00  0.00    -0.293 A  
HETATM    6  C   UNL     1      -7.387  17.695  67.439  1.00  0.00    -0.185 A  
HETATM    7  C   UNL     1      -8.103  20.329  67.828  1.00  0.00    -0.268 A  
HETATM    8  N   UNL     1      -6.461  18.576  67.912  1.00  0.00    -0.206 NA 
BRANCH   4   9
HETATM    9  O   UNL     1      -9.714  17.201  66.846  1.00  0.00    -0.249 OA 
HETATM   10  C   UNL     1     -10.632  16.793  67.861  1.00  0.00    -0.350 C  
ENDBRANCH   4   9
BRANCH   6  11
HETATM   11  C   UNL     1      -6.838  16.337  67.081  1.00  0.00    -0.207 C  
BRANCH  11  12
HETATM   12  S   UNL     1      -7.003  15.169  68.460  1.00  0.00    -0.111 S  
HETATM   13  O   UNL     1      -7.841  15.752  69.561  1.00  0.00    -0.227 OA 
BRANCH  12  14
HETATM   14  C   UNL     1      -8.004  13.986  67.685  1.00  0.00    -0.178 A  
HETATM   15  N   UNL     1      -8.897  14.227  66.749  1.00  0.00    -0.376 NA 
HETATM   16  C   UNL     1      -9.338  12.982  66.353  1.00  0.00    -0.182 A  
HETATM   17  H   UNL     1      -9.197  15.134  66.394  1.00  0.00     0.000 HD 
HETATM   18  C   UNL     1      -8.722  11.976  67.088  1.00  0.00    -0.183 A  
HETATM   19  N   UNL     1      -7.891  12.647  67.944  1.00  0.00    -0.140 NA 
HETATM   20  C   UNL     1      -8.973  10.615  66.886  1.00  0.00    -0.147 A  
HETATM   21  C   UNL     1      -9.902  10.272  65.892  1.00  0.00    -0.237 A  
HETATM   22  C   UNL     1     -10.518  11.264  65.121  1.00  0.00    -0.351 A  
HETATM   23  C   UNL     1     -10.251  12.625  65.350  1.00  0.00    -0.301 A  
BRANCH  21  24
HETATM   24  O   UNL     1     -10.105   8.925  65.752  1.00  0.00    -0.112 OA 
HETATM   25  C   UNL     1      -9.608   8.115  66.805  1.00  0.00    -0.217 C  
HETATM   26  F   UNL     1     -10.525   8.079  67.802  1.00  0.00    -0.248 F  
HETATM   27  F   UNL     1      -9.504   6.849  66.325  1.00  0.00    -0.197 F  
ENDBRANCH  21  24
ENDBRANCH  12  14
ENDBRANCH  11  12
ENDBRANCH   6  11
ENDBRANCH   2   3
TORSDOF 6
ENDMDL
MODEL      156
REMARK 921   NORMALIZED FREE ENERGY PREDICTED BY IDOCK:   -4.62 KCAL/MOL
REMARK 922        TOTAL FREE ENERGY PREDICTED BY IDOCK:   -7.00 KCAL/MOL
REMARK 923 INTER-LIGAND FREE ENERGY PREDICTED BY IDOCK:   -6.32 KCAL/MOL
REMARK 924 INTRA-LIGAND FREE ENERGY PREDICTED BY IDOCK:   -0.67 KCAL/MOL
REMARK 927      BINDING AFFINITY PREDICTED BY RF-SCORE:    0.00 PKD
ROOT
HETATM    1  C   UNL     1     -10.114   4.719  74.194  1.00  0.00    -0.204 C  
HETATM    2  O   UNL     1     -10.535   4.954  72.851  1.00  0.00    -0.183 OA 
ENDROOT
BRANCH   2   3
HETATM    3  C   UNL     1      -9.599   5.555  72.046  1.00  0.00    -0.151 A  
HETATM    4  C   UNL     1      -9.866   6.361  70.919  1.00  0.00    -0.184 A  
HETATM    5  C   UNL     1      -7.275   5.851  71.651  1.00  0.00    -0.087 A  
HETATM    6  C   UNL     1      -8.784   6.986  70.289  1.00  0.00    -0.144 A  
HETATM    7  C   UNL     1      -8.284   5.278  72.395  1.00  0.00    -0.118 A  
HETATM    8  N   UNL     1      -7.495   6.696  70.622  1.00  0.00    -0.082 NA 
BRANCH   4   9
HETATM    9  O   UNL     1     -11.181   6.554  70.571  1.00  0.00    -0.292 OA 
HETATM   10  C   UNL     1     -11.924   7.448  71.403  1.00  0.00    -0.310 C  
ENDBRANCH   4   9
BRANCH   6  11
HETATM   11  C   UNL     1      -8.937   8.076  69.258  1.00  0.00    -0.148 C  
BRANCH  11  12
HETATM   12  S   UNL     1      -8.429   9.689  69.915  1.00  0.00    -0.210 S  
HETATM   13  O   UNL     1      -7.066  10.068  69.412  1.00  0.00    -0.058 OA 
BRANCH  12  14
HETATM   14  C   UNL     1      -9.544  10.691  69.047  1.00  0.00    -0.195 A  
HETATM   15  N   UNL     1     -10.299  11.636  69.569  1.00  0.00    -0.401 NA 
HETATM   16  C   UNL     1     -10.908  12.237  68.489  1.00  0.00    -0.237 A  
HETATM   17  H   UNL     1     -10.408  11.871  70.555  1.00  0.00     0.000 HD 
HETATM   18  C   UNL     1     -10.538  11.622  67.298  1.00  0.00    -0.228 A  
HETATM   19  N   UNL     1      -9.683  10.626  67.687  1.00  0.00    -0.164 NA 
HETATM   20  C   UNL     1     -10.997  12.038  66.044  1.00  0.00    -0.346 A  
HETATM   21  C   UNL     1     -11.881  13.128  66.012  1.00  0.00    -0.407 A  
HETATM   22  C   UNL     1     -12.249  13.781  67.193  1.00  0.00    -0.352 A  
HETATM   23  C   UNL     1     -11.777  13.338  68.440  1.00  0.00    -0.389 A  
BRANCH  21  24
HETATM   24  O   UNL     1     -12.296  13.479  64.755  1.00  0.00    -0.419 OA 
HETATM   25  C   UNL     1     -12.319  12.430  63.800  1.00  0.00    -0.528 C  
HETATM   26  F   UNL     1     -13.486  11.751  63.921  1.00  0.00    -0.436 F  
HETATM   27  F   UNL     1     -12.328  13.004  62.570  1.00  0.00    -0.051 F  
ENDBRANCH  21  24
ENDBRANCH  12  14
ENDBRANCH  11  12
ENDBRANCH   6  11
ENDBRANCH   2   3
TORSDOF 6
ENDMDL
MODEL      157
REMARK 921   NORMALIZED FREE ENERGY PREDICTED BY IDOCK:   -4.62 KCAL/MOL
REMARK 922        TOTAL FREE ENERGY PREDICTED BY IDOCK:   -6.99 KCAL/MOL
REMARK 923 INTER-LIGAND FREE ENERGY PREDICTED BY IDOCK:   -6.48 KCAL/MOL
REMARK 924 INTRA-LIGAND FREE ENERGY PREDICTED BY IDOCK:   -0.51 KCAL/MOL
REMARK 927      BINDING AFFINITY PREDICTED BY RF-SCORE:    0.00 PKD
ROOT
HETATM    1  C   UNL     1      -6.948   5.656  71.500  1.00  0.00    -0.068 C  
HETATM    2  O   UNL     1      -8.098   5.968  72.285  1.00  0.00    -0.109 OA 
ENDROOT
BRANCH   2   3
HETATM    3  C   UNL     1      -9.091   6.641  71.618  1.00  0.00    -0.142 A  
HETATM    4  C   UNL     1      -9.171   8.038  71.437  1.00  0.00    -0.144 A  
HETATM    5  C   UNL     1     -11.138   6.415  70.433  1.00  0.00    -0.339 A  
HETATM    6  C   UNL     1     -10.198   8.536  70.626  1.00  0.00    -0.197 A  
HETATM    7  C   UNL     1     -10.105   5.828  71.131  1.00  0.00    -0.257 A  
HETATM    8  N   UNL     1     -11.201   7.736  70.167  1.00  0.00    -0.210 NA 
BRANCH   4   9
HETATM    9  O   UNL     1      -8.181   8.811  71.993  1.00  0.00    -0.323 OA 
HETATM   10  C   UNL     1      -7.046   9.066  71.163  1.00  0.00    -0.098 C  
ENDBRANCH   4   9
BRANCH   6  11
HETATM   11  C   UNL     1     -10.249   9.958  70.128  1.00  0.00    -0.273 C  
BRANCH  11  12
HETATM   12  S   UNL     1     -11.890  10.375  69.475  1.00  0.00    -0.087 S  
HETATM   13  O   UNL     1     -12.852  10.669  70.588  1.00  0.00    -0.355 OA 
BRANCH  12  14
HETATM   14  C   UNL     1     -11.510  11.908  68.765  1.00  0.00    -0.290 A  
HETATM   15  N   UNL     1     -11.268  12.130  67.490  1.00  0.00    -0.277 NA 
HETATM   16  C   UNL     1     -11.151  13.499  67.385  1.00  0.00    -0.281 A  
HETATM   17  H   UNL     1     -11.186  11.439  66.744  1.00  0.00     0.000 HD 
HETATM   18  C   UNL     1     -11.293  14.111  68.625  1.00  0.00    -0.277 A  
HETATM   19  N   UNL     1     -11.501  13.070  69.490  1.00  0.00    -0.251 NA 
HETATM   20  C   UNL     1     -11.233  15.495  68.809  1.00  0.00    -0.316 A  
HETATM   21  C   UNL     1     -11.009  16.286  67.672  1.00  0.00    -0.245 A  
HETATM   22  C   UNL     1     -10.888  15.698  66.408  1.00  0.00    -0.252 A  
HETATM   23  C   UNL     1     -10.947  14.303  66.253  1.00  0.00    -0.317 A  
BRANCH  21  24
HETATM   24  O   UNL     1     -10.954  17.632  67.924  1.00  0.00    -0.316 OA 
HETATM   25  C   UNL     1      -9.761  18.095  68.535  1.00  0.00    -0.362 C  
HETATM   26  F   UNL     1      -8.829  18.307  67.575  1.00  0.00    -0.247 F  
HETATM   27  F   UNL     1     -10.035  19.305  69.087  1.00  0.00    -0.443 F  
ENDBRANCH  21  24
ENDBRANCH  12  14
ENDBRANCH  11  12
ENDBRANCH   6  11
ENDBRANCH   2   3
TORSDOF 6
ENDMDL
MODEL      158
REMARK 921   NORMALIZED FREE ENERGY PREDICTED BY IDOCK:   -4.62 KCAL/MOL
REMARK 922        TOTAL FREE ENERGY PREDICTED BY IDOCK:   -6.99 KCAL/MOL
REMARK 923 INTER-LIGAND FREE ENERGY PREDICTED BY IDOCK:   -6.15 KCAL/MOL
REMARK 924 INTRA-LIGAND FREE ENERGY PREDICTED BY IDOCK:   -0.84 KCAL/MOL
REMARK 927      BINDING AFFINITY PREDICTED BY RF-SCORE:    0.00 PKD
ROOT
HETATM    1  C   UNL     1      -6.001   7.973  68.958  1.00  0.00    -0.038 C  
HETATM    2  O   UNL     1      -7.247   8.501  69.409  1.00  0.00    -0.059 OA 
ENDROOT
BRANCH   2   3
HETATM    3  C   UNL     1      -8.159   8.764  68.416  1.00  0.00    -0.117 A  
HETATM    4  C   UNL     1      -8.593  10.041  68.003  1.00  0.00    -0.121 A  
HETATM    5  C   UNL     1      -9.616   7.798  66.807  1.00  0.00    -0.212 A  
HETATM    6  C   UNL     1      -9.442  10.118  66.893  1.00  0.00    -0.169 A  
HETATM    7  C   UNL     1      -8.702   7.631  67.825  1.00  0.00    -0.127 A  
HETATM    8  N   UNL     1      -9.987   9.004  66.329  1.00  0.00    -0.295 NA 
BRANCH   4   9
HETATM    9  O   UNL     1      -8.079  11.132  68.660  1.00  0.00    -0.137 OA 
HETATM   10  C   UNL     1      -6.839  11.637  68.162  1.00  0.00    -0.068 C  
ENDBRANCH   4   9
BRANCH   6  11
HETATM   11  C   UNL     1      -9.765  11.406  66.180  1.00  0.00    -0.219 C  
BRANCH  11  12
HETATM   12  S   UNL     1     -11.405  12.030  66.645  1.00  0.00    -0.333 S  
HETATM   13  O   UNL     1     -11.820  11.500  67.987  1.00  0.00    -0.545 OA 
BRANCH  12  14
HETATM   14  C   UNL     1     -10.992  13.691  66.905  1.00  0.00    -0.289 A  
HETATM   15  N   UNL     1     -11.453  14.458  67.871  1.00  0.00    -0.304 NA 
HETATM   16  C   UNL     1     -10.749  15.638  67.752  1.00  0.00    -0.297 A  
HETATM   17  H   UNL     1     -12.172  14.230  68.557  1.00  0.00     0.000 HD 
HETATM   18  C   UNL     1      -9.872  15.591  66.674  1.00  0.00    -0.254 A  
HETATM   19  N   UNL     1     -10.063  14.345  66.141  1.00  0.00    -0.296 NA 
HETATM   20  C   UNL     1      -9.023  16.647  66.330  1.00  0.00    -0.340 A  
HETATM   21  C   UNL     1      -9.083  17.806  67.121  1.00  0.00    -0.246 A  
HETATM   22  C   UNL     1      -9.939  17.869  68.225  1.00  0.00    -0.360 A  
HETATM   23  C   UNL     1     -10.785  16.794  68.545  1.00  0.00    -0.358 A  
BRANCH  21  24
HETATM   24  O   UNL     1      -8.232  18.802  66.724  1.00  0.00    -0.260 OA 
HETATM   25  C   UNL     1      -7.381  19.322  67.734  1.00  0.00    -0.254 C  
HETATM   26  F   UNL     1      -6.289  18.526  67.841  1.00  0.00    -0.186 F  
HETATM   27  F   UNL     1      -6.941  20.533  67.305  1.00  0.00    -0.265 F  
ENDBRANCH  21  24
ENDBRANCH  12  14
ENDBRANCH  11  12
ENDBRANCH   6  11
ENDBRANCH   2   3
TORSDOF 6
ENDMDL
MODEL      159
REMARK 921   NORMALIZED FREE ENERGY PREDICTED BY IDOCK:   -4.61 KCAL/MOL
REMARK 922        TOTAL FREE ENERGY PREDICTED BY IDOCK:   -6.98 KCAL/MOL
REMARK 923 INTER-LIGAND FREE ENERGY PREDICTED BY IDOCK:   -5.76 KCAL/MOL
REMARK 924 INTRA-LIGAND FREE ENERGY PREDICTED BY IDOCK:   -1.21 KCAL/MOL
REMARK 927      BINDING AFFINITY PREDICTED BY RF-SCORE:    0.00 PKD
ROOT
HETATM    1  C   UNL     1     -12.899  14.693  72.480  1.00  0.00    -0.388 C  
HETATM    2  O   UNL     1     -12.607  13.689  71.508  1.00  0.00    -0.342 OA 
ENDROOT
BRANCH   2   3
HETATM    3  C   UNL     1     -12.057  14.156  70.340  1.00  0.00    -0.346 A  
HETATM    4  C   UNL     1     -11.392  13.381  69.367  1.00  0.00    -0.226 A  
HETATM    5  C   UNL     1     -11.646  16.087  69.018  1.00  0.00    -0.349 A  
HETATM    6  C   UNL     1     -10.999  14.013  68.181  1.00  0.00    -0.252 A  
HETATM    7  C   UNL     1     -12.158  15.530  70.170  1.00  0.00    -0.404 A  
HETATM    8  N   UNL     1     -11.082  15.365  68.028  1.00  0.00    -0.301 NA 
BRANCH   4   9
HETATM    9  O   UNL     1     -11.257  12.035  69.607  1.00  0.00    -0.202 OA 
HETATM   10  C   UNL     1     -12.378  11.221  69.256  1.00  0.00    -0.104 C  
ENDBRANCH   4   9
BRANCH   6  11
HETATM   11  C   UNL     1     -10.530  13.268  66.957  1.00  0.00    -0.249 C  
BRANCH  11  12
HETATM   12  S   UNL     1      -8.788  12.779  67.104  1.00  0.00    -0.202 S  
HETATM   13  O   UNL     1      -8.157  13.399  68.317  1.00  0.00    -0.141 OA 
BRANCH  12  14
HETATM   14  C   UNL     1      -9.015  11.108  67.495  1.00  0.00    -0.139 A  
HETATM   15  N   UNL     1      -8.801  10.555  68.671  1.00  0.00    -0.139 NA 
HETATM   16  C   UNL     1      -9.240   9.256  68.536  1.00  0.00    -0.135 A  
HETATM   17  H   UNL     1      -8.400  10.993  69.500  1.00  0.00     0.000 HD 
HETATM   18  C   UNL     1      -9.696   9.013  67.245  1.00  0.00    -0.179 A  
HETATM   19  N   UNL     1      -9.522  10.207  66.598  1.00  0.00    -0.165 NA 
HETATM   20  C   UNL     1     -10.212   7.780  66.833  1.00  0.00    -0.373 A  
HETATM   21  C   UNL     1     -10.253   6.749  67.784  1.00  0.00    -0.171 A  
HETATM   22  C   UNL     1      -9.824   6.974  69.096  1.00  0.00    -0.158 A  
HETATM   23  C   UNL     1      -9.305   8.222  69.482  1.00  0.00    -0.158 A  
BRANCH  21  24
HETATM   24  O   UNL     1     -10.763   5.568  67.313  1.00  0.00    -0.241 OA 
HETATM   25  C   UNL     1      -9.827   4.698  66.697  1.00  0.00    -0.221 C  
HETATM   26  F   UNL     1      -9.209   3.968  67.657  1.00  0.00    -0.131 F  
HETATM   27  F   UNL     1     -10.533   3.822  65.936  1.00  0.00    -0.046 F  
ENDBRANCH  21  24
ENDBRANCH  12  14
ENDBRANCH  11  12
ENDBRANCH   6  11
ENDBRANCH   2   3
TORSDOF 6
ENDMDL
MODEL      160
REMARK 921   NORMALIZED FREE ENERGY PREDICTED BY IDOCK:   -4.59 KCAL/MOL
REMARK 922        TOTAL FREE ENERGY PREDICTED BY IDOCK:   -6.95 KCAL/MOL
REMARK 923 INTER-LIGAND FREE ENERGY PREDICTED BY IDOCK:   -5.98 KCAL/MOL
REMARK 924 INTRA-LIGAND FREE ENERGY PREDICTED BY IDOCK:   -0.97 KCAL/MOL
REMARK 927      BINDING AFFINITY PREDICTED BY RF-SCORE:    0.00 PKD
ROOT
HETATM    1  C   UNL     1     -10.981   6.172  67.799  1.00  0.00    -0.303 C  
HETATM    2  O   UNL     1     -10.884   7.230  66.847  1.00  0.00    -0.355 OA 
ENDROOT
BRANCH   2   3
HETATM    3  C   UNL     1      -9.606   7.654  66.578  1.00  0.00    -0.186 A  
HETATM    4  C   UNL     1      -9.239   8.919  66.073  1.00  0.00    -0.228 A  
HETATM    5  C   UNL     1      -7.311   7.037  66.578  1.00  0.00    -0.083 A  
HETATM    6  C   UNL     1      -7.874   9.214  65.973  1.00  0.00    -0.102 A  
HETATM    7  C   UNL     1      -8.627   6.696  66.806  1.00  0.00    -0.118 A  
HETATM    8  N   UNL     1      -6.918   8.264  66.178  1.00  0.00    -0.061 NA 
BRANCH   4   9
HETATM    9  O   UNL     1     -10.245   9.813  65.800  1.00  0.00    -0.264 OA 
HETATM   10  C   UNL     1     -10.284  10.323  64.465  1.00  0.00    -0.091 C  
ENDBRANCH   4   9
BRANCH   6  11
HETATM   11  C   UNL     1      -7.339  10.599  65.711  1.00  0.00    -0.110 C  
BRANCH  11  12
HETATM   12  S   UNL     1      -6.726  11.373  67.234  1.00  0.00    -0.122 S  
HETATM   13  O   UNL     1      -6.495  12.843  67.033  1.00  0.00    -0.178 OA 
BRANCH  12  14
HETATM   14  C   UNL     1      -8.165  11.251  68.190  1.00  0.00    -0.140 A  
HETATM   15  N   UNL     1      -9.254  11.976  68.042  1.00  0.00    -0.186 NA 
HETATM   16  C   UNL     1     -10.161  11.436  68.928  1.00  0.00    -0.168 A  
HETATM   17  H   UNL     1      -9.395  12.763  67.409  1.00  0.00     0.000 HD 
HETATM   18  C   UNL     1      -9.598  10.388  69.646  1.00  0.00    -0.109 A  
HETATM   19  N   UNL     1      -8.317  10.305  69.169  1.00  0.00    -0.143 NA 
HETATM   20  C   UNL     1     -10.299   9.650  70.604  1.00  0.00    -0.365 A  
HETATM   21  C   UNL     1     -11.635  10.009  70.843  1.00  0.00    -0.378 A  
HETATM   22  C   UNL     1     -12.234  11.044  70.116  1.00  0.00    -0.424 A  
HETATM   23  C   UNL     1     -11.503  11.772  69.162  1.00  0.00    -0.358 A  
BRANCH  21  24
HETATM   24  O   UNL     1     -12.260   9.251  71.797  1.00  0.00    -0.341 OA 
HETATM   25  C   UNL     1     -13.657   9.456  71.926  1.00  0.00    -0.410 C  
HETATM   26  F   UNL     1     -14.300   8.699  71.003  1.00  0.00    -0.379 F  
HETATM   27  F   UNL     1     -14.023   8.980  73.144  1.00  0.00    -0.377 F  
ENDBRANCH  21  24
ENDBRANCH  12  14
ENDBRANCH  11  12
ENDBRANCH   6  11
ENDBRANCH   2   3
TORSDOF 6
ENDMDL
MODEL      161
REMARK 921   NORMALIZED FREE ENERGY PREDICTED BY IDOCK:   -4.58 KCAL/MOL
REMARK 922        TOTAL FREE ENERGY PREDICTED BY IDOCK:   -6.94 KCAL/MOL
REMARK 923 INTER-LIGAND FREE ENERGY PREDICTED BY IDOCK:   -6.18 KCAL/MOL
REMARK 924 INTRA-LIGAND FREE ENERGY PREDICTED BY IDOCK:   -0.76 KCAL/MOL
REMARK 927      BINDING AFFINITY PREDICTED BY RF-SCORE:    0.00 PKD
ROOT
HETATM    1  C   UNL     1     -10.451  16.502  65.711  1.00  0.00    -0.329 C  
HETATM    2  O   UNL     1     -10.302  15.159  65.252  1.00  0.00    -0.360 OA 
ENDROOT
BRANCH   2   3
HETATM    3  C   UNL     1     -10.083  14.230  66.239  1.00  0.00    -0.298 A  
HETATM    4  C   UNL     1     -10.945  13.169  66.588  1.00  0.00    -0.283 A  
HETATM    5  C   UNL     1      -8.597  13.528  67.956  1.00  0.00    -0.177 A  
HETATM    6  C   UNL     1     -10.499  12.250  67.544  1.00  0.00    -0.213 A  
HETATM    7  C   UNL     1      -8.908  14.422  66.954  1.00  0.00    -0.246 A  
HETATM    8  N   UNL     1      -9.355  12.453  68.257  1.00  0.00    -0.211 NA 
BRANCH   4   9
HETATM    9  O   UNL     1     -12.127  13.056  65.898  1.00  0.00    -0.412 OA 
HETATM   10  C   UNL     1     -12.069  12.326  64.671  1.00  0.00    -0.374 C  
ENDBRANCH   4   9
BRANCH   6  11
HETATM   11  C   UNL     1     -11.184  10.934  67.816  1.00  0.00    -0.317 C  
BRANCH  11  12
HETATM   12  S   UNL     1     -10.475   9.596  66.816  1.00  0.00    -0.146 S  
HETATM   13  O   UNL     1      -9.175  10.020  66.196  1.00  0.00    -0.154 OA 
BRANCH  12  14
HETATM   14  C   UNL     1     -10.051   8.507  68.094  1.00  0.00    -0.200 A  
HETATM   15  N   UNL     1      -9.045   8.655  68.931  1.00  0.00    -0.145 NA 
HETATM   16  C   UNL     1      -9.187   7.626  69.838  1.00  0.00    -0.147 A  
HETATM   17  H   UNL     1      -8.321   9.372  68.913  1.00  0.00     0.000 HD 
HETATM   18  C   UNL     1     -10.279   6.826  69.522  1.00  0.00    -0.184 A  
HETATM   19  N   UNL     1     -10.799   7.400  68.393  1.00  0.00    -0.082 NA 
HETATM   20  C   UNL     1     -10.664   5.718  70.282  1.00  0.00    -0.380 A  
HETATM   21  C   UNL     1      -9.889   5.412  71.412  1.00  0.00    -0.167 A  
HETATM   22  C   UNL     1      -8.800   6.215  71.767  1.00  0.00    -0.138 A  
HETATM   23  C   UNL     1      -8.432   7.320  70.981  1.00  0.00    -0.127 A  
BRANCH  21  24
HETATM   24  O   UNL     1     -10.316   4.312  72.107  1.00  0.00    -0.181 OA 
HETATM   25  C   UNL     1     -10.966   4.578  73.340  1.00  0.00    -0.301 C  
HETATM   26  F   UNL     1     -12.273   4.848  73.098  1.00  0.00    -0.365 F  
HETATM   27  F   UNL     1     -10.933   3.432  74.068  1.00  0.00    -0.249 F  
ENDBRANCH  21  24
ENDBRANCH  12  14
ENDBRANCH  11  12
ENDBRANCH   6  11
ENDBRANCH   2   3
TORSDOF 6
ENDMDL
MODEL      162
REMARK 921   NORMALIZED FREE ENERGY PREDICTED BY IDOCK:   -4.58 KCAL/MOL
REMARK 922        TOTAL FREE ENERGY PREDICTED BY IDOCK:   -6.93 KCAL/MOL
REMARK 923 INTER-LIGAND FREE ENERGY PREDICTED BY IDOCK:   -6.20 KCAL/MOL
REMARK 924 INTRA-LIGAND FREE ENERGY PREDICTED BY IDOCK:   -0.73 KCAL/MOL
REMARK 927      BINDING AFFINITY PREDICTED BY RF-SCORE:    0.00 PKD
ROOT
HETATM    1  C   UNL     1     -13.338  15.416  71.567  1.00  0.00    -0.500 C  
HETATM    2  O   UNL     1     -12.180  14.805  71.001  1.00  0.00    -0.288 OA 
ENDROOT
BRANCH   2   3
HETATM    3  C   UNL     1     -12.297  13.459  70.754  1.00  0.00    -0.354 A  
HETATM    4  C   UNL     1     -11.829  12.780  69.610  1.00  0.00    -0.317 A  
HETATM    5  C   UNL     1     -13.134  11.394  71.581  1.00  0.00    -0.393 A  
HETATM    6  C   UNL     1     -11.934  11.385  69.586  1.00  0.00    -0.348 A  
HETATM    7  C   UNL     1     -12.981  12.756  71.736  1.00  0.00    -0.416 A  
HETATM    8  N   UNL     1     -12.624  10.701  70.542  1.00  0.00    -0.350 NA 
BRANCH   4   9
HETATM    9  O   UNL     1     -11.216  13.526  68.632  1.00  0.00    -0.249 OA 
HETATM   10  C   UNL     1     -12.032  13.886  67.516  1.00  0.00    -0.386 C  
ENDBRANCH   4   9
BRANCH   6  11
HETATM   11  C   UNL     1     -11.243  10.515  68.567  1.00  0.00    -0.274 C  
BRANCH  11  12
HETATM   12  S   UNL     1      -9.566  10.070  69.099  1.00  0.00    -0.221 S  
HETATM   13  O   UNL     1      -9.590   9.393  70.439  1.00  0.00    -0.230 OA 
BRANCH  12  14
HETATM   14  C   UNL     1      -9.246   8.818  67.947  1.00  0.00    -0.139 A  
HETATM   15  N   UNL     1      -8.110   8.629  67.309  1.00  0.00    -0.101 NA 
HETATM   16  C   UNL     1      -8.287   7.453  66.612  1.00  0.00    -0.124 A  
HETATM   17  H   UNL     1      -7.281   9.222  67.327  1.00  0.00     0.000 HD 
HETATM   18  C   UNL     1      -9.565   6.942  66.808  1.00  0.00    -0.168 A  
HETATM   19  N   UNL     1     -10.162   7.845  67.648  1.00  0.00    -0.208 NA 
HETATM   20  C   UNL     1     -10.012   5.750  66.231  1.00  0.00    -0.129 A  
HETATM   21  C   UNL     1      -9.111   5.056  65.409  1.00  0.00    -0.154 A  
HETATM   22  C   UNL     1      -7.811   5.535  65.215  1.00  0.00    -0.095 A  
HETATM   23  C   UNL     1      -7.390   6.739  65.804  1.00  0.00    -0.075 A  
BRANCH  21  24
HETATM   24  O   UNL     1      -9.614   3.902  64.870  1.00  0.00    -0.155 OA 
HETATM   25  C   UNL     1     -10.589   4.072  63.853  1.00  0.00    -0.144 C  
HETATM   26  F   UNL     1      -9.958   4.267  62.669  1.00  0.00    -0.155 F  
HETATM   27  F   UNL     1     -11.266   2.900  63.745  1.00  0.00    -0.230 F  
ENDBRANCH  21  24
ENDBRANCH  12  14
ENDBRANCH  11  12
ENDBRANCH   6  11
ENDBRANCH   2   3
TORSDOF 6
ENDMDL
MODEL      163
REMARK 921   NORMALIZED FREE ENERGY PREDICTED BY IDOCK:   -4.55 KCAL/MOL
REMARK 922        TOTAL FREE ENERGY PREDICTED BY IDOCK:   -6.90 KCAL/MOL
REMARK 923 INTER-LIGAND FREE ENERGY PREDICTED BY IDOCK:   -6.67 KCAL/MOL
REMARK 924 INTRA-LIGAND FREE ENERGY PREDICTED BY IDOCK:   -0.23 KCAL/MOL
REMARK 927      BINDING AFFINITY PREDICTED BY RF-SCORE:    0.00 PKD
ROOT
HETATM    1  C   UNL     1      -7.779  17.327  68.580  1.00  0.00    -0.261 C  
HETATM    2  O   UNL     1      -9.125  16.862  68.501  1.00  0.00    -0.241 OA 
ENDROOT
BRANCH   2   3
HETATM    3  C   UNL     1      -9.638  16.781  67.230  1.00  0.00    -0.234 A  
HETATM    4  C   UNL     1      -9.679  15.626  66.422  1.00  0.00    -0.279 A  
HETATM    5  C   UNL     1     -10.658  18.000  65.463  1.00  0.00     0.012 A  
HETATM    6  C   UNL     1     -10.349  15.708  65.195  1.00  0.00    -0.334 A  
HETATM    7  C   UNL     1     -10.110  17.987  66.728  1.00  0.00    -0.357 A  
HETATM    8  N   UNL     1     -10.792  16.896  64.698  1.00  0.00    -0.806 NA 
BRANCH   4   9
HETATM    9  O   UNL     1      -9.141  14.471  66.934  1.00  0.00    -0.232 OA 
HETATM   10  C   UNL     1      -9.754  13.967  68.123  1.00  0.00    -0.220 C  
ENDBRANCH   4   9
BRANCH   6  11
HETATM   11  C   UNL     1     -10.705  14.504  64.360  1.00  0.00     0.017 C  
BRANCH  11  12
HETATM   12  S   UNL     1     -11.645  13.284  65.319  1.00  0.00    -0.324 S  
HETATM   13  O   UNL     1     -13.022  13.098  64.749  1.00  0.00    -0.725 OA 
BRANCH  12  14
HETATM   14  C   UNL     1     -10.760  11.862  64.879  1.00  0.00    -0.301 A  
HETATM   15  N   UNL     1     -10.370  11.542  63.663  1.00  0.00    -0.374 NA 
HETATM   16  C   UNL     1      -9.598  10.412  63.825  1.00  0.00    -0.310 A  
HETATM   17  H   UNL     1     -10.591  12.025  62.792  1.00  0.00     0.000 HD 
HETATM   18  C   UNL     1      -9.549  10.026  65.159  1.00  0.00    -0.291 A  
HETATM   19  N   UNL     1     -10.316  10.958  65.806  1.00  0.00    -0.251 NA 
HETATM   20  C   UNL     1      -8.824   8.920  65.612  1.00  0.00    -0.230 A  
HETATM   21  C   UNL     1      -8.126   8.171  64.652  1.00  0.00    -0.148 A  
HETATM   22  C   UNL     1      -8.138   8.552  63.306  1.00  0.00    -0.162 A  
HETATM   23  C   UNL     1      -8.880   9.666  62.878  1.00  0.00    -0.252 A  
BRANCH  21  24
HETATM   24  O   UNL     1      -7.444   7.098  65.162  1.00  0.00    -0.083 OA 
HETATM   25  C   UNL     1      -8.113   5.849  65.081  1.00  0.00    -0.131 C  
HETATM   26  F   UNL     1      -7.899   5.315  63.854  1.00  0.00    -0.074 F  
HETATM   27  F   UNL     1      -7.522   5.018  65.977  1.00  0.00    -0.077 F  
ENDBRANCH  21  24
ENDBRANCH  12  14
ENDBRANCH  11  12
ENDBRANCH   6  11
ENDBRANCH   2   3
TORSDOF 6
ENDMDL
MODEL      164
REMARK 921   NORMALIZED FREE ENERGY PREDICTED BY IDOCK:   -4.55 KCAL/MOL
REMARK 922        TOTAL FREE ENERGY PREDICTED BY IDOCK:   -6.89 KCAL/MOL
REMARK 923 INTER-LIGAND FREE ENERGY PREDICTED BY IDOCK:   -6.10 KCAL/MOL
REMARK 924 INTRA-LIGAND FREE ENERGY PREDICTED BY IDOCK:   -0.80 KCAL/MOL
REMARK 927      BINDING AFFINITY PREDICTED BY RF-SCORE:    0.00 PKD
ROOT
HETATM    1  C   UNL     1     -10.504  17.368  67.675  1.00  0.00    -0.368 C  
HETATM    2  O   UNL     1      -9.497  16.716  66.902  1.00  0.00    -0.223 OA 
ENDROOT
BRANCH   2   3
HETATM    3  C   UNL     1      -9.851  15.485  66.407  1.00  0.00    -0.278 A  
HETATM    4  C   UNL     1      -9.389  14.237  66.876  1.00  0.00    -0.257 A  
HETATM    5  C   UNL     1     -11.136  14.343  64.767  1.00  0.00    -0.394 A  
HETATM    6  C   UNL     1      -9.953  13.080  66.324  1.00  0.00    -0.283 A  
HETATM    7  C   UNL     1     -10.714  15.533  65.321  1.00  0.00    -0.440 A  
HETATM    8  N   UNL     1     -10.784  13.132  65.245  1.00  0.00    -0.295 NA 
BRANCH   4   9
HETATM    9  O   UNL     1      -8.485  14.239  67.910  1.00  0.00    -0.149 OA 
HETATM   10  C   UNL     1      -7.115  14.062  67.543  1.00  0.00    -0.160 C  
ENDBRANCH   4   9
BRANCH   6  11
HETATM   11  C   UNL     1      -9.761  11.703  66.905  1.00  0.00    -0.195 C  
BRANCH  11  12
HETATM   12  S   UNL     1     -10.680  11.502  68.457  1.00  0.00    -0.221 S  
HETATM   13  O   UNL     1     -12.158  11.618  68.225  1.00  0.00    -0.552 OA 
BRANCH  12  14
HETATM   14  C   UNL     1     -10.378   9.818  68.727  1.00  0.00    -0.208 A  
HETATM   15  N   UNL     1     -11.169   8.987  69.373  1.00  0.00    -0.439 NA 
HETATM   16  C   UNL     1     -10.584   7.748  69.216  1.00  0.00    -0.192 A  
HETATM   17  H   UNL     1     -12.026   9.210  69.878  1.00  0.00     0.000 HD 
HETATM   18  C   UNL     1      -9.403   7.841  68.490  1.00  0.00    -0.147 A  
HETATM   19  N   UNL     1      -9.286   9.176  68.208  1.00  0.00    -0.132 NA 
HETATM   20  C   UNL     1      -8.610   6.735  68.170  1.00  0.00    -0.120 A  
HETATM   21  C   UNL     1      -9.044   5.479  68.623  1.00  0.00    -0.117 A  
HETATM   22  C   UNL     1     -10.242   5.355  69.334  1.00  0.00    -0.334 A  
HETATM   23  C   UNL     1     -11.017   6.485  69.646  1.00  0.00    -0.394 A  
BRANCH  21  24
HETATM   24  O   UNL     1      -8.219   4.441  68.281  1.00  0.00    -0.088 OA 
HETATM   25  C   UNL     1      -6.835   4.656  68.508  1.00  0.00    -0.051 C  
HETATM   26  F   UNL     1      -6.551   4.365  69.801  1.00  0.00    -0.029 F  
HETATM   27  F   UNL     1      -6.158   3.756  67.748  1.00  0.00    -0.027 F  
ENDBRANCH  21  24
ENDBRANCH  12  14
ENDBRANCH  11  12
ENDBRANCH   6  11
ENDBRANCH   2   3
TORSDOF 6
ENDMDL
MODEL      165
REMARK 921   NORMALIZED FREE ENERGY PREDICTED BY IDOCK:   -4.54 KCAL/MOL
REMARK 922        TOTAL FREE ENERGY PREDICTED BY IDOCK:   -6.88 KCAL/MOL
REMARK 923 INTER-LIGAND FREE ENERGY PREDICTED BY IDOCK:   -6.18 KCAL/MOL
REMARK 924 INTRA-LIGAND FREE ENERGY PREDICTED BY IDOCK:   -0.70 KCAL/MOL
REMARK 927      BINDING AFFINITY PREDICTED BY RF-SCORE:    0.00 PKD
ROOT
HETATM    1  C   UNL     1     -10.515   6.846  73.616  1.00  0.00    -0.369 C  
HETATM    2  O   UNL     1     -11.349   7.899  73.134  1.00  0.00    -0.361 OA 
ENDROOT
BRANCH   2   3
HETATM    3  C   UNL     1     -10.916   8.499  71.977  1.00  0.00    -0.340 A  
HETATM    4  C   UNL     1     -11.652   9.404  71.185  1.00  0.00    -0.345 A  
HETATM    5  C   UNL     1      -9.120   8.675  70.431  1.00  0.00    -0.159 A  
HETATM    6  C   UNL     1     -11.002  10.005  70.101  1.00  0.00    -0.310 A  
HETATM    7  C   UNL     1      -9.644   8.113  71.575  1.00  0.00    -0.226 A  
HETATM    8  N   UNL     1      -9.761   9.609  69.699  1.00  0.00    -0.199 NA 
BRANCH   4   9
HETATM    9  O   UNL     1     -12.931   9.707  71.584  1.00  0.00    -0.349 OA 
HETATM   10  C   UNL     1     -13.938   8.754  71.237  1.00  0.00    -0.166 C  
ENDBRANCH   4   9
BRANCH   6  11
HETATM   11  C   UNL     1     -11.565  11.178  69.339  1.00  0.00    -0.318 C  
BRANCH  11  12
HETATM   12  S   UNL     1     -10.912  11.246  67.647  1.00  0.00    -0.279 S  
HETATM   13  O   UNL     1     -12.027  11.287  66.642  1.00  0.00    -0.197 OA 
BRANCH  12  14
HETATM   14  C   UNL     1     -10.254  12.848  67.682  1.00  0.00    -0.220 A  
HETATM   15  N   UNL     1     -10.937  13.959  67.862  1.00  0.00    -0.245 NA 
HETATM   16  C   UNL     1      -9.984  14.950  67.945  1.00  0.00    -0.219 A  
HETATM   17  H   UNL     1     -11.949  14.062  67.927  1.00  0.00     0.000 HD 
HETATM   18  C   UNL     1      -8.705  14.431  67.779  1.00  0.00    -0.180 A  
HETATM   19  N   UNL     1      -8.909  13.090  67.593  1.00  0.00    -0.179 NA 
HETATM   20  C   UNL     1      -7.547  15.212  67.831  1.00  0.00    -0.151 A  
HETATM   21  C   UNL     1      -7.708  16.589  68.054  1.00  0.00    -0.159 A  
HETATM   22  C   UNL     1      -8.981  17.133  68.249  1.00  0.00    -0.248 A  
HETATM   23  C   UNL     1     -10.129  16.325  68.187  1.00  0.00    -0.244 A  
BRANCH  21  24
HETATM   24  O   UNL     1      -6.535  17.295  68.086  1.00  0.00    -0.156 OA 
HETATM   25  C   UNL     1      -6.053  17.628  69.378  1.00  0.00    -0.242 C  
HETATM   26  F   UNL     1      -5.353  16.576  69.870  1.00  0.00    -0.139 F  
HETATM   27  F   UNL     1      -5.170  18.648  69.228  1.00  0.00    -0.183 F  
ENDBRANCH  21  24
ENDBRANCH  12  14
ENDBRANCH  11  12
ENDBRANCH   6  11
ENDBRANCH   2   3
TORSDOF 6
ENDMDL
MODEL      166
REMARK 921   NORMALIZED FREE ENERGY PREDICTED BY IDOCK:   -4.52 KCAL/MOL
REMARK 922        TOTAL FREE ENERGY PREDICTED BY IDOCK:   -6.86 KCAL/MOL
REMARK 923 INTER-LIGAND FREE ENERGY PREDICTED BY IDOCK:   -6.49 KCAL/MOL
REMARK 924 INTRA-LIGAND FREE ENERGY PREDICTED BY IDOCK:   -0.37 KCAL/MOL
REMARK 927      BINDING AFFINITY PREDICTED BY RF-SCORE:    0.00 PKD
ROOT
HETATM    1  C   UNL     1      -6.262   7.571  63.103  1.00  0.00    -0.054 C  
HETATM    2  O   UNL     1      -5.598   7.752  64.353  1.00  0.00    -0.036 OA 
ENDROOT
BRANCH   2   3
HETATM    3  C   UNL     1      -6.057   8.805  65.107  1.00  0.00    -0.059 A  
HETATM    4  C   UNL     1      -7.255   8.835  65.850  1.00  0.00    -0.084 A  
HETATM    5  C   UNL     1      -5.620  11.034  65.804  1.00  0.00    -0.105 A  
HETATM    6  C   UNL     1      -7.500   9.955  66.654  1.00  0.00    -0.099 A  
HETATM    7  C   UNL     1      -5.247   9.932  65.065  1.00  0.00    -0.054 A  
HETATM    8  N   UNL     1      -6.713  11.066  66.595  1.00  0.00    -0.125 NA 
BRANCH   4   9
HETATM    9  O   UNL     1      -8.059   7.722  65.809  1.00  0.00    -0.110 OA 
HETATM   10  C   UNL     1      -7.734   6.681  66.733  1.00  0.00    -0.106 C  
ENDBRANCH   4   9
BRANCH   6  11
HETATM   11  C   UNL     1      -8.588  10.009  67.696  1.00  0.00    -0.118 C  
BRANCH  11  12
HETATM   12  S   UNL     1     -10.234  10.087  66.936  1.00  0.00    -0.238 S  
HETATM   13  O   UNL     1     -10.764   8.710  66.659  1.00  0.00    -0.180 OA 
BRANCH  12  14
HETATM   14  C   UNL     1     -11.128  10.668  68.300  1.00  0.00    -0.279 A  
HETATM   15  N   UNL     1     -11.710   9.921  69.215  1.00  0.00    -0.460 NA 
HETATM   16  C   UNL     1     -12.175  10.813  70.157  1.00  0.00    -0.346 A  
HETATM   17  H   UNL     1     -11.798   8.905  69.225  1.00  0.00     0.000 HD 
HETATM   18  C   UNL     1     -11.896  12.124  69.786  1.00  0.00    -0.327 A  
HETATM   19  N   UNL     1     -11.245  12.001  68.588  1.00  0.00    -0.236 NA 
HETATM   20  C   UNL     1     -12.242  13.232  70.565  1.00  0.00    -0.416 A  
HETATM   21  C   UNL     1     -12.912  12.985  71.773  1.00  0.00    -0.321 A  
HETATM   22  C   UNL     1     -13.184  11.676  72.182  1.00  0.00    -0.327 A  
HETATM   23  C   UNL     1     -12.829  10.580  71.376  1.00  0.00    -0.551 A  
BRANCH  21  24
HETATM   24  O   UNL     1     -13.228  14.114  72.482  1.00  0.00    -0.435 OA 
HETATM   25  C   UNL     1     -13.114  15.337  71.773  1.00  0.00    -0.403 C  
HETATM   26  F   UNL     1     -14.255  15.544  71.069  1.00  0.00    -0.532 F  
HETATM   27  F   UNL     1     -13.039  16.332  72.694  1.00  0.00    -0.487 F  
ENDBRANCH  21  24
ENDBRANCH  12  14
ENDBRANCH  11  12
ENDBRANCH   6  11
ENDBRANCH   2   3
TORSDOF 6
ENDMDL
MODEL      167
REMARK 921   NORMALIZED FREE ENERGY PREDICTED BY IDOCK:   -4.52 KCAL/MOL
REMARK 922        TOTAL FREE ENERGY PREDICTED BY IDOCK:   -6.85 KCAL/MOL
REMARK 923 INTER-LIGAND FREE ENERGY PREDICTED BY IDOCK:   -6.08 KCAL/MOL
REMARK 924 INTRA-LIGAND FREE ENERGY PREDICTED BY IDOCK:   -0.77 KCAL/MOL
REMARK 927      BINDING AFFINITY PREDICTED BY RF-SCORE:    0.00 PKD
ROOT
HETATM    1  C   UNL     1      -9.726   5.565  74.027  1.00  0.00    -0.165 C  
HETATM    2  O   UNL     1     -10.800   5.520  73.090  1.00  0.00    -0.244 OA 
ENDROOT
BRANCH   2   3
HETATM    3  C   UNL     1     -10.430   5.260  71.793  1.00  0.00    -0.214 A  
HETATM    4  C   UNL     1     -10.735   6.052  70.667  1.00  0.00    -0.276 A  
HETATM    5  C   UNL     1      -9.298   3.738  70.361  1.00  0.00    -0.165 A  
HETATM    6  C   UNL     1     -10.170   5.690  69.439  1.00  0.00    -0.245 A  
HETATM    7  C   UNL     1      -9.725   4.075  71.628  1.00  0.00    -0.242 A  
HETATM    8  N   UNL     1      -9.497   4.516  69.277  1.00  0.00    -0.157 NA 
BRANCH   4   9
HETATM    9  O   UNL     1     -11.490   7.181  70.868  1.00  0.00    -0.273 OA 
HETATM   10  C   UNL     1     -10.803   8.303  71.427  1.00  0.00    -0.239 C  
ENDBRANCH   4   9
BRANCH   6  11
HETATM   11  C   UNL     1     -10.184   6.580  68.221  1.00  0.00    -0.172 C  
BRANCH  11  12
HETATM   12  S   UNL     1      -8.639   7.518  68.065  1.00  0.00    -0.122 S  
HETATM   13  O   UNL     1      -7.863   7.078  66.858  1.00  0.00    -0.103 OA 
BRANCH  12  14
HETATM   14  C   UNL     1      -9.307   9.062  67.657  1.00  0.00    -0.136 A  
HETATM   15  N   UNL     1      -9.568   9.492  66.440  1.00  0.00    -0.195 NA 
HETATM   16  C   UNL     1     -10.203  10.702  66.621  1.00  0.00    -0.231 A  
HETATM   17  H   UNL     1      -9.349   9.030  65.557  1.00  0.00     0.000 HD 
HETATM   18  C   UNL     1     -10.296  11.022  67.971  1.00  0.00    -0.185 A  
HETATM   19  N   UNL     1      -9.698   9.967  68.607  1.00  0.00    -0.153 NA 
HETATM   20  C   UNL     1     -10.907  12.187  68.443  1.00  0.00    -0.255 A  
HETATM   21  C   UNL     1     -11.437  13.068  67.487  1.00  0.00    -0.328 A  
HETATM   22  C   UNL     1     -11.379  12.759  66.124  1.00  0.00    -0.371 A  
HETATM   23  C   UNL     1     -10.754  11.582  65.678  1.00  0.00    -0.323 A  
BRANCH  21  24
HETATM   24  O   UNL     1     -12.014  14.192  68.017  1.00  0.00    -0.355 OA 
HETATM   25  C   UNL     1     -11.188  15.345  68.060  1.00  0.00    -0.325 C  
HETATM   26  F   UNL     1     -11.240  15.968  66.858  1.00  0.00    -0.257 F  
HETATM   27  F   UNL     1     -11.734  16.197  68.965  1.00  0.00    -0.347 F  
ENDBRANCH  21  24
ENDBRANCH  12  14
ENDBRANCH  11  12
ENDBRANCH   6  11
ENDBRANCH   2   3
TORSDOF 6
ENDMDL
MODEL      168
REMARK 921   NORMALIZED FREE ENERGY PREDICTED BY IDOCK:   -4.51 KCAL/MOL
REMARK 922        TOTAL FREE ENERGY PREDICTED BY IDOCK:   -6.84 KCAL/MOL
REMARK 923 INTER-LIGAND FREE ENERGY PREDICTED BY IDOCK:   -6.59 KCAL/MOL
REMARK 924 INTRA-LIGAND FREE ENERGY PREDICTED BY IDOCK:   -0.25 KCAL/MOL
REMARK 927      BINDING AFFINITY PREDICTED BY RF-SCORE:    0.00 PKD
ROOT
HETATM    1  C   UNL     1     -14.006  15.560  72.641  1.00  0.00    -0.528 C  
HETATM    2  O   UNL     1     -13.134  14.431  72.619  1.00  0.00    -0.415 OA 
ENDROOT
BRANCH   2   3
HETATM    3  C   UNL     1     -12.353  14.323  71.495  1.00  0.00    -0.339 A  
HETATM    4  C   UNL     1     -12.327  13.231  70.602  1.00  0.00    -0.339 A  
HETATM    5  C   UNL     1     -10.687  15.384  70.173  1.00  0.00    -0.308 A  
HETATM    6  C   UNL     1     -11.551  13.349  69.443  1.00  0.00    -0.307 A  
HETATM    7  C   UNL     1     -11.500  15.398  71.287  1.00  0.00    -0.444 A  
HETATM    8  N   UNL     1     -10.701  14.397  69.253  1.00  0.00    -0.235 NA 
BRANCH   4   9
HETATM    9  O   UNL     1     -13.139  12.159  70.883  1.00  0.00    -0.061 OA 
HETATM   10  C   UNL     1     -12.536  11.092  71.618  1.00  0.00    -0.297 C  
ENDBRANCH   4   9
BRANCH   6  11
HETATM   11  C   UNL     1     -11.637  12.390  68.283  1.00  0.00    -0.333 C  
BRANCH  11  12
HETATM   12  S   UNL     1     -10.050  11.563  67.985  1.00  0.00    -0.192 S  
HETATM   13  O   UNL     1      -8.910  12.374  68.531  1.00  0.00    -0.151 OA 
BRANCH  12  14
HETATM   14  C   UNL     1     -10.239  10.229  69.074  1.00  0.00    -0.210 A  
HETATM   15  N   UNL     1     -11.125   9.261  68.961  1.00  0.00    -0.445 NA 
HETATM   16  C   UNL     1     -10.809   8.375  69.968  1.00  0.00    -0.225 A  
HETATM   17  H   UNL     1     -11.878   9.185  68.278  1.00  0.00     0.000 HD 
HETATM   18  C   UNL     1      -9.734   8.834  70.721  1.00  0.00    -0.208 A  
HETATM   19  N   UNL     1      -9.404  10.029  70.140  1.00  0.00    -0.136 NA 
HETATM   20  C   UNL     1      -9.194   8.125  71.799  1.00  0.00    -0.232 A  
HETATM   21  C   UNL     1      -9.789   6.896  72.124  1.00  0.00    -0.147 A  
HETATM   22  C   UNL     1     -10.856   6.400  71.367  1.00  0.00    -0.301 A  
HETATM   23  C   UNL     1     -11.382   7.136  70.292  1.00  0.00    -0.305 A  
BRANCH  21  24
HETATM   24  O   UNL     1      -9.216   6.259  73.192  1.00  0.00    -0.130 OA 
HETATM   25  C   UNL     1      -7.815   6.430  73.331  1.00  0.00    -0.096 C  
HETATM   26  F   UNL     1      -7.577   7.593  73.986  1.00  0.00    -0.121 F  
HETATM   27  F   UNL     1      -7.365   5.432  74.134  1.00  0.00    -0.085 F  
ENDBRANCH  21  24
ENDBRANCH  12  14
ENDBRANCH  11  12
ENDBRANCH   6  11
ENDBRANCH   2   3
TORSDOF 6
ENDMDL
MODEL      169
REMARK 921   NORMALIZED FREE ENERGY PREDICTED BY IDOCK:   -4.46 KCAL/MOL
REMARK 922        TOTAL FREE ENERGY PREDICTED BY IDOCK:   -6.78 KCAL/MOL
REMARK 923 INTER-LIGAND FREE ENERGY PREDICTED BY IDOCK:   -5.97 KCAL/MOL
REMARK 924 INTRA-LIGAND FREE ENERGY PREDICTED BY IDOCK:   -0.81 KCAL/MOL
REMARK 927      BINDING AFFINITY PREDICTED BY RF-SCORE:    0.00 PKD
ROOT
HETATM    1  C   UNL     1     -10.747   6.380  67.279  1.00  0.00    -0.353 C  
HETATM    2  O   UNL     1     -10.628   7.665  67.886  1.00  0.00    -0.212 OA 
ENDROOT
BRANCH   2   3
HETATM    3  C   UNL     1      -9.342   8.060  68.162  1.00  0.00    -0.139 A  
HETATM    4  C   UNL     1      -8.961   9.237  68.838  1.00  0.00    -0.136 A  
HETATM    5  C   UNL     1      -7.043   7.510  67.915  1.00  0.00    -0.085 A  
HETATM    6  C   UNL     1      -7.604   9.414  69.132  1.00  0.00    -0.074 A  
HETATM    7  C   UNL     1      -8.365   7.203  67.673  1.00  0.00    -0.117 A  
HETATM    8  N   UNL     1      -6.647   8.582  68.633  1.00  0.00    -0.054 NA 
BRANCH   4   9
HETATM    9  O   UNL     1      -9.958  10.089  69.246  1.00  0.00    -0.189 OA 
HETATM   10  C   UNL     1     -10.534   9.811  70.524  1.00  0.00    -0.301 C  
ENDBRANCH   4   9
BRANCH   6  11
HETATM   11  C   UNL     1      -7.087  10.474  70.072  1.00  0.00    -0.127 C  
BRANCH  11  12
HETATM   12  S   UNL     1      -6.246  11.807  69.174  1.00  0.00    -0.092 S  
HETATM   13  O   UNL     1      -5.464  11.263  68.013  1.00  0.00    -0.043 OA 
BRANCH  12  14
HETATM   14  C   UNL     1      -7.634  12.579  68.484  1.00  0.00    -0.119 A  
HETATM   15  N   UNL     1      -8.305  13.578  69.018  1.00  0.00    -0.334 NA 
HETATM   16  C   UNL     1      -9.229  13.935  68.059  1.00  0.00    -0.193 A  
HETATM   17  H   UNL     1      -8.171  13.996  69.938  1.00  0.00     0.000 HD 
HETATM   18  C   UNL     1      -9.133  13.114  66.941  1.00  0.00    -0.229 A  
HETATM   19  N   UNL     1      -8.121  12.245  67.249  1.00  0.00    -0.175 NA 
HETATM   20  C   UNL     1      -9.941  13.261  65.809  1.00  0.00    -0.261 A  
HETATM   21  C   UNL     1     -10.895  14.291  65.829  1.00  0.00    -0.303 A  
HETATM   22  C   UNL     1     -10.995  15.146  66.931  1.00  0.00    -0.323 A  
HETATM   23  C   UNL     1     -10.174  14.972  68.057  1.00  0.00    -0.228 A  
BRANCH  21  24
HETATM   24  O   UNL     1     -11.656  14.374  64.693  1.00  0.00    -0.384 OA 
HETATM   25  C   UNL     1     -11.937  13.142  64.049  1.00  0.00    -0.460 C  
HETATM   26  F   UNL     1     -13.012  12.570  64.645  1.00  0.00    -0.535 F  
HETATM   27  F   UNL     1     -12.305  13.429  62.774  1.00  0.00    -0.498 F  
ENDBRANCH  21  24
ENDBRANCH  12  14
ENDBRANCH  11  12
ENDBRANCH   6  11
ENDBRANCH   2   3
TORSDOF 6
ENDMDL
MODEL      170
REMARK 921   NORMALIZED FREE ENERGY PREDICTED BY IDOCK:   -4.46 KCAL/MOL
REMARK 922        TOTAL FREE ENERGY PREDICTED BY IDOCK:   -6.78 KCAL/MOL
REMARK 923 INTER-LIGAND FREE ENERGY PREDICTED BY IDOCK:   -6.06 KCAL/MOL
REMARK 924 INTRA-LIGAND FREE ENERGY PREDICTED BY IDOCK:   -0.71 KCAL/MOL
REMARK 927      BINDING AFFINITY PREDICTED BY RF-SCORE:    0.00 PKD
ROOT
HETATM    1  C   UNL     1      -9.902   3.899  73.895  1.00  0.00    -0.111 C  
HETATM    2  O   UNL     1     -10.904   4.589  73.150  1.00  0.00    -0.215 OA 
ENDROOT
BRANCH   2   3
HETATM    3  C   UNL     1     -10.439   5.609  72.356  1.00  0.00    -0.211 A  
HETATM    4  C   UNL     1      -9.748   5.462  71.135  1.00  0.00    -0.174 A  
HETATM    5  C   UNL     1     -10.240   7.966  72.134  1.00  0.00    -0.227 A  
HETATM    6  C   UNL     1      -9.455   6.620  70.405  1.00  0.00    -0.166 A  
HETATM    7  C   UNL     1     -10.660   6.879  72.870  1.00  0.00    -0.290 A  
HETATM    8  N   UNL     1      -9.656   7.864  70.923  1.00  0.00    -0.161 NA 
BRANCH   4   9
HETATM    9  O   UNL     1      -9.492   4.186  70.696  1.00  0.00    -0.140 OA 
HETATM   10  C   UNL     1      -8.151   3.723  70.865  1.00  0.00    -0.066 C  
ENDBRANCH   4   9
BRANCH   6  11
HETATM   11  C   UNL     1      -8.971   6.603  68.977  1.00  0.00    -0.130 C  
BRANCH  11  12
HETATM   12  S   UNL     1     -10.353   6.467  67.809  1.00  0.00    -0.224 S  
HETATM   13  O   UNL     1     -11.661   6.345  68.535  1.00  0.00    -0.100 OA 
BRANCH  12  14
HETATM   14  C   UNL     1     -10.319   8.076  67.171  1.00  0.00    -0.325 A  
HETATM   15  N   UNL     1      -9.878   8.425  65.980  1.00  0.00    -0.474 NA 
HETATM   16  C   UNL     1     -10.171   9.768  65.874  1.00  0.00    -0.174 A  
HETATM   17  H   UNL     1      -9.420   7.832  65.289  1.00  0.00     0.000 HD 
HETATM   18  C   UNL     1     -10.771  10.243  67.034  1.00  0.00    -0.216 A  
HETATM   19  N   UNL     1     -10.835   9.146  67.852  1.00  0.00    -0.150 NA 
HETATM   20  C   UNL     1     -11.188  11.568  67.196  1.00  0.00    -0.365 A  
HETATM   21  C   UNL     1     -10.971  12.446  66.123  1.00  0.00    -0.286 A  
HETATM   22  C   UNL     1     -10.392  11.988  64.935  1.00  0.00    -0.316 A  
HETATM   23  C   UNL     1      -9.978  10.652  64.802  1.00  0.00    -0.391 A  
BRANCH  21  24
HETATM   24  O   UNL     1     -11.396  13.728  66.350  1.00  0.00    -0.305 OA 
HETATM   25  C   UNL     1     -11.318  14.172  67.695  1.00  0.00    -0.319 C  
HETATM   26  F   UNL     1     -10.061  14.618  67.938  1.00  0.00    -0.218 F  
HETATM   27  F   UNL     1     -12.142  15.244  67.813  1.00  0.00    -0.306 F  
ENDBRANCH  21  24
ENDBRANCH  12  14
ENDBRANCH  11  12
ENDBRANCH   6  11
ENDBRANCH   2   3
TORSDOF 6
ENDMDL
MODEL      171
REMARK 921   NORMALIZED FREE ENERGY PREDICTED BY IDOCK:   -4.46 KCAL/MOL
REMARK 922        TOTAL FREE ENERGY PREDICTED BY IDOCK:   -6.77 KCAL/MOL
REMARK 923 INTER-LIGAND FREE ENERGY PREDICTED BY IDOCK:   -5.97 KCAL/MOL
REMARK 924 INTRA-LIGAND FREE ENERGY PREDICTED BY IDOCK:   -0.80 KCAL/MOL
REMARK 927      BINDING AFFINITY PREDICTED BY RF-SCORE:    0.00 PKD
ROOT
HETATM    1  C   UNL     1     -13.944   7.520  71.582  1.00  0.00    -0.412 C  
HETATM    2  O   UNL     1     -12.788   6.684  71.593  1.00  0.00    -0.323 OA 
ENDROOT
BRANCH   2   3
HETATM    3  C   UNL     1     -11.627   7.293  71.184  1.00  0.00    -0.293 A  
HETATM    4  C   UNL     1     -10.724   6.798  70.219  1.00  0.00    -0.244 A  
HETATM    5  C   UNL     1     -10.205   9.173  71.486  1.00  0.00    -0.333 A  
HETATM    6  C   UNL     1      -9.652   7.616  69.846  1.00  0.00    -0.160 A  
HETATM    7  C   UNL     1     -11.344   8.482  71.842  1.00  0.00    -0.399 A  
HETATM    8  N   UNL     1      -9.367   8.773  70.508  1.00  0.00    -0.174 NA 
BRANCH   4   9
HETATM    9  O   UNL     1     -11.010   5.586  69.642  1.00  0.00    -0.306 OA 
HETATM   10  C   UNL     1     -10.152   4.502  70.004  1.00  0.00    -0.134 C  
ENDBRANCH   4   9
BRANCH   6  11
HETATM   11  C   UNL     1      -8.774   7.342  68.651  1.00  0.00    -0.128 C  
BRANCH  11  12
HETATM   12  S   UNL     1      -9.451   8.090  67.142  1.00  0.00    -0.174 S  
HETATM   13  O   UNL     1     -10.918   7.796  67.010  1.00  0.00    -0.247 OA 
BRANCH  12  14
HETATM   14  C   UNL     1      -9.346   9.756  67.602  1.00  0.00    -0.140 A  
HETATM   15  N   UNL     1      -8.235  10.420  67.843  1.00  0.00    -0.106 NA 
HETATM   16  C   UNL     1      -8.638  11.724  68.038  1.00  0.00    -0.158 A  
HETATM   17  H   UNL     1      -7.285  10.051  67.878  1.00  0.00     0.000 HD 
HETATM   18  C   UNL     1     -10.020  11.840  67.944  1.00  0.00    -0.181 A  
HETATM   19  N   UNL     1     -10.447  10.565  67.685  1.00  0.00    -0.217 NA 
HETATM   20  C   UNL     1     -10.700  13.054  68.085  1.00  0.00    -0.258 A  
HETATM   21  C   UNL     1      -9.927  14.197  68.343  1.00  0.00    -0.235 A  
HETATM   22  C   UNL     1      -8.533  14.113  68.417  1.00  0.00    -0.170 A  
HETATM   23  C   UNL     1      -7.877  12.878  68.276  1.00  0.00    -0.142 A  
BRANCH  21  24
HETATM   24  O   UNL     1     -10.656  15.350  68.476  1.00  0.00    -0.231 OA 
HETATM   25  C   UNL     1      -9.903  16.528  68.717  1.00  0.00    -0.254 C  
HETATM   26  F   UNL     1      -9.468  17.022  67.532  1.00  0.00    -0.235 F  
HETATM   27  F   UNL     1     -10.754  17.450  69.235  1.00  0.00    -0.316 F  
ENDBRANCH  21  24
ENDBRANCH  12  14
ENDBRANCH  11  12
ENDBRANCH   6  11
ENDBRANCH   2   3
TORSDOF 6
ENDMDL
MODEL      172
REMARK 921   NORMALIZED FREE ENERGY PREDICTED BY IDOCK:   -4.45 KCAL/MOL
REMARK 922        TOTAL FREE ENERGY PREDICTED BY IDOCK:   -6.76 KCAL/MOL
REMARK 923 INTER-LIGAND FREE ENERGY PREDICTED BY IDOCK:   -6.11 KCAL/MOL
REMARK 924 INTRA-LIGAND FREE ENERGY PREDICTED BY IDOCK:   -0.65 KCAL/MOL
REMARK 927      BINDING AFFINITY PREDICTED BY RF-SCORE:    0.00 PKD
ROOT
HETATM    1  C   UNL     1     -11.822  15.838  64.217  1.00  0.00    -0.118 C  
HETATM    2  O   UNL     1     -12.573  14.688  64.605  1.00  0.00    -0.573 OA 
ENDROOT
BRANCH   2   3
HETATM    3  C   UNL     1     -11.886  13.500  64.547  1.00  0.00    -0.405 A  
HETATM    4  C   UNL     1     -11.040  12.979  65.547  1.00  0.00    -0.275 A  
HETATM    5  C   UNL     1     -11.405  11.595  63.210  1.00  0.00    -0.191 A  
HETATM    6  C   UNL     1     -10.517  11.694  65.360  1.00  0.00    -0.275 A  
HETATM    7  C   UNL     1     -12.046  12.807  63.354  1.00  0.00    -0.619 A  
HETATM    8  N   UNL     1     -10.659  11.027  64.180  1.00  0.00    -0.380 NA 
BRANCH   4   9
HETATM    9  O   UNL     1     -10.859  13.729  66.683  1.00  0.00    -0.285 OA 
HETATM   10  C   UNL     1     -11.864  13.594  67.690  1.00  0.00    -0.369 C  
ENDBRANCH   4   9
BRANCH   6  11
HETATM   11  C   UNL     1      -9.828  10.910  66.448  1.00  0.00    -0.207 C  
BRANCH  11  12
HETATM   12  S   UNL     1      -9.003   9.436  65.783  1.00  0.00    -0.201 S  
HETATM   13  O   UNL     1      -7.511   9.601  65.803  1.00  0.00    -0.095 OA 
BRANCH  12  14
HETATM   14  C   UNL     1      -9.369   8.328  67.063  1.00  0.00    -0.160 A  
HETATM   15  N   UNL     1     -10.066   7.218  66.946  1.00  0.00    -0.239 NA 
HETATM   16  C   UNL     1      -9.979   6.614  68.181  1.00  0.00    -0.147 A  
HETATM   17  H   UNL     1     -10.561   6.879  66.121  1.00  0.00     0.000 HD 
HETATM   18  C   UNL     1      -9.244   7.391  69.069  1.00  0.00    -0.146 A  
HETATM   19  N   UNL     1      -8.884   8.489  68.333  1.00  0.00    -0.139 NA 
HETATM   20  C   UNL     1      -8.986   7.012  70.389  1.00  0.00    -0.155 A  
HETATM   21  C   UNL     1      -9.513   5.785  70.822  1.00  0.00    -0.165 A  
HETATM   22  C   UNL     1     -10.236   4.972  69.942  1.00  0.00    -0.340 A  
HETATM   23  C   UNL     1     -10.484   5.381  68.621  1.00  0.00    -0.199 A  
BRANCH  21  24
HETATM   24  O   UNL     1      -9.229   5.479  72.126  1.00  0.00    -0.143 OA 
HETATM   25  C   UNL     1      -9.196   4.096  72.439  1.00  0.00    -0.116 C  
HETATM   26  F   UNL     1      -7.972   3.604  72.129  1.00  0.00    -0.065 F  
HETATM   27  F   UNL     1      -9.332   3.985  73.786  1.00  0.00    -0.100 F  
ENDBRANCH  21  24
ENDBRANCH  12  14
ENDBRANCH  11  12
ENDBRANCH   6  11
ENDBRANCH   2   3
TORSDOF 6
ENDMDL
MODEL      173
REMARK 921   NORMALIZED FREE ENERGY PREDICTED BY IDOCK:   -4.43 KCAL/MOL
REMARK 922        TOTAL FREE ENERGY PREDICTED BY IDOCK:   -6.73 KCAL/MOL
REMARK 923 INTER-LIGAND FREE ENERGY PREDICTED BY IDOCK:   -6.09 KCAL/MOL
REMARK 924 INTRA-LIGAND FREE ENERGY PREDICTED BY IDOCK:   -0.64 KCAL/MOL
REMARK 927      BINDING AFFINITY PREDICTED BY RF-SCORE:    0.00 PKD
ROOT
HETATM    1  C   UNL     1     -12.234  15.587  63.955  1.00  0.00     0.108 C  
HETATM    2  O   UNL     1     -11.073  15.514  64.782  1.00  0.00    -0.426 OA 
ENDROOT
BRANCH   2   3
HETATM    3  C   UNL     1     -10.958  14.362  65.520  1.00  0.00    -0.329 A  
HETATM    4  C   UNL     1      -9.994  14.108  66.518  1.00  0.00    -0.283 A  
HETATM    5  C   UNL     1     -11.845  12.188  65.884  1.00  0.00    -0.272 A  
HETATM    6  C   UNL     1     -10.105  12.919  67.249  1.00  0.00    -0.231 A  
HETATM    7  C   UNL     1     -11.875  13.375  65.185  1.00  0.00    -0.375 A  
HETATM    8  N   UNL     1     -10.994  11.944  66.903  1.00  0.00    -0.273 NA 
BRANCH   4   9
HETATM    9  O   UNL     1      -9.065  15.087  66.772  1.00  0.00    -0.229 OA 
HETATM   10  C   UNL     1      -9.474  16.121  67.669  1.00  0.00    -0.220 C  
ENDBRANCH   4   9
BRANCH   6  11
HETATM   11  C   UNL     1      -9.324  12.639  68.508  1.00  0.00    -0.080 C  
BRANCH  11  12
HETATM   12  S   UNL     1      -8.091  11.333  68.249  1.00  0.00    -0.144 S  
HETATM   13  O   UNL     1      -6.990  11.425  69.266  1.00  0.00    -0.111 OA 
BRANCH  12  14
HETATM   14  C   UNL     1      -9.049   9.969  68.716  1.00  0.00    -0.148 A  
HETATM   15  N   UNL     1      -9.202   8.860  68.023  1.00  0.00    -0.139 NA 
HETATM   16  C   UNL     1      -9.930   8.027  68.844  1.00  0.00    -0.195 A  
HETATM   17  H   UNL     1      -8.857   8.662  67.084  1.00  0.00     0.000 HD 
HETATM   18  C   UNL     1     -10.249   8.657  70.041  1.00  0.00    -0.194 A  
HETATM   19  N   UNL     1      -9.691   9.902  69.923  1.00  0.00    -0.236 NA 
HETATM   20  C   UNL     1     -10.971   8.038  71.066  1.00  0.00    -0.263 A  
HETATM   21  C   UNL     1     -11.392   6.717  70.849  1.00  0.00    -0.325 A  
HETATM   22  C   UNL     1     -11.063   6.051  69.664  1.00  0.00    -0.474 A  
HETATM   23  C   UNL     1     -10.340   6.699  68.648  1.00  0.00    -0.208 A  
BRANCH  21  24
HETATM   24  O   UNL     1     -12.100   6.174  71.888  1.00  0.00    -0.304 OA 
HETATM   25  C   UNL     1     -11.396   5.236  72.687  1.00  0.00    -0.231 C  
HETATM   26  F   UNL     1     -10.675   5.906  73.619  1.00  0.00    -0.236 F  
HETATM   27  F   UNL     1     -12.322   4.507  73.361  1.00  0.00    -0.273 F  
ENDBRANCH  21  24
ENDBRANCH  12  14
ENDBRANCH  11  12
ENDBRANCH   6  11
ENDBRANCH   2   3
TORSDOF 6
ENDMDL
MODEL      174
REMARK 921   NORMALIZED FREE ENERGY PREDICTED BY IDOCK:   -4.42 KCAL/MOL
REMARK 922        TOTAL FREE ENERGY PREDICTED BY IDOCK:   -6.72 KCAL/MOL
REMARK 923 INTER-LIGAND FREE ENERGY PREDICTED BY IDOCK:   -6.54 KCAL/MOL
REMARK 924 INTRA-LIGAND FREE ENERGY PREDICTED BY IDOCK:   -0.18 KCAL/MOL
REMARK 927      BINDING AFFINITY PREDICTED BY RF-SCORE:    0.00 PKD
ROOT
HETATM    1  C   UNL     1     -12.057  13.947  69.161  1.00  0.00    -0.338 C  
HETATM    2  O   UNL     1     -11.558  14.254  67.860  1.00  0.00    -0.299 OA 
ENDROOT
BRANCH   2   3
HETATM    3  C   UNL     1     -10.667  13.342  67.350  1.00  0.00    -0.262 A  
HETATM    4  C   UNL     1     -10.969  12.299  66.450  1.00  0.00    -0.287 A  
HETATM    5  C   UNL     1      -8.404  12.618  67.362  1.00  0.00    -0.184 A  
HETATM    6  C   UNL     1      -9.906  11.540  65.947  1.00  0.00    -0.231 A  
HETATM    7  C   UNL     1      -9.372  13.481  67.830  1.00  0.00    -0.213 A  
HETATM    8  N   UNL     1      -8.639  11.666  66.435  1.00  0.00    -0.173 NA 
BRANCH   4   9
HETATM    9  O   UNL     1     -12.276  12.158  66.053  1.00  0.00    -0.609 OA 
HETATM   10  C   UNL     1     -12.653  12.871  64.874  1.00  0.00    -0.458 C  
ENDBRANCH   4   9
BRANCH   6  11
HETATM   11  C   UNL     1     -10.041  10.585  64.788  1.00  0.00    -0.336 C  
BRANCH  11  12
HETATM   12  S   UNL     1      -8.705   9.356  64.780  1.00  0.00    -0.198 S  
HETATM   13  O   UNL     1      -7.361  10.023  64.852  1.00  0.00    -0.131 OA 
BRANCH  12  14
HETATM   14  C   UNL     1      -8.970   8.667  66.347  1.00  0.00    -0.161 A  
HETATM   15  N   UNL     1      -8.156   8.759  67.378  1.00  0.00    -0.105 NA 
HETATM   16  C   UNL     1      -8.842   8.178  68.422  1.00  0.00    -0.133 A  
HETATM   17  H   UNL     1      -7.223   9.170  67.398  1.00  0.00     0.000 HD 
HETATM   18  C   UNL     1     -10.078   7.698  68.005  1.00  0.00    -0.187 A  
HETATM   19  N   UNL     1     -10.124   8.006  66.672  1.00  0.00    -0.275 NA 
HETATM   20  C   UNL     1     -10.989   7.074  68.863  1.00  0.00    -0.162 A  
HETATM   21  C   UNL     1     -10.610   6.928  70.207  1.00  0.00    -0.218 A  
HETATM   22  C   UNL     1      -9.383   7.423  70.658  1.00  0.00    -0.160 A  
HETATM   23  C   UNL     1      -8.485   8.042  69.772  1.00  0.00    -0.127 A  
BRANCH  21  24
HETATM   24  O   UNL     1     -11.544   6.302  70.989  1.00  0.00    -0.324 OA 
HETATM   25  C   UNL     1     -11.285   6.315  72.384  1.00  0.00    -0.280 C  
HETATM   26  F   UNL     1     -11.733   7.484  72.904  1.00  0.00    -0.320 F  
HETATM   27  F   UNL     1     -12.034   5.328  72.941  1.00  0.00    -0.365 F  
ENDBRANCH  21  24
ENDBRANCH  12  14
ENDBRANCH  11  12
ENDBRANCH   6  11
ENDBRANCH   2   3
TORSDOF 6
ENDMDL
MODEL      175
REMARK 921   NORMALIZED FREE ENERGY PREDICTED BY IDOCK:   -4.40 KCAL/MOL
REMARK 922        TOTAL FREE ENERGY PREDICTED BY IDOCK:   -6.69 KCAL/MOL
REMARK 923 INTER-LIGAND FREE ENERGY PREDICTED BY IDOCK:   -5.86 KCAL/MOL
REMARK 924 INTRA-LIGAND FREE ENERGY PREDICTED BY IDOCK:   -0.83 KCAL/MOL
REMARK 927      BINDING AFFINITY PREDICTED BY RF-SCORE:    0.00 PKD
ROOT
HETATM    1  C   UNL     1      -7.769   8.261  65.055  1.00  0.00    -0.105 C  
HETATM    2  O   UNL     1      -8.428   7.004  64.912  1.00  0.00    -0.062 OA 
ENDROOT
BRANCH   2   3
HETATM    3  C   UNL     1      -8.168   6.096  65.909  1.00  0.00    -0.131 A  
HETATM    4  C   UNL     1      -8.821   6.022  67.157  1.00  0.00    -0.108 A  
HETATM    5  C   UNL     1      -6.807   4.261  66.563  1.00  0.00    -0.055 A  
HETATM    6  C   UNL     1      -8.501   4.953  68.002  1.00  0.00    -0.103 A  
HETATM    7  C   UNL     1      -7.130   5.219  65.625  1.00  0.00    -0.067 A  
HETATM    8  N   UNL     1      -7.468   4.106  67.729  1.00  0.00    -0.068 NA 
BRANCH   4   9
HETATM    9  O   UNL     1      -9.797   6.951  67.422  1.00  0.00    -0.131 OA 
HETATM   10  C   UNL     1     -11.134   6.563  67.102  1.00  0.00    -0.360 C  
ENDBRANCH   4   9
BRANCH   6  11
HETATM   11  C   UNL     1      -9.299   4.595  69.230  1.00  0.00    -0.142 C  
BRANCH  11  12
HETATM   12  S   UNL     1      -8.783   5.574  70.668  1.00  0.00    -0.131 S  
HETATM   13  O   UNL     1      -7.685   6.530  70.300  1.00  0.00    -0.094 OA 
BRANCH  12  14
HETATM   14  C   UNL     1     -10.206   6.543  70.853  1.00  0.00    -0.190 A  
HETATM   15  N   UNL     1     -11.446   6.100  70.849  1.00  0.00    -0.297 NA 
HETATM   16  C   UNL     1     -12.216   7.200  71.159  1.00  0.00    -0.365 A  
HETATM   17  H   UNL     1     -11.766   5.151  70.658  1.00  0.00     0.000 HD 
HETATM   18  C   UNL     1     -11.427   8.333  71.321  1.00  0.00    -0.274 A  
HETATM   19  N   UNL     1     -10.151   7.888  71.100  1.00  0.00    -0.184 NA 
HETATM   20  C   UNL     1     -11.945   9.588  71.653  1.00  0.00    -0.474 A  
HETATM   21  C   UNL     1     -13.336   9.687  71.818  1.00  0.00    -0.419 A  
HETATM   22  C   UNL     1     -14.150   8.557  71.686  1.00  0.00    -0.482 A  
HETATM   23  C   UNL     1     -13.602   7.309  71.346  1.00  0.00    -0.399 A  
BRANCH  21  24
HETATM   24  O   UNL     1     -13.777  10.944  72.136  1.00  0.00    -0.155 OA 
HETATM   25  C   UNL     1     -12.802  11.972  72.073  1.00  0.00    -0.146 C  
HETATM   26  F   UNL     1     -12.704  12.406  70.792  1.00  0.00    -0.369 F  
HETATM   27  F   UNL     1     -13.270  13.017  72.803  1.00  0.00    -0.546 F  
ENDBRANCH  21  24
ENDBRANCH  12  14
ENDBRANCH  11  12
ENDBRANCH   6  11
ENDBRANCH   2   3
TORSDOF 6
ENDMDL
MODEL      176
REMARK 921   NORMALIZED FREE ENERGY PREDICTED BY IDOCK:   -4.39 KCAL/MOL
REMARK 922        TOTAL FREE ENERGY PREDICTED BY IDOCK:   -6.68 KCAL/MOL
REMARK 923 INTER-LIGAND FREE ENERGY PREDICTED BY IDOCK:   -5.72 KCAL/MOL
REMARK 924 INTRA-LIGAND FREE ENERGY PREDICTED BY IDOCK:   -0.96 KCAL/MOL
REMARK 927      BINDING AFFINITY PREDICTED BY RF-SCORE:    0.00 PKD
ROOT
HETATM    1  C   UNL     1      -9.982   6.359  74.456  1.00  0.00    -0.351 C  
HETATM    2  O   UNL     1      -9.490   7.479  73.722  1.00  0.00    -0.261 OA 
ENDROOT
BRANCH   2   3
HETATM    3  C   UNL     1     -10.043   7.644  72.476  1.00  0.00    -0.229 A  
HETATM    4  C   UNL     1      -9.500   7.183  71.258  1.00  0.00    -0.163 A  
HETATM    5  C   UNL     1     -11.860   8.577  71.262  1.00  0.00    -0.291 A  
HETATM    6  C   UNL     1     -10.266   7.342  70.098  1.00  0.00    -0.205 A  
HETATM    7  C   UNL     1     -11.224   8.373  72.468  1.00  0.00    -0.406 A  
HETATM    8  N   UNL     1     -11.414   8.076  70.091  1.00  0.00    -0.089 NA 
BRANCH   4   9
HETATM    9  O   UNL     1      -8.296   6.524  71.306  1.00  0.00    -0.123 OA 
HETATM   10  C   UNL     1      -7.145   7.337  71.544  1.00  0.00    -0.067 C  
ENDBRANCH   4   9
BRANCH   6  11
HETATM   11  C   UNL     1      -9.943   6.668  68.788  1.00  0.00    -0.144 C  
BRANCH  11  12
HETATM   12  S   UNL     1      -8.514   7.439  67.977  1.00  0.00    -0.123 S  
HETATM   13  O   UNL     1      -8.289   6.852  66.614  1.00  0.00    -0.112 OA 
BRANCH  12  14
HETATM   14  C   UNL     1      -9.183   9.013  67.706  1.00  0.00    -0.140 A  
HETATM   15  N   UNL     1     -10.264   9.281  67.004  1.00  0.00    -0.247 NA 
HETATM   16  C   UNL     1     -10.474  10.632  67.180  1.00  0.00    -0.245 A  
HETATM   17  H   UNL     1     -10.823   8.632  66.451  1.00  0.00     0.000 HD 
HETATM   18  C   UNL     1      -9.483  11.193  67.976  1.00  0.00    -0.174 A  
HETATM   19  N   UNL     1      -8.661  10.141  68.280  1.00  0.00    -0.118 NA 
HETATM   20  C   UNL     1      -9.456  12.546  68.329  1.00  0.00    -0.201 A  
HETATM   21  C   UNL     1     -10.488  13.360  67.835  1.00  0.00    -0.240 A  
HETATM   22  C   UNL     1     -11.511  12.816  67.053  1.00  0.00    -0.397 A  
HETATM   23  C   UNL     1     -11.510  11.453  66.709  1.00  0.00    -0.157 A  
BRANCH  21  24
HETATM   24  O   UNL     1     -10.397  14.674  68.213  1.00  0.00    -0.222 OA 
HETATM   25  C   UNL     1     -11.632  15.356  68.365  1.00  0.00    -0.354 C  
HETATM   26  F   UNL     1     -12.122  15.105  69.604  1.00  0.00    -0.306 F  
HETATM   27  F   UNL     1     -11.366  16.686  68.313  1.00  0.00    -0.361 F  
ENDBRANCH  21  24
ENDBRANCH  12  14
ENDBRANCH  11  12
ENDBRANCH   6  11
ENDBRANCH   2   3
TORSDOF 6
ENDMDL
MODEL      177
REMARK 921   NORMALIZED FREE ENERGY PREDICTED BY IDOCK:   -4.39 KCAL/MOL
REMARK 922        TOTAL FREE ENERGY PREDICTED BY IDOCK:   -6.68 KCAL/MOL
REMARK 923 INTER-LIGAND FREE ENERGY PREDICTED BY IDOCK:   -5.93 KCAL/MOL
REMARK 924 INTRA-LIGAND FREE ENERGY PREDICTED BY IDOCK:   -0.74 KCAL/MOL
REMARK 927      BINDING AFFINITY PREDICTED BY RF-SCORE:    0.00 PKD
ROOT
HETATM    1  C   UNL     1      -5.415  18.061  69.262  1.00  0.00    -0.196 C  
HETATM    2  O   UNL     1      -5.288  16.926  68.408  1.00  0.00    -0.118 OA 
ENDROOT
BRANCH   2   3
HETATM    3  C   UNL     1      -5.946  15.799  68.838  1.00  0.00    -0.108 A  
HETATM    4  C   UNL     1      -6.887  15.054  68.098  1.00  0.00    -0.131 A  
HETATM    5  C   UNL     1      -6.253  14.300  70.655  1.00  0.00    -0.141 A  
HETATM    6  C   UNL     1      -7.368  13.865  68.658  1.00  0.00    -0.117 A  
HETATM    7  C   UNL     1      -5.650  15.428  70.142  1.00  0.00    -0.136 A  
HETATM    8  N   UNL     1      -7.090  13.515  69.946  1.00  0.00     0.350 NA 
BRANCH   4   9
HETATM    9  O   UNL     1      -7.200  15.495  66.836  1.00  0.00    -0.172 OA 
HETATM   10  C   UNL     1      -8.118  16.588  66.764  1.00  0.00    -0.251 C  
ENDBRANCH   4   9
BRANCH   6  11
HETATM   11  C   UNL     1      -8.158  12.840  67.885  1.00  0.00    -0.159 C  
BRANCH  11  12
HETATM   12  S   UNL     1      -9.843  13.418  67.543  1.00  0.00    -0.232 S  
HETATM   13  O   UNL     1     -10.364  12.831  66.263  1.00  0.00    -0.250 OA 
BRANCH  12  14
HETATM   14  C   UNL     1     -10.672  12.583  68.813  1.00  0.00    -0.202 A  
HETATM   15  N   UNL     1     -11.429  13.138  69.736  1.00  0.00    -0.488 NA 
HETATM   16  C   UNL     1     -11.971  12.080  70.433  1.00  0.00    -0.291 A  
HETATM   17  H   UNL     1     -11.580  14.133  69.900  1.00  0.00     0.000 HD 
HETATM   18  C   UNL     1     -11.508  10.866  69.940  1.00  0.00    -0.323 A  
HETATM   19  N   UNL     1     -10.665  11.218  68.920  1.00  0.00    -0.199 NA 
HETATM   20  C   UNL     1     -11.907   9.627  70.452  1.00  0.00    -0.219 A  
HETATM   21  C   UNL     1     -12.815   9.636  71.522  1.00  0.00    -0.392 A  
HETATM   22  C   UNL     1     -13.316  10.842  72.021  1.00  0.00    -0.394 A  
HETATM   23  C   UNL     1     -12.894  12.073  71.490  1.00  0.00    -0.403 A  
BRANCH  21  24
HETATM   24  O   UNL     1     -13.158   8.390  71.979  1.00  0.00    -0.335 OA 
HETATM   25  C   UNL     1     -12.132   7.412  71.926  1.00  0.00    -0.307 C  
HETATM   26  F   UNL     1     -11.356   7.528  73.031  1.00  0.00    -0.353 F  
HETATM   27  F   UNL     1     -12.731   6.196  71.996  1.00  0.00    -0.366 F  
ENDBRANCH  21  24
ENDBRANCH  12  14
ENDBRANCH  11  12
ENDBRANCH   6  11
ENDBRANCH   2   3
TORSDOF 6
ENDMDL
MODEL      178
REMARK 921   NORMALIZED FREE ENERGY PREDICTED BY IDOCK:   -4.38 KCAL/MOL
REMARK 922        TOTAL FREE ENERGY PREDICTED BY IDOCK:   -6.67 KCAL/MOL
REMARK 923 INTER-LIGAND FREE ENERGY PREDICTED BY IDOCK:   -6.19 KCAL/MOL
REMARK 924 INTRA-LIGAND FREE ENERGY PREDICTED BY IDOCK:   -0.48 KCAL/MOL
REMARK 927      BINDING AFFINITY PREDICTED BY RF-SCORE:    0.00 PKD
ROOT
HETATM    1  C   UNL     1      -7.076   3.335  73.321  1.00  0.00    -0.041 C  
HETATM    2  O   UNL     1      -8.113   4.266  73.628  1.00  0.00    -0.088 OA 
ENDROOT
BRANCH   2   3
HETATM    3  C   UNL     1      -8.679   4.883  72.540  1.00  0.00    -0.119 A  
HETATM    4  C   UNL     1     -10.033   5.256  72.407  1.00  0.00    -0.176 A  
HETATM    5  C   UNL     1      -8.278   5.730  70.356  1.00  0.00    -0.107 A  
HETATM    6  C   UNL     1     -10.404   5.984  71.270  1.00  0.00    -0.215 A  
HETATM    7  C   UNL     1      -7.801   5.101  71.487  1.00  0.00    -0.111 A  
HETATM    8  N   UNL     1      -9.544   6.178  70.230  1.00  0.00    -0.162 NA 
BRANCH   4   9
HETATM    9  O   UNL     1     -10.880   4.962  73.447  1.00  0.00    -0.237 OA 
HETATM   10  C   UNL     1     -11.307   3.601  73.541  1.00  0.00    -0.134 C  
ENDBRANCH   4   9
BRANCH   6  11
HETATM   11  C   UNL     1     -11.736   6.675  71.123  1.00  0.00    -0.346 C  
BRANCH  11  12
HETATM   12  S   UNL     1     -11.947   7.982  72.364  1.00  0.00    -0.323 S  
HETATM   13  O   UNL     1     -10.707   8.140  73.194  1.00  0.00    -0.265 OA 
BRANCH  12  14
HETATM   14  C   UNL     1     -11.980   9.350  71.303  1.00  0.00    -0.353 A  
HETATM   15  N   UNL     1     -12.369  10.566  71.625  1.00  0.00    -0.334 NA 
HETATM   16  C   UNL     1     -12.096  11.331  70.512  1.00  0.00    -0.387 A  
HETATM   17  H   UNL     1     -12.782  10.874  72.505  1.00  0.00     0.000 HD 
HETATM   18  C   UNL     1     -11.562  10.555  69.490  1.00  0.00    -0.260 A  
HETATM   19  N   UNL     1     -11.518   9.292  70.016  1.00  0.00    -0.122 NA 
HETATM   20  C   UNL     1     -11.179  11.077  68.250  1.00  0.00    -0.340 A  
HETATM   21  C   UNL     1     -11.359  12.454  68.048  1.00  0.00    -0.287 A  
HETATM   22  C   UNL     1     -11.871  13.262  69.069  1.00  0.00    -0.365 A  
HETATM   23  C   UNL     1     -12.253  12.710  70.303  1.00  0.00    -0.347 A  
BRANCH  21  24
HETATM   24  O   UNL     1     -10.970  12.897  66.812  1.00  0.00    -0.264 OA 
HETATM   25  C   UNL     1      -9.744  13.609  66.772  1.00  0.00    -0.275 C  
HETATM   26  F   UNL     1      -8.722  12.720  66.699  1.00  0.00    -0.207 F  
HETATM   27  F   UNL     1      -9.727  14.318  65.614  1.00  0.00    -0.319 F  
ENDBRANCH  21  24
ENDBRANCH  12  14
ENDBRANCH  11  12
ENDBRANCH   6  11
ENDBRANCH   2   3
TORSDOF 6
ENDMDL
MODEL      179
REMARK 921   NORMALIZED FREE ENERGY PREDICTED BY IDOCK:   -4.38 KCAL/MOL
REMARK 922        TOTAL FREE ENERGY PREDICTED BY IDOCK:   -6.67 KCAL/MOL
REMARK 923 INTER-LIGAND FREE ENERGY PREDICTED BY IDOCK:   -5.66 KCAL/MOL
REMARK 924 INTRA-LIGAND FREE ENERGY PREDICTED BY IDOCK:   -1.01 KCAL/MOL
REMARK 927      BINDING AFFINITY PREDICTED BY RF-SCORE:    0.00 PKD
ROOT
HETATM    1  C   UNL     1      -6.160   5.702  64.050  1.00  0.00    -0.025 C  
HETATM    2  O   UNL     1      -6.082   6.996  64.646  1.00  0.00    -0.036 OA 
ENDROOT
BRANCH   2   3
HETATM    3  C   UNL     1      -7.045   7.884  64.233  1.00  0.00    -0.074 A  
HETATM    4  C   UNL     1      -8.181   8.280  64.969  1.00  0.00    -0.158 A  
HETATM    5  C   UNL     1      -7.764   9.287  62.454  1.00  0.00    -0.114 A  
HETATM    6  C   UNL     1      -8.991   9.287  64.432  1.00  0.00    -0.116 A  
HETATM    7  C   UNL     1      -6.854   8.376  62.949  1.00  0.00    -0.090 A  
HETATM    8  N   UNL     1      -8.812   9.753  63.164  1.00  0.00    -0.230 NA 
BRANCH   4   9
HETATM    9  O   UNL     1      -8.365   7.718  66.208  1.00  0.00    -0.118 OA 
HETATM   10  C   UNL     1      -9.180   6.545  66.249  1.00  0.00    -0.133 C  
ENDBRANCH   4   9
BRANCH   6  11
HETATM   11  C   UNL     1     -10.069   9.994  65.215  1.00  0.00    -0.229 C  
BRANCH  11  12
HETATM   12  S   UNL     1      -9.384  11.338  66.224  1.00  0.00    -0.213 S  
HETATM   13  O   UNL     1      -9.976  12.660  65.829  1.00  0.00    -0.263 OA 
BRANCH  12  14
HETATM   14  C   UNL     1     -10.116  10.931  67.740  1.00  0.00    -0.177 A  
HETATM   15  N   UNL     1     -10.901  11.712  68.452  1.00  0.00    -0.206 NA 
HETATM   16  C   UNL     1     -11.338  10.920  69.492  1.00  0.00    -0.283 A  
HETATM   17  H   UNL     1     -11.134  12.688  68.273  1.00  0.00     0.000 HD 
HETATM   18  C   UNL     1     -10.781   9.648  69.422  1.00  0.00    -0.228 A  
HETATM   19  N   UNL     1      -9.989   9.690  68.305  1.00  0.00    -0.150 NA 
HETATM   20  C   UNL     1     -11.063   8.635  70.343  1.00  0.00    -0.250 A  
HETATM   21  C   UNL     1     -11.949   8.943  71.387  1.00  0.00    -0.311 A  
HETATM   22  C   UNL     1     -12.543  10.207  71.466  1.00  0.00    -0.537 A  
HETATM   23  C   UNL     1     -12.237  11.208  70.529  1.00  0.00    -0.475 A  
BRANCH  21  24
HETATM   24  O   UNL     1     -12.176   7.909  72.256  1.00  0.00    -0.316 OA 
HETATM   25  C   UNL     1     -11.049   7.103  72.560  1.00  0.00    -0.280 C  
HETATM   26  F   UNL     1     -10.342   7.693  73.555  1.00  0.00    -0.353 F  
HETATM   27  F   UNL     1     -11.515   5.929  73.057  1.00  0.00    -0.292 F  
ENDBRANCH  21  24
ENDBRANCH  12  14
ENDBRANCH  11  12
ENDBRANCH   6  11
ENDBRANCH   2   3
TORSDOF 6
ENDMDL
MODEL      180
REMARK 921   NORMALIZED FREE ENERGY PREDICTED BY IDOCK:   -4.37 KCAL/MOL
REMARK 922        TOTAL FREE ENERGY PREDICTED BY IDOCK:   -6.66 KCAL/MOL
REMARK 923 INTER-LIGAND FREE ENERGY PREDICTED BY IDOCK:   -5.73 KCAL/MOL
REMARK 924 INTRA-LIGAND FREE ENERGY PREDICTED BY IDOCK:   -0.93 KCAL/MOL
REMARK 927      BINDING AFFINITY PREDICTED BY RF-SCORE:    0.00 PKD
ROOT
HETATM    1  C   UNL     1      -7.750   8.779  63.488  1.00  0.00    -0.132 C  
HETATM    2  O   UNL     1      -8.057   7.432  63.846  1.00  0.00    -0.114 OA 
ENDROOT
BRANCH   2   3
HETATM    3  C   UNL     1      -8.118   7.190  65.197  1.00  0.00    -0.127 A  
HETATM    4  C   UNL     1      -8.175   5.923  65.812  1.00  0.00    -0.130 A  
HETATM    5  C   UNL     1      -8.215   8.191  67.350  1.00  0.00    -0.122 A  
HETATM    6  C   UNL     1      -8.115   5.869  67.209  1.00  0.00    -0.102 A  
HETATM    7  C   UNL     1      -8.167   8.336  65.980  1.00  0.00    -0.119 A  
HETATM    8  N   UNL     1      -8.182   6.995  67.974  1.00  0.00    -0.118 NA 
BRANCH   4   9
HETATM    9  O   UNL     1      -8.192   4.818  64.996  1.00  0.00    -0.116 OA 
HETATM   10  C   UNL     1      -9.484   4.324  64.637  1.00  0.00    -0.163 C  
ENDBRANCH   4   9
BRANCH   6  11
HETATM   11  C   UNL     1      -7.895   4.594  67.984  1.00  0.00    -0.081 C  
BRANCH  11  12
HETATM   12  S   UNL     1      -9.468   3.828  68.463  1.00  0.00    -0.112 S  
HETATM   13  O   UNL     1      -9.236   2.542  69.203  1.00  0.00    -0.116 OA 
BRANCH  12  14
HETATM   14  C   UNL     1      -9.968   4.975  69.660  1.00  0.00    -0.241 A  
HETATM   15  N   UNL     1      -9.257   5.366  70.697  1.00  0.00    -0.145 NA 
HETATM   16  C   UNL     1     -10.002   6.368  71.279  1.00  0.00    -0.182 A  
HETATM   17  H   UNL     1      -8.353   5.006  71.003  1.00  0.00     0.000 HD 
HETATM   18  C   UNL     1     -11.199   6.562  70.598  1.00  0.00    -0.329 A  
HETATM   19  N   UNL     1     -11.159   5.645  69.582  1.00  0.00    -0.243 NA 
HETATM   20  C   UNL     1     -12.142   7.527  70.963  1.00  0.00    -0.305 A  
HETATM   21  C   UNL     1     -11.849   8.323  72.082  1.00  0.00    -0.369 A  
HETATM   22  C   UNL     1     -10.641   8.166  72.770  1.00  0.00    -0.386 A  
HETATM   23  C   UNL     1      -9.713   7.184  72.384  1.00  0.00    -0.173 A  
BRANCH  21  24
HETATM   24  O   UNL     1     -12.817   9.242  72.388  1.00  0.00    -0.387 OA 
HETATM   25  C   UNL     1     -12.736  10.475  71.692  1.00  0.00    -0.445 C  
HETATM   26  F   UNL     1     -13.343  10.340  70.487  1.00  0.00    -0.419 F  
HETATM   27  F   UNL     1     -13.461  11.383  72.394  1.00  0.00    -0.552 F  
ENDBRANCH  21  24
ENDBRANCH  12  14
ENDBRANCH  11  12
ENDBRANCH   6  11
ENDBRANCH   2   3
TORSDOF 6
ENDMDL
MODEL      181
REMARK 921   NORMALIZED FREE ENERGY PREDICTED BY IDOCK:   -4.37 KCAL/MOL
REMARK 922        TOTAL FREE ENERGY PREDICTED BY IDOCK:   -6.65 KCAL/MOL
REMARK 923 INTER-LIGAND FREE ENERGY PREDICTED BY IDOCK:   -5.78 KCAL/MOL
REMARK 924 INTRA-LIGAND FREE ENERGY PREDICTED BY IDOCK:   -0.87 KCAL/MOL
REMARK 927      BINDING AFFINITY PREDICTED BY RF-SCORE:    0.00 PKD
ROOT
HETATM    1  C   UNL     1      -5.542  10.287  71.107  1.00  0.00    -0.062 C  
HETATM    2  O   UNL     1      -6.686   9.907  70.343  1.00  0.00    -0.108 OA 
ENDROOT
BRANCH   2   3
HETATM    3  C   UNL     1      -6.972  10.728  69.280  1.00  0.00    -0.102 A  
HETATM    4  C   UNL     1      -7.575  10.337  68.066  1.00  0.00    -0.088 A  
HETATM    5  C   UNL     1      -6.836  12.949  68.445  1.00  0.00    -0.096 A  
HETATM    6  C   UNL     1      -7.897  11.337  67.142  1.00  0.00    -0.151 A  
HETATM    7  C   UNL     1      -6.575  12.047  69.454  1.00  0.00    -0.100 A  
HETATM    8  N   UNL     1      -7.488  12.627  67.308  1.00  0.00    -0.138 NA 
BRANCH   4   9
HETATM    9  O   UNL     1      -7.891   9.009  67.911  1.00  0.00    -0.099 OA 
HETATM   10  C   UNL     1      -6.904   8.202  67.265  1.00  0.00    -0.074 C  
ENDBRANCH   4   9
BRANCH   6  11
HETATM   11  C   UNL     1      -8.776  11.106  65.939  1.00  0.00    -0.164 C  
BRANCH  11  12
HETATM   12  S   UNL     1     -10.535  11.174  66.377  1.00  0.00    -0.259 S  
HETATM   13  O   UNL     1     -10.786  10.505  67.698  1.00  0.00    -0.232 OA 
BRANCH  12  14
HETATM   14  C   UNL     1     -10.667  12.874  66.680  1.00  0.00    -0.265 A  
HETATM   15  N   UNL     1     -11.012  13.429  67.823  1.00  0.00    -0.257 NA 
HETATM   16  C   UNL     1     -10.850  14.783  67.622  1.00  0.00    -0.285 A  
HETATM   17  H   UNL     1     -11.329  12.960  68.672  1.00  0.00     0.000 HD 
HETATM   18  C   UNL     1     -10.431  15.049  66.323  1.00  0.00    -0.304 A  
HETATM   19  N   UNL     1     -10.342  13.814  65.739  1.00  0.00    -0.299 NA 
HETATM   20  C   UNL     1     -10.175  16.339  65.849  1.00  0.00    -0.384 A  
HETATM   21  C   UNL     1     -10.365  17.404  66.745  1.00  0.00    -0.305 A  
HETATM   22  C   UNL     1     -10.761  17.161  68.064  1.00  0.00    -0.372 A  
HETATM   23  C   UNL     1     -11.017  15.854  68.512  1.00  0.00    -0.324 A  
BRANCH  21  24
HETATM   24  O   UNL     1     -10.103  18.639  66.214  1.00  0.00    -0.370 OA 
HETATM   25  C   UNL     1      -9.046  19.360  66.828  1.00  0.00    -0.334 C  
HETATM   26  F   UNL     1      -7.869  18.956  66.291  1.00  0.00    -0.258 F  
HETATM   27  F   UNL     1      -9.201  20.666  66.490  1.00  0.00    -0.352 F  
ENDBRANCH  21  24
ENDBRANCH  12  14
ENDBRANCH  11  12
ENDBRANCH   6  11
ENDBRANCH   2   3
TORSDOF 6
ENDMDL
MODEL      182
REMARK 921   NORMALIZED FREE ENERGY PREDICTED BY IDOCK:   -4.36 KCAL/MOL
REMARK 922        TOTAL FREE ENERGY PREDICTED BY IDOCK:   -6.64 KCAL/MOL
REMARK 923 INTER-LIGAND FREE ENERGY PREDICTED BY IDOCK:   -5.93 KCAL/MOL
REMARK 924 INTRA-LIGAND FREE ENERGY PREDICTED BY IDOCK:   -0.71 KCAL/MOL
REMARK 927      BINDING AFFINITY PREDICTED BY RF-SCORE:    0.00 PKD
ROOT
HETATM    1  C   UNL     1      -8.053  15.429  67.878  1.00  0.00    -0.140 C  
HETATM    2  O   UNL     1      -8.592  14.886  66.673  1.00  0.00    -0.244 OA 
ENDROOT
BRANCH   2   3
HETATM    3  C   UNL     1      -9.753  14.168  66.829  1.00  0.00    -0.277 A  
HETATM    4  C   UNL     1      -9.850  12.831  67.268  1.00  0.00    -0.207 A  
HETATM    5  C   UNL     1     -12.118  14.220  66.607  1.00  0.00    -0.420 A  
HETATM    6  C   UNL     1     -11.128  12.301  67.479  1.00  0.00    -0.275 A  
HETATM    7  C   UNL     1     -10.903  14.857  66.470  1.00  0.00    -0.322 A  
HETATM    8  N   UNL     1     -12.253  12.974  67.106  1.00  0.00    -0.340 NA 
BRANCH   4   9
HETATM    9  O   UNL     1      -8.681  12.166  67.550  1.00  0.00    -0.158 OA 
HETATM   10  C   UNL     1      -8.256  11.208  66.578  1.00  0.00    -0.167 C  
ENDBRANCH   4   9
BRANCH   6  11
HETATM   11  C   UNL     1     -11.382  10.999  68.195  1.00  0.00    -0.307 C  
BRANCH  11  12
HETATM   12  S   UNL     1     -11.342  11.211  69.997  1.00  0.00    -0.192 S  
HETATM   13  O   UNL     1     -12.721  11.450  70.540  1.00  0.00    -0.229 OA 
BRANCH  12  14
HETATM   14  C   UNL     1     -10.935   9.589  70.445  1.00  0.00    -0.278 A  
HETATM   15  N   UNL     1     -10.910   9.112  71.672  1.00  0.00    -0.360 NA 
HETATM   16  C   UNL     1     -10.667   7.763  71.522  1.00  0.00    -0.222 A  
HETATM   17  H   UNL     1     -11.041   9.626  72.542  1.00  0.00     0.000 HD 
HETATM   18  C   UNL     1     -10.511   7.429  70.181  1.00  0.00    -0.220 A  
HETATM   19  N   UNL     1     -10.667   8.617  69.519  1.00  0.00    -0.214 NA 
HETATM   20  C   UNL     1     -10.269   6.125  69.739  1.00  0.00    -0.249 A  
HETATM   21  C   UNL     1     -10.174   5.121  70.715  1.00  0.00    -0.238 A  
HETATM   22  C   UNL     1     -10.351   5.426  72.069  1.00  0.00    -0.268 A  
HETATM   23  C   UNL     1     -10.588   6.747  72.486  1.00  0.00    -0.249 A  
BRANCH  21  24
HETATM   24  O   UNL     1      -9.929   3.870  70.215  1.00  0.00    -0.162 OA 
HETATM   25  C   UNL     1      -8.604   3.636  69.766  1.00  0.00    -0.069 C  
HETATM   26  F   UNL     1      -7.836   3.286  70.827  1.00  0.00    -0.045 F  
HETATM   27  F   UNL     1      -8.642   2.558  68.941  1.00  0.00    -0.078 F  
ENDBRANCH  21  24
ENDBRANCH  12  14
ENDBRANCH  11  12
ENDBRANCH   6  11
ENDBRANCH   2   3
TORSDOF 6
ENDMDL
MODEL      183
REMARK 921   NORMALIZED FREE ENERGY PREDICTED BY IDOCK:   -4.36 KCAL/MOL
REMARK 922        TOTAL FREE ENERGY PREDICTED BY IDOCK:   -6.64 KCAL/MOL
REMARK 923 INTER-LIGAND FREE ENERGY PREDICTED BY IDOCK:   -5.51 KCAL/MOL
REMARK 924 INTRA-LIGAND FREE ENERGY PREDICTED BY IDOCK:   -1.13 KCAL/MOL
REMARK 927      BINDING AFFINITY PREDICTED BY RF-SCORE:    0.00 PKD
ROOT
HETATM    1  C   UNL     1     -10.647   5.190  66.625  1.00  0.00    -0.232 C  
HETATM    2  O   UNL     1     -10.543   6.604  66.790  1.00  0.00    -0.263 OA 
ENDROOT
BRANCH   2   3
HETATM    3  C   UNL     1      -9.266   7.074  66.977  1.00  0.00    -0.147 A  
HETATM    4  C   UNL     1      -8.901   8.415  67.212  1.00  0.00    -0.130 A  
HETATM    5  C   UNL     1      -6.967   6.479  67.063  1.00  0.00    -0.068 A  
HETATM    6  C   UNL     1      -7.558   8.689  67.497  1.00  0.00    -0.094 A  
HETATM    7  C   UNL     1      -8.279   6.102  66.875  1.00  0.00    -0.106 A  
HETATM    8  N   UNL     1      -6.590   7.736  67.376  1.00  0.00    -0.062 NA 
BRANCH   4   9
HETATM    9  O   UNL     1      -9.903   9.354  67.240  1.00  0.00    -0.160 OA 
HETATM   10  C   UNL     1     -10.586   9.505  68.486  1.00  0.00    -0.212 C  
ENDBRANCH   4   9
BRANCH   6  11
HETATM   11  C   UNL     1      -7.073  10.014  68.029  1.00  0.00    -0.081 C  
BRANCH  11  12
HETATM   12  S   UNL     1      -6.743  11.189  66.686  1.00  0.00    -0.126 S  
HETATM   13  O   UNL     1      -6.847  10.517  65.347  1.00  0.00    -0.134 OA 
BRANCH  12  14
HETATM   14  C   UNL     1      -8.167  12.164  66.833  1.00  0.00    -0.134 A  
HETATM   15  N   UNL     1      -9.120  12.277  65.932  1.00  0.00    -0.435 NA 
HETATM   16  C   UNL     1     -10.092  13.043  66.540  1.00  0.00    -0.270 A  
HETATM   17  H   UNL     1      -9.137  11.884  64.991  1.00  0.00     0.000 HD 
HETATM   18  C   UNL     1      -9.701  13.425  67.818  1.00  0.00    -0.216 A  
HETATM   19  N   UNL     1      -8.460  12.867  67.970  1.00  0.00    -0.169 NA 
HETATM   20  C   UNL     1     -10.501  14.196  68.666  1.00  0.00    -0.250 A  
HETATM   21  C   UNL     1     -11.754  14.600  68.178  1.00  0.00    -0.330 A  
HETATM   22  C   UNL     1     -12.182  14.209  66.906  1.00  0.00    -0.400 A  
HETATM   23  C   UNL     1     -11.354  13.438  66.072  1.00  0.00    -0.329 A  
BRANCH  21  24
HETATM   24  O   UNL     1     -12.482  15.358  69.057  1.00  0.00    -0.080 OA 
HETATM   25  C   UNL     1     -11.776  15.834  70.191  1.00  0.00    -0.356 C  
HETATM   26  F   UNL     1     -11.123  16.974  69.856  1.00  0.00    -0.248 F  
HETATM   27  F   UNL     1     -12.698  16.173  71.127  1.00  0.00    -0.480 F  
ENDBRANCH  21  24
ENDBRANCH  12  14
ENDBRANCH  11  12
ENDBRANCH   6  11
ENDBRANCH   2   3
TORSDOF 6
ENDMDL
MODEL      184
REMARK 921   NORMALIZED FREE ENERGY PREDICTED BY IDOCK:   -4.35 KCAL/MOL
REMARK 922        TOTAL FREE ENERGY PREDICTED BY IDOCK:   -6.63 KCAL/MOL
REMARK 923 INTER-LIGAND FREE ENERGY PREDICTED BY IDOCK:   -5.84 KCAL/MOL
REMARK 924 INTRA-LIGAND FREE ENERGY PREDICTED BY IDOCK:   -0.79 KCAL/MOL
REMARK 927      BINDING AFFINITY PREDICTED BY RF-SCORE:    0.00 PKD
ROOT
HETATM    1  C   UNL     1      -7.883   4.126  68.745  1.00  0.00    -0.068 C  
HETATM    2  O   UNL     1      -8.117   4.976  69.867  1.00  0.00    -0.073 OA 
ENDROOT
BRANCH   2   3
HETATM    3  C   UNL     1      -8.422   6.278  69.555  1.00  0.00    -0.129 A  
HETATM    4  C   UNL     1      -9.180   7.166  70.347  1.00  0.00    -0.156 A  
HETATM    5  C   UNL     1      -8.197   7.993  67.926  1.00  0.00    -0.129 A  
HETATM    6  C   UNL     1      -9.290   8.495  69.919  1.00  0.00    -0.159 A  
HETATM    7  C   UNL     1      -7.951   6.695  68.318  1.00  0.00    -0.111 A  
HETATM    8  N   UNL     1      -8.843   8.894  68.695  1.00  0.00    -0.137 NA 
BRANCH   4   9
HETATM    9  O   UNL     1      -9.683   6.692  71.533  1.00  0.00    -0.165 OA 
HETATM   10  C   UNL     1     -10.939   6.013  71.455  1.00  0.00    -0.276 C  
ENDBRANCH   4   9
BRANCH   6  11
HETATM   11  C   UNL     1      -9.830   9.605  70.784  1.00  0.00    -0.154 C  
BRANCH  11  12
HETATM   12  S   UNL     1     -11.618   9.816  70.556  1.00  0.00    -0.290 S  
HETATM   13  O   UNL     1     -12.333   9.805  71.876  1.00  0.00    -0.377 OA 
BRANCH  12  14
HETATM   14  C   UNL     1     -11.625  11.467  70.033  1.00  0.00    -0.299 A  
HETATM   15  N   UNL     1     -12.475  12.395  70.421  1.00  0.00    -0.194 NA 
HETATM   16  C   UNL     1     -12.010  13.560  69.850  1.00  0.00    -0.348 A  
HETATM   17  H   UNL     1     -13.296  12.277  71.013  1.00  0.00     0.000 HD 
HETATM   18  C   UNL     1     -10.878  13.324  69.079  1.00  0.00    -0.173 A  
HETATM   19  N   UNL     1     -10.667  11.976  69.198  1.00  0.00    -0.135 NA 
HETATM   20  C   UNL     1     -10.189  14.331  68.397  1.00  0.00    -0.245 A  
HETATM   21  C   UNL     1     -10.690  15.639  68.504  1.00  0.00    -0.264 A  
HETATM   22  C   UNL     1     -11.812  15.908  69.294  1.00  0.00    -0.328 A  
HETATM   23  C   UNL     1     -12.488  14.874  69.965  1.00  0.00    -0.320 A  
BRANCH  21  24
HETATM   24  O   UNL     1      -9.973  16.575  67.807  1.00  0.00    -0.244 OA 
HETATM   25  C   UNL     1     -10.561  17.863  67.725  1.00  0.00    -0.389 C  
HETATM   26  F   UNL     1     -10.249  18.560  68.846  1.00  0.00    -0.377 F  
HETATM   27  F   UNL     1      -9.971  18.510  66.687  1.00  0.00    -0.299 F  
ENDBRANCH  21  24
ENDBRANCH  12  14
ENDBRANCH  11  12
ENDBRANCH   6  11
ENDBRANCH   2   3
TORSDOF 6
ENDMDL
MODEL      185
REMARK 921   NORMALIZED FREE ENERGY PREDICTED BY IDOCK:   -4.33 KCAL/MOL
REMARK 922        TOTAL FREE ENERGY PREDICTED BY IDOCK:   -6.60 KCAL/MOL
REMARK 923 INTER-LIGAND FREE ENERGY PREDICTED BY IDOCK:   -5.56 KCAL/MOL
REMARK 924 INTRA-LIGAND FREE ENERGY PREDICTED BY IDOCK:   -1.04 KCAL/MOL
REMARK 927      BINDING AFFINITY PREDICTED BY RF-SCORE:    0.00 PKD
ROOT
HETATM    1  C   UNL     1      -9.307   9.142  70.583  1.00  0.00    -0.258 C  
HETATM    2  O   UNL     1      -8.852  10.130  69.661  1.00  0.00    -0.195 OA 
ENDROOT
BRANCH   2   3
HETATM    3  C   UNL     1      -9.846  10.831  69.023  1.00  0.00    -0.194 A  
HETATM    4  C   UNL     1      -9.662  11.827  68.041  1.00  0.00    -0.185 A  
HETATM    5  C   UNL     1     -12.193  11.162  68.856  1.00  0.00    -0.076 A  
HETATM    6  C   UNL     1     -10.801  12.349  67.417  1.00  0.00    -0.238 A  
HETATM    7  C   UNL     1     -11.129  10.518  69.451  1.00  0.00    -0.310 A  
HETATM    8  N   UNL     1     -12.058  12.055  67.854  1.00  0.00    -0.494 NA 
BRANCH   4   9
HETATM    9  O   UNL     1      -8.374  12.151  67.695  1.00  0.00    -0.144 OA 
HETATM   10  C   UNL     1      -7.761  13.189  68.464  1.00  0.00    -0.117 C  
ENDBRANCH   4   9
BRANCH   6  11
HETATM   11  C   UNL     1     -10.751  13.208  66.179  1.00  0.00    -0.278 C  
BRANCH  11  12
HETATM   12  S   UNL     1     -11.670  12.454  64.808  1.00  0.00    -0.371 S  
HETATM   13  O   UNL     1     -11.923  13.453  63.717  1.00  0.00    -0.466 OA 
BRANCH  12  14
HETATM   14  C   UNL     1     -10.431  11.404  64.206  1.00  0.00    -0.342 A  
HETATM   15  N   UNL     1      -9.618  11.667  63.204  1.00  0.00    -0.514 NA 
HETATM   16  C   UNL     1      -8.734  10.610  63.179  1.00  0.00    -0.190 A  
HETATM   17  H   UNL     1      -9.638  12.475  62.582  1.00  0.00     0.000 HD 
HETATM   18  C   UNL     1      -9.040   9.678  64.164  1.00  0.00    -0.209 A  
HETATM   19  N   UNL     1     -10.140  10.201  64.790  1.00  0.00    -0.284 NA 
HETATM   20  C   UNL     1      -8.298   8.513  64.376  1.00  0.00    -0.125 A  
HETATM   21  C   UNL     1      -7.197   8.290  63.533  1.00  0.00    -0.093 A  
HETATM   22  C   UNL     1      -6.852   9.223  62.551  1.00  0.00    -0.091 A  
HETATM   23  C   UNL     1      -7.620  10.384  62.357  1.00  0.00    -0.166 A  
BRANCH  21  24
HETATM   24  O   UNL     1      -6.518   7.128  63.790  1.00  0.00    -0.043 OA 
HETATM   25  C   UNL     1      -7.241   6.139  64.505  1.00  0.00    -0.064 C  
HETATM   26  F   UNL     1      -7.993   5.426  63.631  1.00  0.00    -0.080 F  
HETATM   27  F   UNL     1      -6.333   5.278  65.031  1.00  0.00    -0.030 F  
ENDBRANCH  21  24
ENDBRANCH  12  14
ENDBRANCH  11  12
ENDBRANCH   6  11
ENDBRANCH   2   3
TORSDOF 6
ENDMDL
MODEL      186
REMARK 921   NORMALIZED FREE ENERGY PREDICTED BY IDOCK:   -4.33 KCAL/MOL
REMARK 922        TOTAL FREE ENERGY PREDICTED BY IDOCK:   -6.59 KCAL/MOL
REMARK 923 INTER-LIGAND FREE ENERGY PREDICTED BY IDOCK:   -6.09 KCAL/MOL
REMARK 924 INTRA-LIGAND FREE ENERGY PREDICTED BY IDOCK:   -0.51 KCAL/MOL
REMARK 927      BINDING AFFINITY PREDICTED BY RF-SCORE:    0.00 PKD
ROOT
HETATM    1  C   UNL     1     -11.955   6.832  70.659  1.00  0.00    -0.362 C  
HETATM    2  O   UNL     1     -11.187   7.949  71.104  1.00  0.00    -0.252 OA 
ENDROOT
BRANCH   2   3
HETATM    3  C   UNL     1     -11.318   9.084  70.342  1.00  0.00    -0.210 A  
HETATM    4  C   UNL     1     -10.892   9.241  69.006  1.00  0.00    -0.111 A  
HETATM    5  C   UNL     1     -12.078  11.335  70.319  1.00  0.00    -0.373 A  
HETATM    6  C   UNL     1     -11.217  10.435  68.352  1.00  0.00    -0.258 A  
HETATM    7  C   UNL     1     -11.893  10.156  71.009  1.00  0.00    -0.475 A  
HETATM    8  N   UNL     1     -11.763  11.492  69.016  1.00  0.00    -0.307 NA 
BRANCH   4   9
HETATM    9  O   UNL     1     -10.268   8.175  68.406  1.00  0.00    -0.199 OA 
HETATM   10  C   UNL     1      -8.873   8.032  68.678  1.00  0.00    -0.134 C  
ENDBRANCH   4   9
BRANCH   6  11
HETATM   11  C   UNL     1     -11.069  10.635  66.865  1.00  0.00    -0.090 C  
BRANCH  11  12
HETATM   12  S   UNL     1      -9.324  10.669  66.368  1.00  0.00    -0.174 S  
HETATM   13  O   UNL     1      -9.175  10.359  64.907  1.00  0.00    -0.185 OA 
BRANCH  12  14
HETATM   14  C   UNL     1      -9.039  12.370  66.519  1.00  0.00    -0.181 A  
HETATM   15  N   UNL     1      -9.476  13.301  65.696  1.00  0.00    -0.483 NA 
HETATM   16  C   UNL     1      -9.117  14.493  66.289  1.00  0.00    -0.129 A  
HETATM   17  H   UNL     1      -9.971  13.169  64.815  1.00  0.00     0.000 HD 
HETATM   18  C   UNL     1      -8.423  14.274  67.474  1.00  0.00    -0.187 A  
HETATM   19  N   UNL     1      -8.370  12.911  67.585  1.00  0.00    -0.163 NA 
HETATM   20  C   UNL     1      -7.952  15.308  68.289  1.00  0.00    -0.132 A  
HETATM   21  C   UNL     1      -8.197  16.624  67.865  1.00  0.00    -0.180 A  
HETATM   22  C   UNL     1      -8.914  16.871  66.691  1.00  0.00    -0.279 A  
HETATM   23  C   UNL     1      -9.371  15.813  65.887  1.00  0.00    -0.356 A  
BRANCH  21  24
HETATM   24  O   UNL     1      -7.703  17.586  68.706  1.00  0.00    -0.266 OA 
HETATM   25  C   UNL     1      -6.332  17.460  69.047  1.00  0.00    -0.220 C  
HETATM   26  F   UNL     1      -5.582  18.026  68.069  1.00  0.00    -0.145 F  
HETATM   27  F   UNL     1      -6.127  18.194  70.170  1.00  0.00    -0.235 F  
ENDBRANCH  21  24
ENDBRANCH  12  14
ENDBRANCH  11  12
ENDBRANCH   6  11
ENDBRANCH   2   3
TORSDOF 6
ENDMDL
MODEL      187
REMARK 921   NORMALIZED FREE ENERGY PREDICTED BY IDOCK:   -4.30 KCAL/MOL
REMARK 922        TOTAL FREE ENERGY PREDICTED BY IDOCK:   -6.56 KCAL/MOL
REMARK 923 INTER-LIGAND FREE ENERGY PREDICTED BY IDOCK:   -5.96 KCAL/MOL
REMARK 924 INTRA-LIGAND FREE ENERGY PREDICTED BY IDOCK:   -0.60 KCAL/MOL
REMARK 927      BINDING AFFINITY PREDICTED BY RF-SCORE:    0.00 PKD
ROOT
HETATM    1  C   UNL     1     -10.905   6.118  67.822  1.00  0.00    -0.325 C  
HETATM    2  O   UNL     1     -10.553   7.313  67.127  1.00  0.00    -0.288 OA 
ENDROOT
BRANCH   2   3
HETATM    3  C   UNL     1     -10.307   8.400  67.930  1.00  0.00    -0.221 A  
HETATM    4  C   UNL     1      -9.709   9.612  67.526  1.00  0.00    -0.158 A  
HETATM    5  C   UNL     1     -10.465   9.264  70.138  1.00  0.00    -0.230 A  
HETATM    6  C   UNL     1      -9.647  10.654  68.459  1.00  0.00    -0.175 A  
HETATM    7  C   UNL     1     -10.662   8.219  69.260  1.00  0.00    -0.140 A  
HETATM    8  N   UNL     1      -9.978  10.466  69.768  1.00  0.00    -0.181 NA 
BRANCH   4   9
HETATM    9  O   UNL     1      -9.313   9.723  66.216  1.00  0.00    -0.161 OA 
HETATM   10  C   UNL     1     -10.226  10.388  65.340  1.00  0.00    -0.259 C  
ENDBRANCH   4   9
BRANCH   6  11
HETATM   11  C   UNL     1      -9.290  12.074  68.098  1.00  0.00    -0.199 C  
BRANCH  11  12
HETATM   12  S   UNL     1      -7.492  12.323  68.079  1.00  0.00    -0.128 S  
HETATM   13  O   UNL     1      -6.886  11.761  66.825  1.00  0.00    -0.127 OA 
BRANCH  12  14
HETATM   14  C   UNL     1      -7.465  14.043  67.882  1.00  0.00    -0.149 A  
HETATM   15  N   UNL     1      -7.899  14.706  66.830  1.00  0.00    -0.329 NA 
HETATM   16  C   UNL     1      -7.797  16.034  67.183  1.00  0.00    -0.209 A  
HETATM   17  H   UNL     1      -8.238  14.321  65.949  1.00  0.00     0.000 HD 
HETATM   18  C   UNL     1      -7.260  16.174  68.458  1.00  0.00    -0.144 A  
HETATM   19  N   UNL     1      -7.040  14.888  68.872  1.00  0.00    -0.108 NA 
HETATM   20  C   UNL     1      -7.058  17.413  69.073  1.00  0.00    -0.233 A  
HETATM   21  C   UNL     1      -7.414  18.559  68.345  1.00  0.00    -0.296 A  
HETATM   22  C   UNL     1      -7.979  18.446  67.071  1.00  0.00    -0.238 A  
HETATM   23  C   UNL     1      -8.166  17.187  66.474  1.00  0.00    -0.308 A  
BRANCH  21  24
HETATM   24  O   UNL     1      -7.184  19.738  69.004  1.00  0.00    -0.347 OA 
HETATM   25  C   UNL     1      -6.009  20.436  68.623  1.00  0.00    -0.313 C  
HETATM   26  F   UNL     1      -6.277  21.182  67.523  1.00  0.00    -0.297 F  
HETATM   27  F   UNL     1      -5.716  21.306  69.623  1.00  0.00    -0.392 F  
ENDBRANCH  21  24
ENDBRANCH  12  14
ENDBRANCH  11  12
ENDBRANCH   6  11
ENDBRANCH   2   3
TORSDOF 6
ENDMDL
MODEL      188
REMARK 921   NORMALIZED FREE ENERGY PREDICTED BY IDOCK:   -4.29 KCAL/MOL
REMARK 922        TOTAL FREE ENERGY PREDICTED BY IDOCK:   -6.55 KCAL/MOL
REMARK 923 INTER-LIGAND FREE ENERGY PREDICTED BY IDOCK:   -6.02 KCAL/MOL
REMARK 924 INTRA-LIGAND FREE ENERGY PREDICTED BY IDOCK:   -0.53 KCAL/MOL
REMARK 927      BINDING AFFINITY PREDICTED BY RF-SCORE:    0.00 PKD
ROOT
HETATM    1  C   UNL     1     -11.968   7.805  70.659  1.00  0.00    -0.070 C  
HETATM    2  O   UNL     1     -11.173   8.830  71.253  1.00  0.00    -0.249 OA 
ENDROOT
BRANCH   2   3
HETATM    3  C   UNL     1     -11.063   9.981  70.512  1.00  0.00    -0.331 A  
HETATM    4  C   UNL     1      -9.969  10.346  69.700  1.00  0.00    -0.174 A  
HETATM    5  C   UNL     1     -12.125  12.024  69.924  1.00  0.00    -0.263 A  
HETATM    6  C   UNL     1     -10.087  11.506  68.925  1.00  0.00    -0.127 A  
HETATM    7  C   UNL     1     -12.140  10.848  70.643  1.00  0.00    -0.468 A  
HETATM    8  N   UNL     1     -11.136  12.364  69.072  1.00  0.00    -0.246 NA 
BRANCH   4   9
HETATM    9  O   UNL     1      -8.897   9.490  69.652  1.00  0.00    -0.156 OA 
HETATM   10  C   UNL     1      -8.967   8.453  68.671  1.00  0.00    -0.140 C  
ENDBRANCH   4   9
BRANCH   6  11
HETATM   11  C   UNL     1      -9.126  11.871  67.823  1.00  0.00    -0.180 C  
BRANCH  11  12
HETATM   12  S   UNL     1      -7.451  12.146  68.465  1.00  0.00    -0.111 S  
HETATM   13  O   UNL     1      -6.420  11.896  67.402  1.00  0.00    -0.097 OA 
BRANCH  12  14
HETATM   14  C   UNL     1      -7.520  13.866  68.655  1.00  0.00    -0.122 A  
HETATM   15  N   UNL     1      -6.490  14.662  68.854  1.00  0.00    -0.087 NA 
HETATM   16  C   UNL     1      -7.014  15.935  68.811  1.00  0.00    -0.132 A  
HETATM   17  H   UNL     1      -5.518  14.394  69.006  1.00  0.00     0.000 HD 
HETATM   18  C   UNL     1      -8.390  15.905  68.614  1.00  0.00    -0.195 A  
HETATM   19  N   UNL     1      -8.688  14.570  68.539  1.00  0.00    -0.174 NA 
HETATM   20  C   UNL     1      -9.177  17.056  68.516  1.00  0.00    -0.266 A  
HETATM   21  C   UNL     1      -8.525  18.293  68.633  1.00  0.00    -0.282 A  
HETATM   22  C   UNL     1      -7.138  18.353  68.805  1.00  0.00    -0.299 A  
HETATM   23  C   UNL     1      -6.372  17.179  68.906  1.00  0.00    -0.186 A  
BRANCH  21  24
HETATM   24  O   UNL     1      -9.355  19.378  68.534  1.00  0.00    -0.356 OA 
HETATM   25  C   UNL     1      -9.241  20.133  67.338  1.00  0.00    -0.374 C  
HETATM   26  F   UNL     1     -10.000  19.552  66.377  1.00  0.00    -0.374 F  
HETATM   27  F   UNL     1      -9.784  21.354  67.579  1.00  0.00    -0.562 F  
ENDBRANCH  21  24
ENDBRANCH  12  14
ENDBRANCH  11  12
ENDBRANCH   6  11
ENDBRANCH   2   3
TORSDOF 6
ENDMDL
MODEL      189
REMARK 921   NORMALIZED FREE ENERGY PREDICTED BY IDOCK:   -4.29 KCAL/MOL
REMARK 922        TOTAL FREE ENERGY PREDICTED BY IDOCK:   -6.55 KCAL/MOL
REMARK 923 INTER-LIGAND FREE ENERGY PREDICTED BY IDOCK:   -5.99 KCAL/MOL
REMARK 924 INTRA-LIGAND FREE ENERGY PREDICTED BY IDOCK:   -0.56 KCAL/MOL
REMARK 927      BINDING AFFINITY PREDICTED BY RF-SCORE:    0.00 PKD
ROOT
HETATM    1  C   UNL     1      -6.890  20.791  65.286  1.00  0.00    -0.060 C  
HETATM    2  O   UNL     1      -7.575  20.621  66.526  1.00  0.00    -0.201 OA 
ENDROOT
BRANCH   2   3
HETATM    3  C   UNL     1      -8.651  19.769  66.483  1.00  0.00    -0.354 A  
HETATM    4  C   UNL     1      -8.690  18.453  66.990  1.00  0.00    -0.270 A  
HETATM    5  C   UNL     1     -10.899  19.509  65.758  1.00  0.00    -0.304 A  
HETATM    6  C   UNL     1      -9.914  17.776  66.961  1.00  0.00    -0.322 A  
HETATM    7  C   UNL     1      -9.764  20.288  65.836  1.00  0.00    -0.273 A  
HETATM    8  N   UNL     1     -10.998  18.281  66.307  1.00  0.00     0.089 NA 
BRANCH   4   9
HETATM    9  O   UNL     1      -7.545  17.957  67.563  1.00  0.00    -0.205 OA 
HETATM   10  C   UNL     1      -7.255  18.419  68.884  1.00  0.00    -0.268 C  
ENDBRANCH   4   9
BRANCH   6  11
HETATM   11  C   UNL     1     -10.170  16.487  67.700  1.00  0.00    -0.279 C  
BRANCH  11  12
HETATM   12  S   UNL     1     -11.087  15.303  66.676  1.00  0.00    -0.225 S  
HETATM   13  O   UNL     1     -10.351  15.015  65.399  1.00  0.00    -0.327 OA 
BRANCH  12  14
HETATM   14  C   UNL     1     -10.889  13.892  67.660  1.00  0.00    -0.254 A  
HETATM   15  N   UNL     1     -11.810  13.355  68.431  1.00  0.00    -0.356 NA 
HETATM   16  C   UNL     1     -11.241  12.192  68.905  1.00  0.00    -0.269 A  
HETATM   17  H   UNL     1     -12.741  13.718  68.634  1.00  0.00     0.000 HD 
HETATM   18  C   UNL     1      -9.940  12.044  68.436  1.00  0.00    -0.208 A  
HETATM   19  N   UNL     1      -9.736  13.154  67.660  1.00  0.00    -0.207 NA 
HETATM   20  C   UNL     1      -9.132  10.947  68.748  1.00  0.00    -0.174 A  
HETATM   21  C   UNL     1      -9.679   9.963  69.586  1.00  0.00    -0.229 A  
HETATM   22  C   UNL     1     -10.993  10.075  70.051  1.00  0.00    -0.352 A  
HETATM   23  C   UNL     1     -11.781  11.191  69.726  1.00  0.00    -0.419 A  
BRANCH  21  24
HETATM   24  O   UNL     1      -8.832   8.920  69.857  1.00  0.00    -0.138 OA 
HETATM   25  C   UNL     1      -8.838   7.862  68.912  1.00  0.00    -0.142 C  
HETATM   26  F   UNL     1      -8.007   8.181  67.889  1.00  0.00    -0.116 F  
HETATM   27  F   UNL     1      -8.305   6.774  69.523  1.00  0.00    -0.123 F  
ENDBRANCH  21  24
ENDBRANCH  12  14
ENDBRANCH  11  12
ENDBRANCH   6  11
ENDBRANCH   2   3
TORSDOF 6
ENDMDL
MODEL      190
REMARK 921   NORMALIZED FREE ENERGY PREDICTED BY IDOCK:   -4.28 KCAL/MOL
REMARK 922        TOTAL FREE ENERGY PREDICTED BY IDOCK:   -6.54 KCAL/MOL
REMARK 923 INTER-LIGAND FREE ENERGY PREDICTED BY IDOCK:   -5.85 KCAL/MOL
REMARK 924 INTRA-LIGAND FREE ENERGY PREDICTED BY IDOCK:   -0.68 KCAL/MOL
REMARK 927      BINDING AFFINITY PREDICTED BY RF-SCORE:    0.00 PKD
ROOT
HETATM    1  C   UNL     1      -9.357   7.127  74.324  1.00  0.00    -0.207 C  
HETATM    2  O   UNL     1      -8.984   8.125  73.375  1.00  0.00    -0.254 OA 
ENDROOT
BRANCH   2   3
HETATM    3  C   UNL     1      -9.547   7.982  72.130  1.00  0.00    -0.215 A  
HETATM    4  C   UNL     1      -8.985   7.287  71.039  1.00  0.00    -0.149 A  
HETATM    5  C   UNL     1     -11.409   8.535  70.762  1.00  0.00    -0.266 A  
HETATM    6  C   UNL     1      -9.760   7.147  69.882  1.00  0.00    -0.170 A  
HETATM    7  C   UNL     1     -10.762   8.636  71.975  1.00  0.00    -0.427 A  
HETATM    8  N   UNL     1     -10.943   7.807  69.727  1.00  0.00    -0.206 NA 
BRANCH   4   9
HETATM    9  O   UNL     1      -7.751   6.711  71.217  1.00  0.00    -0.092 OA 
HETATM   10  C   UNL     1      -6.625   7.557  70.977  1.00  0.00    -0.039 C  
ENDBRANCH   4   9
BRANCH   6  11
HETATM   11  C   UNL     1      -9.408   6.213  68.752  1.00  0.00    -0.123 C  
BRANCH  11  12
HETATM   12  S   UNL     1      -8.015   6.845  67.777  1.00  0.00    -0.114 S  
HETATM   13  O   UNL     1      -7.867   6.081  66.493  1.00  0.00    -0.101 OA 
BRANCH  12  14
HETATM   14  C   UNL     1      -8.678   8.382  67.333  1.00  0.00    -0.135 A  
HETATM   15  N   UNL     1      -8.590   9.492  68.036  1.00  0.00    -0.120 NA 
HETATM   16  C   UNL     1      -9.143  10.465  67.231  1.00  0.00    -0.135 A  
HETATM   17  H   UNL     1      -8.197   9.607  68.970  1.00  0.00     0.000 HD 
HETATM   18  C   UNL     1      -9.603   9.924  66.036  1.00  0.00    -0.225 A  
HETATM   19  N   UNL     1      -9.311   8.590  66.137  1.00  0.00    -0.213 NA 
HETATM   20  C   UNL     1     -10.197  10.688  65.027  1.00  0.00    -0.380 A  
HETATM   21  C   UNL     1     -10.334  12.065  65.258  1.00  0.00    -0.275 A  
HETATM   22  C   UNL     1      -9.858  12.639  66.441  1.00  0.00    -0.263 A  
HETATM   23  C   UNL     1      -9.269  11.846  67.441  1.00  0.00    -0.177 A  
BRANCH  21  24
HETATM   24  O   UNL     1     -10.930  12.752  64.233  1.00  0.00    -0.333 OA 
HETATM   25  C   UNL     1     -11.439  14.034  64.566  1.00  0.00    -0.370 C  
HETATM   26  F   UNL     1     -10.431  14.938  64.494  1.00  0.00    -0.393 F  
HETATM   27  F   UNL     1     -12.336  14.372  63.605  1.00  0.00    -0.470 F  
ENDBRANCH  21  24
ENDBRANCH  12  14
ENDBRANCH  11  12
ENDBRANCH   6  11
ENDBRANCH   2   3
TORSDOF 6
ENDMDL
MODEL      191
REMARK 921   NORMALIZED FREE ENERGY PREDICTED BY IDOCK:   -4.27 KCAL/MOL
REMARK 922        TOTAL FREE ENERGY PREDICTED BY IDOCK:   -6.52 KCAL/MOL
REMARK 923 INTER-LIGAND FREE ENERGY PREDICTED BY IDOCK:   -5.76 KCAL/MOL
REMARK 924 INTRA-LIGAND FREE ENERGY PREDICTED BY IDOCK:   -0.75 KCAL/MOL
REMARK 927      BINDING AFFINITY PREDICTED BY RF-SCORE:    0.00 PKD
ROOT
HETATM    1  C   UNL     1      -9.911   4.889  67.502  1.00  0.00    -0.167 C  
HETATM    2  O   UNL     1      -9.263   5.937  68.221  1.00  0.00    -0.117 OA 
ENDROOT
BRANCH   2   3
HETATM    3  C   UNL     1     -10.011   6.499  69.226  1.00  0.00    -0.153 A  
HETATM    4  C   UNL     1      -9.930   7.834  69.675  1.00  0.00    -0.190 A  
HETATM    5  C   UNL     1     -11.687   6.098  70.862  1.00  0.00    -0.109 A  
HETATM    6  C   UNL     1     -10.857   8.261  70.633  1.00  0.00    -0.236 A  
HETATM    7  C   UNL     1     -10.883   5.618  69.850  1.00  0.00    -0.370 A  
HETATM    8  N   UNL     1     -11.697   7.388  71.257  1.00  0.00    -0.279 NA 
BRANCH   4   9
HETATM    9  O   UNL     1      -9.006   8.654  69.074  1.00  0.00    -0.140 OA 
HETATM   10  C   UNL     1      -7.655   8.505  69.516  1.00  0.00    -0.089 C  
ENDBRANCH   4   9
BRANCH   6  11
HETATM   11  C   UNL     1     -11.065   9.707  71.003  1.00  0.00    -0.368 C  
BRANCH  11  12
HETATM   12  S   UNL     1     -12.583  10.371  70.264  1.00  0.00    -0.105 S  
HETATM   13  O   UNL     1     -13.633  10.605  71.312  1.00  0.00    -0.098 OA 
BRANCH  12  14
HETATM   14  C   UNL     1     -12.000  11.941  69.826  1.00  0.00    -0.307 A  
HETATM   15  N   UNL     1     -12.368  13.081  70.373  1.00  0.00    -0.315 NA 
HETATM   16  C   UNL     1     -11.550  14.030  69.798  1.00  0.00    -0.281 A  
HETATM   17  H   UNL     1     -13.098  13.229  71.069  1.00  0.00     0.000 HD 
HETATM   18  C   UNL     1     -10.695  13.455  68.865  1.00  0.00    -0.190 A  
HETATM   19  N   UNL     1     -11.019  12.124  68.889  1.00  0.00    -0.227 NA 
HETATM   20  C   UNL     1      -9.747  14.184  68.140  1.00  0.00    -0.225 A  
HETATM   21  C   UNL     1      -9.679  15.565  68.378  1.00  0.00    -0.203 A  
HETATM   22  C   UNL     1     -10.510  16.165  69.330  1.00  0.00    -0.283 A  
HETATM   23  C   UNL     1     -11.458  15.408  70.040  1.00  0.00    -0.335 A  
BRANCH  21  24
HETATM   24  O   UNL     1      -8.735  16.219  67.632  1.00  0.00    -0.180 OA 
HETATM   25  C   UNL     1      -9.138  16.597  66.325  1.00  0.00    -0.298 C  
HETATM   26  F   UNL     1      -9.801  17.778  66.395  1.00  0.00    -0.281 F  
HETATM   27  F   UNL     1      -8.010  16.826  65.606  1.00  0.00    -0.215 F  
ENDBRANCH  21  24
ENDBRANCH  12  14
ENDBRANCH  11  12
ENDBRANCH   6  11
ENDBRANCH   2   3
TORSDOF 6
ENDMDL
MODEL      192
REMARK 921   NORMALIZED FREE ENERGY PREDICTED BY IDOCK:   -4.26 KCAL/MOL
REMARK 922        TOTAL FREE ENERGY PREDICTED BY IDOCK:   -6.51 KCAL/MOL
REMARK 923 INTER-LIGAND FREE ENERGY PREDICTED BY IDOCK:   -5.85 KCAL/MOL
REMARK 924 INTRA-LIGAND FREE ENERGY PREDICTED BY IDOCK:   -0.66 KCAL/MOL
REMARK 927      BINDING AFFINITY PREDICTED BY RF-SCORE:    0.00 PKD
ROOT
HETATM    1  C   UNL     1      -7.749  19.554  68.516  1.00  0.00    -0.354 C  
HETATM    2  O   UNL     1      -7.521  18.587  67.492  1.00  0.00    -0.218 OA 
ENDROOT
BRANCH   2   3
HETATM    3  C   UNL     1      -8.048  17.343  67.741  1.00  0.00    -0.214 A  
HETATM    4  C   UNL     1      -8.971  16.654  66.927  1.00  0.00    -0.222 A  
HETATM    5  C   UNL     1      -8.097  15.521  69.265  1.00  0.00    -0.248 A  
HETATM    6  C   UNL     1      -9.306  15.342  67.283  1.00  0.00    -0.210 A  
HETATM    7  C   UNL     1      -7.631  16.776  68.937  1.00  0.00    -0.239 A  
HETATM    8  N   UNL     1      -8.910  14.797  68.468  1.00  0.00    -0.171 NA 
BRANCH   4   9
HETATM    9  O   UNL     1      -9.408  17.281  65.786  1.00  0.00    -0.514 OA 
HETATM   10  C   UNL     1     -10.512  18.173  65.946  1.00  0.00    -0.283 C  
ENDBRANCH   4   9
BRANCH   6  11
HETATM   11  C   UNL     1     -10.056  14.400  66.377  1.00  0.00    -0.286 C  
BRANCH  11  12
HETATM   12  S   UNL     1     -11.466  13.637  67.229  1.00  0.00    -0.363 S  
HETATM   13  O   UNL     1     -12.635  13.482  66.300  1.00  0.00    -0.359 OA 
BRANCH  12  14
HETATM   14  C   UNL     1     -10.818  12.045  67.438  1.00  0.00    -0.242 A  
HETATM   15  N   UNL     1     -11.512  10.926  67.451  1.00  0.00    -0.489 NA 
HETATM   16  C   UNL     1     -10.567   9.925  67.510  1.00  0.00    -0.275 A  
HETATM   17  H   UNL     1     -12.526  10.823  67.423  1.00  0.00     0.000 HD 
HETATM   18  C   UNL     1      -9.282  10.452  67.566  1.00  0.00    -0.145 A  
HETATM   19  N   UNL     1      -9.474  11.807  67.539  1.00  0.00    -0.172 NA 
HETATM   20  C   UNL     1      -8.130   9.661  67.618  1.00  0.00    -0.113 A  
HETATM   21  C   UNL     1      -8.305   8.268  67.621  1.00  0.00    -0.127 A  
HETATM   22  C   UNL     1      -9.585   7.712  67.539  1.00  0.00    -0.178 A  
HETATM   23  C   UNL     1     -10.726   8.531  67.494  1.00  0.00    -0.211 A  
BRANCH  21  24
HETATM   24  O   UNL     1      -7.137   7.554  67.680  1.00  0.00    -0.080 OA 
HETATM   25  C   UNL     1      -7.121   6.340  66.947  1.00  0.00    -0.073 C  
HETATM   26  F   UNL     1      -6.811   6.610  65.655  1.00  0.00    -0.044 F  
HETATM   27  F   UNL     1      -6.108   5.584  67.442  1.00  0.00    -0.024 F  
ENDBRANCH  21  24
ENDBRANCH  12  14
ENDBRANCH  11  12
ENDBRANCH   6  11
ENDBRANCH   2   3
TORSDOF 6
ENDMDL
MODEL      193
REMARK 921   NORMALIZED FREE ENERGY PREDICTED BY IDOCK:   -4.25 KCAL/MOL
REMARK 922        TOTAL FREE ENERGY PREDICTED BY IDOCK:   -6.49 KCAL/MOL
REMARK 923 INTER-LIGAND FREE ENERGY PREDICTED BY IDOCK:   -5.52 KCAL/MOL
REMARK 924 INTRA-LIGAND FREE ENERGY PREDICTED BY IDOCK:   -0.97 KCAL/MOL
REMARK 927      BINDING AFFINITY PREDICTED BY RF-SCORE:    0.00 PKD
ROOT
HETATM    1  C   UNL     1      -9.828  12.321  66.118  1.00  0.00    -0.243 C  
HETATM    2  O   UNL     1      -8.830  11.608  66.848  1.00  0.00    -0.176 OA 
ENDROOT
BRANCH   2   3
HETATM    3  C   UNL     1      -8.853  10.245  66.683  1.00  0.00    -0.136 A  
HETATM    4  C   UNL     1      -7.729   9.407  66.529  1.00  0.00    -0.094 A  
HETATM    5  C   UNL     1     -10.250   8.333  66.480  1.00  0.00    -0.193 A  
HETATM    6  C   UNL     1      -7.942   8.024  66.490  1.00  0.00    -0.102 A  
HETATM    7  C   UNL     1     -10.128   9.698  66.629  1.00  0.00    -0.307 A  
HETATM    8  N   UNL     1      -9.195   7.493  66.418  1.00  0.00    -0.172 NA 
BRANCH   4   9
HETATM    9  O   UNL     1      -6.489   9.999  66.521  1.00  0.00    -0.068 OA 
HETATM   10  C   UNL     1      -5.904  10.210  65.235  1.00  0.00    -0.105 C  
ENDBRANCH   4   9
BRANCH   6  11
HETATM   11  C   UNL     1      -6.834   7.008  66.601  1.00  0.00    -0.068 C  
BRANCH  11  12
HETATM   12  S   UNL     1      -6.401   6.683  68.334  1.00  0.00    -0.039 S  
HETATM   13  O   UNL     1      -5.524   7.772  68.882  1.00  0.00    -0.025 OA 
BRANCH  12  14
HETATM   14  C   UNL     1      -7.959   6.932  69.047  1.00  0.00    -0.116 A  
HETATM   15  N   UNL     1      -8.925   6.040  69.119  1.00  0.00    -0.124 NA 
HETATM   16  C   UNL     1      -9.906   6.642  69.878  1.00  0.00    -0.167 A  
HETATM   17  H   UNL     1      -8.943   5.108  68.706  1.00  0.00     0.000 HD 
HETATM   18  C   UNL     1      -9.537   7.933  70.241  1.00  0.00    -0.171 A  
HETATM   19  N   UNL     1      -8.299   8.098  69.679  1.00  0.00    -0.123 NA 
HETATM   20  C   UNL     1     -10.338   8.768  71.024  1.00  0.00    -0.297 A  
HETATM   21  C   UNL     1     -11.577   8.261  71.447  1.00  0.00    -0.280 A  
HETATM   22  C   UNL     1     -11.961   6.957  71.117  1.00  0.00    -0.413 A  
HETATM   23  C   UNL     1     -11.138   6.141  70.323  1.00  0.00    -0.436 A  
BRANCH  21  24
HETATM   24  O   UNL     1     -12.313   9.132  72.204  1.00  0.00    -0.369 OA 
HETATM   25  C   UNL     1     -13.076  10.084  71.479  1.00  0.00    -0.433 C  
HETATM   26  F   UNL     1     -14.252   9.517  71.112  1.00  0.00    -0.304 F  
HETATM   27  F   UNL     1     -13.380  11.093  72.335  1.00  0.00    -0.560 F  
ENDBRANCH  21  24
ENDBRANCH  12  14
ENDBRANCH  11  12
ENDBRANCH   6  11
ENDBRANCH   2   3
TORSDOF 6
ENDMDL
MODEL      194
REMARK 921   NORMALIZED FREE ENERGY PREDICTED BY IDOCK:   -4.20 KCAL/MOL
REMARK 922        TOTAL FREE ENERGY PREDICTED BY IDOCK:   -6.42 KCAL/MOL
REMARK 923 INTER-LIGAND FREE ENERGY PREDICTED BY IDOCK:   -5.73 KCAL/MOL
REMARK 924 INTRA-LIGAND FREE ENERGY PREDICTED BY IDOCK:   -0.69 KCAL/MOL
REMARK 927      BINDING AFFINITY PREDICTED BY RF-SCORE:    0.00 PKD
ROOT
HETATM    1  C   UNL     1      -7.173   3.357  73.190  1.00  0.00    -0.050 C  
HETATM    2  O   UNL     1      -8.334   4.152  73.427  1.00  0.00    -0.089 OA 
ENDROOT
BRANCH   2   3
HETATM    3  C   UNL     1      -8.900   4.703  72.303  1.00  0.00    -0.122 A  
HETATM    4  C   UNL     1     -10.202   5.236  72.205  1.00  0.00    -0.199 A  
HETATM    5  C   UNL     1      -8.565   5.214  70.007  1.00  0.00    -0.100 A  
HETATM    6  C   UNL     1     -10.565   5.863  71.008  1.00  0.00    -0.250 A  
HETATM    7  C   UNL     1      -8.086   4.669  71.180  1.00  0.00    -0.088 A  
HETATM    8  N   UNL     1      -9.770   5.811  69.901  1.00  0.00    -0.157 NA 
BRANCH   4   9
HETATM    9  O   UNL     1     -10.997   5.189  73.324  1.00  0.00    -0.263 OA 
HETATM   10  C   UNL     1     -11.592   3.922  73.616  1.00  0.00     0.026 C  
ENDBRANCH   4   9
BRANCH   6  11
HETATM   11  C   UNL     1     -11.805   6.705  70.852  1.00  0.00    -0.377 C  
BRANCH  11  12
HETATM   12  S   UNL     1     -11.499   8.433  71.315  1.00  0.00    -0.290 S  
HETATM   13  O   UNL     1     -10.303   8.543  72.216  1.00  0.00    -0.311 OA 
BRANCH  12  14
HETATM   14  C   UNL     1     -10.982   9.033  69.775  1.00  0.00    -0.166 A  
HETATM   15  N   UNL     1     -10.770   8.307  68.697  1.00  0.00    -0.410 NA 
HETATM   16  C   UNL     1     -10.507   9.223  67.701  1.00  0.00    -0.264 A  
HETATM   17  H   UNL     1     -10.795   7.291  68.617  1.00  0.00     0.000 HD 
HETATM   18  C   UNL     1     -10.530  10.522  68.196  1.00  0.00    -0.186 A  
HETATM   19  N   UNL     1     -10.816  10.369  69.526  1.00  0.00    -0.238 NA 
HETATM   20  C   UNL     1     -10.311  11.650  67.400  1.00  0.00    -0.231 A  
HETATM   21  C   UNL     1     -10.048  11.436  66.038  1.00  0.00    -0.234 A  
HETATM   22  C   UNL     1     -10.044  10.141  65.510  1.00  0.00    -0.338 A  
HETATM   23  C   UNL     1     -10.263   9.024  66.334  1.00  0.00    -0.297 A  
BRANCH  21  24
HETATM   24  O   UNL     1      -9.836  12.582  65.319  1.00  0.00    -0.235 OA 
HETATM   25  C   UNL     1      -9.869  13.790  66.063  1.00  0.00    -0.282 C  
HETATM   26  F   UNL     1      -8.650  13.996  66.620  1.00  0.00    -0.215 F  
HETATM   27  F   UNL     1     -10.070  14.801  65.180  1.00  0.00    -0.359 F  
ENDBRANCH  21  24
ENDBRANCH  12  14
ENDBRANCH  11  12
ENDBRANCH   6  11
ENDBRANCH   2   3
TORSDOF 6
ENDMDL
MODEL      195
REMARK 921   NORMALIZED FREE ENERGY PREDICTED BY IDOCK:   -4.19 KCAL/MOL
REMARK 922        TOTAL FREE ENERGY PREDICTED BY IDOCK:   -6.42 KCAL/MOL
REMARK 923 INTER-LIGAND FREE ENERGY PREDICTED BY IDOCK:   -5.74 KCAL/MOL
REMARK 924 INTRA-LIGAND FREE ENERGY PREDICTED BY IDOCK:   -0.67 KCAL/MOL
REMARK 927      BINDING AFFINITY PREDICTED BY RF-SCORE:    0.00 PKD
ROOT
HETATM    1  C   UNL     1     -10.462  16.460  65.678  1.00  0.00    -0.347 C  
HETATM    2  O   UNL     1     -10.332  15.134  65.170  1.00  0.00    -0.379 OA 
ENDROOT
BRANCH   2   3
HETATM    3  C   UNL     1     -10.113  14.167  66.121  1.00  0.00    -0.313 A  
HETATM    4  C   UNL     1     -10.980  13.100  66.436  1.00  0.00    -0.288 A  
HETATM    5  C   UNL     1      -8.622  13.394  67.802  1.00  0.00    -0.194 A  
HETATM    6  C   UNL     1     -10.534  12.143  67.355  1.00  0.00    -0.213 A  
HETATM    7  C   UNL     1      -8.934  14.327  66.836  1.00  0.00    -0.255 A  
HETATM    8  N   UNL     1      -9.385  12.314  68.069  1.00  0.00    -0.190 NA 
BRANCH   4   9
HETATM    9  O   UNL     1     -12.167  13.019  65.750  1.00  0.00    -0.434 OA 
HETATM   10  C   UNL     1     -12.122  12.327  64.501  1.00  0.00    -0.383 C  
ENDBRANCH   4   9
BRANCH   6  11
HETATM   11  C   UNL     1     -11.226  10.823  67.584  1.00  0.00    -0.299 C  
BRANCH  11  12
HETATM   12  S   UNL     1     -10.481   9.501  66.587  1.00  0.00    -0.118 S  
HETATM   13  O   UNL     1      -9.120   9.901  66.096  1.00  0.00    -0.148 OA 
BRANCH  12  14
HETATM   14  C   UNL     1     -10.206   8.344  67.845  1.00  0.00    -0.217 A  
HETATM   15  N   UNL     1     -11.050   7.411  68.233  1.00  0.00    -0.449 NA 
HETATM   16  C   UNL     1     -10.350   6.662  69.154  1.00  0.00    -0.194 A  
HETATM   17  H   UNL     1     -12.010   7.273  67.921  1.00  0.00     0.000 HD 
HETATM   18  C   UNL     1      -9.071   7.173  69.348  1.00  0.00    -0.145 A  
HETATM   19  N   UNL     1      -9.015   8.258  68.515  1.00  0.00    -0.137 NA 
HETATM   20  C   UNL     1      -8.140   6.600  70.219  1.00  0.00    -0.121 A  
HETATM   21  C   UNL     1      -8.540   5.457  70.928  1.00  0.00    -0.126 A  
HETATM   22  C   UNL     1      -9.811   4.907  70.733  1.00  0.00    -0.285 A  
HETATM   23  C   UNL     1     -10.730   5.508  69.855  1.00  0.00    -0.358 A  
BRANCH  21  24
HETATM   24  O   UNL     1      -7.582   4.951  71.767  1.00  0.00    -0.090 OA 
HETATM   25  C   UNL     1      -6.959   3.752  71.336  1.00  0.00    -0.032 C  
HETATM   26  F   UNL     1      -5.950   4.063  70.485  1.00  0.00    -0.015 F  
HETATM   27  F   UNL     1      -6.386   3.182  72.427  1.00  0.00    -0.012 F  
ENDBRANCH  21  24
ENDBRANCH  12  14
ENDBRANCH  11  12
ENDBRANCH   6  11
ENDBRANCH   2   3
TORSDOF 6
ENDMDL
MODEL      196
REMARK 921   NORMALIZED FREE ENERGY PREDICTED BY IDOCK:   -4.19 KCAL/MOL
REMARK 922        TOTAL FREE ENERGY PREDICTED BY IDOCK:   -6.41 KCAL/MOL
REMARK 923 INTER-LIGAND FREE ENERGY PREDICTED BY IDOCK:   -6.11 KCAL/MOL
REMARK 924 INTRA-LIGAND FREE ENERGY PREDICTED BY IDOCK:   -0.31 KCAL/MOL
REMARK 927      BINDING AFFINITY PREDICTED BY RF-SCORE:    0.00 PKD
ROOT
HETATM    1  C   UNL     1      -5.558  21.359  67.241  1.00  0.00    -0.342 C  
HETATM    2  O   UNL     1      -5.177  20.023  67.569  1.00  0.00    -0.168 OA 
ENDROOT
BRANCH   2   3
HETATM    3  C   UNL     1      -6.159  19.080  67.391  1.00  0.00    -0.178 A  
HETATM    4  C   UNL     1      -6.825  18.371  68.413  1.00  0.00    -0.241 A  
HETATM    5  C   UNL     1      -7.443  17.885  65.787  1.00  0.00    -0.070 A  
HETATM    6  C   UNL     1      -7.883  17.531  68.046  1.00  0.00    -0.225 A  
HETATM    7  C   UNL     1      -6.457  18.809  66.063  1.00  0.00    -0.257 A  
HETATM    8  N   UNL     1      -8.159  17.253  66.740  1.00  0.00    -0.227 NA 
BRANCH   4   9
HETATM    9  O   UNL     1      -6.452  18.622  69.710  1.00  0.00    -0.226 OA 
HETATM   10  C   UNL     1      -7.008  19.796  70.306  1.00  0.00     0.148 C  
ENDBRANCH   4   9
BRANCH   6  11
HETATM   11  C   UNL     1      -8.848  16.928  69.035  1.00  0.00    -0.159 C  
BRANCH  11  12
HETATM   12  S   UNL     1     -10.564  17.072  68.461  1.00  0.00    -0.360 S  
HETATM   13  O   UNL     1     -10.705  18.185  67.463  1.00  0.00    -0.412 OA 
BRANCH  12  14
HETATM   14  C   UNL     1     -10.661  15.606  67.545  1.00  0.00    -0.297 A  
HETATM   15  N   UNL     1     -10.551  15.505  66.237  1.00  0.00    -0.301 NA 
HETATM   16  C   UNL     1     -10.560  14.150  65.985  1.00  0.00    -0.297 A  
HETATM   17  H   UNL     1     -10.476  16.263  65.559  1.00  0.00     0.000 HD 
HETATM   18  C   UNL     1     -10.710  13.423  67.160  1.00  0.00    -0.264 A  
HETATM   19  N   UNL     1     -10.792  14.378  68.137  1.00  0.00    -0.239 NA 
HETATM   20  C   UNL     1     -10.738  12.026  67.199  1.00  0.00    -0.277 A  
HETATM   21  C   UNL     1     -10.616  11.345  65.978  1.00  0.00    -0.266 A  
HETATM   22  C   UNL     1     -10.438  12.051  64.784  1.00  0.00    -0.335 A  
HETATM   23  C   UNL     1     -10.419  13.457  64.773  1.00  0.00    -0.419 A  
BRANCH  21  24
HETATM   24  O   UNL     1     -10.658   9.980  66.088  1.00  0.00    -0.129 OA 
HETATM   25  C   UNL     1      -9.409   9.341  66.299  1.00  0.00    -0.200 C  
HETATM   26  F   UNL     1      -9.119   9.370  67.623  1.00  0.00    -0.122 F  
HETATM   27  F   UNL     1      -9.562   8.035  65.961  1.00  0.00    -0.243 F  
ENDBRANCH  21  24
ENDBRANCH  12  14
ENDBRANCH  11  12
ENDBRANCH   6  11
ENDBRANCH   2   3
TORSDOF 6
ENDMDL
MODEL      197
REMARK 921   NORMALIZED FREE ENERGY PREDICTED BY IDOCK:   -4.19 KCAL/MOL
REMARK 922        TOTAL FREE ENERGY PREDICTED BY IDOCK:   -6.41 KCAL/MOL
REMARK 923 INTER-LIGAND FREE ENERGY PREDICTED BY IDOCK:   -5.38 KCAL/MOL
REMARK 924 INTRA-LIGAND FREE ENERGY PREDICTED BY IDOCK:   -1.03 KCAL/MOL
REMARK 927      BINDING AFFINITY PREDICTED BY RF-SCORE:    0.00 PKD
ROOT
HETATM    1  C   UNL     1     -12.183  15.612  63.958  1.00  0.00     0.174 C  
HETATM    2  O   UNL     1     -11.064  16.272  64.547  1.00  0.00    -0.672 OA 
ENDROOT
BRANCH   2   3
HETATM    3  C   UNL     1     -10.658  15.761  65.755  1.00  0.00    -0.355 A  
HETATM    4  C   UNL     1      -9.602  16.250  66.552  1.00  0.00    -0.264 A  
HETATM    5  C   UNL     1     -11.033  14.060  67.373  1.00  0.00    -0.293 A  
HETATM    6  C   UNL     1      -9.410  15.671  67.812  1.00  0.00    -0.202 A  
HETATM    7  C   UNL     1     -11.361  14.635  66.163  1.00  0.00    -0.350 A  
HETATM    8  N   UNL     1     -10.088  14.554  68.200  1.00  0.00    -0.222 NA 
BRANCH   4   9
HETATM    9  O   UNL     1      -8.891  17.325  66.079  1.00  0.00    -0.495 OA 
HETATM   10  C   UNL     1      -9.418  18.614  66.399  1.00  0.00    -0.311 C  
ENDBRANCH   4   9
BRANCH   6  11
HETATM   11  C   UNL     1      -8.511  16.259  68.870  1.00  0.00    -0.253 C  
BRANCH  11  12
HETATM   12  S   UNL     1      -6.770  15.848  68.566  1.00  0.00    -0.128 S  
HETATM   13  O   UNL     1      -5.946  16.050  69.805  1.00  0.00    -0.151 OA 
BRANCH  12  14
HETATM   14  C   UNL     1      -6.931  14.134  68.384  1.00  0.00    -0.099 A  
HETATM   15  N   UNL     1      -7.438  13.308  69.275  1.00  0.00    -0.312 NA 
HETATM   16  C   UNL     1      -7.478  12.085  68.641  1.00  0.00    -0.113 A  
HETATM   17  H   UNL     1      -7.735  13.526  70.226  1.00  0.00     0.000 HD 
HETATM   18  C   UNL     1      -6.956  12.170  67.355  1.00  0.00    -0.146 A  
HETATM   19  N   UNL     1      -6.596  13.484  67.226  1.00  0.00    -0.210 NA 
HETATM   20  C   UNL     1      -6.887  11.081  66.482  1.00  0.00    -0.132 A  
HETATM   21  C   UNL     1      -7.368   9.848  66.951  1.00  0.00    -0.091 A  
HETATM   22  C   UNL     1      -7.922   9.741  68.231  1.00  0.00    -0.096 A  
HETATM   23  C   UNL     1      -7.973  10.851  69.090  1.00  0.00    -0.114 A  
BRANCH  21  24
HETATM   24  O   UNL     1      -7.265   8.823  66.048  1.00  0.00    -0.085 OA 
HETATM   25  C   UNL     1      -8.456   8.089  65.813  1.00  0.00    -0.147 C  
HETATM   26  F   UNL     1      -9.198   8.741  64.884  1.00  0.00    -0.200 F  
HETATM   27  F   UNL     1      -8.095   6.902  65.261  1.00  0.00    -0.109 F  
ENDBRANCH  21  24
ENDBRANCH  12  14
ENDBRANCH  11  12
ENDBRANCH   6  11
ENDBRANCH   2   3
TORSDOF 6
ENDMDL
MODEL      198
REMARK 921   NORMALIZED FREE ENERGY PREDICTED BY IDOCK:   -4.18 KCAL/MOL
REMARK 922        TOTAL FREE ENERGY PREDICTED BY IDOCK:   -6.39 KCAL/MOL
REMARK 923 INTER-LIGAND FREE ENERGY PREDICTED BY IDOCK:   -5.79 KCAL/MOL
REMARK 924 INTRA-LIGAND FREE ENERGY PREDICTED BY IDOCK:   -0.60 KCAL/MOL
REMARK 927      BINDING AFFINITY PREDICTED BY RF-SCORE:    0.00 PKD
ROOT
HETATM    1  C   UNL     1     -11.461  13.515  68.147  1.00  0.00    -0.303 C  
HETATM    2  O   UNL     1     -10.438  13.488  67.154  1.00  0.00    -0.254 OA 
ENDROOT
BRANCH   2   3
HETATM    3  C   UNL     1      -9.850  12.261  66.960  1.00  0.00    -0.205 A  
HETATM    4  C   UNL     1      -8.466  11.989  66.991  1.00  0.00    -0.183 A  
HETATM    5  C   UNL     1     -10.246   9.969  66.477  1.00  0.00    -0.224 A  
HETATM    6  C   UNL     1      -8.059  10.654  66.888  1.00  0.00    -0.124 A  
HETATM    7  C   UNL     1     -10.744  11.239  66.672  1.00  0.00    -0.321 A  
HETATM    8  N   UNL     1      -8.937   9.657  66.585  1.00  0.00    -0.144 NA 
BRANCH   4   9
HETATM    9  O   UNL     1      -7.614  13.042  67.215  1.00  0.00    -0.152 OA 
HETATM   10  C   UNL     1      -7.796  13.746  68.445  1.00  0.00    -0.143 C  
ENDBRANCH   4   9
BRANCH   6  11
HETATM   11  C   UNL     1      -6.653  10.188  67.174  1.00  0.00    -0.069 C  
BRANCH  11  12
HETATM   12  S   UNL     1      -6.383   9.940  68.951  1.00  0.00    -0.041 S  
HETATM   13  O   UNL     1      -6.422  11.248  69.688  1.00  0.00    -0.104 OA 
BRANCH  12  14
HETATM   14  C   UNL     1      -7.870   9.141  69.335  1.00  0.00    -0.095 A  
HETATM   15  N   UNL     1      -8.187   7.904  69.014  1.00  0.00    -0.124 NA 
HETATM   16  C   UNL     1      -9.393   7.674  69.639  1.00  0.00    -0.156 A  
HETATM   17  H   UNL     1      -7.656   7.258  68.430  1.00  0.00     0.000 HD 
HETATM   18  C   UNL     1      -9.826   8.803  70.324  1.00  0.00    -0.175 A  
HETATM   19  N   UNL     1      -8.845   9.730  70.096  1.00  0.00    -0.220 NA 
HETATM   20  C   UNL     1     -11.014   8.846  71.060  1.00  0.00    -0.341 A  
HETATM   21  C   UNL     1     -11.796   7.681  71.088  1.00  0.00    -0.293 A  
HETATM   22  C   UNL     1     -11.371   6.523  70.429  1.00  0.00    -0.443 A  
HETATM   23  C   UNL     1     -10.175   6.510  69.692  1.00  0.00    -0.220 A  
BRANCH  21  24
HETATM   24  O   UNL     1     -12.948   7.794  71.821  1.00  0.00    -0.322 OA 
HETATM   25  C   UNL     1     -13.395   9.118  72.063  1.00  0.00    -0.445 C  
HETATM   26  F   UNL     1     -14.115   9.541  70.995  1.00  0.00    -0.365 F  
HETATM   27  F   UNL     1     -14.252   9.068  73.115  1.00  0.00    -0.324 F  
ENDBRANCH  21  24
ENDBRANCH  12  14
ENDBRANCH  11  12
ENDBRANCH   6  11
ENDBRANCH   2   3
TORSDOF 6
ENDMDL
MODEL      199
REMARK 921   NORMALIZED FREE ENERGY PREDICTED BY IDOCK:   -4.17 KCAL/MOL
REMARK 922        TOTAL FREE ENERGY PREDICTED BY IDOCK:   -6.38 KCAL/MOL
REMARK 923 INTER-LIGAND FREE ENERGY PREDICTED BY IDOCK:   -5.85 KCAL/MOL
REMARK 924 INTRA-LIGAND FREE ENERGY PREDICTED BY IDOCK:   -0.53 KCAL/MOL
REMARK 927      BINDING AFFINITY PREDICTED BY RF-SCORE:    0.00 PKD
ROOT
HETATM    1  C   UNL     1      -6.754  19.755  65.335  1.00  0.00    -0.293 C  
HETATM    2  O   UNL     1      -7.031  19.420  66.693  1.00  0.00    -0.196 OA 
ENDROOT
BRANCH   2   3
HETATM    3  C   UNL     1      -8.276  18.884  66.917  1.00  0.00    -0.268 A  
HETATM    4  C   UNL     1      -8.549  17.571  67.352  1.00  0.00    -0.220 A  
HETATM    5  C   UNL     1     -10.615  19.300  66.844  1.00  0.00    -0.459 A  
HETATM    6  C   UNL     1      -9.879  17.239  67.639  1.00  0.00    -0.279 A  
HETATM    7  C   UNL     1      -9.327  19.746  66.635  1.00  0.00    -0.483 A  
HETATM    8  N   UNL     1     -10.909  18.081  67.342  1.00  0.00    -0.306 NA 
BRANCH   4   9
HETATM    9  O   UNL     1      -7.482  16.732  67.556  1.00  0.00    -0.149 OA 
HETATM   10  C   UNL     1      -7.507  15.500  66.831  1.00  0.00    -0.082 C  
ENDBRANCH   4   9
BRANCH   6  11
HETATM   11  C   UNL     1     -10.284  15.979  68.361  1.00  0.00    -0.236 C  
BRANCH  11  12
HETATM   12  S   UNL     1     -11.320  14.918  67.314  1.00  0.00    -0.334 S  
HETATM   13  O   UNL     1     -11.138  15.254  65.862  1.00  0.00    -0.334 OA 
BRANCH  12  14
HETATM   14  C   UNL     1     -10.489  13.417  67.555  1.00  0.00    -0.236 A  
HETATM   15  N   UNL     1     -10.193  12.879  68.720  1.00  0.00    -0.420 NA 
HETATM   16  C   UNL     1      -9.662  11.644  68.413  1.00  0.00    -0.199 A  
HETATM   17  H   UNL     1     -10.326  13.286  69.645  1.00  0.00     0.000 HD 
HETATM   18  C   UNL     1      -9.608  11.449  67.038  1.00  0.00    -0.176 A  
HETATM   19  N   UNL     1     -10.124  12.605  66.515  1.00  0.00    -0.243 NA 
HETATM   20  C   UNL     1      -9.127  10.277  66.447  1.00  0.00    -0.174 A  
HETATM   21  C   UNL     1      -8.672   9.264  67.305  1.00  0.00    -0.128 A  
HETATM   22  C   UNL     1      -8.738   9.424  68.693  1.00  0.00    -0.131 A  
HETATM   23  C   UNL     1      -9.222  10.615  69.260  1.00  0.00    -0.121 A  
BRANCH  21  24
HETATM   24  O   UNL     1      -8.208   8.147  66.662  1.00  0.00    -0.100 OA 
HETATM   25  C   UNL     1      -7.878   8.319  65.293  1.00  0.00    -0.120 C  
HETATM   26  F   UNL     1      -6.618   8.811  65.203  1.00  0.00    -0.062 F  
HETATM   27  F   UNL     1      -7.858   7.086  64.725  1.00  0.00    -0.098 F  
ENDBRANCH  21  24
ENDBRANCH  12  14
ENDBRANCH  11  12
ENDBRANCH   6  11
ENDBRANCH   2   3
TORSDOF 6
ENDMDL
MODEL      200
REMARK 921   NORMALIZED FREE ENERGY PREDICTED BY IDOCK:   -4.16 KCAL/MOL
REMARK 922        TOTAL FREE ENERGY PREDICTED BY IDOCK:   -6.36 KCAL/MOL
REMARK 923 INTER-LIGAND FREE ENERGY PREDICTED BY IDOCK:   -5.96 KCAL/MOL
REMARK 924 INTRA-LIGAND FREE ENERGY PREDICTED BY IDOCK:   -0.40 KCAL/MOL
REMARK 927      BINDING AFFINITY PREDICTED BY RF-SCORE:    0.00 PKD
ROOT
HETATM    1  C   UNL     1     -12.059   7.433  70.987  1.00  0.00    -0.298 C  
HETATM    2  O   UNL     1     -10.902   6.672  71.330  1.00  0.00    -0.226 OA 
ENDROOT
BRANCH   2   3
HETATM    3  C   UNL     1      -9.826   6.843  70.494  1.00  0.00    -0.179 A  
HETATM    4  C   UNL     1      -9.399   5.945  69.494  1.00  0.00    -0.134 A  
HETATM    5  C   UNL     1      -8.015   8.271  69.922  1.00  0.00    -0.108 A  
HETATM    6  C   UNL     1      -8.350   6.344  68.659  1.00  0.00    -0.121 A  
HETATM    7  C   UNL     1      -9.104   8.007  70.724  1.00  0.00    -0.151 A  
HETATM    8  N   UNL     1      -7.631   7.477  68.901  1.00  0.00    -0.103 NA 
BRANCH   4   9
HETATM    9  O   UNL     1     -10.104   4.775  69.345  1.00  0.00    -0.218 OA 
HETATM   10  C   UNL     1      -9.573   3.634  70.022  1.00  0.00    -0.173 C  
ENDBRANCH   4   9
BRANCH   6  11
HETATM   11  C   UNL     1      -7.970   5.617  67.393  1.00  0.00    -0.102 C  
BRANCH  11  12
HETATM   12  S   UNL     1      -9.237   5.814  66.109  1.00  0.00    -0.137 S  
HETATM   13  O   UNL     1     -10.539   5.202  66.539  1.00  0.00    -0.288 OA 
BRANCH  12  14
HETATM   14  C   UNL     1      -9.464   7.527  66.221  1.00  0.00    -0.096 A  
HETATM   15  N   UNL     1      -8.865   8.434  65.479  1.00  0.00    -0.291 NA 
HETATM   16  C   UNL     1      -9.453   9.628  65.836  1.00  0.00    -0.236 A  
HETATM   17  H   UNL     1      -8.127   8.286  64.790  1.00  0.00     0.000 HD 
HETATM   18  C   UNL     1     -10.402   9.440  66.835  1.00  0.00    -0.238 A  
HETATM   19  N   UNL     1     -10.373   8.092  67.075  1.00  0.00    -0.314 NA 
HETATM   20  C   UNL     1     -11.163  10.480  67.377  1.00  0.00    -0.249 A  
HETATM   21  C   UNL     1     -10.934  11.772  66.878  1.00  0.00    -0.285 A  
HETATM   22  C   UNL     1     -10.004  11.986  65.855  1.00  0.00    -0.260 A  
HETATM   23  C   UNL     1      -9.249  10.922  65.333  1.00  0.00    -0.231 A  
BRANCH  21  24
HETATM   24  O   UNL     1     -11.707  12.744  67.456  1.00  0.00    -0.337 OA 
HETATM   25  C   UNL     1     -11.897  13.919  66.684  1.00  0.00    -0.420 C  
HETATM   26  F   UNL     1     -12.921  13.716  65.819  1.00  0.00    -0.493 F  
HETATM   27  F   UNL     1     -12.294  14.900  67.535  1.00  0.00    -0.274 F  
ENDBRANCH  21  24
ENDBRANCH  12  14
ENDBRANCH  11  12
ENDBRANCH   6  11
ENDBRANCH   2   3
TORSDOF 6
ENDMDL
MODEL      201
REMARK 921   NORMALIZED FREE ENERGY PREDICTED BY IDOCK:   -4.15 KCAL/MOL
REMARK 922        TOTAL FREE ENERGY PREDICTED BY IDOCK:   -6.36 KCAL/MOL
REMARK 923 INTER-LIGAND FREE ENERGY PREDICTED BY IDOCK:   -5.87 KCAL/MOL
REMARK 924 INTRA-LIGAND FREE ENERGY PREDICTED BY IDOCK:   -0.48 KCAL/MOL
REMARK 927      BINDING AFFINITY PREDICTED BY RF-SCORE:    0.00 PKD
ROOT
HETATM    1  C   UNL     1      -5.249  11.952  69.350  1.00  0.00    -0.057 C  
HETATM    2  O   UNL     1      -5.243  11.181  68.150  1.00  0.00    -0.040 OA 
ENDROOT
BRANCH   2   3
HETATM    3  C   UNL     1      -6.374  10.431  67.936  1.00  0.00    -0.060 A  
HETATM    4  C   UNL     1      -6.899   9.452  68.806  1.00  0.00    -0.053 A  
HETATM    5  C   UNL     1      -8.149   9.976  66.424  1.00  0.00    -0.120 A  
HETATM    6  C   UNL     1      -8.129   8.873  68.474  1.00  0.00    -0.108 A  
HETATM    7  C   UNL     1      -6.997  10.672  66.719  1.00  0.00    -0.110 A  
HETATM    8  N   UNL     1      -8.726   9.097  67.269  1.00  0.00    -0.117 NA 
BRANCH   4   9
HETATM    9  O   UNL     1      -6.214   9.199  69.969  1.00  0.00    -0.036 OA 
HETATM   10  C   UNL     1      -5.475   7.976  70.008  1.00  0.00    -0.023 C  
ENDBRANCH   4   9
BRANCH   6  11
HETATM   11  C   UNL     1      -8.933   8.024  69.426  1.00  0.00    -0.148 C  
BRANCH  11  12
HETATM   12  S   UNL     1     -10.615   7.743  68.807  1.00  0.00    -0.077 S  
HETATM   13  O   UNL     1     -11.224   6.525  69.440  1.00  0.00    -0.340 OA 
BRANCH  12  14
HETATM   14  C   UNL     1     -11.400   9.097  69.548  1.00  0.00     0.147 A  
HETATM   15  N   UNL     1     -12.194   9.050  70.597  1.00  0.00    -0.487 NA 
HETATM   16  C   UNL     1     -12.465  10.368  70.896  1.00  0.00    -0.381 A  
HETATM   17  H   UNL     1     -12.533   8.220  71.083  1.00  0.00     0.000 HD 
HETATM   18  C   UNL     1     -11.849  11.223  69.990  1.00  0.00    -0.367 A  
HETATM   19  N   UNL     1     -11.193  10.384  69.129  1.00  0.00    -0.244 NA 
HETATM   20  C   UNL     1     -11.943  12.616  70.063  1.00  0.00    -0.377 A  
HETATM   21  C   UNL     1     -12.711  13.155  71.108  1.00  0.00    -0.300 A  
HETATM   22  C   UNL     1     -13.320  12.318  72.048  1.00  0.00    -0.491 A  
HETATM   23  C   UNL     1     -13.213  10.920  71.946  1.00  0.00    -0.508 A  
BRANCH  21  24
HETATM   24  O   UNL     1     -12.767  14.524  71.117  1.00  0.00    -0.299 OA 
HETATM   25  C   UNL     1     -12.134  15.157  72.217  1.00  0.00    -0.393 C  
HETATM   26  F   UNL     1     -10.810  15.282  71.951  1.00  0.00    -0.406 F  
HETATM   27  F   UNL     1     -12.635  16.416  72.300  1.00  0.00    -0.479 F  
ENDBRANCH  21  24
ENDBRANCH  12  14
ENDBRANCH  11  12
ENDBRANCH   6  11
ENDBRANCH   2   3
TORSDOF 6
ENDMDL
MODEL      202
REMARK 921   NORMALIZED FREE ENERGY PREDICTED BY IDOCK:   -4.15 KCAL/MOL
REMARK 922        TOTAL FREE ENERGY PREDICTED BY IDOCK:   -6.36 KCAL/MOL
REMARK 923 INTER-LIGAND FREE ENERGY PREDICTED BY IDOCK:   -5.79 KCAL/MOL
REMARK 924 INTRA-LIGAND FREE ENERGY PREDICTED BY IDOCK:   -0.56 KCAL/MOL
REMARK 927      BINDING AFFINITY PREDICTED BY RF-SCORE:    0.00 PKD
ROOT
HETATM    1  C   UNL     1     -10.237  19.731  68.409  1.00  0.00    -0.449 C  
HETATM    2  O   UNL     1      -9.368  18.799  67.767  1.00  0.00    -0.286 OA 
ENDROOT
BRANCH   2   3
HETATM    3  C   UNL     1      -9.684  17.478  67.966  1.00  0.00    -0.287 A  
HETATM    4  C   UNL     1      -9.359  16.407  67.107  1.00  0.00    -0.218 A  
HETATM    5  C   UNL     1     -10.778  15.934  69.404  1.00  0.00    -0.272 A  
HETATM    6  C   UNL     1      -9.663  15.109  67.534  1.00  0.00    -0.205 A  
HETATM    7  C   UNL     1     -10.427  17.235  69.113  1.00  0.00    -0.263 A  
HETATM    8  N   UNL     1     -10.409  14.877  68.651  1.00  0.00    -0.231 NA 
BRANCH   4   9
HETATM    9  O   UNL     1      -8.681  16.702  65.950  1.00  0.00    -0.483 OA 
HETATM   10  C   UNL     1      -7.285  16.973  66.094  1.00  0.00    -0.154 C  
ENDBRANCH   4   9
BRANCH   6  11
HETATM   11  C   UNL     1      -9.139  13.867  66.858  1.00  0.00    -0.245 C  
BRANCH  11  12
HETATM   12  S   UNL     1      -7.709  13.182  67.741  1.00  0.00    -0.170 S  
HETATM   13  O   UNL     1      -7.508  13.876  69.058  1.00  0.00    -0.108 OA 
BRANCH  12  14
HETATM   14  C   UNL     1      -8.358  11.624  68.126  1.00  0.00    -0.154 A  
HETATM   15  N   UNL     1      -8.731  11.218  69.322  1.00  0.00    -0.370 NA 
HETATM   16  C   UNL     1      -9.296   9.978  69.114  1.00  0.00    -0.193 A  
HETATM   17  H   UNL     1      -8.625  11.712  70.208  1.00  0.00     0.000 HD 
HETATM   18  C   UNL     1      -9.233   9.617  67.773  1.00  0.00    -0.124 A  
HETATM   19  N   UNL     1      -8.611  10.678  67.170  1.00  0.00    -0.127 NA 
HETATM   20  C   UNL     1      -9.745   8.415  67.277  1.00  0.00    -0.240 A  
HETATM   21  C   UNL     1     -10.340   7.540  68.199  1.00  0.00    -0.200 A  
HETATM   22  C   UNL     1     -10.440   7.889  69.550  1.00  0.00    -0.226 A  
HETATM   23  C   UNL     1      -9.911   9.103  70.022  1.00  0.00    -0.223 A  
BRANCH  21  24
HETATM   24  O   UNL     1     -10.814   6.379  67.648  1.00  0.00    -0.269 OA 
HETATM   25  C   UNL     1     -10.415   6.125  66.311  1.00  0.00     0.088 C  
HETATM   26  F   UNL     1      -9.192   5.540  66.321  1.00  0.00    -0.137 F  
HETATM   27  F   UNL     1     -11.280   5.212  65.799  1.00  0.00    -0.246 F  
ENDBRANCH  21  24
ENDBRANCH  12  14
ENDBRANCH  11  12
ENDBRANCH   6  11
ENDBRANCH   2   3
TORSDOF 6
ENDMDL
MODEL      203
REMARK 921   NORMALIZED FREE ENERGY PREDICTED BY IDOCK:   -4.13 KCAL/MOL
REMARK 922        TOTAL FREE ENERGY PREDICTED BY IDOCK:   -6.33 KCAL/MOL
REMARK 923 INTER-LIGAND FREE ENERGY PREDICTED BY IDOCK:   -5.28 KCAL/MOL
REMARK 924 INTRA-LIGAND FREE ENERGY PREDICTED BY IDOCK:   -1.04 KCAL/MOL
REMARK 927      BINDING AFFINITY PREDICTED BY RF-SCORE:    0.00 PKD
ROOT
HETATM    1  C   UNL     1     -10.725  19.442  66.181  1.00  0.00    -0.411 C  
HETATM    2  O   UNL     1     -10.243  19.158  67.493  1.00  0.00    -0.354 OA 
ENDROOT
BRANCH   2   3
HETATM    3  C   UNL     1      -8.891  18.929  67.578  1.00  0.00    -0.278 A  
HETATM    4  C   UNL     1      -8.253  17.676  67.467  1.00  0.00    -0.216 A  
HETATM    5  C   UNL     1      -6.765  19.932  67.923  1.00  0.00    -0.250 A  
HETATM    6  C   UNL     1      -6.853  17.652  67.461  1.00  0.00    -0.171 A  
HETATM    7  C   UNL     1      -8.135  20.064  67.837  1.00  0.00    -0.299 A  
HETATM    8  N   UNL     1      -6.116  18.765  67.736  1.00  0.00    -0.192 NA 
BRANCH   4   9
HETATM    9  O   UNL     1      -9.046  16.571  67.277  1.00  0.00    -0.201 OA 
HETATM   10  C   UNL     1      -9.590  15.980  68.459  1.00  0.00    -0.215 C  
ENDBRANCH   4   9
BRANCH   6  11
HETATM   11  C   UNL     1      -6.043  16.438  67.083  1.00  0.00    -0.147 C  
BRANCH  11  12
HETATM   12  S   UNL     1      -5.563  15.477  68.546  1.00  0.00    -0.107 S  
HETATM   13  O   UNL     1      -6.322  15.931  69.760  1.00  0.00    -0.176 OA 
BRANCH  12  14
HETATM   14  C   UNL     1      -6.258  13.954  68.102  1.00  0.00    -0.128 A  
HETATM   15  N   UNL     1      -5.873  13.195  67.097  1.00  0.00    -0.428 NA 
HETATM   16  C   UNL     1      -6.619  12.043  67.219  1.00  0.00    -0.145 A  
HETATM   17  H   UNL     1      -5.175  13.411  66.386  1.00  0.00     0.000 HD 
HETATM   18  C   UNL     1      -7.493  12.123  68.297  1.00  0.00    -0.107 A  
HETATM   19  N   UNL     1      -7.255  13.362  68.830  1.00  0.00    -0.103 NA 
HETATM   20  C   UNL     1      -8.360  11.089  68.662  1.00  0.00    -0.153 A  
HETATM   21  C   UNL     1      -8.335   9.923  67.880  1.00  0.00    -0.114 A  
HETATM   22  C   UNL     1      -7.448   9.806  66.805  1.00  0.00    -0.095 A  
HETATM   23  C   UNL     1      -6.591  10.864  66.458  1.00  0.00    -0.127 A  
BRANCH  21  24
HETATM   24  O   UNL     1      -9.213   8.954  68.287  1.00  0.00    -0.140 OA 
HETATM   25  C   UNL     1     -10.485   9.416  68.714  1.00  0.00    -0.212 C  
HETATM   26  F   UNL     1     -11.279   9.582  67.628  1.00  0.00    -0.308 F  
HETATM   27  F   UNL     1     -11.043   8.427  69.458  1.00  0.00    -0.211 F  
ENDBRANCH  21  24
ENDBRANCH  12  14
ENDBRANCH  11  12
ENDBRANCH   6  11
ENDBRANCH   2   3
TORSDOF 6
ENDMDL
MODEL      204
REMARK 921   NORMALIZED FREE ENERGY PREDICTED BY IDOCK:   -4.11 KCAL/MOL
REMARK 922        TOTAL FREE ENERGY PREDICTED BY IDOCK:   -6.30 KCAL/MOL
REMARK 923 INTER-LIGAND FREE ENERGY PREDICTED BY IDOCK:   -5.24 KCAL/MOL
REMARK 924 INTRA-LIGAND FREE ENERGY PREDICTED BY IDOCK:   -1.06 KCAL/MOL
REMARK 927      BINDING AFFINITY PREDICTED BY RF-SCORE:    0.00 PKD
ROOT
HETATM    1  C   UNL     1     -10.073   7.646  70.273  1.00  0.00    -0.198 C  
HETATM    2  O   UNL     1      -9.618   8.914  70.741  1.00  0.00    -0.192 OA 
ENDROOT
BRANCH   2   3
HETATM    3  C   UNL     1     -10.122   9.998  70.065  1.00  0.00    -0.239 A  
HETATM    4  C   UNL     1      -9.465  10.722  69.049  1.00  0.00    -0.166 A  
HETATM    5  C   UNL     1     -11.975  11.471  69.856  1.00  0.00    -0.351 A  
HETATM    6  C   UNL     1     -10.184  11.727  68.391  1.00  0.00    -0.206 A  
HETATM    7  C   UNL     1     -11.382  10.399  70.488  1.00  0.00    -0.424 A  
HETATM    8  N   UNL     1     -11.412  12.131  68.823  1.00  0.00    -0.281 NA 
BRANCH   4   9
HETATM    9  O   UNL     1      -8.193  10.332  68.708  1.00  0.00    -0.104 OA 
HETATM   10  C   UNL     1      -7.133  10.922  69.463  1.00  0.00    -0.123 C  
ENDBRANCH   4   9
BRANCH   6  11
HETATM   11  C   UNL     1      -9.713  12.392  67.122  1.00  0.00    -0.207 C  
BRANCH  11  12
HETATM   12  S   UNL     1     -10.629  11.788  65.676  1.00  0.00    -0.277 S  
HETATM   13  O   UNL     1     -10.229  12.535  64.437  1.00  0.00    -0.330 OA 
BRANCH  12  14
HETATM   14  C   UNL     1      -9.901  10.224  65.536  1.00  0.00    -0.282 A  
HETATM   15  N   UNL     1      -8.856   9.923  64.794  1.00  0.00    -0.185 NA 
HETATM   16  C   UNL     1      -8.566   8.612  65.105  1.00  0.00    -0.173 A  
HETATM   17  H   UNL     1      -8.367  10.528  64.134  1.00  0.00     0.000 HD 
HETATM   18  C   UNL     1      -9.473   8.104  66.028  1.00  0.00    -0.087 A  
HETATM   19  N   UNL     1     -10.326   9.148  66.270  1.00  0.00    -0.193 NA 
HETATM   20  C   UNL     1      -9.408   6.801  66.531  1.00  0.00    -0.197 A  
HETATM   21  C   UNL     1      -8.371   5.981  66.060  1.00  0.00    -0.134 A  
HETATM   22  C   UNL     1      -7.430   6.475  65.151  1.00  0.00    -0.083 A  
HETATM   23  C   UNL     1      -7.523   7.787  64.658  1.00  0.00    -0.095 A  
BRANCH  21  24
HETATM   24  O   UNL     1      -8.370   4.717  66.588  1.00  0.00    -0.107 OA 
HETATM   25  C   UNL     1      -9.613   4.036  66.556  1.00  0.00    -0.205 C  
HETATM   26  F   UNL     1      -9.764   3.453  65.340  1.00  0.00    -0.167 F  
HETATM   27  F   UNL     1      -9.545   3.029  67.464  1.00  0.00    -0.235 F  
ENDBRANCH  21  24
ENDBRANCH  12  14
ENDBRANCH  11  12
ENDBRANCH   6  11
ENDBRANCH   2   3
TORSDOF 6
ENDMDL
MODEL      205
REMARK 921   NORMALIZED FREE ENERGY PREDICTED BY IDOCK:   -4.09 KCAL/MOL
REMARK 922        TOTAL FREE ENERGY PREDICTED BY IDOCK:   -6.27 KCAL/MOL
REMARK 923 INTER-LIGAND FREE ENERGY PREDICTED BY IDOCK:   -7.09 KCAL/MOL
REMARK 924 INTRA-LIGAND FREE ENERGY PREDICTED BY IDOCK:    0.82 KCAL/MOL
REMARK 927      BINDING AFFINITY PREDICTED BY RF-SCORE:    0.00 PKD
ROOT
HETATM    1  C   UNL     1     -12.167  15.810  71.251  1.00  0.00    -0.438 C  
HETATM    2  O   UNL     1     -11.955  16.339  69.943  1.00  0.00    -0.137 OA 
ENDROOT
BRANCH   2   3
HETATM    3  C   UNL     1     -10.670  16.226  69.473  1.00  0.00    -0.323 A  
HETATM    4  C   UNL     1      -9.961  17.207  68.747  1.00  0.00    -0.315 A  
HETATM    5  C   UNL     1      -8.778  14.798  69.305  1.00  0.00    -0.026 A  
HETATM    6  C   UNL     1      -8.615  16.959  68.452  1.00  0.00    -0.240 A  
HETATM    7  C   UNL     1     -10.075  14.998  69.728  1.00  0.00    -0.104 A  
HETATM    8  N   UNL     1      -8.042  15.745  68.686  1.00  0.00    -0.150 NA 
BRANCH   4   9
HETATM    9  O   UNL     1     -10.612  18.382  68.460  1.00  0.00    -0.256 OA 
HETATM   10  C   UNL     1     -10.159  19.538  69.168  1.00  0.00    -0.295 C  
ENDBRANCH   4   9
BRANCH   6  11
HETATM   11  C   UNL     1      -7.670  18.011  67.930  1.00  0.00    -0.230 C  
BRANCH  11  12
HETATM   12  S   UNL     1      -8.116  18.530  66.249  1.00  0.00    -0.188 S  
HETATM   13  O   UNL     1      -6.948  18.390  65.316  1.00  0.00    -0.534 OA 
BRANCH  12  14
HETATM   14  C   UNL     1      -9.193  17.234  65.849  1.00  0.00     0.030 A  
HETATM   15  N   UNL     1     -10.437  17.365  65.437  1.00  0.00    -0.651 NA 
HETATM   16  C   UNL     1     -10.841  16.085  65.122  1.00  0.00    -0.395 A  
HETATM   17  H   UNL     1     -10.982  18.224  65.367  1.00  0.00     0.000 HD 
HETATM   18  C   UNL     1      -9.833  15.164  65.380  1.00  0.00    -0.274 A  
HETATM   19  N   UNL     1      -8.800  15.923  65.862  1.00  0.00    -0.258 NA 
HETATM   20  C   UNL     1      -9.966  13.793  65.138  1.00  0.00    -0.240 A  
HETATM   21  C   UNL     1     -11.191  13.347  64.618  1.00  0.00    -0.359 A  
HETATM   22  C   UNL     1     -12.213  14.256  64.326  1.00  0.00    -0.451 A  
HETATM   23  C   UNL     1     -12.053  15.629  64.584  1.00  0.00     0.020 A  
BRANCH  21  24
HETATM   24  O   UNL     1     -11.256  11.995  64.412  1.00  0.00    -0.315 OA 
HETATM   25  C   UNL     1     -10.456  11.202  65.275  1.00  0.00    -0.263 C  
HETATM   26  F   UNL     1     -11.134  10.990  66.429  1.00  0.00    -0.315 F  
HETATM   27  F   UNL     1     -10.304   9.990  64.683  1.00  0.00    -0.381 F  
ENDBRANCH  21  24
ENDBRANCH  12  14
ENDBRANCH  11  12
ENDBRANCH   6  11
ENDBRANCH   2   3
TORSDOF 6
ENDMDL
MODEL      206
REMARK 921   NORMALIZED FREE ENERGY PREDICTED BY IDOCK:   -4.06 KCAL/MOL
REMARK 922        TOTAL FREE ENERGY PREDICTED BY IDOCK:   -6.24 KCAL/MOL
REMARK 923 INTER-LIGAND FREE ENERGY PREDICTED BY IDOCK:   -5.52 KCAL/MOL
REMARK 924 INTRA-LIGAND FREE ENERGY PREDICTED BY IDOCK:   -0.71 KCAL/MOL
REMARK 927      BINDING AFFINITY PREDICTED BY RF-SCORE:    0.00 PKD
ROOT
HETATM    1  C   UNL     1     -12.504  15.384  64.491  1.00  0.00     0.057 C  
HETATM    2  O   UNL     1     -12.577  14.186  65.262  1.00  0.00    -0.488 OA 
ENDROOT
BRANCH   2   3
HETATM    3  C   UNL     1     -11.774  13.163  64.822  1.00  0.00    -0.347 A  
HETATM    4  C   UNL     1     -10.550  12.762  65.395  1.00  0.00    -0.287 A  
HETATM    5  C   UNL     1     -11.506  11.472  63.175  1.00  0.00     0.064 A  
HETATM    6  C   UNL     1      -9.927  11.619  64.880  1.00  0.00    -0.255 A  
HETATM    7  C   UNL     1     -12.240  12.523  63.681  1.00  0.00    -0.642 A  
HETATM    8  N   UNL     1     -10.376  11.007  63.748  1.00  0.00    -0.363 NA 
BRANCH   4   9
HETATM    9  O   UNL     1     -10.095  13.466  66.483  1.00  0.00    -0.267 OA 
HETATM   10  C   UNL     1     -10.730  13.172  67.729  1.00  0.00    -0.240 C  
ENDBRANCH   4   9
BRANCH   6  11
HETATM   11  C   UNL     1      -8.773  10.924  65.555  1.00  0.00    -0.171 C  
BRANCH  11  12
HETATM   12  S   UNL     1      -8.733   9.155  65.151  1.00  0.00    -0.195 S  
HETATM   13  O   UNL     1      -7.400   8.764  64.581  1.00  0.00    -0.093 OA 
BRANCH  12  14
HETATM   14  C   UNL     1      -8.762   8.515  66.759  1.00  0.00    -0.122 A  
HETATM   15  N   UNL     1      -7.951   8.856  67.740  1.00  0.00    -0.102 NA 
HETATM   16  C   UNL     1      -8.436   8.192  68.846  1.00  0.00    -0.130 A  
HETATM   17  H   UNL     1      -7.143   9.476  67.691  1.00  0.00     0.000 HD 
HETATM   18  C   UNL     1      -9.539   7.412  68.518  1.00  0.00    -0.146 A  
HETATM   19  N   UNL     1      -9.711   7.622  67.176  1.00  0.00    -0.168 NA 
HETATM   20  C   UNL     1     -10.238   6.642  69.452  1.00  0.00    -0.207 A  
HETATM   21  C   UNL     1      -9.781   6.667  70.779  1.00  0.00    -0.179 A  
HETATM   22  C   UNL     1      -8.689   7.463  71.140  1.00  0.00    -0.137 A  
HETATM   23  C   UNL     1      -8.001   8.223  70.179  1.00  0.00    -0.106 A  
BRANCH  21  24
HETATM   24  O   UNL     1     -10.506   5.886  71.639  1.00  0.00    -0.218 OA 
HETATM   25  C   UNL     1     -11.081   6.562  72.746  1.00  0.00    -0.245 C  
HETATM   26  F   UNL     1     -12.259   7.112  72.362  1.00  0.00    -0.282 F  
HETATM   27  F   UNL     1     -11.377   5.623  73.682  1.00  0.00    -0.255 F  
ENDBRANCH  21  24
ENDBRANCH  12  14
ENDBRANCH  11  12
ENDBRANCH   6  11
ENDBRANCH   2   3
TORSDOF 6
ENDMDL
MODEL      207
REMARK 921   NORMALIZED FREE ENERGY PREDICTED BY IDOCK:   -4.06 KCAL/MOL
REMARK 922        TOTAL FREE ENERGY PREDICTED BY IDOCK:   -6.23 KCAL/MOL
REMARK 923 INTER-LIGAND FREE ENERGY PREDICTED BY IDOCK:   -5.75 KCAL/MOL
REMARK 924 INTRA-LIGAND FREE ENERGY PREDICTED BY IDOCK:   -0.48 KCAL/MOL
REMARK 927      BINDING AFFINITY PREDICTED BY RF-SCORE:    0.00 PKD
ROOT
HETATM    1  C   UNL     1      -9.307  11.215  62.595  1.00  0.00    -0.304 C  
HETATM    2  O   UNL     1      -8.434  10.104  62.791  1.00  0.00    -0.148 OA 
ENDROOT
BRANCH   2   3
HETATM    3  C   UNL     1      -8.659   9.385  63.940  1.00  0.00    -0.210 A  
HETATM    4  C   UNL     1      -8.120   8.118  64.246  1.00  0.00    -0.127 A  
HETATM    5  C   UNL     1      -9.811   9.348  66.017  1.00  0.00    -0.296 A  
HETATM    6  C   UNL     1      -8.367   7.591  65.519  1.00  0.00    -0.133 A  
HETATM    7  C   UNL     1      -9.537   9.990  64.829  1.00  0.00    -0.374 A  
HETATM    8  N   UNL     1      -9.245   8.178  66.380  1.00  0.00    -0.187 NA 
BRANCH   4   9
HETATM    9  O   UNL     1      -7.309   7.527  63.309  1.00  0.00    -0.078 OA 
HETATM   10  C   UNL     1      -7.949   6.617  62.411  1.00  0.00    -0.105 C  
ENDBRANCH   4   9
BRANCH   6  11
HETATM   11  C   UNL     1      -7.644   6.392  66.078  1.00  0.00    -0.087 C  
BRANCH  11  12
HETATM   12  S   UNL     1      -8.716   4.928  66.118  1.00  0.00    -0.120 S  
HETATM   13  O   UNL     1      -7.907   3.675  66.285  1.00  0.00    -0.087 OA 
BRANCH  12  14
HETATM   14  C   UNL     1      -9.479   5.202  67.649  1.00  0.00    -0.127 A  
HETATM   15  N   UNL     1      -8.984   4.880  68.826  1.00  0.00    -0.101 NA 
HETATM   16  C   UNL     1      -9.872   5.406  69.739  1.00  0.00    -0.201 A  
HETATM   17  H   UNL     1      -8.130   4.357  69.019  1.00  0.00     0.000 HD 
HETATM   18  C   UNL     1     -10.939   6.027  69.099  1.00  0.00    -0.359 A  
HETATM   19  N   UNL     1     -10.672   5.864  67.766  1.00  0.00    -0.269 NA 
HETATM   20  C   UNL     1     -11.982   6.659  69.783  1.00  0.00     0.005 A  
HETATM   21  C   UNL     1     -11.932   6.644  71.186  1.00  0.00    -0.357 A  
HETATM   22  C   UNL     1     -10.858   6.048  71.854  1.00  0.00    -0.304 A  
HETATM   23  C   UNL     1      -9.826   5.416  71.141  1.00  0.00    -0.243 A  
BRANCH  21  24
HETATM   24  O   UNL     1     -12.987   7.274  71.793  1.00  0.00    -0.345 OA 
HETATM   25  C   UNL     1     -12.797   8.649  72.085  1.00  0.00    -0.391 C  
HETATM   26  F   UNL     1     -13.087   9.377  70.979  1.00  0.00    -0.345 F  
HETATM   27  F   UNL     1     -13.711   8.991  73.028  1.00  0.00    -0.454 F  
ENDBRANCH  21  24
ENDBRANCH  12  14
ENDBRANCH  11  12
ENDBRANCH   6  11
ENDBRANCH   2   3
TORSDOF 6
ENDMDL
MODEL      208
REMARK 921   NORMALIZED FREE ENERGY PREDICTED BY IDOCK:   -4.05 KCAL/MOL
REMARK 922        TOTAL FREE ENERGY PREDICTED BY IDOCK:   -6.22 KCAL/MOL
REMARK 923 INTER-LIGAND FREE ENERGY PREDICTED BY IDOCK:   -5.15 KCAL/MOL
REMARK 924 INTRA-LIGAND FREE ENERGY PREDICTED BY IDOCK:   -1.07 KCAL/MOL
REMARK 927      BINDING AFFINITY PREDICTED BY RF-SCORE:    0.00 PKD
ROOT
HETATM    1  C   UNL     1     -11.533  15.470  69.094  1.00  0.00    -0.348 C  
HETATM    2  O   UNL     1     -11.171  14.744  67.921  1.00  0.00    -0.281 OA 
ENDROOT
BRANCH   2   3
HETATM    3  C   UNL     1      -9.821  14.561  67.745  1.00  0.00    -0.220 A  
HETATM    4  C   UNL     1      -9.128  13.337  67.849  1.00  0.00    -0.203 A  
HETATM    5  C   UNL     1      -7.757  15.640  67.274  1.00  0.00    -0.206 A  
HETATM    6  C   UNL     1      -7.767  13.325  67.520  1.00  0.00    -0.171 A  
HETATM    7  C   UNL     1      -9.117  15.728  67.480  1.00  0.00    -0.201 A  
HETATM    8  N   UNL     1      -7.077  14.475  67.280  1.00  0.00    -0.184 NA 
BRANCH   4   9
HETATM    9  O   UNL     1      -9.854  12.219  68.178  1.00  0.00    -0.201 OA 
HETATM   10  C   UNL     1     -10.554  11.589  67.103  1.00  0.00    -0.237 C  
ENDBRANCH   4   9
BRANCH   6  11
HETATM   11  C   UNL     1      -6.970  12.060  67.325  1.00  0.00    -0.146 C  
BRANCH  11  12
HETATM   12  S   UNL     1      -6.143  11.553  68.859  1.00  0.00    -0.056 S  
HETATM   13  O   UNL     1      -6.194  12.648  69.884  1.00  0.00    -0.132 OA 
BRANCH  12  14
HETATM   14  C   UNL     1      -7.281  10.360  69.390  1.00  0.00    -0.109 A  
HETATM   15  N   UNL     1      -8.121   9.699  68.620  1.00  0.00    -0.099 NA 
HETATM   16  C   UNL     1      -8.718   8.780  69.457  1.00  0.00    -0.138 A  
HETATM   17  H   UNL     1      -8.292   9.837  67.625  1.00  0.00     0.000 HD 
HETATM   18  C   UNL     1      -8.252   8.912  70.760  1.00  0.00    -0.171 A  
HETATM   19  N   UNL     1      -7.351   9.941  70.691  1.00  0.00    -0.313 NA 
HETATM   20  C   UNL     1      -8.678   8.097  71.813  1.00  0.00    -0.199 A  
HETATM   21  C   UNL     1      -9.630   7.109  71.518  1.00  0.00    -0.157 A  
HETATM   22  C   UNL     1     -10.097   6.939  70.211  1.00  0.00    -0.196 A  
HETATM   23  C   UNL     1      -9.655   7.776  69.172  1.00  0.00    -0.155 A  
BRANCH  21  24
HETATM   24  O   UNL     1     -10.008   6.352  72.595  1.00  0.00    -0.170 OA 
HETATM   25  C   UNL     1     -11.021   5.391  72.346  1.00  0.00    -0.240 C  
HETATM   26  F   UNL     1     -10.447   4.269  71.846  1.00  0.00    -0.246 F  
HETATM   27  F   UNL     1     -11.559   5.052  73.545  1.00  0.00    -0.372 F  
ENDBRANCH  21  24
ENDBRANCH  12  14
ENDBRANCH  11  12
ENDBRANCH   6  11
ENDBRANCH   2   3
TORSDOF 6
ENDMDL
MODEL      209
REMARK 921   NORMALIZED FREE ENERGY PREDICTED BY IDOCK:   -4.05 KCAL/MOL
REMARK 922        TOTAL FREE ENERGY PREDICTED BY IDOCK:   -6.21 KCAL/MOL
REMARK 923 INTER-LIGAND FREE ENERGY PREDICTED BY IDOCK:   -5.22 KCAL/MOL
REMARK 924 INTRA-LIGAND FREE ENERGY PREDICTED BY IDOCK:   -1.00 KCAL/MOL
REMARK 927      BINDING AFFINITY PREDICTED BY RF-SCORE:    0.00 PKD
ROOT
HETATM    1  C   UNL     1      -8.230   7.197  65.209  1.00  0.00    -0.128 C  
HETATM    2  O   UNL     1      -8.696   6.227  66.146  1.00  0.00    -0.136 OA 
ENDROOT
BRANCH   2   3
HETATM    3  C   UNL     1      -8.078   6.261  67.372  1.00  0.00    -0.109 A  
HETATM    4  C   UNL     1      -8.659   6.685  68.585  1.00  0.00    -0.125 A  
HETATM    5  C   UNL     1      -6.047   5.855  68.538  1.00  0.00    -0.024 A  
HETATM    6  C   UNL     1      -7.910   6.537  69.757  1.00  0.00    -0.115 A  
HETATM    7  C   UNL     1      -6.746   5.868  67.350  1.00  0.00    -0.058 A  
HETATM    8  N   UNL     1      -6.597   6.170  69.729  1.00  0.00    -0.045 NA 
BRANCH   4   9
HETATM    9  O   UNL     1      -9.959   7.128  68.548  1.00  0.00    -0.151 OA 
HETATM   10  C   UNL     1     -10.965   6.135  68.762  1.00  0.00    -0.348 C  
ENDBRANCH   4   9
BRANCH   6  11
HETATM   11  C   UNL     1      -8.490   6.690  71.141  1.00  0.00    -0.126 C  
BRANCH  11  12
HETATM   12  S   UNL     1      -8.177   8.347  71.813  1.00  0.00    -0.155 S  
HETATM   13  O   UNL     1      -6.747   8.752  71.599  1.00  0.00    -0.075 OA 
BRANCH  12  14
HETATM   14  C   UNL     1      -9.101   9.272  70.678  1.00  0.00    -0.253 A  
HETATM   15  N   UNL     1     -10.414   9.373  70.653  1.00  0.00    -0.267 NA 
HETATM   16  C   UNL     1     -10.678  10.306  69.674  1.00  0.00    -0.264 A  
HETATM   17  H   UNL     1     -11.087   8.871  71.231  1.00  0.00     0.000 HD 
HETATM   18  C   UNL     1      -9.504  10.751  69.077  1.00  0.00    -0.166 A  
HETATM   19  N   UNL     1      -8.516  10.059  69.723  1.00  0.00    -0.186 NA 
HETATM   20  C   UNL     1      -9.476  11.711  68.061  1.00  0.00    -0.185 A  
HETATM   21  C   UNL     1     -10.708  12.232  67.633  1.00  0.00    -0.220 A  
HETATM   22  C   UNL     1     -11.902  11.820  68.234  1.00  0.00    -0.340 A  
HETATM   23  C   UNL     1     -11.900  10.849  69.250  1.00  0.00    -0.395 A  
BRANCH  21  24
HETATM   24  O   UNL     1     -10.609  13.162  66.632  1.00  0.00    -0.275 OA 
HETATM   25  C   UNL     1     -10.804  12.671  65.316  1.00  0.00    -0.288 C  
HETATM   26  F   UNL     1     -12.134  12.632  65.054  1.00  0.00    -0.384 F  
HETATM   27  F   UNL     1     -10.266  13.580  64.463  1.00  0.00    -0.399 F  
ENDBRANCH  21  24
ENDBRANCH  12  14
ENDBRANCH  11  12
ENDBRANCH   6  11
ENDBRANCH   2   3
TORSDOF 6
ENDMDL
MODEL      210
REMARK 921   NORMALIZED FREE ENERGY PREDICTED BY IDOCK:   -4.04 KCAL/MOL
REMARK 922        TOTAL FREE ENERGY PREDICTED BY IDOCK:   -6.21 KCAL/MOL
REMARK 923 INTER-LIGAND FREE ENERGY PREDICTED BY IDOCK:   -5.48 KCAL/MOL
REMARK 924 INTRA-LIGAND FREE ENERGY PREDICTED BY IDOCK:   -0.74 KCAL/MOL
REMARK 927      BINDING AFFINITY PREDICTED BY RF-SCORE:    0.00 PKD
ROOT
HETATM    1  C   UNL     1     -10.105  19.788  68.304  1.00  0.00    -0.458 C  
HETATM    2  O   UNL     1      -9.635  19.574  66.974  1.00  0.00    -0.310 OA 
ENDROOT
BRANCH   2   3
HETATM    3  C   UNL     1      -9.457  18.257  66.626  1.00  0.00    -0.308 A  
HETATM    4  C   UNL     1      -8.316  17.473  66.893  1.00  0.00    -0.232 A  
HETATM    5  C   UNL     1     -10.431  16.385  65.532  1.00  0.00    -0.330 A  
HETATM    6  C   UNL     1      -8.362  16.114  66.565  1.00  0.00    -0.317 A  
HETATM    7  C   UNL     1     -10.514  17.708  65.911  1.00  0.00    -0.247 A  
HETATM    8  N   UNL     1      -9.393  15.584  65.847  1.00  0.00    -0.343 NA 
BRANCH   4   9
HETATM    9  O   UNL     1      -7.267  18.076  67.544  1.00  0.00    -0.191 OA 
HETATM   10  C   UNL     1      -6.272  18.673  66.710  1.00  0.00    -0.174 C  
ENDBRANCH   4   9
BRANCH   6  11
HETATM   11  C   UNL     1      -7.339  15.109  67.032  1.00  0.00     0.020 C  
BRANCH  11  12
HETATM   12  S   UNL     1      -7.493  14.780  68.810  1.00  0.00    -0.142 S  
HETATM   13  O   UNL     1      -8.732  15.417  69.369  1.00  0.00    -0.245 OA 
BRANCH  12  14
HETATM   14  C   UNL     1      -7.830  13.083  68.737  1.00  0.00     0.033 A  
HETATM   15  N   UNL     1      -7.091  12.127  69.259  1.00  0.00    -0.301 NA 
HETATM   16  C   UNL     1      -7.817  10.972  69.064  1.00  0.00    -0.126 A  
HETATM   17  H   UNL     1      -6.180  12.221  69.708  1.00  0.00     0.000 HD 
HETATM   18  C   UNL     1      -9.001  11.234  68.384  1.00  0.00    -0.167 A  
HETATM   19  N   UNL     1      -8.973  12.586  68.170  1.00  0.00    -0.197 NA 
HETATM   20  C   UNL     1      -9.938  10.246  68.065  1.00  0.00    -0.177 A  
HETATM   21  C   UNL     1      -9.643   8.930  68.454  1.00  0.00    -0.146 A  
HETATM   22  C   UNL     1      -8.471   8.643  69.162  1.00  0.00    -0.124 A  
HETATM   23  C   UNL     1      -7.544   9.656  69.464  1.00  0.00    -0.104 A  
BRANCH  21  24
HETATM   24  O   UNL     1     -10.598   8.013  68.105  1.00  0.00    -0.193 OA 
HETATM   25  C   UNL     1     -10.271   7.170  67.012  1.00  0.00    -0.269 C  
HETATM   26  F   UNL     1      -9.533   6.128  67.466  1.00  0.00    -0.116 F  
HETATM   27  F   UNL     1     -11.434   6.650  66.542  1.00  0.00    -0.314 F  
ENDBRANCH  21  24
ENDBRANCH  12  14
ENDBRANCH  11  12
ENDBRANCH   6  11
ENDBRANCH   2   3
TORSDOF 6
ENDMDL
MODEL      211
REMARK 921   NORMALIZED FREE ENERGY PREDICTED BY IDOCK:   -4.03 KCAL/MOL
REMARK 922        TOTAL FREE ENERGY PREDICTED BY IDOCK:   -6.20 KCAL/MOL
REMARK 923 INTER-LIGAND FREE ENERGY PREDICTED BY IDOCK:   -5.01 KCAL/MOL
REMARK 924 INTRA-LIGAND FREE ENERGY PREDICTED BY IDOCK:   -1.19 KCAL/MOL
REMARK 927      BINDING AFFINITY PREDICTED BY RF-SCORE:    0.00 PKD
ROOT
HETATM    1  C   UNL     1      -9.606   4.614  67.663  1.00  0.00    -0.161 C  
HETATM    2  O   UNL     1      -9.351   5.374  66.483  1.00  0.00    -0.135 OA 
ENDROOT
BRANCH   2   3
HETATM    3  C   UNL     1      -8.329   6.285  66.589  1.00  0.00    -0.112 A  
HETATM    4  C   UNL     1      -8.439   7.681  66.414  1.00  0.00    -0.137 A  
HETATM    5  C   UNL     1      -6.004   6.562  66.993  1.00  0.00    -0.024 A  
HETATM    6  C   UNL     1      -7.309   8.464  66.678  1.00  0.00    -0.082 A  
HETATM    7  C   UNL     1      -7.088   5.722  66.854  1.00  0.00    -0.070 A  
HETATM    8  N   UNL     1      -6.089   7.907  66.919  1.00  0.00    -0.051 NA 
BRANCH   4   9
HETATM    9  O   UNL     1      -9.672   8.188  66.087  1.00  0.00    -0.187 OA 
HETATM   10  C   UNL     1     -10.634   8.225  67.144  1.00  0.00    -0.270 C  
ENDBRANCH   4   9
BRANCH   6  11
HETATM   11  C   UNL     1      -7.349   9.967  66.797  1.00  0.00    -0.095 C  
BRANCH  11  12
HETATM   12  S   UNL     1      -6.742  10.522  68.414  1.00  0.00    -0.061 S  
HETATM   13  O   UNL     1      -6.724  12.022  68.495  1.00  0.00    -0.057 OA 
BRANCH  12  14
HETATM   14  C   UNL     1      -8.081  10.016  69.387  1.00  0.00    -0.149 A  
HETATM   15  N   UNL     1      -9.191  10.696  69.586  1.00  0.00    -0.404 NA 
HETATM   16  C   UNL     1     -10.002   9.847  70.307  1.00  0.00    -0.203 A  
HETATM   17  H   UNL     1      -9.404  11.643  69.274  1.00  0.00     0.000 HD 
HETATM   18  C   UNL     1      -9.356   8.645  70.576  1.00  0.00    -0.175 A  
HETATM   19  N   UNL     1      -8.125   8.790  69.994  1.00  0.00    -0.104 NA 
HETATM   20  C   UNL     1      -9.952   7.595  71.280  1.00  0.00    -0.195 A  
HETATM   21  C   UNL     1     -11.265   7.789  71.736  1.00  0.00    -0.256 A  
HETATM   22  C   UNL     1     -11.947   8.978  71.458  1.00  0.00    -0.414 A  
HETATM   23  C   UNL     1     -11.321  10.020  70.752  1.00  0.00    -0.439 A  
BRANCH  21  24
HETATM   24  O   UNL     1     -11.785   6.724  72.424  1.00  0.00    -0.272 OA 
HETATM   25  C   UNL     1     -10.848   5.944  73.149  1.00  0.00    -0.266 C  
HETATM   26  F   UNL     1     -10.630   6.527  74.354  1.00  0.00    -0.334 F  
HETATM   27  F   UNL     1     -11.430   4.743  73.397  1.00  0.00    -0.357 F  
ENDBRANCH  21  24
ENDBRANCH  12  14
ENDBRANCH  11  12
ENDBRANCH   6  11
ENDBRANCH   2   3
TORSDOF 6
ENDMDL
MODEL      212
REMARK 921   NORMALIZED FREE ENERGY PREDICTED BY IDOCK:   -4.03 KCAL/MOL
REMARK 922        TOTAL FREE ENERGY PREDICTED BY IDOCK:   -6.20 KCAL/MOL
REMARK 923 INTER-LIGAND FREE ENERGY PREDICTED BY IDOCK:   -5.42 KCAL/MOL
REMARK 924 INTRA-LIGAND FREE ENERGY PREDICTED BY IDOCK:   -0.78 KCAL/MOL
REMARK 927      BINDING AFFINITY PREDICTED BY RF-SCORE:    0.00 PKD
ROOT
HETATM    1  C   UNL     1      -9.571   3.638  73.856  1.00  0.00    -0.095 C  
HETATM    2  O   UNL     1      -9.855   4.932  73.326  1.00  0.00    -0.145 OA 
ENDROOT
BRANCH   2   3
HETATM    3  C   UNL     1      -8.802   5.540  72.686  1.00  0.00    -0.123 A  
HETATM    4  C   UNL     1      -8.857   6.205  71.443  1.00  0.00    -0.139 A  
HETATM    5  C   UNL     1      -6.477   6.018  72.789  1.00  0.00    -0.063 A  
HETATM    6  C   UNL     1      -7.706   6.868  71.003  1.00  0.00    -0.096 A  
HETATM    7  C   UNL     1      -7.588   5.425  73.349  1.00  0.00    -0.096 A  
HETATM    8  N   UNL     1      -6.512   6.735  71.647  1.00  0.00    -0.045 NA 
BRANCH   4   9
HETATM    9  O   UNL     1     -10.065   6.237  70.791  1.00  0.00    -0.184 OA 
HETATM   10  C   UNL     1     -10.273   5.222  69.807  1.00  0.00    -0.294 C  
ENDBRANCH   4   9
BRANCH   6  11
HETATM   11  C   UNL     1      -7.693   7.834  69.846  1.00  0.00    -0.095 C  
BRANCH  11  12
HETATM   12  S   UNL     1      -8.177   9.503  70.367  1.00  0.00    -0.157 S  
HETATM   13  O   UNL     1      -6.972  10.329  70.710  1.00  0.00    -0.332 OA 
BRANCH  12  14
HETATM   14  C   UNL     1      -8.739  10.103  68.843  1.00  0.00    -0.149 A  
HETATM   15  N   UNL     1      -9.015   9.375  67.782  1.00  0.00    -0.123 NA 
HETATM   16  C   UNL     1      -9.545  10.263  66.871  1.00  0.00    -0.173 A  
HETATM   17  H   UNL     1      -8.869   8.373  67.660  1.00  0.00     0.000 HD 
HETATM   18  C   UNL     1      -9.559  11.556  67.382  1.00  0.00    -0.168 A  
HETATM   19  N   UNL     1      -9.020  11.427  68.634  1.00  0.00    -0.161 NA 
HETATM   20  C   UNL     1     -10.057  12.655  66.677  1.00  0.00    -0.248 A  
HETATM   21  C   UNL     1     -10.556  12.419  65.386  1.00  0.00    -0.284 A  
HETATM   22  C   UNL     1     -10.577  11.124  64.857  1.00  0.00    -0.356 A  
HETATM   23  C   UNL     1     -10.065  10.038  65.587  1.00  0.00    -0.321 A  
BRANCH  21  24
HETATM   24  O   UNL     1     -11.022  13.538  64.749  1.00  0.00    -0.334 OA 
HETATM   25  C   UNL     1     -12.402  13.530  64.421  1.00  0.00    -0.337 C  
HETATM   26  F   UNL     1     -13.113  13.934  65.503  1.00  0.00    -0.542 F  
HETATM   27  F   UNL     1     -12.593  14.467  63.457  1.00  0.00    -0.363 F  
ENDBRANCH  21  24
ENDBRANCH  12  14
ENDBRANCH  11  12
ENDBRANCH   6  11
ENDBRANCH   2   3
TORSDOF 6
ENDMDL
MODEL      213
REMARK 921   NORMALIZED FREE ENERGY PREDICTED BY IDOCK:   -4.03 KCAL/MOL
REMARK 922        TOTAL FREE ENERGY PREDICTED BY IDOCK:   -6.20 KCAL/MOL
REMARK 923 INTER-LIGAND FREE ENERGY PREDICTED BY IDOCK:   -6.31 KCAL/MOL
REMARK 924 INTRA-LIGAND FREE ENERGY PREDICTED BY IDOCK:    0.12 KCAL/MOL
REMARK 927      BINDING AFFINITY PREDICTED BY RF-SCORE:    0.00 PKD
ROOT
HETATM    1  C   UNL     1     -12.386  15.760  74.280  1.00  0.00    -0.649 C  
HETATM    2  O   UNL     1     -12.117  15.839  72.882  1.00  0.00    -0.406 OA 
ENDROOT
BRANCH   2   3
HETATM    3  C   UNL     1     -12.363  14.686  72.177  1.00  0.00    -0.298 A  
HETATM    4  C   UNL     1     -11.759  14.311  70.959  1.00  0.00    -0.140 A  
HETATM    5  C   UNL     1     -13.636  12.680  72.111  1.00  0.00    -0.413 A  
HETATM    6  C   UNL     1     -12.048  13.041  70.447  1.00  0.00    -0.314 A  
HETATM    7  C   UNL     1     -13.333  13.868  72.742  1.00  0.00    -0.567 A  
HETATM    8  N   UNL     1     -13.015  12.251  70.993  1.00  0.00    -0.145 NA 
BRANCH   4   9
HETATM    9  O   UNL     1     -10.853  15.181  70.403  1.00  0.00    -0.268 OA 
HETATM   10  C   UNL     1     -11.170  16.570  70.513  1.00  0.00    -0.084 C  
ENDBRANCH   4   9
BRANCH   6  11
HETATM   11  C   UNL     1     -11.281  12.405  69.315  1.00  0.00    -0.201 C  
BRANCH  11  12
HETATM   12  S   UNL     1     -12.080  10.878  68.747  1.00  0.00     0.135 S  
HETATM   13  O   UNL     1     -11.588  10.491  67.382  1.00  0.00    -0.383 OA 
BRANCH  12  14
HETATM   14  C   UNL     1     -11.335   9.766  69.846  1.00  0.00    -0.192 A  
HETATM   15  N   UNL     1     -10.136   9.890  70.374  1.00  0.00    -0.363 NA 
HETATM   16  C   UNL     1     -10.036   8.850  71.273  1.00  0.00    -0.288 A  
HETATM   17  H   UNL     1      -9.435  10.600  70.165  1.00  0.00     0.000 HD 
HETATM   18  C   UNL     1     -11.184   8.066  71.261  1.00  0.00    -0.256 A  
HETATM   19  N   UNL     1     -11.987   8.662  70.327  1.00  0.00     0.151 NA 
HETATM   20  C   UNL     1     -11.360   6.950  72.085  1.00  0.00    -0.302 A  
HETATM   21  C   UNL     1     -10.308   6.620  72.954  1.00  0.00    -0.213 A  
HETATM   22  C   UNL     1      -9.152   7.406  73.004  1.00  0.00    -0.200 A  
HETATM   23  C   UNL     1      -9.000   8.519  72.159  1.00  0.00    -0.300 A  
BRANCH  21  24
HETATM   24  O   UNL     1     -10.543   5.514  73.727  1.00  0.00    -0.251 OA 
HETATM   25  C   UNL     1      -9.610   4.454  73.584  1.00  0.00    -0.115 C  
HETATM   26  F   UNL     1      -8.541   4.699  74.380  1.00  0.00    -0.104 F  
HETATM   27  F   UNL     1     -10.203   3.329  74.060  1.00  0.00    -0.146 F  
ENDBRANCH  21  24
ENDBRANCH  12  14
ENDBRANCH  11  12
ENDBRANCH   6  11
ENDBRANCH   2   3
TORSDOF 6
ENDMDL
MODEL      214
REMARK 921   NORMALIZED FREE ENERGY PREDICTED BY IDOCK:   -4.00 KCAL/MOL
REMARK 922        TOTAL FREE ENERGY PREDICTED BY IDOCK:   -6.16 KCAL/MOL
REMARK 923 INTER-LIGAND FREE ENERGY PREDICTED BY IDOCK:   -5.40 KCAL/MOL
REMARK 924 INTRA-LIGAND FREE ENERGY PREDICTED BY IDOCK:   -0.76 KCAL/MOL
REMARK 927      BINDING AFFINITY PREDICTED BY RF-SCORE:    0.00 PKD
ROOT
HETATM    1  C   UNL     1      -8.352   4.564  66.561  1.00  0.00    -0.106 C  
HETATM    2  O   UNL     1      -7.546   5.488  65.833  1.00  0.00    -0.081 OA 
ENDROOT
BRANCH   2   3
HETATM    3  C   UNL     1      -7.478   6.750  66.371  1.00  0.00    -0.074 A  
HETATM    4  C   UNL     1      -7.638   7.963  65.669  1.00  0.00    -0.084 A  
HETATM    5  C   UNL     1      -7.111   8.000  68.358  1.00  0.00    -0.084 A  
HETATM    6  C   UNL     1      -7.654   9.151  66.409  1.00  0.00    -0.093 A  
HETATM    7  C   UNL     1      -7.184   6.776  67.728  1.00  0.00    -0.091 A  
HETATM    8  N   UNL     1      -7.345   9.174  67.736  1.00  0.00    -0.083 NA 
BRANCH   4   9
HETATM    9  O   UNL     1      -7.862   7.891  64.316  1.00  0.00    -0.125 OA 
HETATM   10  C   UNL     1      -6.703   7.975  63.484  1.00  0.00    -0.075 C  
ENDBRANCH   4   9
BRANCH   6  11
HETATM   11  C   UNL     1      -8.081  10.480  65.839  1.00  0.00    -0.154 C  
BRANCH  11  12
HETATM   12  S   UNL     1      -9.888  10.628  65.779  1.00  0.00    -0.256 S  
HETATM   13  O   UNL     1     -10.508  10.172  67.068  1.00  0.00    -0.232 OA 
BRANCH  12  14
HETATM   14  C   UNL     1     -10.013  12.355  65.783  1.00  0.00    -0.254 A  
HETATM   15  N   UNL     1     -10.365  13.106  64.760  1.00  0.00    -0.438 NA 
HETATM   16  C   UNL     1     -10.449  14.383  65.271  1.00  0.00    -0.390 A  
HETATM   17  H   UNL     1     -10.537  12.807  63.801  1.00  0.00     0.000 HD 
HETATM   18  C   UNL     1     -10.110  14.406  66.619  1.00  0.00    -0.274 A  
HETATM   19  N   UNL     1      -9.817  13.102  66.914  1.00  0.00    -0.243 NA 
HETATM   20  C   UNL     1     -10.123  15.570  67.394  1.00  0.00    -0.246 A  
HETATM   21  C   UNL     1     -10.493  16.764  66.755  1.00  0.00    -0.258 A  
HETATM   22  C   UNL     1     -10.862  16.764  65.406  1.00  0.00    -0.149 A  
HETATM   23  C   UNL     1     -10.835  15.580  64.650  1.00  0.00    -0.277 A  
BRANCH  21  24
HETATM   24  O   UNL     1     -10.478  17.866  67.568  1.00  0.00    -0.368 OA 
HETATM   25  C   UNL     1      -9.274  18.616  67.567  1.00  0.00    -0.279 C  
HETATM   26  F   UNL     1      -9.293  19.475  66.518  1.00  0.00    -0.319 F  
HETATM   27  F   UNL     1      -9.270  19.374  68.693  1.00  0.00    -0.370 F  
ENDBRANCH  21  24
ENDBRANCH  12  14
ENDBRANCH  11  12
ENDBRANCH   6  11
ENDBRANCH   2   3
TORSDOF 6
ENDMDL
MODEL      215
REMARK 921   NORMALIZED FREE ENERGY PREDICTED BY IDOCK:   -4.00 KCAL/MOL
REMARK 922        TOTAL FREE ENERGY PREDICTED BY IDOCK:   -6.15 KCAL/MOL
REMARK 923 INTER-LIGAND FREE ENERGY PREDICTED BY IDOCK:   -5.52 KCAL/MOL
REMARK 924 INTRA-LIGAND FREE ENERGY PREDICTED BY IDOCK:   -0.63 KCAL/MOL
REMARK 927      BINDING AFFINITY PREDICTED BY RF-SCORE:    0.00 PKD
ROOT
HETATM    1  C   UNL     1      -6.365   2.715  66.565  1.00  0.00    -0.025 C  
HETATM    2  O   UNL     1      -6.308   3.695  67.600  1.00  0.00    -0.035 OA 
ENDROOT
BRANCH   2   3
HETATM    3  C   UNL     1      -7.525   4.062  68.120  1.00  0.00    -0.067 A  
HETATM    4  C   UNL     1      -8.044   5.373  68.174  1.00  0.00    -0.095 A  
HETATM    5  C   UNL     1      -9.494   3.284  69.198  1.00  0.00    -0.119 A  
HETATM    6  C   UNL     1      -9.355   5.539  68.635  1.00  0.00    -0.125 A  
HETATM    7  C   UNL     1      -8.252   3.013  68.665  1.00  0.00    -0.080 A  
HETATM    8  N   UNL     1     -10.058   4.510  69.187  1.00  0.00    -0.101 NA 
BRANCH   4   9
HETATM    9  O   UNL     1      -7.262   6.389  67.683  1.00  0.00    -0.081 OA 
HETATM   10  C   UNL     1      -7.389   6.658  66.286  1.00  0.00    -0.073 C  
ENDBRANCH   4   9
BRANCH   6  11
HETATM   11  C   UNL     1     -10.129   6.826  68.496  1.00  0.00    -0.162 C  
BRANCH  11  12
HETATM   12  S   UNL     1     -11.107   7.177  69.984  1.00  0.00    -0.235 S  
HETATM   13  O   UNL     1     -10.289   6.970  71.226  1.00  0.00    -0.202 OA 
BRANCH  12  14
HETATM   14  C   UNL     1     -11.258   8.893  69.802  1.00  0.00    -0.006 A  
HETATM   15  N   UNL     1     -10.901   9.590  68.744  1.00  0.00    -0.377 NA 
HETATM   16  C   UNL     1     -11.330  10.874  69.006  1.00  0.00    -0.281 A  
HETATM   17  H   UNL     1     -10.415   9.255  67.913  1.00  0.00     0.000 HD 
HETATM   18  C   UNL     1     -11.927  10.957  70.259  1.00  0.00    -0.361 A  
HETATM   19  N   UNL     1     -11.849   9.682  70.752  1.00  0.00    -0.294 NA 
HETATM   20  C   UNL     1     -12.465  12.139  70.775  1.00  0.00    -0.362 A  
HETATM   21  C   UNL     1     -12.379  13.289  69.975  1.00  0.00    -0.200 A  
HETATM   22  C   UNL     1     -11.806  13.228  68.701  1.00  0.00    -0.380 A  
HETATM   23  C   UNL     1     -11.268  12.026  68.208  1.00  0.00    -0.315 A  
BRANCH  21  24
HETATM   24  O   UNL     1     -12.919  14.412  70.544  1.00  0.00    -0.345 OA 
HETATM   25  C   UNL     1     -12.815  14.497  71.956  1.00  0.00    -0.337 C  
HETATM   26  F   UNL     1     -11.598  15.002  72.278  1.00  0.00    -0.431 F  
HETATM   27  F   UNL     1     -13.736  15.402  72.374  1.00  0.00    -0.431 F  
ENDBRANCH  21  24
ENDBRANCH  12  14
ENDBRANCH  11  12
ENDBRANCH   6  11
ENDBRANCH   2   3
TORSDOF 6
ENDMDL
MODEL      216
REMARK 921   NORMALIZED FREE ENERGY PREDICTED BY IDOCK:   -4.00 KCAL/MOL
REMARK 922        TOTAL FREE ENERGY PREDICTED BY IDOCK:   -6.15 KCAL/MOL
REMARK 923 INTER-LIGAND FREE ENERGY PREDICTED BY IDOCK:   -5.42 KCAL/MOL
REMARK 924 INTRA-LIGAND FREE ENERGY PREDICTED BY IDOCK:   -0.73 KCAL/MOL
REMARK 927      BINDING AFFINITY PREDICTED BY RF-SCORE:    0.00 PKD
ROOT
HETATM    1  C   UNL     1     -10.620  19.813  65.629  1.00  0.00    -0.355 C  
HETATM    2  O   UNL     1      -9.362  19.810  66.302  1.00  0.00    -0.367 OA 
ENDROOT
BRANCH   2   3
HETATM    3  C   UNL     1      -8.971  18.589  66.795  1.00  0.00    -0.293 A  
HETATM    4  C   UNL     1      -9.457  17.971  67.966  1.00  0.00    -0.284 A  
HETATM    5  C   UNL     1      -7.529  16.729  66.464  1.00  0.00    -0.287 A  
HETATM    6  C   UNL     1      -9.026  16.669  68.247  1.00  0.00    -0.214 A  
HETATM    7  C   UNL     1      -7.975  17.967  66.054  1.00  0.00    -0.156 A  
HETATM    8  N   UNL     1      -8.033  16.071  67.529  1.00  0.00    -0.136 NA 
BRANCH   4   9
HETATM    9  O   UNL     1     -10.394  18.651  68.704  1.00  0.00    -0.347 OA 
HETATM   10  C   UNL     1      -9.892  19.684  69.555  1.00  0.00    -0.050 C  
ENDBRANCH   4   9
BRANCH   6  11
HETATM   11  C   UNL     1      -9.657  15.792  69.299  1.00  0.00    -0.270 C  
BRANCH  11  12
HETATM   12  S   UNL     1     -11.246  15.120  68.738  1.00  0.00    -0.303 S  
HETATM   13  O   UNL     1     -11.567  15.589  67.348  1.00  0.00    -0.222 OA 
BRANCH  12  14
HETATM   14  C   UNL     1     -10.789  13.458  68.578  1.00  0.00    -0.265 A  
HETATM   15  N   UNL     1     -11.608  12.427  68.606  1.00  0.00    -0.296 NA 
HETATM   16  C   UNL     1     -10.816  11.338  68.310  1.00  0.00    -0.205 A  
HETATM   17  H   UNL     1     -12.608  12.432  68.803  1.00  0.00     0.000 HD 
HETATM   18  C   UNL     1      -9.490  11.717  68.133  1.00  0.00    -0.193 A  
HETATM   19  N   UNL     1      -9.499  13.072  68.330  1.00  0.00    -0.199 NA 
HETATM   20  C   UNL     1      -8.471  10.816  67.810  1.00  0.00    -0.120 A  
HETATM   21  C   UNL     1      -8.827   9.465  67.670  1.00  0.00    -0.115 A  
HETATM   22  C   UNL     1     -10.157   9.061  67.819  1.00  0.00    -0.260 A  
HETATM   23  C   UNL     1     -11.161   9.988  68.149  1.00  0.00    -0.252 A  
BRANCH  21  24
HETATM   24  O   UNL     1      -7.781   8.637  67.360  1.00  0.00    -0.096 OA 
HETATM   25  C   UNL     1      -6.554   8.926  68.011  1.00  0.00    -0.061 C  
HETATM   26  F   UNL     1      -6.560   8.346  69.237  1.00  0.00    -0.040 F  
HETATM   27  F   UNL     1      -5.568   8.322  67.299  1.00  0.00    -0.034 F  
ENDBRANCH  21  24
ENDBRANCH  12  14
ENDBRANCH  11  12
ENDBRANCH   6  11
ENDBRANCH   2   3
TORSDOF 6
ENDMDL
MODEL      217
REMARK 921   NORMALIZED FREE ENERGY PREDICTED BY IDOCK:   -3.98 KCAL/MOL
REMARK 922        TOTAL FREE ENERGY PREDICTED BY IDOCK:   -6.13 KCAL/MOL
REMARK 923 INTER-LIGAND FREE ENERGY PREDICTED BY IDOCK:   -5.64 KCAL/MOL
REMARK 924 INTRA-LIGAND FREE ENERGY PREDICTED BY IDOCK:   -0.49 KCAL/MOL
REMARK 927      BINDING AFFINITY PREDICTED BY RF-SCORE:    0.00 PKD
ROOT
HETATM    1  C   UNL     1      -7.511   9.529  65.422  1.00  0.00    -0.099 C  
HETATM    2  O   UNL     1      -7.561   8.287  66.122  1.00  0.00    -0.083 OA 
ENDROOT
BRANCH   2   3
HETATM    3  C   UNL     1      -7.978   8.373  67.427  1.00  0.00    -0.106 A  
HETATM    4  C   UNL     1      -9.293   8.168  67.895  1.00  0.00    -0.134 A  
HETATM    5  C   UNL     1      -7.303   8.834  69.659  1.00  0.00    -0.059 A  
HETATM    6  C   UNL     1      -9.506   8.183  69.278  1.00  0.00    -0.159 A  
HETATM    7  C   UNL     1      -6.981   8.737  68.322  1.00  0.00    -0.073 A  
HETATM    8  N   UNL     1      -8.529   8.560  70.151  1.00  0.00    -0.122 NA 
BRANCH   4   9
HETATM    9  O   UNL     1     -10.261   7.875  66.967  1.00  0.00    -0.253 OA 
HETATM   10  C   UNL     1     -10.685   6.511  66.914  1.00  0.00    -0.333 C  
ENDBRANCH   4   9
BRANCH   6  11
HETATM   11  C   UNL     1     -10.784   7.717  69.928  1.00  0.00    -0.245 C  
BRANCH  11  12
HETATM   12  S   UNL     1     -11.732   9.110  70.603  1.00  0.00    -0.156 S  
HETATM   13  O   UNL     1     -11.111   9.619  71.871  1.00  0.00    -0.201 OA 
BRANCH  12  14
HETATM   14  C   UNL     1     -11.363  10.292  69.392  1.00  0.00    -0.221 A  
HETATM   15  N   UNL     1     -11.888  10.351  68.186  1.00  0.00    -0.738 NA 
HETATM   16  C   UNL     1     -11.396  11.519  67.644  1.00  0.00    -0.291 A  
HETATM   17  H   UNL     1     -12.520   9.681  67.750  1.00  0.00     0.000 HD 
HETATM   18  C   UNL     1     -10.533  12.157  68.527  1.00  0.00    -0.233 A  
HETATM   19  N   UNL     1     -10.515  11.342  69.627  1.00  0.00     0.013 NA 
HETATM   20  C   UNL     1      -9.901  13.371  68.240  1.00  0.00    -0.235 A  
HETATM   21  C   UNL     1     -10.159  13.950  66.988  1.00  0.00    -0.256 A  
HETATM   22  C   UNL     1     -11.042  13.342  66.090  1.00  0.00    -0.300 A  
HETATM   23  C   UNL     1     -11.659  12.119  66.403  1.00  0.00    -0.429 A  
BRANCH  21  24
HETATM   24  O   UNL     1      -9.503  15.133  66.769  1.00  0.00    -0.218 OA 
HETATM   25  C   UNL     1     -10.102  16.283  67.344  1.00  0.00    -0.260 C  
HETATM   26  F   UNL     1      -9.708  16.383  68.638  1.00  0.00    -0.208 F  
HETATM   27  F   UNL     1      -9.597  17.366  66.698  1.00  0.00    -0.238 F  
ENDBRANCH  21  24
ENDBRANCH  12  14
ENDBRANCH  11  12
ENDBRANCH   6  11
ENDBRANCH   2   3
TORSDOF 6
ENDMDL
MODEL      218
REMARK 921   NORMALIZED FREE ENERGY PREDICTED BY IDOCK:   -3.97 KCAL/MOL
REMARK 922        TOTAL FREE ENERGY PREDICTED BY IDOCK:   -6.11 KCAL/MOL
REMARK 923 INTER-LIGAND FREE ENERGY PREDICTED BY IDOCK:   -5.43 KCAL/MOL
REMARK 924 INTRA-LIGAND FREE ENERGY PREDICTED BY IDOCK:   -0.68 KCAL/MOL
REMARK 927      BINDING AFFINITY PREDICTED BY RF-SCORE:    0.00 PKD
ROOT
HETATM    1  C   UNL     1      -5.976  10.471  65.256  1.00  0.00    -0.124 C  
HETATM    2  O   UNL     1      -7.141   9.779  65.702  1.00  0.00    -0.096 OA 
ENDROOT
BRANCH   2   3
HETATM    3  C   UNL     1      -7.941  10.487  66.565  1.00  0.00    -0.132 A  
HETATM    4  C   UNL     1      -9.322  10.285  66.773  1.00  0.00    -0.160 A  
HETATM    5  C   UNL     1      -8.010  12.266  68.139  1.00  0.00    -0.155 A  
HETATM    6  C   UNL     1      -9.948  11.027  67.781  1.00  0.00    -0.173 A  
HETATM    7  C   UNL     1      -7.289  11.510  67.239  1.00  0.00    -0.131 A  
HETATM    8  N   UNL     1      -9.309  12.044  68.426  1.00  0.00    -0.197 NA 
BRANCH   4   9
HETATM    9  O   UNL     1      -9.941   9.306  66.035  1.00  0.00    -0.290 OA 
HETATM   10  C   UNL     1      -9.910   7.990  66.591  1.00  0.00    -0.252 C  
ENDBRANCH   4   9
BRANCH   6  11
HETATM   11  C   UNL     1     -11.334  10.730  68.294  1.00  0.00    -0.309 C  
BRANCH  11  12
HETATM   12  S   UNL     1     -11.494  11.140  70.055  1.00  0.00    -0.266 S  
HETATM   13  O   UNL     1     -12.926  11.407  70.416  1.00  0.00    -0.057 OA 
BRANCH  12  14
HETATM   14  C   UNL     1     -11.124   9.585  70.722  1.00  0.00    -0.323 A  
HETATM   15  N   UNL     1      -9.919   9.130  70.995  1.00  0.00    -0.275 NA 
HETATM   16  C   UNL     1     -10.132   7.922  71.624  1.00  0.00    -0.181 A  
HETATM   17  H   UNL     1      -9.025   9.574  70.788  1.00  0.00     0.000 HD 
HETATM   18  C   UNL     1     -11.488   7.630  71.702  1.00  0.00    -0.260 A  
HETATM   19  N   UNL     1     -12.097   8.699  71.101  1.00  0.00    -0.284 NA 
HETATM   20  C   UNL     1     -11.991   6.473  72.304  1.00  0.00    -0.272 A  
HETATM   21  C   UNL     1     -11.059   5.571  72.842  1.00  0.00    -0.299 A  
HETATM   22  C   UNL     1      -9.690   5.853  72.800  1.00  0.00    -0.167 A  
HETATM   23  C   UNL     1      -9.212   7.022  72.183  1.00  0.00    -0.142 A  
BRANCH  21  24
HETATM   24  O   UNL     1     -11.618   4.456  73.410  1.00  0.00    -0.282 OA 
HETATM   25  C   UNL     1     -10.869   3.259  73.279  1.00  0.00    -0.180 C  
HETATM   26  F   UNL     1      -9.940   3.211  74.265  1.00  0.00    -0.120 F  
HETATM   27  F   UNL     1     -11.722   2.225  73.496  1.00  0.00    -0.304 F  
ENDBRANCH  21  24
ENDBRANCH  12  14
ENDBRANCH  11  12
ENDBRANCH   6  11
ENDBRANCH   2   3
TORSDOF 6
ENDMDL
MODEL      219
REMARK 921   NORMALIZED FREE ENERGY PREDICTED BY IDOCK:   -3.96 KCAL/MOL
REMARK 922        TOTAL FREE ENERGY PREDICTED BY IDOCK:   -6.10 KCAL/MOL
REMARK 923 INTER-LIGAND FREE ENERGY PREDICTED BY IDOCK:   -6.53 KCAL/MOL
REMARK 924 INTRA-LIGAND FREE ENERGY PREDICTED BY IDOCK:    0.43 KCAL/MOL
REMARK 927      BINDING AFFINITY PREDICTED BY RF-SCORE:    0.00 PKD
ROOT
HETATM    1  C   UNL     1      -6.096   9.214  65.136  1.00  0.00    -0.060 C  
HETATM    2  O   UNL     1      -6.911   8.605  66.136  1.00  0.00    -0.071 OA 
ENDROOT
BRANCH   2   3
HETATM    3  C   UNL     1      -7.731   9.469  66.821  1.00  0.00    -0.098 A  
HETATM    4  C   UNL     1      -9.071   9.770  66.502  1.00  0.00    -0.153 A  
HETATM    5  C   UNL     1      -7.871  10.981  68.648  1.00  0.00    -0.136 A  
HETATM    6  C   UNL     1      -9.787  10.586  67.386  1.00  0.00    -0.174 A  
HETATM    7  C   UNL     1      -7.120  10.106  67.892  1.00  0.00    -0.085 A  
HETATM    8  N   UNL     1      -9.179  11.225  68.425  1.00  0.00    -0.173 NA 
BRANCH   4   9
HETATM    9  O   UNL     1      -9.615   9.167  65.395  1.00  0.00    -0.231 OA 
HETATM   10  C   UNL     1      -9.585   9.931  64.187  1.00  0.00    -0.108 C  
ENDBRANCH   4   9
BRANCH   6  11
HETATM   11  C   UNL     1     -11.282  10.771  67.322  1.00  0.00    -0.197 C  
BRANCH  11  12
HETATM   12  S   UNL     1     -11.880  11.825  68.673  1.00  0.00    -0.257 S  
HETATM   13  O   UNL     1     -11.083  11.597  69.925  1.00  0.00    -0.133 OA 
BRANCH  12  14
HETATM   14  C   UNL     1     -11.361  13.359  68.060  1.00  0.00    -0.286 A  
HETATM   15  N   UNL     1     -11.090  13.635  66.802  1.00  0.00    -0.303 NA 
HETATM   16  C   UNL     1     -10.852  14.993  66.781  1.00  0.00    -0.318 A  
HETATM   17  H   UNL     1     -11.062  12.987  66.015  1.00  0.00     0.000 HD 
HETATM   18  C   UNL     1     -10.951  15.538  68.056  1.00  0.00    -0.311 A  
HETATM   19  N   UNL     1     -11.256  14.469  68.855  1.00  0.00    -0.249 NA 
HETATM   20  C   UNL     1     -10.771  16.898  68.325  1.00  0.00    -0.377 A  
HETATM   21  C   UNL     1     -10.469  17.735  67.239  1.00  0.00    -0.353 A  
HETATM   22  C   UNL     1     -10.389  17.216  65.942  1.00  0.00    -0.294 A  
HETATM   23  C   UNL     1     -10.569  15.843  65.702  1.00  0.00    -0.393 A  
BRANCH  21  24
HETATM   24  O   UNL     1     -10.299  19.052  67.573  1.00  0.00    -0.369 OA 
HETATM   25  C   UNL     1      -9.421  19.790  66.738  1.00  0.00    -0.382 C  
HETATM   26  F   UNL     1     -10.109  20.225  65.653  1.00  0.00    -0.537 F  
HETATM   27  F   UNL     1      -9.042  20.896  67.428  1.00  0.00    -0.478 F  
ENDBRANCH  21  24
ENDBRANCH  12  14
ENDBRANCH  11  12
ENDBRANCH   6  11
ENDBRANCH   2   3
TORSDOF 6
ENDMDL
MODEL      220
REMARK 921   NORMALIZED FREE ENERGY PREDICTED BY IDOCK:   -3.94 KCAL/MOL
REMARK 922        TOTAL FREE ENERGY PREDICTED BY IDOCK:   -6.07 KCAL/MOL
REMARK 923 INTER-LIGAND FREE ENERGY PREDICTED BY IDOCK:   -5.78 KCAL/MOL
REMARK 924 INTRA-LIGAND FREE ENERGY PREDICTED BY IDOCK:   -0.29 KCAL/MOL
REMARK 927      BINDING AFFINITY PREDICTED BY RF-SCORE:    0.00 PKD
ROOT
HETATM    1  C   UNL     1      -9.419   2.757  69.502  1.00  0.00    -0.077 C  
HETATM    2  O   UNL     1      -8.310   3.353  68.831  1.00  0.00    -0.060 OA 
ENDROOT
BRANCH   2   3
HETATM    3  C   UNL     1      -8.630   4.065  67.701  1.00  0.00    -0.100 A  
HETATM    4  C   UNL     1      -9.223   5.344  67.664  1.00  0.00    -0.112 A  
HETATM    5  C   UNL     1      -8.634   4.043  65.325  1.00  0.00    -0.114 A  
HETATM    6  C   UNL     1      -9.367   5.964  66.418  1.00  0.00    -0.157 A  
HETATM    7  C   UNL     1      -8.360   3.400  66.513  1.00  0.00    -0.102 A  
HETATM    8  N   UNL     1      -9.120   5.300  65.253  1.00  0.00    -0.131 NA 
BRANCH   4   9
HETATM    9  O   UNL     1      -9.534   5.937  68.863  1.00  0.00    -0.124 OA 
HETATM   10  C   UNL     1      -8.478   6.665  69.495  1.00  0.00    -0.132 C  
ENDBRANCH   4   9
BRANCH   6  11
HETATM   11  C   UNL     1      -9.728   7.418  66.248  1.00  0.00    -0.013 C  
BRANCH  11  12
HETATM   12  S   UNL     1      -8.416   8.333  65.391  1.00  0.00    -0.155 S  
HETATM   13  O   UNL     1      -8.181   7.775  64.017  1.00  0.00    -0.106 OA 
BRANCH  12  14
HETATM   14  C   UNL     1      -9.250   9.831  65.153  1.00  0.00    -0.240 A  
HETATM   15  N   UNL     1     -10.160  10.069  64.231  1.00  0.00    -0.443 NA 
HETATM   16  C   UNL     1     -10.627  11.335  64.513  1.00  0.00    -0.336 A  
HETATM   17  H   UNL     1     -10.455   9.452  63.475  1.00  0.00     0.000 HD 
HETATM   18  C   UNL     1      -9.963  11.882  65.605  1.00  0.00    -0.241 A  
HETATM   19  N   UNL     1      -9.076  10.908  65.980  1.00  0.00    -0.184 NA 
HETATM   20  C   UNL     1     -10.246  13.151  66.119  1.00  0.00    -0.291 A  
HETATM   21  C   UNL     1     -11.249  13.895  65.478  1.00  0.00    -0.307 A  
HETATM   22  C   UNL     1     -11.950  13.359  64.393  1.00  0.00    -0.460 A  
HETATM   23  C   UNL     1     -11.640  12.082  63.894  1.00  0.00    -0.536 A  
BRANCH  21  24
HETATM   24  O   UNL     1     -11.470  15.130  66.027  1.00  0.00    -0.285 OA 
HETATM   25  C   UNL     1     -10.552  16.144  65.651  1.00  0.00    -0.363 C  
HETATM   26  F   UNL     1     -10.945  16.676  64.467  1.00  0.00    -0.405 F  
HETATM   27  F   UNL     1     -10.646  17.135  66.574  1.00  0.00    -0.309 F  
ENDBRANCH  21  24
ENDBRANCH  12  14
ENDBRANCH  11  12
ENDBRANCH   6  11
ENDBRANCH   2   3
TORSDOF 6
ENDMDL
MODEL      221
REMARK 921   NORMALIZED FREE ENERGY PREDICTED BY IDOCK:   -3.91 KCAL/MOL
REMARK 922        TOTAL FREE ENERGY PREDICTED BY IDOCK:   -6.03 KCAL/MOL
REMARK 923 INTER-LIGAND FREE ENERGY PREDICTED BY IDOCK:   -5.65 KCAL/MOL
REMARK 924 INTRA-LIGAND FREE ENERGY PREDICTED BY IDOCK:   -0.38 KCAL/MOL
REMARK 927      BINDING AFFINITY PREDICTED BY RF-SCORE:    0.00 PKD
ROOT
HETATM    1  C   UNL     1      -9.512  10.645  63.068  1.00  0.00    -0.338 C  
HETATM    2  O   UNL     1     -10.565  11.381  63.688  1.00  0.00    -0.356 OA 
ENDROOT
BRANCH   2   3
HETATM    3  C   UNL     1     -10.347  11.709  65.004  1.00  0.00    -0.281 A  
HETATM    4  C   UNL     1     -11.301  12.239  65.898  1.00  0.00    -0.360 A  
HETATM    5  C   UNL     1      -8.729  11.810  66.741  1.00  0.00    -0.192 A  
HETATM    6  C   UNL     1     -10.926  12.402  67.236  1.00  0.00    -0.260 A  
HETATM    7  C   UNL     1      -9.039  11.521  65.430  1.00  0.00    -0.063 A  
HETATM    8  N   UNL     1      -9.636  12.234  67.645  1.00  0.00    -0.186 NA 
BRANCH   4   9
HETATM    9  O   UNL     1     -12.566  12.471  65.416  1.00  0.00    -0.656 OA 
HETATM   10  C   UNL     1     -12.829  13.802  64.965  1.00  0.00    -0.272 C  
ENDBRANCH   4   9
BRANCH   6  11
HETATM   11  C   UNL     1     -11.904  12.695  68.345  1.00  0.00    -0.301 C  
BRANCH  11  12
HETATM   12  S   UNL     1     -11.290  12.105  69.947  1.00  0.00     0.084 S  
HETATM   13  O   UNL     1     -12.398  12.044  70.958  1.00  0.00    -0.346 OA 
BRANCH  12  14
HETATM   14  C   UNL     1     -10.959  10.462  69.515  1.00  0.00    -0.262 A  
HETATM   15  N   UNL     1     -11.480   9.813  68.494  1.00  0.00    -0.496 NA 
HETATM   16  C   UNL     1     -10.827   8.599  68.476  1.00  0.00     0.053 A  
HETATM   17  H   UNL     1     -12.208  10.137  67.858  1.00  0.00     0.000 HD 
HETATM   18  C   UNL     1      -9.919   8.503  69.524  1.00  0.00    -0.193 A  
HETATM   19  N   UNL     1     -10.039   9.698  70.182  1.00  0.00    -0.246 NA 
HETATM   20  C   UNL     1      -9.108   7.385  69.737  1.00  0.00    -0.141 A  
HETATM   21  C   UNL     1      -9.242   6.313  68.841  1.00  0.00    -0.123 A  
HETATM   22  C   UNL     1     -10.130   6.393  67.763  1.00  0.00    -0.171 A  
HETATM   23  C   UNL     1     -10.937   7.529  67.576  1.00  0.00    -0.133 A  
BRANCH  21  24
HETATM   24  O   UNL     1      -8.425   5.247  69.111  1.00  0.00    -0.097 OA 
HETATM   25  C   UNL     1      -8.468   4.762  70.443  1.00  0.00    -0.090 C  
HETATM   26  F   UNL     1      -9.511   3.904  70.564  1.00  0.00    -0.187 F  
HETATM   27  F   UNL     1      -7.340   4.034  70.643  1.00  0.00    -0.039 F  
ENDBRANCH  21  24
ENDBRANCH  12  14
ENDBRANCH  11  12
ENDBRANCH   6  11
ENDBRANCH   2   3
TORSDOF 6
ENDMDL
MODEL      222
REMARK 921   NORMALIZED FREE ENERGY PREDICTED BY IDOCK:   -3.90 KCAL/MOL
REMARK 922        TOTAL FREE ENERGY PREDICTED BY IDOCK:   -6.02 KCAL/MOL
REMARK 923 INTER-LIGAND FREE ENERGY PREDICTED BY IDOCK:   -5.52 KCAL/MOL
REMARK 924 INTRA-LIGAND FREE ENERGY PREDICTED BY IDOCK:   -0.50 KCAL/MOL
REMARK 927      BINDING AFFINITY PREDICTED BY RF-SCORE:    0.00 PKD
ROOT
HETATM    1  C   UNL     1     -13.034  10.279  71.365  1.00  0.00    -0.440 C  
HETATM    2  O   UNL     1     -12.041  11.302  71.298  1.00  0.00    -0.234 OA 
ENDROOT
BRANCH   2   3
HETATM    3  C   UNL     1     -11.999  11.992  70.111  1.00  0.00    -0.321 A  
HETATM    4  C   UNL     1     -11.995  13.395  69.966  1.00  0.00    -0.337 A  
HETATM    5  C   UNL     1     -11.944  11.791  67.744  1.00  0.00    -0.064 A  
HETATM    6  C   UNL     1     -11.829  13.920  68.679  1.00  0.00    -0.372 A  
HETATM    7  C   UNL     1     -12.001  11.186  68.981  1.00  0.00    -0.389 A  
HETATM    8  N   UNL     1     -11.852  13.126  67.572  1.00  0.00    -0.367 NA 
BRANCH   4   9
HETATM    9  O   UNL     1     -12.061  14.154  71.109  1.00  0.00    -0.343 OA 
HETATM   10  C   UNL     1     -13.160  15.064  71.193  1.00  0.00    -0.415 C  
ENDBRANCH   4   9
BRANCH   6  11
HETATM   11  C   UNL     1     -11.538  15.374  68.405  1.00  0.00    -0.354 C  
BRANCH  11  12
HETATM   12  S   UNL     1     -10.286  15.567  67.106  1.00  0.00    -0.265 S  
HETATM   13  O   UNL     1      -9.896  17.009  66.946  1.00  0.00    -0.252 OA 
BRANCH  12  14
HETATM   14  C   UNL     1      -8.953  14.808  67.908  1.00  0.00    -0.172 A  
HETATM   15  N   UNL     1      -8.228  15.338  68.871  1.00  0.00    -0.171 NA 
HETATM   16  C   UNL     1      -7.386  14.326  69.278  1.00  0.00    -0.053 A  
HETATM   17  H   UNL     1      -8.279  16.289  69.236  1.00  0.00     0.000 HD 
HETATM   18  C   UNL     1      -7.585  13.175  68.525  1.00  0.00    -0.122 A  
HETATM   19  N   UNL     1      -8.576  13.518  67.645  1.00  0.00    -0.172 NA 
HETATM   20  C   UNL     1      -6.874  11.989  68.733  1.00  0.00    -0.094 A  
HETATM   21  C   UNL     1      -5.911  11.987  69.753  1.00  0.00    -0.125 A  
HETATM   22  C   UNL     1      -5.708  13.123  70.543  1.00  0.00    -0.176 A  
HETATM   23  C   UNL     1      -6.433  14.304  70.308  1.00  0.00    -0.102 A  
BRANCH  21  24
HETATM   24  O   UNL     1      -5.247  10.797  69.899  1.00  0.00    -0.038 OA 
HETATM   25  C   UNL     1      -6.022   9.719  70.399  1.00  0.00    -0.069 C  
HETATM   26  F   UNL     1      -6.689   9.142  69.369  1.00  0.00    -0.045 F  
HETATM   27  F   UNL     1      -5.156   8.787  70.873  1.00  0.00    -0.027 F  
ENDBRANCH  21  24
ENDBRANCH  12  14
ENDBRANCH  11  12
ENDBRANCH   6  11
ENDBRANCH   2   3
TORSDOF 6
ENDMDL
MODEL      223
REMARK 921   NORMALIZED FREE ENERGY PREDICTED BY IDOCK:   -3.90 KCAL/MOL
REMARK 922        TOTAL FREE ENERGY PREDICTED BY IDOCK:   -6.01 KCAL/MOL
REMARK 923 INTER-LIGAND FREE ENERGY PREDICTED BY IDOCK:   -5.17 KCAL/MOL
REMARK 924 INTRA-LIGAND FREE ENERGY PREDICTED BY IDOCK:   -0.84 KCAL/MOL
REMARK 927      BINDING AFFINITY PREDICTED BY RF-SCORE:    0.00 PKD
ROOT
HETATM    1  C   UNL     1     -11.764  10.924  69.132  1.00  0.00    -0.326 C  
HETATM    2  O   UNL     1     -11.295   9.600  69.378  1.00  0.00    -0.137 OA 
ENDROOT
BRANCH   2   3
HETATM    3  C   UNL     1     -10.010   9.353  68.962  1.00  0.00    -0.177 A  
HETATM    4  C   UNL     1      -9.633   8.701  67.770  1.00  0.00    -0.148 A  
HETATM    5  C   UNL     1      -7.710   9.576  69.516  1.00  0.00    -0.100 A  
HETATM    6  C   UNL     1      -8.269   8.644  67.457  1.00  0.00    -0.110 A  
HETATM    7  C   UNL     1      -9.032   9.769  69.855  1.00  0.00    -0.254 A  
HETATM    8  N   UNL     1      -7.312   9.035  68.345  1.00  0.00    -0.078 NA 
BRANCH   4   9
HETATM    9  O   UNL     1     -10.634   8.247  66.947  1.00  0.00    -0.321 OA 
HETATM   10  C   UNL     1     -10.986   6.869  67.091  1.00  0.00    -0.357 C  
ENDBRANCH   4   9
BRANCH   6  11
HETATM   11  C   UNL     1      -7.742   8.227  66.107  1.00  0.00    -0.097 C  
BRANCH  11  12
HETATM   12  S   UNL     1      -7.957   9.541  64.874  1.00  0.00    -0.129 S  
HETATM   13  O   UNL     1      -9.279   9.410  64.175  1.00  0.00    -0.176 OA 
BRANCH  12  14
HETATM   14  C   UNL     1      -8.126  10.887  65.950  1.00  0.00    -0.120 A  
HETATM   15  N   UNL     1      -7.154  11.456  66.632  1.00  0.00    -0.257 NA 
HETATM   16  C   UNL     1      -7.738  12.551  67.233  1.00  0.00    -0.146 A  
HETATM   17  H   UNL     1      -6.183  11.154  66.701  1.00  0.00     0.000 HD 
HETATM   18  C   UNL     1      -9.093  12.624  66.933  1.00  0.00    -0.218 A  
HETATM   19  N   UNL     1      -9.317  11.538  66.129  1.00  0.00    -0.211 NA 
HETATM   20  C   UNL     1      -9.929  13.643  67.399  1.00  0.00    -0.234 A  
HETATM   21  C   UNL     1      -9.350  14.627  68.216  1.00  0.00    -0.199 A  
HETATM   22  C   UNL     1      -7.984  14.591  68.513  1.00  0.00    -0.142 A  
HETATM   23  C   UNL     1      -7.168  13.551  68.035  1.00  0.00    -0.125 A  
BRANCH  21  24
HETATM   24  O   UNL     1     -10.225  15.591  68.643  1.00  0.00    -0.208 OA 
HETATM   25  C   UNL     1     -10.086  16.862  68.028  1.00  0.00    -0.293 C  
HETATM   26  F   UNL     1     -10.767  16.860  66.856  1.00  0.00    -0.311 F  
HETATM   27  F   UNL     1     -10.698  17.767  68.834  1.00  0.00    -0.298 F  
ENDBRANCH  21  24
ENDBRANCH  12  14
ENDBRANCH  11  12
ENDBRANCH   6  11
ENDBRANCH   2   3
TORSDOF 6
ENDMDL
MODEL      224
REMARK 921   NORMALIZED FREE ENERGY PREDICTED BY IDOCK:   -3.85 KCAL/MOL
REMARK 922        TOTAL FREE ENERGY PREDICTED BY IDOCK:   -5.95 KCAL/MOL
REMARK 923 INTER-LIGAND FREE ENERGY PREDICTED BY IDOCK:   -5.08 KCAL/MOL
REMARK 924 INTRA-LIGAND FREE ENERGY PREDICTED BY IDOCK:   -0.87 KCAL/MOL
REMARK 927      BINDING AFFINITY PREDICTED BY RF-SCORE:    0.00 PKD
ROOT
HETATM    1  C   UNL     1      -7.259   3.307  64.766  1.00  0.00    -0.066 C  
HETATM    2  O   UNL     1      -8.477   3.172  65.496  1.00  0.00    -0.098 OA 
ENDROOT
BRANCH   2   3
HETATM    3  C   UNL     1      -8.358   3.320  66.856  1.00  0.00    -0.097 A  
HETATM    4  C   UNL     1      -8.904   4.367  67.628  1.00  0.00    -0.109 A  
HETATM    5  C   UNL     1      -7.424   2.403  68.839  1.00  0.00    -0.044 A  
HETATM    6  C   UNL     1      -8.778   4.288  69.020  1.00  0.00    -0.086 A  
HETATM    7  C   UNL     1      -7.587   2.344  67.471  1.00  0.00    -0.060 A  
HETATM    8  N   UNL     1      -8.003   3.340  69.618  1.00  0.00    -0.049 NA 
BRANCH   4   9
HETATM    9  O   UNL     1      -9.604   5.347  66.970  1.00  0.00    -0.125 OA 
HETATM   10  C   UNL     1      -8.837   6.460  66.504  1.00  0.00    -0.136 C  
ENDBRANCH   4   9
BRANCH   6  11
HETATM   11  C   UNL     1      -9.533   5.177  69.976  1.00  0.00    -0.160 C  
BRANCH  11  12
HETATM   12  S   UNL     1      -8.509   6.562  70.546  1.00  0.00    -0.139 S  
HETATM   13  O   UNL     1      -7.336   6.774  69.633  1.00  0.00    -0.082 OA 
BRANCH  12  14
HETATM   14  C   UNL     1      -9.606   7.859  70.210  1.00  0.00    -0.171 A  
HETATM   15  N   UNL     1     -10.405   8.438  71.082  1.00  0.00    -0.204 NA 
HETATM   16  C   UNL     1     -10.978   9.486  70.393  1.00  0.00    -0.278 A  
HETATM   17  H   UNL     1     -10.564   8.171  72.053  1.00  0.00     0.000 HD 
HETATM   18  C   UNL     1     -10.541   9.517  69.074  1.00  0.00    -0.219 A  
HETATM   19  N   UNL     1      -9.682   8.455  68.980  1.00  0.00    -0.168 NA 
HETATM   20  C   UNL     1     -10.952  10.484  68.152  1.00  0.00    -0.330 A  
HETATM   21  C   UNL     1     -11.858  11.458  68.601  1.00  0.00    -0.310 A  
HETATM   22  C   UNL     1     -12.294  11.464  69.930  1.00  0.00    -0.280 A  
HETATM   23  C   UNL     1     -11.869  10.476  70.834  1.00  0.00    -0.455 A  
BRANCH  21  24
HETATM   24  O   UNL     1     -12.224  12.370  67.647  1.00  0.00    -0.425 OA 
HETATM   25  C   UNL     1     -11.484  13.580  67.638  1.00  0.00    -0.318 C  
HETATM   26  F   UNL     1     -10.346  13.394  66.925  1.00  0.00    -0.248 F  
HETATM   27  F   UNL     1     -12.222  14.498  66.962  1.00  0.00    -0.421 F  
ENDBRANCH  21  24
ENDBRANCH  12  14
ENDBRANCH  11  12
ENDBRANCH   6  11
ENDBRANCH   2   3
TORSDOF 6
ENDMDL
MODEL      225
REMARK 921   NORMALIZED FREE ENERGY PREDICTED BY IDOCK:   -3.83 KCAL/MOL
REMARK 922        TOTAL FREE ENERGY PREDICTED BY IDOCK:   -5.92 KCAL/MOL
REMARK 923 INTER-LIGAND FREE ENERGY PREDICTED BY IDOCK:   -5.47 KCAL/MOL
REMARK 924 INTRA-LIGAND FREE ENERGY PREDICTED BY IDOCK:   -0.44 KCAL/MOL
REMARK 927      BINDING AFFINITY PREDICTED BY RF-SCORE:    0.00 PKD
ROOT
HETATM    1  C   UNL     1      -8.917  19.321  69.799  1.00  0.00     0.666 C  
HETATM    2  O   UNL     1     -10.024  19.135  68.919  1.00  0.00    -0.418 OA 
ENDROOT
BRANCH   2   3
HETATM    3  C   UNL     1     -10.279  17.829  68.575  1.00  0.00    -0.382 A  
HETATM    4  C   UNL     1     -10.098  17.255  67.300  1.00  0.00    -0.300 A  
HETATM    5  C   UNL     1     -11.072  15.731  69.359  1.00  0.00    -0.314 A  
HETATM    6  C   UNL     1     -10.300  15.876  67.168  1.00  0.00    -0.300 A  
HETATM    7  C   UNL     1     -10.798  17.059  69.607  1.00  0.00     0.025 A  
HETATM    8  N   UNL     1     -10.829  15.128  68.177  1.00  0.00    -0.258 NA 
BRANCH   4   9
HETATM    9  O   UNL     1      -9.645  18.070  66.292  1.00  0.00    -0.375 OA 
HETATM   10  C   UNL     1     -10.458  19.207  65.993  1.00  0.00    -0.467 C  
ENDBRANCH   4   9
BRANCH   6  11
HETATM   11  C   UNL     1      -9.888  15.088  65.950  1.00  0.00    -0.338 C  
BRANCH  11  12
HETATM   12  S   UNL     1     -11.277  14.136  65.274  1.00  0.00    -0.343 S  
HETATM   13  O   UNL     1     -11.709  14.685  63.945  1.00  0.00    -0.150 OA 
BRANCH  12  14
HETATM   14  C   UNL     1     -10.440  12.661  64.922  1.00  0.00    -0.309 A  
HETATM   15  N   UNL     1     -10.012  12.282  63.736  1.00  0.00    -0.573 NA 
HETATM   16  C   UNL     1      -9.301  11.125  63.971  1.00  0.00    -0.170 A  
HETATM   17  H   UNL     1     -10.171  12.743  62.841  1.00  0.00     0.000 HD 
HETATM   18  C   UNL     1      -9.328  10.784  65.318  1.00  0.00    -0.210 A  
HETATM   19  N   UNL     1     -10.079  11.771  65.898  1.00  0.00    -0.226 NA 
HETATM   20  C   UNL     1      -8.676   9.663  65.840  1.00  0.00    -0.163 A  
HETATM   21  C   UNL     1      -7.972   8.850  64.938  1.00  0.00    -0.129 A  
HETATM   22  C   UNL     1      -7.907   9.184  63.581  1.00  0.00    -0.136 A  
HETATM   23  C   UNL     1      -8.577  10.314  63.083  1.00  0.00    -0.194 A  
BRANCH  21  24
HETATM   24  O   UNL     1      -7.363   7.767  65.514  1.00  0.00    -0.069 OA 
HETATM   25  C   UNL     1      -8.143   7.055  66.461  1.00  0.00    -0.111 C  
HETATM   26  F   UNL     1      -8.936   6.173  65.804  1.00  0.00    -0.154 F  
HETATM   27  F   UNL     1      -7.287   6.321  67.217  1.00  0.00    -0.075 F  
ENDBRANCH  21  24
ENDBRANCH  12  14
ENDBRANCH  11  12
ENDBRANCH   6  11
ENDBRANCH   2   3
TORSDOF 6
ENDMDL
MODEL      226
REMARK 921   NORMALIZED FREE ENERGY PREDICTED BY IDOCK:   -3.81 KCAL/MOL
REMARK 922        TOTAL FREE ENERGY PREDICTED BY IDOCK:   -5.90 KCAL/MOL
REMARK 923 INTER-LIGAND FREE ENERGY PREDICTED BY IDOCK:   -5.23 KCAL/MOL
REMARK 924 INTRA-LIGAND FREE ENERGY PREDICTED BY IDOCK:   -0.67 KCAL/MOL
REMARK 927      BINDING AFFINITY PREDICTED BY RF-SCORE:    0.00 PKD
ROOT
HETATM    1  C   UNL     1      -6.276   3.387  73.356  1.00  0.00    -0.016 C  
HETATM    2  O   UNL     1      -7.518   4.084  73.431  1.00  0.00    -0.068 OA 
ENDROOT
BRANCH   2   3
HETATM    3  C   UNL     1      -7.796   4.893  72.357  1.00  0.00    -0.093 A  
HETATM    4  C   UNL     1      -9.077   5.312  71.941  1.00  0.00    -0.138 A  
HETATM    5  C   UNL     1      -6.859   6.098  70.535  1.00  0.00    -0.055 A  
HETATM    6  C   UNL     1      -9.156   6.234  70.891  1.00  0.00    -0.151 A  
HETATM    7  C   UNL     1      -6.679   5.272  71.624  1.00  0.00    -0.048 A  
HETATM    8  N   UNL     1      -8.060   6.587  70.162  1.00  0.00    -0.119 NA 
BRANCH   4   9
HETATM    9  O   UNL     1     -10.159   4.859  72.655  1.00  0.00    -0.163 OA 
HETATM   10  C   UNL     1     -10.367   5.470  73.930  1.00  0.00    -0.261 C  
ENDBRANCH   4   9
BRANCH   6  11
HETATM   11  C   UNL     1     -10.420   6.968  70.522  1.00  0.00    -0.208 C  
BRANCH  11  12
HETATM   12  S   UNL     1     -10.542   8.558  71.388  1.00  0.00    -0.267 S  
HETATM   13  O   UNL     1      -9.256   8.888  72.089  1.00  0.00    -0.364 OA 
BRANCH  12  14
HETATM   14  C   UNL     1     -10.607   9.605  70.011  1.00  0.00    -0.260 A  
HETATM   15  N   UNL     1     -10.417  10.908  70.023  1.00  0.00    -0.405 NA 
HETATM   16  C   UNL     1     -10.435  11.281  68.697  1.00  0.00    -0.203 A  
HETATM   17  H   UNL     1     -10.285  11.510  70.836  1.00  0.00     0.000 HD 
HETATM   18  C   UNL     1     -10.673  10.187  67.872  1.00  0.00    -0.269 A  
HETATM   19  N   UNL     1     -10.799   9.135  68.740  1.00  0.00    -0.123 NA 
HETATM   20  C   UNL     1     -10.729  10.274  66.478  1.00  0.00    -0.148 A  
HETATM   21  C   UNL     1     -10.542  11.542  65.905  1.00  0.00    -0.268 A  
HETATM   22  C   UNL     1     -10.276  12.654  66.709  1.00  0.00    -0.246 A  
HETATM   23  C   UNL     1     -10.230  12.538  68.109  1.00  0.00    -0.231 A  
BRANCH  21  24
HETATM   24  O   UNL     1     -10.616  11.557  64.537  1.00  0.00    -0.291 OA 
HETATM   25  C   UNL     1      -9.416  11.235  63.853  1.00  0.00    -0.192 C  
HETATM   26  F   UNL     1      -9.311   9.886  63.763  1.00  0.00    -0.269 F  
HETATM   27  F   UNL     1      -9.539  11.701  62.584  1.00  0.00    -0.381 F  
ENDBRANCH  21  24
ENDBRANCH  12  14
ENDBRANCH  11  12
ENDBRANCH   6  11
ENDBRANCH   2   3
TORSDOF 6
ENDMDL
MODEL      227
REMARK 921   NORMALIZED FREE ENERGY PREDICTED BY IDOCK:   -3.79 KCAL/MOL
REMARK 922        TOTAL FREE ENERGY PREDICTED BY IDOCK:   -5.87 KCAL/MOL
REMARK 923 INTER-LIGAND FREE ENERGY PREDICTED BY IDOCK:   -5.11 KCAL/MOL
REMARK 924 INTRA-LIGAND FREE ENERGY PREDICTED BY IDOCK:   -0.76 KCAL/MOL
REMARK 927      BINDING AFFINITY PREDICTED BY RF-SCORE:    0.00 PKD
ROOT
HETATM    1  C   UNL     1     -13.456  15.292  71.448  1.00  0.00    -0.505 C  
HETATM    2  O   UNL     1     -12.709  14.113  71.152  1.00  0.00    -0.321 OA 
ENDROOT
BRANCH   2   3
HETATM    3  C   UNL     1     -12.150  14.080  69.898  1.00  0.00    -0.345 A  
HETATM    4  C   UNL     1     -11.557  12.958  69.282  1.00  0.00    -0.310 A  
HETATM    5  C   UNL     1     -11.634  15.360  67.963  1.00  0.00    -0.292 A  
HETATM    6  C   UNL     1     -11.144  13.084  67.950  1.00  0.00    -0.255 A  
HETATM    7  C   UNL     1     -12.161  15.300  69.236  1.00  0.00    -0.218 A  
HETATM    8  N   UNL     1     -11.138  14.288  67.311  1.00  0.00    -0.297 NA 
BRANCH   4   9
HETATM    9  O   UNL     1     -11.508  11.788  69.999  1.00  0.00    -0.250 OA 
HETATM   10  C   UNL     1     -12.642  10.928  69.873  1.00  0.00    -0.144 C  
ENDBRANCH   4   9
BRANCH   6  11
HETATM   11  C   UNL     1     -10.748  11.912  67.088  1.00  0.00    -0.240 C  
BRANCH  11  12
HETATM   12  S   UNL     1      -8.945  11.778  66.935  1.00  0.00    -0.200 S  
HETATM   13  O   UNL     1      -8.266  12.181  68.212  1.00  0.00    -0.157 OA 
BRANCH  12  14
HETATM   14  C   UNL     1      -8.813  10.053  66.859  1.00  0.00    -0.131 A  
HETATM   15  N   UNL     1      -8.593   9.344  65.771  1.00  0.00    -0.138 NA 
HETATM   16  C   UNL     1      -8.438   8.050  66.218  1.00  0.00    -0.133 A  
HETATM   17  H   UNL     1      -8.548   9.679  64.809  1.00  0.00     0.000 HD 
HETATM   18  C   UNL     1      -8.599   7.974  67.597  1.00  0.00    -0.130 A  
HETATM   19  N   UNL     1      -8.858   9.264  67.976  1.00  0.00    -0.128 NA 
HETATM   20  C   UNL     1      -8.481   6.782  68.319  1.00  0.00    -0.125 A  
HETATM   21  C   UNL     1      -8.192   5.616  67.593  1.00  0.00    -0.101 A  
HETATM   22  C   UNL     1      -8.000   5.669  66.209  1.00  0.00    -0.102 A  
HETATM   23  C   UNL     1      -8.131   6.880  65.508  1.00  0.00    -0.132 A  
BRANCH  21  24
HETATM   24  O   UNL     1      -8.096   4.485  68.360  1.00  0.00    -0.082 OA 
HETATM   25  C   UNL     1      -8.928   4.449  69.508  1.00  0.00    -0.097 C  
HETATM   26  F   UNL     1     -10.160   4.015  69.145  1.00  0.00    -0.215 F  
HETATM   27  F   UNL     1      -8.416   3.511  70.347  1.00  0.00    -0.063 F  
ENDBRANCH  21  24
ENDBRANCH  12  14
ENDBRANCH  11  12
ENDBRANCH   6  11
ENDBRANCH   2   3
TORSDOF 6
ENDMDL
MODEL      228
REMARK 921   NORMALIZED FREE ENERGY PREDICTED BY IDOCK:   -3.75 KCAL/MOL
REMARK 922        TOTAL FREE ENERGY PREDICTED BY IDOCK:   -5.81 KCAL/MOL
REMARK 923 INTER-LIGAND FREE ENERGY PREDICTED BY IDOCK:   -5.93 KCAL/MOL
REMARK 924 INTRA-LIGAND FREE ENERGY PREDICTED BY IDOCK:    0.11 KCAL/MOL
REMARK 927      BINDING AFFINITY PREDICTED BY RF-SCORE:    0.00 PKD
ROOT
HETATM    1  C   UNL     1     -11.139  16.820  67.950  1.00  0.00    -0.178 C  
HETATM    2  O   UNL     1     -10.638  15.651  67.303  1.00  0.00    -0.294 OA 
ENDROOT
BRANCH   2   3
HETATM    3  C   UNL     1     -11.015  14.463  67.879  1.00  0.00    -0.262 A  
HETATM    4  C   UNL     1     -11.261  13.251  67.199  1.00  0.00    -0.299 A  
HETATM    5  C   UNL     1     -11.559  13.376  69.921  1.00  0.00    -0.200 A  
HETATM    6  C   UNL     1     -11.522  12.111  67.967  1.00  0.00    -0.319 A  
HETATM    7  C   UNL     1     -11.195  14.526  69.254  1.00  0.00    -0.309 A  
HETATM    8  N   UNL     1     -11.717  12.182  69.314  1.00  0.00    -0.311 NA 
BRANCH   4   9
HETATM    9  O   UNL     1     -11.136  13.251  65.832  1.00  0.00    -0.284 OA 
HETATM   10  C   UNL     1     -10.398  14.338  65.270  1.00  0.00    -0.395 C  
ENDBRANCH   4   9
BRANCH   6  11
HETATM   11  C   UNL     1     -11.535  10.713  67.403  1.00  0.00     0.064 C  
BRANCH  11  12
HETATM   12  S   UNL     1      -9.914   9.913  67.570  1.00  0.00    -0.197 S  
HETATM   13  O   UNL     1      -8.866  10.905  67.982  1.00  0.00    -0.128 OA 
BRANCH  12  14
HETATM   14  C   UNL     1     -10.235   8.958  68.978  1.00  0.00    -0.206 A  
HETATM   15  N   UNL     1     -11.397   8.848  69.588  1.00  0.00    -0.431 NA 
HETATM   16  C   UNL     1     -11.197   7.892  70.560  1.00  0.00    -0.253 A  
HETATM   17  H   UNL     1     -12.256   9.359  69.385  1.00  0.00     0.000 HD 
HETATM   18  C   UNL     1      -9.883   7.441  70.556  1.00  0.00    -0.180 A  
HETATM   19  N   UNL     1      -9.287   8.153  69.550  1.00  0.00    -0.155 NA 
HETATM   20  C   UNL     1      -9.406   6.458  71.430  1.00  0.00    -0.157 A  
HETATM   21  C   UNL     1     -10.317   5.922  72.353  1.00  0.00    -0.197 A  
HETATM   22  C   UNL     1     -11.651   6.340  72.361  1.00  0.00    -0.325 A  
HETATM   23  C   UNL     1     -12.102   7.333  71.475  1.00  0.00    -0.365 A  
BRANCH  21  24
HETATM   24  O   UNL     1      -9.783   4.971  73.182  1.00  0.00    -0.146 OA 
HETATM   25  C   UNL     1     -10.143   3.630  72.890  1.00  0.00    -0.154 C  
HETATM   26  F   UNL     1      -9.318   3.153  71.926  1.00  0.00    -0.141 F  
HETATM   27  F   UNL     1      -9.902   2.896  74.007  1.00  0.00    -0.107 F  
ENDBRANCH  21  24
ENDBRANCH  12  14
ENDBRANCH  11  12
ENDBRANCH   6  11
ENDBRANCH   2   3
TORSDOF 6
ENDMDL
MODEL      229
REMARK 921   NORMALIZED FREE ENERGY PREDICTED BY IDOCK:   -3.74 KCAL/MOL
REMARK 922        TOTAL FREE ENERGY PREDICTED BY IDOCK:   -5.81 KCAL/MOL
REMARK 923 INTER-LIGAND FREE ENERGY PREDICTED BY IDOCK:   -5.09 KCAL/MOL
REMARK 924 INTRA-LIGAND FREE ENERGY PREDICTED BY IDOCK:   -0.72 KCAL/MOL
REMARK 927      BINDING AFFINITY PREDICTED BY RF-SCORE:    0.00 PKD
ROOT
HETATM    1  C   UNL     1      -7.668  18.762  68.685  1.00  0.00    -0.326 C  
HETATM    2  O   UNL     1      -8.274  17.519  69.036  1.00  0.00    -0.198 OA 
ENDROOT
BRANCH   2   3
HETATM    3  C   UNL     1      -8.671  16.746  67.972  1.00  0.00    -0.212 A  
HETATM    4  C   UNL     1      -8.733  15.337  67.946  1.00  0.00    -0.164 A  
HETATM    5  C   UNL     1      -9.416  16.777  65.716  1.00  0.00    -0.031 A  
HETATM    6  C   UNL     1      -9.275  14.726  66.809  1.00  0.00    -0.260 A  
HETATM    7  C   UNL     1      -8.992  17.468  66.831  1.00  0.00    -0.264 A  
HETATM    8  N   UNL     1      -9.570  15.437  65.684  1.00  0.00    -0.324 NA 
BRANCH   4   9
HETATM    9  O   UNL     1      -8.343  14.661  69.075  1.00  0.00    -0.155 OA 
HETATM   10  C   UNL     1      -6.935  14.487  69.246  1.00  0.00    -0.141 C  
ENDBRANCH   4   9
BRANCH   6  11
HETATM   11  C   UNL     1      -9.651  13.268  66.748  1.00  0.00    -0.258 C  
BRANCH  11  12
HETATM   12  S   UNL     1     -10.929  12.858  67.969  1.00  0.00    -0.260 S  
HETATM   13  O   UNL     1     -12.195  12.415  67.295  1.00  0.00    -0.478 OA 
BRANCH  12  14
HETATM   14  C   UNL     1     -10.219  11.422  68.625  1.00  0.00    -0.208 A  
HETATM   15  N   UNL     1      -8.952  11.075  68.528  1.00  0.00    -0.158 NA 
HETATM   16  C   UNL     1      -8.836   9.942  69.305  1.00  0.00    -0.174 A  
HETATM   17  H   UNL     1      -8.219  11.541  67.995  1.00  0.00     0.000 HD 
HETATM   18  C   UNL     1     -10.062   9.583  69.853  1.00  0.00    -0.232 A  
HETATM   19  N   UNL     1     -10.930  10.533  69.386  1.00  0.00    -0.233 NA 
HETATM   20  C   UNL     1     -10.232   8.480  70.696  1.00  0.00    -0.230 A  
HETATM   21  C   UNL     1      -9.095   7.707  70.981  1.00  0.00    -0.147 A  
HETATM   22  C   UNL     1      -7.845   8.061  70.463  1.00  0.00    -0.094 A  
HETATM   23  C   UNL     1      -7.705   9.172  69.614  1.00  0.00    -0.082 A  
BRANCH  21  24
HETATM   24  O   UNL     1      -9.333   6.639  71.806  1.00  0.00    -0.149 OA 
HETATM   25  C   UNL     1      -8.184   5.930  72.240  1.00  0.00    -0.111 C  
HETATM   26  F   UNL     1      -7.662   6.560  73.321  1.00  0.00    -0.092 F  
HETATM   27  F   UNL     1      -8.601   4.709  72.664  1.00  0.00    -0.109 F  
ENDBRANCH  21  24
ENDBRANCH  12  14
ENDBRANCH  11  12
ENDBRANCH   6  11
ENDBRANCH   2   3
TORSDOF 6
ENDMDL
MODEL      230
REMARK 921   NORMALIZED FREE ENERGY PREDICTED BY IDOCK:   -3.71 KCAL/MOL
REMARK 922        TOTAL FREE ENERGY PREDICTED BY IDOCK:   -5.75 KCAL/MOL
REMARK 923 INTER-LIGAND FREE ENERGY PREDICTED BY IDOCK:   -5.13 KCAL/MOL
REMARK 924 INTRA-LIGAND FREE ENERGY PREDICTED BY IDOCK:   -0.62 KCAL/MOL
REMARK 927      BINDING AFFINITY PREDICTED BY RF-SCORE:    0.00 PKD
ROOT
HETATM    1  C   UNL     1     -12.309  15.571  64.090  1.00  0.00     0.066 C  
HETATM    2  O   UNL     1     -11.157  16.170  64.682  1.00  0.00    -0.598 OA 
ENDROOT
BRANCH   2   3
HETATM    3  C   UNL     1     -10.674  15.526  65.794  1.00  0.00    -0.353 A  
HETATM    4  C   UNL     1      -9.454  15.796  66.447  1.00  0.00    -0.297 A  
HETATM    5  C   UNL     1     -11.087  13.801  67.376  1.00  0.00    -0.296 A  
HETATM    6  C   UNL     1      -9.183  15.115  67.639  1.00  0.00    -0.181 A  
HETATM    7  C   UNL     1     -11.484  14.496  66.253  1.00  0.00    -0.358 A  
HETATM    8  N   UNL     1      -9.970  14.091  68.075  1.00  0.00    -0.229 NA 
BRANCH   4   9
HETATM    9  O   UNL     1      -8.653  16.780  65.920  1.00  0.00    -0.500 OA 
HETATM   10  C   UNL     1      -8.851  18.095  66.442  1.00  0.00    -0.236 C  
ENDBRANCH   4   9
BRANCH   6  11
HETATM   11  C   UNL     1      -8.064  15.490  68.577  1.00  0.00    -0.146 C  
BRANCH  11  12
HETATM   12  S   UNL     1      -6.474  14.816  68.018  1.00  0.00    -0.167 S  
HETATM   13  O   UNL     1      -5.438  14.918  69.099  1.00  0.00    -0.095 OA 
BRANCH  12  14
HETATM   14  C   UNL     1      -6.909  13.142  67.941  1.00  0.00    -0.135 A  
HETATM   15  N   UNL     1      -6.976  12.412  66.847  1.00  0.00    -0.377 NA 
HETATM   16  C   UNL     1      -7.228  11.132  67.292  1.00  0.00    -0.113 A  
HETATM   17  H   UNL     1      -6.865  12.725  65.883  1.00  0.00     0.000 HD 
HETATM   18  C   UNL     1      -7.347  11.096  68.676  1.00  0.00    -0.110 A  
HETATM   19  N   UNL     1      -7.160  12.397  69.062  1.00  0.00    -0.079 NA 
HETATM   20  C   UNL     1      -7.589   9.922  69.396  1.00  0.00    -0.113 A  
HETATM   21  C   UNL     1      -7.723   8.733  68.662  1.00  0.00    -0.098 A  
HETATM   22  C   UNL     1      -7.582   8.737  67.270  1.00  0.00    -0.089 A  
HETATM   23  C   UNL     1      -7.344   9.933  66.572  1.00  0.00    -0.099 A  
BRANCH  21  24
HETATM   24  O   UNL     1      -7.965   7.624  69.427  1.00  0.00    -0.120 OA 
HETATM   25  C   UNL     1      -9.075   6.834  69.031  1.00  0.00    -0.137 C  
HETATM   26  F   UNL     1      -8.682   5.986  68.048  1.00  0.00    -0.114 F  
HETATM   27  F   UNL     1      -9.422   6.064  70.094  1.00  0.00    -0.154 F  
ENDBRANCH  21  24
ENDBRANCH  12  14
ENDBRANCH  11  12
ENDBRANCH   6  11
ENDBRANCH   2   3
TORSDOF 6
ENDMDL
MODEL      231
REMARK 921   NORMALIZED FREE ENERGY PREDICTED BY IDOCK:   -3.70 KCAL/MOL
REMARK 922        TOTAL FREE ENERGY PREDICTED BY IDOCK:   -5.74 KCAL/MOL
REMARK 923 INTER-LIGAND FREE ENERGY PREDICTED BY IDOCK:   -5.13 KCAL/MOL
REMARK 924 INTRA-LIGAND FREE ENERGY PREDICTED BY IDOCK:   -0.61 KCAL/MOL
REMARK 927      BINDING AFFINITY PREDICTED BY RF-SCORE:    0.00 PKD
ROOT
HETATM    1  C   UNL     1     -13.443  14.340  72.522  1.00  0.00    -0.515 C  
HETATM    2  O   UNL     1     -13.022  13.451  71.489  1.00  0.00    -0.350 OA 
ENDROOT
BRANCH   2   3
HETATM    3  C   UNL     1     -12.224  14.017  70.526  1.00  0.00    -0.365 A  
HETATM    4  C   UNL     1     -11.354  13.328  69.656  1.00  0.00    -0.122 A  
HETATM    5  C   UNL     1     -11.534  16.059  69.525  1.00  0.00    -0.326 A  
HETATM    6  C   UNL     1     -10.707  14.064  68.657  1.00  0.00    -0.259 A  
HETATM    7  C   UNL     1     -12.290  15.403  70.473  1.00  0.00    -0.452 A  
HETATM    8  N   UNL     1     -10.758  15.425  68.621  1.00  0.00    -0.238 NA 
BRANCH   4   9
HETATM    9  O   UNL     1     -11.271  11.963  69.787  1.00  0.00    -0.182 OA 
HETATM   10  C   UNL     1     -12.380  11.217  69.283  1.00  0.00    -0.101 C  
ENDBRANCH   4   9
BRANCH   6  11
HETATM   11  C   UNL     1      -9.971  13.432  67.503  1.00  0.00    -0.230 C  
BRANCH  11  12
HETATM   12  S   UNL     1      -8.173  13.521  67.733  1.00  0.00    -0.192 S  
HETATM   13  O   UNL     1      -7.824  14.376  68.916  1.00  0.00    -0.138 OA 
BRANCH  12  14
HETATM   14  C   UNL     1      -7.890  11.887  68.234  1.00  0.00    -0.141 A  
HETATM   15  N   UNL     1      -6.767  11.419  68.739  1.00  0.00    -0.066 NA 
HETATM   16  C   UNL     1      -7.058  10.122  69.104  1.00  0.00    -0.073 A  
HETATM   17  H   UNL     1      -5.878  11.909  68.838  1.00  0.00     0.000 HD 
HETATM   18  C   UNL     1      -8.370   9.794  68.784  1.00  0.00    -0.113 A  
HETATM   19  N   UNL     1      -8.870  10.933  68.211  1.00  0.00    -0.134 NA 
HETATM   20  C   UNL     1      -8.937   8.545  69.056  1.00  0.00    -0.146 A  
HETATM   21  C   UNL     1      -8.118   7.588  69.676  1.00  0.00    -0.127 A  
HETATM   22  C   UNL     1      -6.802   7.901  70.032  1.00  0.00    -0.045 A  
HETATM   23  C   UNL     1      -6.257   9.163  69.742  1.00  0.00    -0.039 A  
BRANCH  21  24
HETATM   24  O   UNL     1      -8.733   6.386  69.908  1.00  0.00    -0.139 OA 
HETATM   25  C   UNL     1     -10.055   6.266  69.408  1.00  0.00    -0.176 C  
HETATM   26  F   UNL     1     -10.001   5.909  68.101  1.00  0.00    -0.123 F  
HETATM   27  F   UNL     1     -10.644   5.237  70.070  1.00  0.00    -0.339 F  
ENDBRANCH  21  24
ENDBRANCH  12  14
ENDBRANCH  11  12
ENDBRANCH   6  11
ENDBRANCH   2   3
TORSDOF 6
ENDMDL
MODEL      232
REMARK 921   NORMALIZED FREE ENERGY PREDICTED BY IDOCK:   -3.69 KCAL/MOL
REMARK 922        TOTAL FREE ENERGY PREDICTED BY IDOCK:   -5.74 KCAL/MOL
REMARK 923 INTER-LIGAND FREE ENERGY PREDICTED BY IDOCK:   -4.69 KCAL/MOL
REMARK 924 INTRA-LIGAND FREE ENERGY PREDICTED BY IDOCK:   -1.05 KCAL/MOL
REMARK 927      BINDING AFFINITY PREDICTED BY RF-SCORE:    0.00 PKD
ROOT
HETATM    1  C   UNL     1      -5.699  10.678  65.860  1.00  0.00    -0.132 C  
HETATM    2  O   UNL     1      -6.688   9.976  66.611  1.00  0.00    -0.077 OA 
ENDROOT
BRANCH   2   3
HETATM    3  C   UNL     1      -7.684  10.763  67.138  1.00  0.00    -0.120 A  
HETATM    4  C   UNL     1      -9.057  10.444  67.184  1.00  0.00    -0.139 A  
HETATM    5  C   UNL     1      -8.175  12.841  68.180  1.00  0.00    -0.167 A  
HETATM    6  C   UNL     1      -9.910  11.320  67.866  1.00  0.00    -0.176 A  
HETATM    7  C   UNL     1      -7.247  11.989  67.619  1.00  0.00    -0.117 A  
HETATM    8  N   UNL     1      -9.481  12.532  68.319  1.00  0.00    -0.212 NA 
BRANCH   4   9
HETATM    9  O   UNL     1      -9.453   9.249  66.637  1.00  0.00    -0.166 OA 
HETATM   10  C   UNL     1      -9.150   8.080  67.400  1.00  0.00    -0.134 C  
ENDBRANCH   4   9
BRANCH   6  11
HETATM   11  C   UNL     1     -11.334  10.982  68.228  1.00  0.00    -0.299 C  
BRANCH  11  12
HETATM   12  S   UNL     1     -11.593  11.029  70.023  1.00  0.00    -0.354 S  
HETATM   13  O   UNL     1     -13.058  11.049  70.354  1.00  0.00    -0.127 OA 
BRANCH  12  14
HETATM   14  C   UNL     1     -11.047   9.432  70.411  1.00  0.00    -0.261 A  
HETATM   15  N   UNL     1     -11.618   8.308  70.032  1.00  0.00    -0.450 NA 
HETATM   16  C   UNL     1     -10.765   7.315  70.462  1.00  0.00    -0.232 A  
HETATM   17  H   UNL     1     -12.498   8.197  69.529  1.00  0.00     0.000 HD 
HETATM   18  C   UNL     1      -9.677   7.850  71.142  1.00  0.00    -0.158 A  
HETATM   19  N   UNL     1      -9.894   9.201  71.112  1.00  0.00    -0.295 NA 
HETATM   20  C   UNL     1      -8.646   7.070  71.675  1.00  0.00    -0.116 A  
HETATM   21  C   UNL     1      -8.741   5.679  71.511  1.00  0.00    -0.132 A  
HETATM   22  C   UNL     1      -9.813   5.117  70.810  1.00  0.00    -0.270 A  
HETATM   23  C   UNL     1     -10.838   5.925  70.289  1.00  0.00    -0.391 A  
BRANCH  21  24
HETATM   24  O   UNL     1      -7.704   4.975  72.063  1.00  0.00    -0.098 OA 
HETATM   25  C   UNL     1      -7.186   3.920  71.269  1.00  0.00    -0.033 C  
HETATM   26  F   UNL     1      -6.284   4.430  70.394  1.00  0.00    -0.016 F  
HETATM   27  F   UNL     1      -6.500   3.091  72.097  1.00  0.00    -0.013 F  
ENDBRANCH  21  24
ENDBRANCH  12  14
ENDBRANCH  11  12
ENDBRANCH   6  11
ENDBRANCH   2   3
TORSDOF 6
ENDMDL
MODEL      233
REMARK 921   NORMALIZED FREE ENERGY PREDICTED BY IDOCK:   -3.65 KCAL/MOL
REMARK 922        TOTAL FREE ENERGY PREDICTED BY IDOCK:   -5.67 KCAL/MOL
REMARK 923 INTER-LIGAND FREE ENERGY PREDICTED BY IDOCK:   -5.64 KCAL/MOL
REMARK 924 INTRA-LIGAND FREE ENERGY PREDICTED BY IDOCK:   -0.03 KCAL/MOL
REMARK 927      BINDING AFFINITY PREDICTED BY RF-SCORE:    0.00 PKD
ROOT
HETATM    1  C   UNL     1      -9.324   4.337  67.753  1.00  0.00    -0.160 C  
HETATM    2  O   UNL     1      -9.977   5.602  67.662  1.00  0.00    -0.130 OA 
ENDROOT
BRANCH   2   3
HETATM    3  C   UNL     1      -9.307   6.550  66.929  1.00  0.00    -0.146 A  
HETATM    4  C   UNL     1      -9.770   7.847  66.625  1.00  0.00    -0.235 A  
HETATM    5  C   UNL     1      -7.330   7.015  65.694  1.00  0.00    -0.079 A  
HETATM    6  C   UNL     1      -8.896   8.717  65.964  1.00  0.00    -0.178 A  
HETATM    7  C   UNL     1      -8.083   6.125  66.431  1.00  0.00    -0.111 A  
HETATM    8  N   UNL     1      -7.704   8.290  65.459  1.00  0.00    -0.096 NA 
BRANCH   4   9
HETATM    9  O   UNL     1     -11.015   8.202  67.082  1.00  0.00    -0.165 OA 
HETATM   10  C   UNL     1     -11.059   9.314  67.980  1.00  0.00     0.119 C  
ENDBRANCH   4   9
BRANCH   6  11
HETATM   11  C   UNL     1      -9.147  10.196  65.816  1.00  0.00    -0.171 C  
BRANCH  11  12
HETATM   12  S   UNL     1      -8.188  11.157  67.021  1.00  0.00    -0.152 S  
HETATM   13  O   UNL     1      -6.729  11.157  66.669  1.00  0.00    -0.122 OA 
BRANCH  12  14
HETATM   14  C   UNL     1      -8.768  12.738  66.619  1.00  0.00    -0.058 A  
HETATM   15  N   UNL     1      -9.485  13.051  65.559  1.00  0.00    -0.468 NA 
HETATM   16  C   UNL     1      -9.815  14.377  65.735  1.00  0.00    -0.302 A  
HETATM   17  H   UNL     1      -9.740  12.444  64.780  1.00  0.00     0.000 HD 
HETATM   18  C   UNL     1      -9.259  14.881  66.905  1.00  0.00    -0.246 A  
HETATM   19  N   UNL     1      -8.580  13.819  67.438  1.00  0.00    -0.192 NA 
HETATM   20  C   UNL     1      -9.445  16.198  67.338  1.00  0.00    -0.227 A  
HETATM   21  C   UNL     1     -10.228  17.036  66.529  1.00  0.00    -0.320 A  
HETATM   22  C   UNL     1     -10.819  16.548  65.360  1.00  0.00    -0.216 A  
HETATM   23  C   UNL     1     -10.611  15.221  64.946  1.00  0.00    -0.379 A  
BRANCH  21  24
HETATM   24  O   UNL     1     -10.363  18.313  67.008  1.00  0.00    -0.357 OA 
HETATM   25  C   UNL     1      -9.677  19.318  66.280  1.00  0.00    -0.374 C  
HETATM   26  F   UNL     1     -10.445  19.703  65.231  1.00  0.00    -0.396 F  
HETATM   27  F   UNL     1      -9.561  20.398  67.095  1.00  0.00    -0.484 F  
ENDBRANCH  21  24
ENDBRANCH  12  14
ENDBRANCH  11  12
ENDBRANCH   6  11
ENDBRANCH   2   3
TORSDOF 6
ENDMDL
MODEL      234
REMARK 921   NORMALIZED FREE ENERGY PREDICTED BY IDOCK:   -3.62 KCAL/MOL
REMARK 922        TOTAL FREE ENERGY PREDICTED BY IDOCK:   -5.64 KCAL/MOL
REMARK 923 INTER-LIGAND FREE ENERGY PREDICTED BY IDOCK:   -4.99 KCAL/MOL
REMARK 924 INTRA-LIGAND FREE ENERGY PREDICTED BY IDOCK:   -0.65 KCAL/MOL
REMARK 927      BINDING AFFINITY PREDICTED BY RF-SCORE:    0.00 PKD
ROOT
HETATM    1  C   UNL     1     -11.017   5.626  67.198  1.00  0.00    -0.002 C  
HETATM    2  O   UNL     1     -11.161   7.021  66.935  1.00  0.00    -0.359 OA 
ENDROOT
BRANCH   2   3
HETATM    3  C   UNL     1      -9.991   7.682  66.650  1.00  0.00    -0.214 A  
HETATM    4  C   UNL     1      -9.812   9.081  66.622  1.00  0.00    -0.248 A  
HETATM    5  C   UNL     1      -7.708   7.423  66.043  1.00  0.00    -0.095 A  
HETATM    6  C   UNL     1      -8.516   9.572  66.427  1.00  0.00    -0.126 A  
HETATM    7  C   UNL     1      -8.928   6.848  66.329  1.00  0.00    -0.172 A  
HETATM    8  N   UNL     1      -7.481   8.752  66.092  1.00  0.00    -0.089 NA 
BRANCH   4   9
HETATM    9  O   UNL     1     -10.907   9.868  66.881  1.00  0.00    -0.178 OA 
HETATM   10  C   UNL     1     -11.113  10.223  68.250  1.00  0.00    -0.254 C  
ENDBRANCH   4   9
BRANCH   6  11
HETATM   11  C   UNL     1      -8.133  11.015  66.640  1.00  0.00    -0.155 C  
BRANCH  11  12
HETATM   12  S   UNL     1      -7.480  11.289  68.311  1.00  0.00    -0.106 S  
HETATM   13  O   UNL     1      -6.126  10.661  68.469  1.00  0.00    -0.047 OA 
BRANCH  12  14
HETATM   14  C   UNL     1      -7.196  12.994  68.207  1.00  0.00    -0.113 A  
HETATM   15  N   UNL     1      -7.355  13.738  67.132  1.00  0.00    -0.331 NA 
HETATM   16  C   UNL     1      -7.141  15.030  67.562  1.00  0.00    -0.197 A  
HETATM   17  H   UNL     1      -7.585  13.427  66.189  1.00  0.00     0.000 HD 
HETATM   18  C   UNL     1      -6.817  15.061  68.914  1.00  0.00    -0.103 A  
HETATM   19  N   UNL     1      -6.839  13.746  69.294  1.00  0.00    -0.104 NA 
HETATM   20  C   UNL     1      -6.563  16.244  69.615  1.00  0.00    -0.175 A  
HETATM   21  C   UNL     1      -6.637  17.447  68.896  1.00  0.00    -0.218 A  
HETATM   22  C   UNL     1      -6.986  17.446  67.541  1.00  0.00    -0.177 A  
HETATM   23  C   UNL     1      -7.231  16.242  66.860  1.00  0.00    -0.257 A  
BRANCH  21  24
HETATM   24  O   UNL     1      -6.371  18.565  69.641  1.00  0.00    -0.262 OA 
HETATM   25  C   UNL     1      -6.826  19.792  69.092  1.00  0.00    -0.337 C  
HETATM   26  F   UNL     1      -8.129  19.965  69.425  1.00  0.00    -0.284 F  
HETATM   27  F   UNL     1      -6.133  20.787  69.702  1.00  0.00    -0.386 F  
ENDBRANCH  21  24
ENDBRANCH  12  14
ENDBRANCH  11  12
ENDBRANCH   6  11
ENDBRANCH   2   3
TORSDOF 6
ENDMDL
MODEL      235
REMARK 921   NORMALIZED FREE ENERGY PREDICTED BY IDOCK:   -3.59 KCAL/MOL
REMARK 922        TOTAL FREE ENERGY PREDICTED BY IDOCK:   -5.60 KCAL/MOL
REMARK 923 INTER-LIGAND FREE ENERGY PREDICTED BY IDOCK:   -4.65 KCAL/MOL
REMARK 924 INTRA-LIGAND FREE ENERGY PREDICTED BY IDOCK:   -0.95 KCAL/MOL
REMARK 927      BINDING AFFINITY PREDICTED BY RF-SCORE:    0.00 PKD
ROOT
HETATM    1  C   UNL     1      -9.074   5.169  65.453  1.00  0.00    -0.140 C  
HETATM    2  O   UNL     1      -8.431   6.442  65.434  1.00  0.00    -0.151 OA 
ENDROOT
BRANCH   2   3
HETATM    3  C   UNL     1      -8.840   7.314  66.413  1.00  0.00    -0.149 A  
HETATM    4  C   UNL     1      -8.050   8.310  67.022  1.00  0.00    -0.104 A  
HETATM    5  C   UNL     1     -10.654   7.965  67.804  1.00  0.00    -0.175 A  
HETATM    6  C   UNL     1      -8.674   9.184  67.920  1.00  0.00    -0.128 A  
HETATM    7  C   UNL     1     -10.150   7.125  66.833  1.00  0.00    -0.308 A  
HETATM    8  N   UNL     1      -9.953   8.984  68.345  1.00  0.00    -0.173 NA 
BRANCH   4   9
HETATM    9  O   UNL     1      -6.740   8.418  66.623  1.00  0.00    -0.059 OA 
HETATM   10  C   UNL     1      -5.795   7.640  67.360  1.00  0.00    -0.036 C  
ENDBRANCH   4   9
BRANCH   6  11
HETATM   11  C   UNL     1      -8.031  10.448  68.434  1.00  0.00    -0.110 C  
BRANCH  11  12
HETATM   12  S   UNL     1      -6.824  10.096  69.742  1.00  0.00    -0.123 S  
HETATM   13  O   UNL     1      -6.464  11.346  70.492  1.00  0.00    -0.270 OA 
BRANCH  12  14
HETATM   14  C   UNL     1      -7.845   9.188  70.807  1.00  0.00    -0.149 A  
HETATM   15  N   UNL     1      -9.077   9.503  71.148  1.00  0.00    -0.343 NA 
HETATM   16  C   UNL     1      -9.523   8.432  71.892  1.00  0.00    -0.253 A  
HETATM   17  H   UNL     1      -9.589  10.353  70.913  1.00  0.00     0.000 HD 
HETATM   18  C   UNL     1      -8.529   7.469  72.028  1.00  0.00    -0.107 A  
HETATM   19  N   UNL     1      -7.464   7.987  71.343  1.00  0.00    -0.066 NA 
HETATM   20  C   UNL     1      -8.713   6.270  72.724  1.00  0.00    -0.126 A  
HETATM   21  C   UNL     1      -9.969   6.054  73.313  1.00  0.00    -0.182 A  
HETATM   22  C   UNL     1     -10.994   6.995  73.170  1.00  0.00    -0.315 A  
HETATM   23  C   UNL     1     -10.779   8.194  72.469  1.00  0.00    -0.419 A  
BRANCH  21  24
HETATM   24  O   UNL     1     -10.079   4.864  73.983  1.00  0.00    -0.162 OA 
HETATM   25  C   UNL     1     -10.930   3.899  73.387  1.00  0.00    -0.233 C  
HETATM   26  F   UNL     1     -10.232   3.222  72.441  1.00  0.00    -0.211 F  
HETATM   27  F   UNL     1     -11.255   2.999  74.350  1.00  0.00    -0.159 F  
ENDBRANCH  21  24
ENDBRANCH  12  14
ENDBRANCH  11  12
ENDBRANCH   6  11
ENDBRANCH   2   3
TORSDOF 6
ENDMDL
MODEL      236
REMARK 921   NORMALIZED FREE ENERGY PREDICTED BY IDOCK:   -3.57 KCAL/MOL
REMARK 922        TOTAL FREE ENERGY PREDICTED BY IDOCK:   -5.57 KCAL/MOL
REMARK 923 INTER-LIGAND FREE ENERGY PREDICTED BY IDOCK:   -5.54 KCAL/MOL
REMARK 924 INTRA-LIGAND FREE ENERGY PREDICTED BY IDOCK:   -0.04 KCAL/MOL
REMARK 927      BINDING AFFINITY PREDICTED BY RF-SCORE:    0.00 PKD
ROOT
HETATM    1  C   UNL     1     -13.346  10.721  71.937  1.00  0.00    -0.340 C  
HETATM    2  O   UNL     1     -12.222  11.543  71.630  1.00  0.00    -0.027 OA 
ENDROOT
BRANCH   2   3
HETATM    3  C   UNL     1     -12.139  11.950  70.321  1.00  0.00    -0.325 A  
HETATM    4  C   UNL     1     -12.106  13.285  69.866  1.00  0.00    -0.308 A  
HETATM    5  C   UNL     1     -12.035  11.223  68.061  1.00  0.00    -0.057 A  
HETATM    6  C   UNL     1     -11.902  13.506  68.499  1.00  0.00    -0.362 A  
HETATM    7  C   UNL     1     -12.131  10.911  69.400  1.00  0.00    -0.362 A  
HETATM    8  N   UNL     1     -11.914  12.484  67.597  1.00  0.00    -0.452 NA 
BRANCH   4   9
HETATM    9  O   UNL     1     -12.184  14.281  70.808  1.00  0.00    -0.309 OA 
HETATM   10  C   UNL     1     -13.497  14.756  71.110  1.00  0.00    -0.390 C  
ENDBRANCH   4   9
BRANCH   6  11
HETATM   11  C   UNL     1     -11.577  14.857  67.915  1.00  0.00    -0.344 C  
BRANCH  11  12
HETATM   12  S   UNL     1     -11.020  14.720  66.193  1.00  0.00    -0.336 S  
HETATM   13  O   UNL     1     -10.314  15.971  65.756  1.00  0.00    -0.337 OA 
BRANCH  12  14
HETATM   14  C   UNL     1      -9.778  13.533  66.411  1.00  0.00    -0.289 A  
HETATM   15  N   UNL     1      -8.900  13.506  67.392  1.00  0.00    -0.210 NA 
HETATM   16  C   UNL     1      -8.214  12.323  67.220  1.00  0.00    -0.182 A  
HETATM   17  H   UNL     1      -8.760  14.207  68.119  1.00  0.00     0.000 HD 
HETATM   18  C   UNL     1      -8.665  11.641  66.096  1.00  0.00    -0.094 A  
HETATM   19  N   UNL     1      -9.649  12.447  65.588  1.00  0.00    -0.168 NA 
HETATM   20  C   UNL     1      -8.154  10.404  65.692  1.00  0.00    -0.156 A  
HETATM   21  C   UNL     1      -7.129   9.846  66.471  1.00  0.00    -0.094 A  
HETATM   22  C   UNL     1      -6.674  10.499  67.622  1.00  0.00    -0.073 A  
HETATM   23  C   UNL     1      -7.202  11.745  68.001  1.00  0.00    -0.084 A  
BRANCH  21  24
HETATM   24  O   UNL     1      -6.670   8.639  66.017  1.00  0.00    -0.060 OA 
HETATM   25  C   UNL     1      -6.847   8.396  64.630  1.00  0.00    -0.069 C  
HETATM   26  F   UNL     1      -5.822   8.964  63.950  1.00  0.00    -0.068 F  
HETATM   27  F   UNL     1      -6.746   7.056  64.440  1.00  0.00    -0.042 F  
ENDBRANCH  21  24
ENDBRANCH  12  14
ENDBRANCH  11  12
ENDBRANCH   6  11
ENDBRANCH   2   3
TORSDOF 6
ENDMDL
MODEL      237
REMARK 921   NORMALIZED FREE ENERGY PREDICTED BY IDOCK:   -3.53 KCAL/MOL
REMARK 922        TOTAL FREE ENERGY PREDICTED BY IDOCK:   -5.52 KCAL/MOL
REMARK 923 INTER-LIGAND FREE ENERGY PREDICTED BY IDOCK:   -4.99 KCAL/MOL
REMARK 924 INTRA-LIGAND FREE ENERGY PREDICTED BY IDOCK:   -0.53 KCAL/MOL
REMARK 927      BINDING AFFINITY PREDICTED BY RF-SCORE:    0.00 PKD
ROOT
HETATM    1  C   UNL     1     -12.108  15.735  70.019  1.00  0.00    -0.324 C  
HETATM    2  O   UNL     1     -12.008  15.236  68.687  1.00  0.00    -0.320 OA 
ENDROOT
BRANCH   2   3
HETATM    3  C   UNL     1     -10.794  14.681  68.365  1.00  0.00    -0.245 A  
HETATM    4  C   UNL     1     -10.575  13.640  67.438  1.00  0.00    -0.259 A  
HETATM    5  C   UNL     1      -8.459  14.716  68.809  1.00  0.00    -0.161 A  
HETATM    6  C   UNL     1      -9.252  13.284  67.153  1.00  0.00    -0.235 A  
HETATM    7  C   UNL     1      -9.721  15.202  69.076  1.00  0.00    -0.234 A  
HETATM    8  N   UNL     1      -8.204  13.784  67.868  1.00  0.00    -0.151 NA 
BRANCH   4   9
HETATM    9  O   UNL     1     -11.672  13.109  66.806  1.00  0.00    -0.346 OA 
HETATM   10  C   UNL     1     -12.099  13.782  65.620  1.00  0.00    -0.418 C  
ENDBRANCH   4   9
BRANCH   6  11
HETATM   11  C   UNL     1      -8.860  12.392  66.003  1.00  0.00     0.212 C  
BRANCH  11  12
HETATM   12  S   UNL     1      -9.825  10.855  65.994  1.00  0.00    -0.244 S  
HETATM   13  O   UNL     1      -9.388   9.953  64.876  1.00  0.00    -0.232 OA 
BRANCH  12  14
HETATM   14  C   UNL     1      -9.200  10.142  67.443  1.00  0.00    -0.141 A  
HETATM   15  N   UNL     1      -7.968   9.714  67.622  1.00  0.00    -0.105 NA 
HETATM   16  C   UNL     1      -7.907   9.359  68.952  1.00  0.00    -0.083 A  
HETATM   17  H   UNL     1      -7.222   9.658  66.929  1.00  0.00     0.000 HD 
HETATM   18  C   UNL     1      -9.135   9.546  69.577  1.00  0.00    -0.185 A  
HETATM   19  N   UNL     1      -9.946  10.028  68.585  1.00  0.00    -0.159 NA 
HETATM   20  C   UNL     1      -9.355   9.279  70.932  1.00  0.00    -0.313 A  
HETATM   21  C   UNL     1      -8.270   8.790  71.676  1.00  0.00    -0.110 A  
HETATM   22  C   UNL     1      -7.018   8.616  71.078  1.00  0.00    -0.069 A  
HETATM   23  C   UNL     1      -6.826   8.888  69.713  1.00  0.00    -0.046 A  
BRANCH  21  24
HETATM   24  O   UNL     1      -8.557   8.543  72.993  1.00  0.00    -0.355 OA 
HETATM   25  C   UNL     1      -8.596   7.175  73.367  1.00  0.00    -0.134 C  
HETATM   26  F   UNL     1      -7.335   6.757  73.635  1.00  0.00    -0.082 F  
HETATM   27  F   UNL     1      -9.288   7.097  74.533  1.00  0.00    -0.248 F  
ENDBRANCH  21  24
ENDBRANCH  12  14
ENDBRANCH  11  12
ENDBRANCH   6  11
ENDBRANCH   2   3
TORSDOF 6
ENDMDL
MODEL      238
REMARK 921   NORMALIZED FREE ENERGY PREDICTED BY IDOCK:   -3.53 KCAL/MOL
REMARK 922        TOTAL FREE ENERGY PREDICTED BY IDOCK:   -5.51 KCAL/MOL
REMARK 923 INTER-LIGAND FREE ENERGY PREDICTED BY IDOCK:   -4.99 KCAL/MOL
REMARK 924 INTRA-LIGAND FREE ENERGY PREDICTED BY IDOCK:   -0.52 KCAL/MOL
REMARK 927      BINDING AFFINITY PREDICTED BY RF-SCORE:    0.00 PKD
ROOT
HETATM    1  C   UNL     1     -10.615   5.807  67.652  1.00  0.00    -0.239 C  
HETATM    2  O   UNL     1     -10.602   5.864  69.078  1.00  0.00    -0.233 OA 
ENDROOT
BRANCH   2   3
HETATM    3  C   UNL     1     -10.275   7.088  69.607  1.00  0.00    -0.202 A  
HETATM    4  C   UNL     1      -8.995   7.490  70.044  1.00  0.00    -0.144 A  
HETATM    5  C   UNL     1     -11.113   9.218  70.247  1.00  0.00    -0.251 A  
HETATM    6  C   UNL     1      -8.828   8.820  70.447  1.00  0.00    -0.168 A  
HETATM    7  C   UNL     1     -11.349   7.958  69.738  1.00  0.00     0.101 A  
HETATM    8  N   UNL     1      -9.888   9.664  70.593  1.00  0.00    -0.251 NA 
BRANCH   4   9
HETATM    9  O   UNL     1      -7.976   6.574  69.958  1.00  0.00    -0.111 OA 
HETATM   10  C   UNL     1      -7.741   5.785  71.126  1.00  0.00    -0.109 C  
ENDBRANCH   4   9
BRANCH   6  11
HETATM   11  C   UNL     1      -7.481   9.456  70.678  1.00  0.00    -0.136 C  
BRANCH  11  12
HETATM   12  S   UNL     1      -6.639   9.817  69.111  1.00  0.00    -0.053 S  
HETATM   13  O   UNL     1      -7.009   8.812  68.058  1.00  0.00    -0.075 OA 
BRANCH  12  14
HETATM   14  C   UNL     1      -7.479  11.271  68.688  1.00  0.00    -0.118 A  
HETATM   15  N   UNL     1      -7.069  12.498  68.934  1.00  0.00    -0.170 NA 
HETATM   16  C   UNL     1      -7.987  13.310  68.304  1.00  0.00    -0.144 A  
HETATM   17  H   UNL     1      -6.252  12.784  69.472  1.00  0.00     0.000 HD 
HETATM   18  C   UNL     1      -8.986  12.559  67.695  1.00  0.00    -0.185 A  
HETATM   19  N   UNL     1      -8.647  11.262  67.974  1.00  0.00    -0.134 NA 
HETATM   20  C   UNL     1     -10.040  13.126  66.972  1.00  0.00    -0.241 A  
HETATM   21  C   UNL     1     -10.075  14.526  66.877  1.00  0.00    -0.257 A  
HETATM   22  C   UNL     1      -9.069  15.304  67.459  1.00  0.00    -0.189 A  
HETATM   23  C   UNL     1      -8.024  14.707  68.185  1.00  0.00    -0.136 A  
BRANCH  21  24
HETATM   24  O   UNL     1     -11.136  15.015  66.161  1.00  0.00    -0.336 OA 
HETATM   25  C   UNL     1     -10.932  15.131  64.762  1.00  0.00    -0.377 C  
HETATM   26  F   UNL     1     -11.181  13.932  64.180  1.00  0.00    -0.371 F  
HETATM   27  F   UNL     1     -11.866  15.995  64.290  1.00  0.00    -0.463 F  
ENDBRANCH  21  24
ENDBRANCH  12  14
ENDBRANCH  11  12
ENDBRANCH   6  11
ENDBRANCH   2   3
TORSDOF 6
ENDMDL
MODEL      239
REMARK 921   NORMALIZED FREE ENERGY PREDICTED BY IDOCK:   -3.51 KCAL/MOL
REMARK 922        TOTAL FREE ENERGY PREDICTED BY IDOCK:   -5.50 KCAL/MOL
REMARK 923 INTER-LIGAND FREE ENERGY PREDICTED BY IDOCK:   -4.99 KCAL/MOL
REMARK 924 INTRA-LIGAND FREE ENERGY PREDICTED BY IDOCK:   -0.50 KCAL/MOL
REMARK 927      BINDING AFFINITY PREDICTED BY RF-SCORE:    0.00 PKD
ROOT
HETATM    1  C   UNL     1     -13.444  14.506  72.571  1.00  0.00    -0.483 C  
HETATM    2  O   UNL     1     -12.514  14.409  71.493  1.00  0.00    -0.325 OA 
ENDROOT
BRANCH   2   3
HETATM    3  C   UNL     1     -12.399  13.160  70.935  1.00  0.00    -0.307 A  
HETATM    4  C   UNL     1     -11.796  12.854  69.697  1.00  0.00    -0.320 A  
HETATM    5  C   UNL     1     -12.902  10.853  71.209  1.00  0.00    -0.433 A  
HETATM    6  C   UNL     1     -11.667  11.505  69.347  1.00  0.00    -0.346 A  
HETATM    7  C   UNL     1     -12.982  12.145  71.683  1.00  0.00    -0.427 A  
HETATM    8  N   UNL     1     -12.258  10.515  70.073  1.00  0.00    -0.276 NA 
BRANCH   4   9
HETATM    9  O   UNL     1     -11.291  13.897  68.960  1.00  0.00    -0.253 OA 
HETATM   10  C   UNL     1     -12.066  14.295  67.827  1.00  0.00    -0.281 C  
ENDBRANCH   4   9
BRANCH   6  11
HETATM   11  C   UNL     1     -10.815  11.022  68.200  1.00  0.00    -0.226 C  
BRANCH  11  12
HETATM   12  S   UNL     1     -10.947   9.225  67.986  1.00  0.00     0.103 S  
HETATM   13  O   UNL     1     -10.464   8.809  66.627  1.00  0.00    -0.264 OA 
BRANCH  12  14
HETATM   14  C   UNL     1      -9.709   8.735  69.093  1.00  0.00    -0.175 A  
HETATM   15  N   UNL     1      -9.104   9.512  69.967  1.00  0.00    -0.211 NA 
HETATM   16  C   UNL     1      -8.306   8.663  70.703  1.00  0.00    -0.143 A  
HETATM   17  H   UNL     1      -9.205  10.521  70.076  1.00  0.00     0.000 HD 
HETATM   18  C   UNL     1      -8.407   7.355  70.242  1.00  0.00    -0.134 A  
HETATM   19  N   UNL     1      -9.294   7.435  69.201  1.00  0.00    -0.147 NA 
HETATM   20  C   UNL     1      -7.715   6.284  70.814  1.00  0.00    -0.102 A  
HETATM   21  C   UNL     1      -6.876   6.568  71.903  1.00  0.00    -0.068 A  
HETATM   22  C   UNL     1      -6.775   7.871  72.403  1.00  0.00    -0.071 A  
HETATM   23  C   UNL     1      -7.478   8.930  71.804  1.00  0.00    -0.019 A  
BRANCH  21  24
HETATM   24  O   UNL     1      -6.224   5.476  72.411  1.00  0.00    -0.040 OA 
HETATM   25  C   UNL     1      -6.566   4.229  71.828  1.00  0.00    -0.026 C  
HETATM   26  F   UNL     1      -5.834   4.056  70.700  1.00  0.00    -0.011 F  
HETATM   27  F   UNL     1      -6.181   3.259  72.696  1.00  0.00    -0.008 F  
ENDBRANCH  21  24
ENDBRANCH  12  14
ENDBRANCH  11  12
ENDBRANCH   6  11
ENDBRANCH   2   3
TORSDOF 6
ENDMDL
MODEL      240
REMARK 921   NORMALIZED FREE ENERGY PREDICTED BY IDOCK:   -3.51 KCAL/MOL
REMARK 922        TOTAL FREE ENERGY PREDICTED BY IDOCK:   -5.48 KCAL/MOL
REMARK 923 INTER-LIGAND FREE ENERGY PREDICTED BY IDOCK:   -4.89 KCAL/MOL
REMARK 924 INTRA-LIGAND FREE ENERGY PREDICTED BY IDOCK:   -0.59 KCAL/MOL
REMARK 927      BINDING AFFINITY PREDICTED BY RF-SCORE:    0.00 PKD
ROOT
HETATM    1  C   UNL     1      -9.631  19.353  68.839  1.00  0.00    -0.415 C  
HETATM    2  O   UNL     1      -9.738  18.447  67.743  1.00  0.00    -0.286 OA 
ENDROOT
BRANCH   2   3
HETATM    3  C   UNL     1      -9.888  17.128  68.093  1.00  0.00    -0.281 A  
HETATM    4  C   UNL     1      -9.038  16.067  67.717  1.00  0.00    -0.196 A  
HETATM    5  C   UNL     1     -11.245  15.568  69.264  1.00  0.00    -0.310 A  
HETATM    6  C   UNL     1      -9.285  14.803  68.267  1.00  0.00    -0.187 A  
HETATM    7  C   UNL     1     -11.019  16.864  68.853  1.00  0.00    -0.207 A  
HETATM    8  N   UNL     1     -10.407  14.545  68.997  1.00  0.00    -0.238 NA 
BRANCH   4   9
HETATM    9  O   UNL     1      -7.968  16.362  66.909  1.00  0.00    -0.184 OA 
HETATM   10  C   UNL     1      -6.926  17.136  67.508  1.00  0.00    -0.151 C  
ENDBRANCH   4   9
BRANCH   6  11
HETATM   11  C   UNL     1      -8.316  13.652  68.175  1.00  0.00    -0.166 C  
BRANCH  11  12
HETATM   12  S   UNL     1      -9.101  12.179  67.463  1.00  0.00    -0.188 S  
HETATM   13  O   UNL     1      -8.199  11.521  66.459  1.00  0.00    -0.167 OA 
BRANCH  12  14
HETATM   14  C   UNL     1      -9.067  11.159  68.862  1.00  0.00    -0.089 A  
HETATM   15  N   UNL     1     -10.117  10.635  69.461  1.00  0.00    -0.385 NA 
HETATM   16  C   UNL     1      -9.594   9.805  70.429  1.00  0.00    -0.163 A  
HETATM   17  H   UNL     1     -11.100  10.807  69.253  1.00  0.00     0.000 HD 
HETATM   18  C   UNL     1      -8.205   9.854  70.434  1.00  0.00     0.036 A  
HETATM   19  N   UNL     1      -7.897  10.742  69.438  1.00  0.00    -0.125 NA 
HETATM   20  C   UNL     1      -7.413   9.100  71.305  1.00  0.00    -0.054 A  
HETATM   21  C   UNL     1      -8.077   8.265  72.217  1.00  0.00    -0.149 A  
HETATM   22  C   UNL     1      -9.473   8.177  72.216  1.00  0.00    -0.312 A  
HETATM   23  C   UNL     1     -10.244   8.951  71.332  1.00  0.00    -0.375 A  
BRANCH  21  24
HETATM   24  O   UNL     1      -7.244   7.560  73.045  1.00  0.00    -0.071 OA 
HETATM   25  C   UNL     1      -5.927   8.073  73.173  1.00  0.00    -0.061 C  
HETATM   26  F   UNL     1      -5.925   9.048  74.115  1.00  0.00    -0.130 F  
HETATM   27  F   UNL     1      -5.148   7.068  73.650  1.00  0.00    -0.039 F  
ENDBRANCH  21  24
ENDBRANCH  12  14
ENDBRANCH  11  12
ENDBRANCH   6  11
ENDBRANCH   2   3
TORSDOF 6
ENDMDL
MODEL      241
REMARK 921   NORMALIZED FREE ENERGY PREDICTED BY IDOCK:   -3.50 KCAL/MOL
REMARK 922        TOTAL FREE ENERGY PREDICTED BY IDOCK:   -5.48 KCAL/MOL
REMARK 923 INTER-LIGAND FREE ENERGY PREDICTED BY IDOCK:   -4.58 KCAL/MOL
REMARK 924 INTRA-LIGAND FREE ENERGY PREDICTED BY IDOCK:   -0.90 KCAL/MOL
REMARK 927      BINDING AFFINITY PREDICTED BY RF-SCORE:    0.00 PKD
ROOT
HETATM    1  C   UNL     1     -11.025  15.786  67.282  1.00  0.00    -0.259 C  
HETATM    2  O   UNL     1     -10.173  14.841  66.636  1.00  0.00    -0.260 OA 
ENDROOT
BRANCH   2   3
HETATM    3  C   UNL     1     -10.322  13.542  67.057  1.00  0.00    -0.252 A  
HETATM    4  C   UNL     1     -10.332  12.398  66.233  1.00  0.00    -0.244 A  
HETATM    5  C   UNL     1     -10.662  12.135  68.941  1.00  0.00    -0.175 A  
HETATM    6  C   UNL     1     -10.377  11.144  66.854  1.00  0.00    -0.231 A  
HETATM    7  C   UNL     1     -10.517  13.405  68.425  1.00  0.00    -0.257 A  
HETATM    8  N   UNL     1     -10.589  11.014  68.194  1.00  0.00    -0.180 NA 
BRANCH   4   9
HETATM    9  O   UNL     1     -10.202  12.586  64.879  1.00  0.00    -0.288 OA 
HETATM   10  C   UNL     1     -11.422  12.680  64.140  1.00  0.00    -0.387 C  
ENDBRANCH   4   9
BRANCH   6  11
HETATM   11  C   UNL     1     -10.124   9.847  66.129  1.00  0.00    -0.245 C  
BRANCH  11  12
HETATM   12  S   UNL     1      -8.348   9.514  65.963  1.00  0.00    -0.121 S  
HETATM   13  O   UNL     1      -7.535  10.612  66.585  1.00  0.00    -0.115 OA 
BRANCH  12  14
HETATM   14  C   UNL     1      -8.228   8.170  67.049  1.00  0.00    -0.115 A  
HETATM   15  N   UNL     1      -7.600   7.038  66.809  1.00  0.00    -0.088 NA 
HETATM   16  C   UNL     1      -7.663   6.340  67.996  1.00  0.00    -0.103 A  
HETATM   17  H   UNL     1      -7.162   6.743  65.937  1.00  0.00     0.000 HD 
HETATM   18  C   UNL     1      -8.371   7.051  68.958  1.00  0.00    -0.126 A  
HETATM   19  N   UNL     1      -8.737   8.206  68.319  1.00  0.00    -0.133 NA 
HETATM   20  C   UNL     1      -8.577   6.585  70.260  1.00  0.00    -0.136 A  
HETATM   21  C   UNL     1      -8.041   5.330  70.586  1.00  0.00    -0.108 A  
HETATM   22  C   UNL     1      -7.303   4.604  69.645  1.00  0.00    -0.051 A  
HETATM   23  C   UNL     1      -7.116   5.095  68.341  1.00  0.00    -0.062 A  
BRANCH  21  24
HETATM   24  O   UNL     1      -8.285   4.930  71.873  1.00  0.00    -0.110 OA 
HETATM   25  C   UNL     1      -9.557   5.282  72.395  1.00  0.00    -0.151 C  
HETATM   26  F   UNL     1     -10.463   4.351  72.007  1.00  0.00    -0.248 F  
HETATM   27  F   UNL     1      -9.473   5.204  73.748  1.00  0.00    -0.130 F  
ENDBRANCH  21  24
ENDBRANCH  12  14
ENDBRANCH  11  12
ENDBRANCH   6  11
ENDBRANCH   2   3
TORSDOF 6
ENDMDL
MODEL      242
REMARK 921   NORMALIZED FREE ENERGY PREDICTED BY IDOCK:   -3.46 KCAL/MOL
REMARK 922        TOTAL FREE ENERGY PREDICTED BY IDOCK:   -5.42 KCAL/MOL
REMARK 923 INTER-LIGAND FREE ENERGY PREDICTED BY IDOCK:   -4.83 KCAL/MOL
REMARK 924 INTRA-LIGAND FREE ENERGY PREDICTED BY IDOCK:   -0.59 KCAL/MOL
REMARK 927      BINDING AFFINITY PREDICTED BY RF-SCORE:    0.00 PKD
ROOT
HETATM    1  C   UNL     1     -10.835  19.772  65.545  1.00  0.00    -0.151 C  
HETATM    2  O   UNL     1     -10.726  19.369  66.909  1.00  0.00    -0.457 OA 
ENDROOT
BRANCH   2   3
HETATM    3  C   UNL     1      -9.453  19.067  67.326  1.00  0.00    -0.308 A  
HETATM    4  C   UNL     1      -8.912  17.773  67.475  1.00  0.00    -0.244 A  
HETATM    5  C   UNL     1      -7.384  19.968  68.070  1.00  0.00    -0.291 A  
HETATM    6  C   UNL     1      -7.555  17.662  67.797  1.00  0.00    -0.206 A  
HETATM    7  C   UNL     1      -8.682  20.174  67.655  1.00  0.00    -0.380 A  
HETATM    8  N   UNL     1      -6.808  18.750  68.140  1.00  0.00    -0.233 NA 
BRANCH   4   9
HETATM    9  O   UNL     1      -9.731  16.704  67.201  1.00  0.00    -0.241 OA 
HETATM   10  C   UNL     1      -9.712  16.230  65.853  1.00  0.00    -0.321 C  
ENDBRANCH   4   9
BRANCH   6  11
HETATM   11  C   UNL     1      -6.784  16.368  67.724  1.00  0.00    -0.136 C  
BRANCH  11  12
HETATM   12  S   UNL     1      -7.005  15.377  69.228  1.00  0.00    -0.183 S  
HETATM   13  O   UNL     1      -8.391  15.542  69.782  1.00  0.00    -0.197 OA 
BRANCH  12  14
HETATM   14  C   UNL     1      -6.969  13.800  68.513  1.00  0.00    -0.103 A  
HETATM   15  N   UNL     1      -7.921  12.895  68.597  1.00  0.00    -0.300 NA 
HETATM   16  C   UNL     1      -7.507  11.870  67.772  1.00  0.00    -0.121 A  
HETATM   17  H   UNL     1      -8.777  12.941  69.149  1.00  0.00     0.000 HD 
HETATM   18  C   UNL     1      -6.268  12.151  67.208  1.00  0.00    -0.152 A  
HETATM   19  N   UNL     1      -5.940  13.380  67.715  1.00  0.00    -0.178 NA 
HETATM   20  C   UNL     1      -5.617  11.290  66.319  1.00  0.00    -0.131 A  
HETATM   21  C   UNL     1      -6.262  10.084  66.003  1.00  0.00    -0.079 A  
HETATM   22  C   UNL     1      -7.520   9.789  66.537  1.00  0.00    -0.095 A  
HETATM   23  C   UNL     1      -8.149  10.670  67.432  1.00  0.00    -0.112 A  
BRANCH  21  24
HETATM   24  O   UNL     1      -5.567   9.286  65.133  1.00  0.00    -0.051 OA 
HETATM   25  C   UNL     1      -6.235   8.107  64.713  1.00  0.00    -0.049 C  
HETATM   26  F   UNL     1      -7.051   8.411  63.674  1.00  0.00    -0.083 F  
HETATM   27  F   UNL     1      -5.290   7.259  64.232  1.00  0.00    -0.027 F  
ENDBRANCH  21  24
ENDBRANCH  12  14
ENDBRANCH  11  12
ENDBRANCH   6  11
ENDBRANCH   2   3
TORSDOF 6
ENDMDL
MODEL      243
REMARK 921   NORMALIZED FREE ENERGY PREDICTED BY IDOCK:   -3.42 KCAL/MOL
REMARK 922        TOTAL FREE ENERGY PREDICTED BY IDOCK:   -5.37 KCAL/MOL
REMARK 923 INTER-LIGAND FREE ENERGY PREDICTED BY IDOCK:   -4.50 KCAL/MOL
REMARK 924 INTRA-LIGAND FREE ENERGY PREDICTED BY IDOCK:   -0.88 KCAL/MOL
REMARK 927      BINDING AFFINITY PREDICTED BY RF-SCORE:    0.00 PKD
ROOT
HETATM    1  C   UNL     1     -11.229  15.293  67.183  1.00  0.00    -0.291 C  
HETATM    2  O   UNL     1     -10.296  14.672  66.300  1.00  0.00    -0.278 OA 
ENDROOT
BRANCH   2   3
HETATM    3  C   UNL     1     -10.038  13.350  66.565  1.00  0.00    -0.280 A  
HETATM    4  C   UNL     1     -10.273  12.267  65.692  1.00  0.00    -0.261 A  
HETATM    5  C   UNL     1      -9.235  11.811  68.188  1.00  0.00    -0.186 A  
HETATM    6  C   UNL     1      -9.836  10.998  66.091  1.00  0.00    -0.225 A  
HETATM    7  C   UNL     1      -9.538  13.109  67.837  1.00  0.00    -0.218 A  
HETATM    8  N   UNL     1      -9.365  10.763  67.348  1.00  0.00    -0.150 NA 
BRANCH   4   9
HETATM    9  O   UNL     1     -10.830  12.543  64.468  1.00  0.00    -0.294 OA 
HETATM   10  C   UNL     1     -12.258  12.565  64.420  1.00  0.00    -0.449 C  
ENDBRANCH   4   9
BRANCH   6  11
HETATM   11  C   UNL     1      -9.773   9.810  65.164  1.00  0.00    -0.268 C  
BRANCH  11  12
HETATM   12  S   UNL     1      -8.086   9.528  64.559  1.00  0.00    -0.153 S  
HETATM   13  O   UNL     1      -7.124  10.501  65.176  1.00  0.00    -0.112 OA 
BRANCH  12  14
HETATM   14  C   UNL     1      -7.778   8.009  65.333  1.00  0.00    -0.096 A  
HETATM   15  N   UNL     1      -6.706   7.263  65.169  1.00  0.00    -0.047 NA 
HETATM   16  C   UNL     1      -6.848   6.236  66.077  1.00  0.00    -0.057 A  
HETATM   17  H   UNL     1      -5.939   7.413  64.514  1.00  0.00     0.000 HD 
HETATM   18  C   UNL     1      -8.043   6.348  66.778  1.00  0.00    -0.109 A  
HETATM   19  N   UNL     1      -8.626   7.478  66.268  1.00  0.00    -0.138 NA 
HETATM   20  C   UNL     1      -8.437   5.448  67.772  1.00  0.00    -0.105 A  
HETATM   21  C   UNL     1      -7.570   4.381  68.054  1.00  0.00    -0.069 A  
HETATM   22  C   UNL     1      -6.350   4.258  67.382  1.00  0.00    -0.041 A  
HETATM   23  C   UNL     1      -5.982   5.175  66.382  1.00  0.00    -0.023 A  
BRANCH  21  24
HETATM   24  O   UNL     1      -8.020   3.534  69.033  1.00  0.00    -0.057 OA 
HETATM   25  C   UNL     1      -9.386   3.162  68.944  1.00  0.00    -0.162 C  
HETATM   26  F   UNL     1      -9.502   2.119  68.084  1.00  0.00    -0.212 F  
HETATM   27  F   UNL     1      -9.759   2.703  70.166  1.00  0.00    -0.215 F  
ENDBRANCH  21  24
ENDBRANCH  12  14
ENDBRANCH  11  12
ENDBRANCH   6  11
ENDBRANCH   2   3
TORSDOF 6
ENDMDL
MODEL      244
REMARK 921   NORMALIZED FREE ENERGY PREDICTED BY IDOCK:   -3.39 KCAL/MOL
REMARK 922        TOTAL FREE ENERGY PREDICTED BY IDOCK:   -5.32 KCAL/MOL
REMARK 923 INTER-LIGAND FREE ENERGY PREDICTED BY IDOCK:   -4.42 KCAL/MOL
REMARK 924 INTRA-LIGAND FREE ENERGY PREDICTED BY IDOCK:   -0.91 KCAL/MOL
REMARK 927      BINDING AFFINITY PREDICTED BY RF-SCORE:    0.00 PKD
ROOT
HETATM    1  C   UNL     1      -9.693   9.728  67.232  1.00  0.00    -0.169 C  
HETATM    2  O   UNL     1      -9.642  10.634  68.333  1.00  0.00    -0.156 OA 
ENDROOT
BRANCH   2   3
HETATM    3  C   UNL     1      -9.303  10.067  69.537  1.00  0.00    -0.229 A  
HETATM    4  C   UNL     1     -10.202   9.631  70.532  1.00  0.00    -0.287 A  
HETATM    5  C   UNL     1      -7.501   9.403  70.936  1.00  0.00    -0.072 A  
HETATM    6  C   UNL     1      -9.675   8.968  71.647  1.00  0.00    -0.276 A  
HETATM    7  C   UNL     1      -7.936   9.974  69.759  1.00  0.00    -0.190 A  
HETATM    8  N   UNL     1      -8.332   8.897  71.871  1.00  0.00    -0.371 NA 
BRANCH   4   9
HETATM    9  O   UNL     1     -11.544   9.803  70.298  1.00  0.00    -0.251 OA 
HETATM   10  C   UNL     1     -12.100  11.049  70.725  1.00  0.00    -0.366 C  
ENDBRANCH   4   9
BRANCH   6  11
HETATM   11  C   UNL     1     -10.520   8.218  72.645  1.00  0.00    -0.303 C  
BRANCH  11  12
HETATM   12  S   UNL     1     -10.979   6.575  72.025  1.00  0.00    -0.260 S  
HETATM   13  O   UNL     1     -12.232   6.644  71.200  1.00  0.00    -0.363 OA 
BRANCH  12  14
HETATM   14  C   UNL     1      -9.687   6.348  70.895  1.00  0.00    -0.176 A  
HETATM   15  N   UNL     1      -8.476   5.918  71.185  1.00  0.00    -0.123 NA 
HETATM   16  C   UNL     1      -7.851   5.774  69.965  1.00  0.00    -0.091 A  
HETATM   17  H   UNL     1      -8.087   5.732  72.109  1.00  0.00     0.000 HD 
HETATM   18  C   UNL     1      -8.690   6.155  68.924  1.00  0.00    -0.123 A  
HETATM   19  N   UNL     1      -9.847   6.536  69.549  1.00  0.00    -0.151 NA 
HETATM   20  C   UNL     1      -8.317   6.097  67.578  1.00  0.00    -0.109 A  
HETATM   21  C   UNL     1      -7.023   5.637  67.288  1.00  0.00    -0.065 A  
HETATM   22  C   UNL     1      -6.168   5.223  68.314  1.00  0.00    -0.034 A  
HETATM   23  C   UNL     1      -6.567   5.297  69.659  1.00  0.00    -0.043 A  
BRANCH  21  24
HETATM   24  O   UNL     1      -6.721   5.612  65.952  1.00  0.00    -0.053 OA 
HETATM   25  C   UNL     1      -6.715   4.329  65.347  1.00  0.00    -0.052 C  
HETATM   26  F   UNL     1      -7.983   4.002  64.996  1.00  0.00    -0.088 F  
HETATM   27  F   UNL     1      -6.005   4.431  64.194  1.00  0.00    -0.016 F  
ENDBRANCH  21  24
ENDBRANCH  12  14
ENDBRANCH  11  12
ENDBRANCH   6  11
ENDBRANCH   2   3
TORSDOF 6
ENDMDL
MODEL      245
REMARK 921   NORMALIZED FREE ENERGY PREDICTED BY IDOCK:   -3.34 KCAL/MOL
REMARK 922        TOTAL FREE ENERGY PREDICTED BY IDOCK:   -5.27 KCAL/MOL
REMARK 923 INTER-LIGAND FREE ENERGY PREDICTED BY IDOCK:   -4.41 KCAL/MOL
REMARK 924 INTRA-LIGAND FREE ENERGY PREDICTED BY IDOCK:   -0.86 KCAL/MOL
REMARK 927      BINDING AFFINITY PREDICTED BY RF-SCORE:    0.00 PKD
ROOT
HETATM    1  C   UNL     1     -10.822   5.870  68.088  1.00  0.00    -0.236 C  
HETATM    2  O   UNL     1     -10.160   6.096  69.332  1.00  0.00    -0.166 OA 
ENDROOT
BRANCH   2   3
HETATM    3  C   UNL     1      -9.677   7.369  69.509  1.00  0.00    -0.159 A  
HETATM    4  C   UNL     1      -8.369   7.713  69.910  1.00  0.00    -0.132 A  
HETATM    5  C   UNL     1     -10.216   9.682  69.438  1.00  0.00    -0.209 A  
HETATM    6  C   UNL     1      -8.023   9.070  69.923  1.00  0.00    -0.103 A  
HETATM    7  C   UNL     1     -10.615   8.370  69.298  1.00  0.00    -0.193 A  
HETATM    8  N   UNL     1      -8.952  10.049  69.735  1.00  0.00    -0.206 NA 
BRANCH   4   9
HETATM    9  O   UNL     1      -7.492   6.689  70.171  1.00  0.00    -0.089 OA 
HETATM   10  C   UNL     1      -6.933   6.036  69.029  1.00  0.00    -0.068 C  
ENDBRANCH   4   9
BRANCH   6  11
HETATM   11  C   UNL     1      -6.606   9.566  70.064  1.00  0.00    -0.065 C  
BRANCH  11  12
HETATM   12  S   UNL     1      -5.856   9.907  68.447  1.00  0.00    -0.042 S  
HETATM   13  O   UNL     1      -6.208   8.836  67.455  1.00  0.00    -0.051 OA 
BRANCH  12  14
HETATM   14  C   UNL     1      -6.803  11.287  68.003  1.00  0.00    -0.067 A  
HETATM   15  N   UNL     1      -7.796  11.295  67.138  1.00  0.00    -0.143 NA 
HETATM   16  C   UNL     1      -8.320  12.568  67.214  1.00  0.00    -0.185 A  
HETATM   17  H   UNL     1      -8.109  10.528  66.544  1.00  0.00     0.000 HD 
HETATM   18  C   UNL     1      -7.609  13.349  68.117  1.00  0.00    -0.138 A  
HETATM   19  N   UNL     1      -6.634  12.512  68.590  1.00  0.00    -0.077 NA 
HETATM   20  C   UNL     1      -7.933  14.679  68.402  1.00  0.00    -0.137 A  
HETATM   21  C   UNL     1      -9.029  15.234  67.724  1.00  0.00    -0.177 A  
HETATM   22  C   UNL     1      -9.777  14.463  66.829  1.00  0.00    -0.278 A  
HETATM   23  C   UNL     1      -9.426  13.129  66.558  1.00  0.00    -0.246 A  
BRANCH  21  24
HETATM   24  O   UNL     1      -9.287  16.541  68.045  1.00  0.00    -0.213 OA 
HETATM   25  C   UNL     1     -10.519  17.059  67.570  1.00  0.00    -0.334 C  
HETATM   26  F   UNL     1     -11.502  16.723  68.441  1.00  0.00    -0.338 F  
HETATM   27  F   UNL     1     -10.422  18.413  67.593  1.00  0.00    -0.356 F  
ENDBRANCH  21  24
ENDBRANCH  12  14
ENDBRANCH  11  12
ENDBRANCH   6  11
ENDBRANCH   2   3
TORSDOF 6
ENDMDL
MODEL      246
REMARK 921   NORMALIZED FREE ENERGY PREDICTED BY IDOCK:   -3.34 KCAL/MOL
REMARK 922        TOTAL FREE ENERGY PREDICTED BY IDOCK:   -5.26 KCAL/MOL
REMARK 923 INTER-LIGAND FREE ENERGY PREDICTED BY IDOCK:   -4.50 KCAL/MOL
REMARK 924 INTRA-LIGAND FREE ENERGY PREDICTED BY IDOCK:   -0.75 KCAL/MOL
REMARK 927      BINDING AFFINITY PREDICTED BY RF-SCORE:    0.00 PKD
ROOT
HETATM    1  C   UNL     1      -5.961   7.240  64.271  1.00  0.00    -0.037 C  
HETATM    2  O   UNL     1      -6.838   7.174  65.394  1.00  0.00    -0.050 OA 
ENDROOT
BRANCH   2   3
HETATM    3  C   UNL     1      -7.069   8.374  66.022  1.00  0.00    -0.069 A  
HETATM    4  C   UNL     1      -8.228   9.168  65.897  1.00  0.00    -0.113 A  
HETATM    5  C   UNL     1      -6.162  10.007  67.490  1.00  0.00    -0.058 A  
HETATM    6  C   UNL     1      -8.334  10.304  66.707  1.00  0.00    -0.124 A  
HETATM    7  C   UNL     1      -6.015   8.818  66.809  1.00  0.00    -0.056 A  
HETATM    8  N   UNL     1      -7.290  10.747  67.462  1.00  0.00    -0.090 NA 
BRANCH   4   9
HETATM    9  O   UNL     1      -9.218   8.722  65.056  1.00  0.00    -0.085 OA 
HETATM   10  C   UNL     1      -9.119   9.143  63.693  1.00  0.00     0.196 C  
ENDBRANCH   4   9
BRANCH   6  11
HETATM   11  C   UNL     1      -9.611  11.087  66.878  1.00  0.00    -0.182 C  
BRANCH  11  12
HETATM   12  S   UNL     1      -9.785  12.364  65.600  1.00  0.00    -0.112 S  
HETATM   13  O   UNL     1     -11.225  12.546  65.216  1.00  0.00    -0.288 OA 
BRANCH  12  14
HETATM   14  C   UNL     1      -9.376  13.750  66.554  1.00  0.00    -0.233 A  
HETATM   15  N   UNL     1      -8.515  13.774  67.550  1.00  0.00    -0.183 NA 
HETATM   16  C   UNL     1      -8.424  15.102  67.907  1.00  0.00    -0.149 A  
HETATM   17  H   UNL     1      -8.023  12.983  67.965  1.00  0.00     0.000 HD 
HETATM   18  C   UNL     1      -9.271  15.888  67.133  1.00  0.00    -0.209 A  
HETATM   19  N   UNL     1      -9.880  14.995  66.292  1.00  0.00    -0.268 NA 
HETATM   20  C   UNL     1      -9.371  17.275  67.273  1.00  0.00    -0.237 A  
HETATM   21  C   UNL     1      -8.573  17.882  68.255  1.00  0.00    -0.275 A  
HETATM   22  C   UNL     1      -7.694  17.118  69.030  1.00  0.00    -0.164 A  
HETATM   23  C   UNL     1      -7.618  15.724  68.872  1.00  0.00    -0.181 A  
BRANCH  21  24
HETATM   24  O   UNL     1      -8.725  19.241  68.343  1.00  0.00    -0.332 OA 
HETATM   25  C   UNL     1      -9.089  19.898  67.140  1.00  0.00    -0.346 C  
HETATM   26  F   UNL     1     -10.435  19.826  66.990  1.00  0.00    -0.481 F  
HETATM   27  F   UNL     1      -8.782  21.212  67.289  1.00  0.00    -0.377 F  
ENDBRANCH  21  24
ENDBRANCH  12  14
ENDBRANCH  11  12
ENDBRANCH   6  11
ENDBRANCH   2   3
TORSDOF 6
ENDMDL
MODEL      247
REMARK 921   NORMALIZED FREE ENERGY PREDICTED BY IDOCK:   -3.28 KCAL/MOL
REMARK 922        TOTAL FREE ENERGY PREDICTED BY IDOCK:   -5.18 KCAL/MOL
REMARK 923 INTER-LIGAND FREE ENERGY PREDICTED BY IDOCK:   -4.66 KCAL/MOL
REMARK 924 INTRA-LIGAND FREE ENERGY PREDICTED BY IDOCK:   -0.52 KCAL/MOL
REMARK 927      BINDING AFFINITY PREDICTED BY RF-SCORE:    0.00 PKD
ROOT
HETATM    1  C   UNL     1      -9.087  19.086  68.635  1.00  0.00    -0.359 C  
HETATM    2  O   UNL     1     -10.036  18.400  67.820  1.00  0.00    -0.317 OA 
ENDROOT
BRANCH   2   3
HETATM    3  C   UNL     1     -10.118  17.046  68.039  1.00  0.00    -0.305 A  
HETATM    4  C   UNL     1      -9.043  16.133  68.010  1.00  0.00    -0.190 A  
HETATM    5  C   UNL     1     -11.585  15.237  68.510  1.00  0.00    -0.352 A  
HETATM    6  C   UNL     1      -9.301  14.806  68.375  1.00  0.00    -0.197 A  
HETATM    7  C   UNL     1     -11.407  16.582  68.265  1.00  0.00    -0.180 A  
HETATM    8  N   UNL     1     -10.570  14.351  68.576  1.00  0.00    -0.248 NA 
BRANCH   4   9
HETATM    9  O   UNL     1      -7.796  16.626  67.717  1.00  0.00    -0.159 OA 
HETATM   10  C   UNL     1      -7.433  16.629  66.334  1.00  0.00    -0.225 C  
ENDBRANCH   4   9
BRANCH   6  11
HETATM   11  C   UNL     1      -8.218  13.794  68.650  1.00  0.00    -0.077 C  
BRANCH  11  12
HETATM   12  S   UNL     1      -7.878  12.771  67.190  1.00  0.00    -0.031 S  
HETATM   13  O   UNL     1      -6.461  12.949  66.728  1.00  0.00     0.077 OA 
BRANCH  12  14
HETATM   14  C   UNL     1      -7.935  11.211  67.941  1.00  0.00    -0.114 A  
HETATM   15  N   UNL     1      -6.908  10.409  68.129  1.00  0.00    -0.072 NA 
HETATM   16  C   UNL     1      -7.410   9.361  68.871  1.00  0.00    -0.073 A  
HETATM   17  H   UNL     1      -5.952  10.535  67.799  1.00  0.00     0.000 HD 
HETATM   18  C   UNL     1      -8.771   9.520  69.106  1.00  0.00    -0.146 A  
HETATM   19  N   UNL     1      -9.083  10.700  68.483  1.00  0.00    -0.152 NA 
HETATM   20  C   UNL     1      -9.534   8.612  69.845  1.00  0.00    -0.168 A  
HETATM   21  C   UNL     1      -8.873   7.485  70.360  1.00  0.00    -0.145 A  
HETATM   22  C   UNL     1      -7.499   7.314  70.160  1.00  0.00    -0.088 A  
HETATM   23  C   UNL     1      -6.758   8.241  69.407  1.00  0.00    -0.042 A  
BRANCH  21  24
HETATM   24  O   UNL     1      -9.679   6.634  71.068  1.00  0.00    -0.174 OA 
HETATM   25  C   UNL     1     -10.883   6.249  70.423  1.00  0.00    -0.299 C  
HETATM   26  F   UNL     1     -10.624   5.206  69.596  1.00  0.00    -0.339 F  
HETATM   27  F   UNL     1     -11.723   5.786  71.383  1.00  0.00    -0.287 F  
ENDBRANCH  21  24
ENDBRANCH  12  14
ENDBRANCH  11  12
ENDBRANCH   6  11
ENDBRANCH   2   3
TORSDOF 6
ENDMDL
MODEL      248
REMARK 921   NORMALIZED FREE ENERGY PREDICTED BY IDOCK:   -3.25 KCAL/MOL
REMARK 922        TOTAL FREE ENERGY PREDICTED BY IDOCK:   -5.14 KCAL/MOL
REMARK 923 INTER-LIGAND FREE ENERGY PREDICTED BY IDOCK:   -5.64 KCAL/MOL
REMARK 924 INTRA-LIGAND FREE ENERGY PREDICTED BY IDOCK:    0.50 KCAL/MOL
REMARK 927      BINDING AFFINITY PREDICTED BY RF-SCORE:    0.00 PKD
ROOT
HETATM    1  C   UNL     1      -7.802   7.396  64.410  1.00  0.00    -0.127 C  
HETATM    2  O   UNL     1      -8.644   8.174  65.260  1.00  0.00    -0.160 OA 
ENDROOT
BRANCH   2   3
HETATM    3  C   UNL     1      -9.111   9.340  64.704  1.00  0.00    -0.121 A  
HETATM    4  C   UNL     1      -9.806  10.363  65.382  1.00  0.00    -0.283 A  
HETATM    5  C   UNL     1      -9.308  10.596  62.697  1.00  0.00    -0.306 A  
HETATM    6  C   UNL     1     -10.101  11.534  64.674  1.00  0.00    -0.271 A  
HETATM    7  C   UNL     1      -8.886   9.451  63.339  1.00  0.00    -0.199 A  
HETATM    8  N   UNL     1      -9.897  11.631  63.330  1.00  0.00    -0.388 NA 
BRANCH   4   9
HETATM    9  O   UNL     1     -10.065  10.181  66.718  1.00  0.00    -0.201 OA 
HETATM   10  C   UNL     1     -10.346  11.364  67.468  1.00  0.00    -0.195 C  
ENDBRANCH   4   9
BRANCH   6  11
HETATM   11  C   UNL     1     -10.590  12.801  65.329  1.00  0.00    -0.290 C  
BRANCH  11  12
HETATM   12  S   UNL     1     -11.341  13.927  64.120  1.00  0.00    -0.104 S  
HETATM   13  O   UNL     1     -12.839  13.880  64.200  1.00  0.00    -0.586 OA 
BRANCH  12  14
HETATM   14  C   UNL     1     -10.880  15.433  64.841  1.00  0.00    -0.425 A  
HETATM   15  N   UNL     1     -11.090  16.628  64.330  1.00  0.00    -1.336 NA 
HETATM   16  C   UNL     1     -10.677  17.508  65.307  1.00  0.00     0.086 A  
HETATM   17  H   UNL     1     -11.474  16.854  63.412  1.00  0.00     0.000 HD 
HETATM   18  C   UNL     1     -10.179  16.830  66.414  1.00  0.00    -0.323 A  
HETATM   19  N   UNL     1     -10.303  15.507  66.080  1.00  0.00    -0.306 NA 
HETATM   20  C   UNL     1      -9.704  17.474  67.559  1.00  0.00    -0.278 A  
HETATM   21  C   UNL     1      -9.732  18.878  67.566  1.00  0.00    -0.313 A  
HETATM   22  C   UNL     1     -10.251  19.585  66.476  1.00  0.00    -0.568 A  
HETATM   23  C   UNL     1     -10.717  18.910  65.335  1.00  0.00     0.162 A  
BRANCH  21  24
HETATM   24  O   UNL     1      -9.247  19.445  68.715  1.00  0.00    -0.368 OA 
HETATM   25  C   UNL     1     -10.224  19.925  69.624  1.00  0.00     0.157 C  
HETATM   26  F   UNL     1     -10.650  18.894  70.395  1.00  0.00     0.502 F  
HETATM   27  F   UNL     1      -9.605  20.803  70.454  1.00  0.00     0.600 F  
ENDBRANCH  21  24
ENDBRANCH  12  14
ENDBRANCH  11  12
ENDBRANCH   6  11
ENDBRANCH   2   3
TORSDOF 6
ENDMDL
MODEL      249
REMARK 921   NORMALIZED FREE ENERGY PREDICTED BY IDOCK:   -3.24 KCAL/MOL
REMARK 922        TOTAL FREE ENERGY PREDICTED BY IDOCK:   -5.13 KCAL/MOL
REMARK 923 INTER-LIGAND FREE ENERGY PREDICTED BY IDOCK:   -6.29 KCAL/MOL
REMARK 924 INTRA-LIGAND FREE ENERGY PREDICTED BY IDOCK:    1.16 KCAL/MOL
REMARK 927      BINDING AFFINITY PREDICTED BY RF-SCORE:    0.00 PKD
ROOT
HETATM    1  C   UNL     1     -11.956  15.131  69.979  1.00  0.00    -0.336 C  
HETATM    2  O   UNL     1     -11.798  15.381  68.584  1.00  0.00    -0.346 OA 
ENDROOT
BRANCH   2   3
HETATM    3  C   UNL     1     -10.805  14.656  67.973  1.00  0.00    -0.257 A  
HETATM    4  C   UNL     1     -10.985  13.684  66.966  1.00  0.00    -0.289 A  
HETATM    5  C   UNL     1      -8.467  14.242  67.892  1.00  0.00    -0.168 A  
HETATM    6  C   UNL     1      -9.842  13.131  66.378  1.00  0.00    -0.279 A  
HETATM    7  C   UNL     1      -9.530  14.914  68.457  1.00  0.00    -0.210 A  
HETATM    8  N   UNL     1      -8.594  13.372  66.869  1.00  0.00    -0.154 NA 
BRANCH   4   9
HETATM    9  O   UNL     1     -12.270  13.413  66.564  1.00  0.00    -0.399 OA 
HETATM   10  C   UNL     1     -12.410  12.823  65.270  1.00  0.00    -0.488 C  
ENDBRANCH   4   9
BRANCH   6  11
HETATM   11  C   UNL     1      -9.873  12.296  65.123  1.00  0.00    -0.158 C  
BRANCH  11  12
HETATM   12  S   UNL     1      -8.696  10.917  65.212  1.00  0.00    -0.088 S  
HETATM   13  O   UNL     1      -7.458  11.316  65.962  1.00  0.00    -0.034 OA 
BRANCH  12  14
HETATM   14  C   UNL     1      -9.581   9.883  66.283  1.00  0.00    -0.209 A  
HETATM   15  N   UNL     1      -9.980   8.657  66.016  1.00  0.00    -0.460 NA 
HETATM   16  C   UNL     1     -10.517   8.195  67.199  1.00  0.00    -0.326 A  
HETATM   17  H   UNL     1      -9.906   8.158  65.130  1.00  0.00     0.000 HD 
HETATM   18  C   UNL     1     -10.471   9.173  68.186  1.00  0.00    -0.211 A  
HETATM   19  N   UNL     1      -9.887  10.246  67.567  1.00  0.00    -0.169 NA 
HETATM   20  C   UNL     1     -10.935   8.971  69.489  1.00  0.00    -0.118 A  
HETATM   21  C   UNL     1     -11.480   7.713  69.790  1.00  0.00     0.160 A  
HETATM   22  C   UNL     1     -11.516   6.703  68.823  1.00  0.00    -0.060 A  
HETATM   23  C   UNL     1     -11.046   6.936  67.519  1.00  0.00    -0.283 A  
BRANCH  21  24
HETATM   24  O   UNL     1     -11.922   7.585  71.080  1.00  0.00    -0.298 OA 
HETATM   25  C   UNL     1     -12.557   8.729  71.629  1.00  0.00    -0.345 C  
HETATM   26  F   UNL     1     -13.860   8.730  71.255  1.00  0.00    -0.381 F  
HETATM   27  F   UNL     1     -12.538   8.591  72.979  1.00  0.00    -0.381 F  
ENDBRANCH  21  24
ENDBRANCH  12  14
ENDBRANCH  11  12
ENDBRANCH   6  11
ENDBRANCH   2   3
TORSDOF 6
ENDMDL
MODEL      250
REMARK 921   NORMALIZED FREE ENERGY PREDICTED BY IDOCK:   -3.24 KCAL/MOL
REMARK 922        TOTAL FREE ENERGY PREDICTED BY IDOCK:   -5.12 KCAL/MOL
REMARK 923 INTER-LIGAND FREE ENERGY PREDICTED BY IDOCK:   -4.75 KCAL/MOL
REMARK 924 INTRA-LIGAND FREE ENERGY PREDICTED BY IDOCK:   -0.37 KCAL/MOL
REMARK 927      BINDING AFFINITY PREDICTED BY RF-SCORE:    0.00 PKD
ROOT
HETATM    1  C   UNL     1     -11.990  15.712  70.196  1.00  0.00    -0.367 C  
HETATM    2  O   UNL     1     -12.198  15.210  68.877  1.00  0.00    -0.223 OA 
ENDROOT
BRANCH   2   3
HETATM    3  C   UNL     1     -11.092  14.646  68.289  1.00  0.00    -0.271 A  
HETATM    4  C   UNL     1     -11.087  13.832  67.137  1.00  0.00    -0.302 A  
HETATM    5  C   UNL     1      -8.734  14.389  68.427  1.00  0.00    -0.180 A  
HETATM    6  C   UNL     1      -9.848  13.445  66.614  1.00  0.00    -0.278 A  
HETATM    7  C   UNL     1      -9.900  14.902  68.953  1.00  0.00    -0.230 A  
HETATM    8  N   UNL     1      -8.683  13.680  67.280  1.00  0.00    -0.209 NA 
BRANCH   4   9
HETATM    9  O   UNL     1     -12.297  13.551  66.550  1.00  0.00    -0.392 OA 
HETATM   10  C   UNL     1     -12.706  14.435  65.504  1.00  0.00    -0.293 C  
ENDBRANCH   4   9
BRANCH   6  11
HETATM   11  C   UNL     1      -9.680  12.812  65.256  1.00  0.00    -0.007 C  
BRANCH  11  12
HETATM   12  S   UNL     1     -10.656  11.289  65.106  1.00  0.00    -0.256 S  
HETATM   13  O   UNL     1     -10.368  10.592  63.808  1.00  0.00    -0.297 OA 
BRANCH  12  14
HETATM   14  C   UNL     1      -9.868  10.349  66.328  1.00  0.00    -0.218 A  
HETATM   15  N   UNL     1      -9.918  10.571  67.625  1.00  0.00    -0.169 NA 
HETATM   16  C   UNL     1      -9.258   9.503  68.193  1.00  0.00    -0.129 A  
HETATM   17  H   UNL     1     -10.349  11.361  68.103  1.00  0.00     0.000 HD 
HETATM   18  C   UNL     1      -8.775   8.637  67.218  1.00  0.00    -0.129 A  
HETATM   19  N   UNL     1      -9.161   9.213  66.037  1.00  0.00    -0.181 NA 
HETATM   20  C   UNL     1      -8.078   7.461  67.513  1.00  0.00    -0.114 A  
HETATM   21  C   UNL     1      -7.861   7.165  68.868  1.00  0.00    -0.115 A  
HETATM   22  C   UNL     1      -8.358   8.006  69.869  1.00  0.00    -0.121 A  
HETATM   23  C   UNL     1      -9.051   9.184  69.543  1.00  0.00    -0.155 A  
BRANCH  21  24
HETATM   24  O   UNL     1      -7.167   6.004  69.086  1.00  0.00    -0.077 OA 
HETATM   25  C   UNL     1      -5.793   6.159  69.402  1.00  0.00    -0.017 C  
HETATM   26  F   UNL     1      -5.672   6.400  70.731  1.00  0.00    -0.020 F  
HETATM   27  F   UNL     1      -5.188   4.967  69.165  1.00  0.00     0.000 F  
ENDBRANCH  21  24
ENDBRANCH  12  14
ENDBRANCH  11  12
ENDBRANCH   6  11
ENDBRANCH   2   3
TORSDOF 6
ENDMDL
MODEL      251
REMARK 921   NORMALIZED FREE ENERGY PREDICTED BY IDOCK:   -3.22 KCAL/MOL
REMARK 922        TOTAL FREE ENERGY PREDICTED BY IDOCK:   -5.10 KCAL/MOL
REMARK 923 INTER-LIGAND FREE ENERGY PREDICTED BY IDOCK:   -4.30 KCAL/MOL
REMARK 924 INTRA-LIGAND FREE ENERGY PREDICTED BY IDOCK:   -0.80 KCAL/MOL
REMARK 927      BINDING AFFINITY PREDICTED BY RF-SCORE:    0.00 PKD
ROOT
HETATM    1  C   UNL     1     -10.819   9.174  71.505  1.00  0.00    -0.366 C  
HETATM    2  O   UNL     1      -9.427   9.223  71.813  1.00  0.00    -0.302 OA 
ENDROOT
BRANCH   2   3
HETATM    3  C   UNL     1      -8.710   8.112  71.441  1.00  0.00    -0.145 A  
HETATM    4  C   UNL     1      -8.480   6.968  72.234  1.00  0.00    -0.110 A  
HETATM    5  C   UNL     1      -7.425   7.115  69.709  1.00  0.00    -0.097 A  
HETATM    6  C   UNL     1      -7.825   5.882  71.643  1.00  0.00    -0.106 A  
HETATM    7  C   UNL     1      -8.150   8.192  70.174  1.00  0.00    -0.113 A  
HETATM    8  N   UNL     1      -7.259   5.972  70.406  1.00  0.00    -0.080 NA 
BRANCH   4   9
HETATM    9  O   UNL     1      -8.998   6.959  73.506  1.00  0.00    -0.130 OA 
HETATM   10  C   UNL     1      -8.083   7.277  74.557  1.00  0.00    -0.174 C  
ENDBRANCH   4   9
BRANCH   6  11
HETATM   11  C   UNL     1      -7.751   4.513  72.270  1.00  0.00    -0.091 C  
BRANCH  11  12
HETATM   12  S   UNL     1      -9.329   3.629  72.127  1.00  0.00    -0.133 S  
HETATM   13  O   UNL     1     -10.423   4.363  72.848  1.00  0.00    -0.173 OA 
BRANCH  12  14
HETATM   14  C   UNL     1      -9.625   3.887  70.441  1.00  0.00    -0.196 A  
HETATM   15  N   UNL     1     -10.264   4.912  69.918  1.00  0.00    -0.262 NA 
HETATM   16  C   UNL     1     -10.134   4.752  68.555  1.00  0.00    -0.044 A  
HETATM   17  H   UNL     1     -10.748   5.661  70.412  1.00  0.00     0.000 HD 
HETATM   18  C   UNL     1      -9.432   3.591  68.252  1.00  0.00    -0.148 A  
HETATM   19  N   UNL     1      -9.137   3.049  69.474  1.00  0.00    -0.117 NA 
HETATM   20  C   UNL     1      -9.142   3.189  66.945  1.00  0.00    -0.191 A  
HETATM   21  C   UNL     1      -9.601   4.009  65.902  1.00  0.00    -0.193 A  
HETATM   22  C   UNL     1     -10.288   5.195  66.180  1.00  0.00    -0.280 A  
HETATM   23  C   UNL     1     -10.570   5.573  67.504  1.00  0.00    -0.252 A  
BRANCH  21  24
HETATM   24  O   UNL     1      -9.289   3.554  64.648  1.00  0.00    -0.134 OA 
HETATM   25  C   UNL     1     -10.392   3.199  63.831  1.00  0.00    -0.195 C  
HETATM   26  F   UNL     1     -10.871   4.317  63.231  1.00  0.00    -0.174 F  
HETATM   27  F   UNL     1      -9.920   2.398  62.842  1.00  0.00    -0.094 F  
ENDBRANCH  21  24
ENDBRANCH  12  14
ENDBRANCH  11  12
ENDBRANCH   6  11
ENDBRANCH   2   3
TORSDOF 6
ENDMDL
MODEL      252
REMARK 921   NORMALIZED FREE ENERGY PREDICTED BY IDOCK:   -3.21 KCAL/MOL
REMARK 922        TOTAL FREE ENERGY PREDICTED BY IDOCK:   -5.08 KCAL/MOL
REMARK 923 INTER-LIGAND FREE ENERGY PREDICTED BY IDOCK:   -5.36 KCAL/MOL
REMARK 924 INTRA-LIGAND FREE ENERGY PREDICTED BY IDOCK:    0.28 KCAL/MOL
REMARK 927      BINDING AFFINITY PREDICTED BY RF-SCORE:    0.00 PKD
ROOT
HETATM    1  C   UNL     1     -10.496  20.387  66.237  1.00  0.00    -0.043 C  
HETATM    2  O   UNL     1      -9.285  20.762  66.891  1.00  0.00    -0.240 OA 
ENDROOT
BRANCH   2   3
HETATM    3  C   UNL     1      -8.262  19.852  66.783  1.00  0.00    -0.319 A  
HETATM    4  C   UNL     1      -8.376  18.453  66.918  1.00  0.00    -0.253 A  
HETATM    5  C   UNL     1      -5.929  19.582  66.422  1.00  0.00    -0.167 A  
HETATM    6  C   UNL     1      -7.243  17.674  66.658  1.00  0.00    -0.229 A  
HETATM    7  C   UNL     1      -7.015  20.420  66.559  1.00  0.00    -0.299 A  
HETATM    8  N   UNL     1      -6.017  18.236  66.459  1.00  0.00    -0.152 NA 
BRANCH   4   9
HETATM    9  O   UNL     1      -9.617  17.939  67.204  1.00  0.00    -0.267 OA 
HETATM   10  C   UNL     1     -10.098  18.166  68.531  1.00  0.00    -0.400 C  
ENDBRANCH   4   9
BRANCH   6  11
HETATM   11  C   UNL     1      -7.281  16.176  66.499  1.00  0.00     0.079 C  
BRANCH  11  12
HETATM   12  S   UNL     1      -6.759  15.332  68.018  1.00  0.00    -0.160 S  
HETATM   13  O   UNL     1      -6.545  16.316  69.132  1.00  0.00    -0.160 OA 
BRANCH  12  14
HETATM   14  C   UNL     1      -8.241  14.518  68.391  1.00  0.00    -0.150 A  
HETATM   15  N   UNL     1      -8.559  13.292  68.031  1.00  0.00    -0.169 NA 
HETATM   16  C   UNL     1      -9.759  13.039  68.661  1.00  0.00    -0.045 A  
HETATM   17  H   UNL     1      -8.033  12.667  67.421  1.00  0.00     0.000 HD 
HETATM   18  C   UNL     1     -10.187  14.144  69.387  1.00  0.00     0.141 A  
HETATM   19  N   UNL     1      -9.209  15.080  69.180  1.00  0.00    -0.201 NA 
HETATM   20  C   UNL     1     -11.367  14.160  70.136  1.00  0.00    -0.147 A  
HETATM   21  C   UNL     1     -12.147  12.993  70.133  1.00  0.00    -0.307 A  
HETATM   22  C   UNL     1     -11.727  11.859  69.431  1.00  0.00    -0.401 A  
HETATM   23  C   UNL     1     -10.538  11.872  68.682  1.00  0.00    -0.259 A  
BRANCH  21  24
HETATM   24  O   UNL     1     -13.292  13.079  70.880  1.00  0.00     0.077 OA 
HETATM   25  C   UNL     1     -13.477  14.297  71.583  1.00  0.00    -0.376 C  
HETATM   26  F   UNL     1     -14.036  15.206  70.747  1.00  0.00    -0.365 F  
HETATM   27  F   UNL     1     -14.383  14.062  72.566  1.00  0.00    -0.554 F  
ENDBRANCH  21  24
ENDBRANCH  12  14
ENDBRANCH  11  12
ENDBRANCH   6  11
ENDBRANCH   2   3
TORSDOF 6
ENDMDL
MODEL      253
REMARK 921   NORMALIZED FREE ENERGY PREDICTED BY IDOCK:   -3.19 KCAL/MOL
REMARK 922        TOTAL FREE ENERGY PREDICTED BY IDOCK:   -5.06 KCAL/MOL
REMARK 923 INTER-LIGAND FREE ENERGY PREDICTED BY IDOCK:   -4.50 KCAL/MOL
REMARK 924 INTRA-LIGAND FREE ENERGY PREDICTED BY IDOCK:   -0.55 KCAL/MOL
REMARK 927      BINDING AFFINITY PREDICTED BY RF-SCORE:    0.00 PKD
ROOT
HETATM    1  C   UNL     1      -7.297   5.893  68.724  1.00  0.00    -0.084 C  
HETATM    2  O   UNL     1      -8.614   6.212  68.279  1.00  0.00    -0.116 OA 
ENDROOT
BRANCH   2   3
HETATM    3  C   UNL     1      -9.061   7.461  68.636  1.00  0.00    -0.134 A  
HETATM    4  C   UNL     1      -9.767   8.359  67.809  1.00  0.00    -0.162 A  
HETATM    5  C   UNL     1      -9.145   9.071  70.381  1.00  0.00    -0.210 A  
HETATM    6  C   UNL     1     -10.245   9.543  68.384  1.00  0.00    -0.194 A  
HETATM    7  C   UNL     1      -8.725   7.839  69.929  1.00  0.00    -0.142 A  
HETATM    8  N   UNL     1      -9.896   9.918  69.647  1.00  0.00    -0.219 NA 
BRANCH   4   9
HETATM    9  O   UNL     1     -10.020   7.971  66.516  1.00  0.00    -0.249 OA 
HETATM   10  C   UNL     1      -8.968   8.200  65.576  1.00  0.00    -0.032 C  
ENDBRANCH   4   9
BRANCH   6  11
HETATM   11  C   UNL     1     -11.232  10.458  67.706  1.00  0.00    -0.237 C  
BRANCH  11  12
HETATM   12  S   UNL     1     -10.509  11.249  66.241  1.00  0.00    -0.261 S  
HETATM   13  O   UNL     1     -11.580  11.707  65.294  1.00  0.00    -0.189 OA 
BRANCH  12  14
HETATM   14  C   UNL     1      -9.900  12.686  66.991  1.00  0.00    -0.225 A  
HETATM   15  N   UNL     1     -10.332  13.209  68.120  1.00  0.00    -0.238 NA 
HETATM   16  C   UNL     1      -9.470  14.253  68.378  1.00  0.00    -0.213 A  
HETATM   17  H   UNL     1     -11.128  12.908  68.680  1.00  0.00     0.000 HD 
HETATM   18  C   UNL     1      -8.522  14.381  67.369  1.00  0.00    -0.203 A  
HETATM   19  N   UNL     1      -8.833  13.381  66.487  1.00  0.00    -0.059 NA 
HETATM   20  C   UNL     1      -7.514  15.350  67.381  1.00  0.00    -0.239 A  
HETATM   21  C   UNL     1      -7.483  16.233  68.472  1.00  0.00    -0.176 A  
HETATM   22  C   UNL     1      -8.410  16.110  69.513  1.00  0.00     0.055 A  
HETATM   23  C   UNL     1      -9.415  15.130  69.472  1.00  0.00    -0.151 A  
BRANCH  21  24
HETATM   24  O   UNL     1      -6.477  17.160  68.418  1.00  0.00    -0.150 OA 
HETATM   25  C   UNL     1      -6.487  18.140  69.444  1.00  0.00    -0.233 C  
HETATM   26  F   UNL     1      -5.869  17.635  70.540  1.00  0.00    -0.244 F  
HETATM   27  F   UNL     1      -5.729  19.181  69.014  1.00  0.00    -0.198 F  
ENDBRANCH  21  24
ENDBRANCH  12  14
ENDBRANCH  11  12
ENDBRANCH   6  11
ENDBRANCH   2   3
TORSDOF 6
ENDMDL
MODEL      254
REMARK 921   NORMALIZED FREE ENERGY PREDICTED BY IDOCK:   -3.18 KCAL/MOL
REMARK 922        TOTAL FREE ENERGY PREDICTED BY IDOCK:   -5.05 KCAL/MOL
REMARK 923 INTER-LIGAND FREE ENERGY PREDICTED BY IDOCK:   -5.30 KCAL/MOL
REMARK 924 INTRA-LIGAND FREE ENERGY PREDICTED BY IDOCK:    0.25 KCAL/MOL
REMARK 927      BINDING AFFINITY PREDICTED BY RF-SCORE:    0.00 PKD
ROOT
HETATM    1  C   UNL     1      -8.521  18.555  68.720  1.00  0.00    -0.242 C  
HETATM    2  O   UNL     1      -9.614  17.638  68.691  1.00  0.00    -0.294 OA 
ENDROOT
BRANCH   2   3
HETATM    3  C   UNL     1      -9.962  17.190  67.440  1.00  0.00    -0.280 A  
HETATM    4  C   UNL     1      -9.916  15.853  66.994  1.00  0.00    -0.247 A  
HETATM    5  C   UNL     1     -10.731  17.835  65.286  1.00  0.00     0.214 A  
HETATM    6  C   UNL     1     -10.423  15.569  65.721  1.00  0.00    -0.361 A  
HETATM    7  C   UNL     1     -10.349  18.193  66.562  1.00  0.00    -0.397 A  
HETATM    8  N   UNL     1     -10.783  16.558  64.855  1.00  0.00    -0.722 NA 
BRANCH   4   9
HETATM    9  O   UNL     1      -9.464  14.902  67.876  1.00  0.00    -0.196 OA 
HETATM   10  C   UNL     1     -10.207  14.769  69.090  1.00  0.00    -0.220 C  
ENDBRANCH   4   9
BRANCH   6  11
HETATM   11  C   UNL     1     -10.687  14.170  65.223  1.00  0.00    -0.364 C  
BRANCH  11  12
HETATM   12  S   UNL     1     -12.228  13.501  65.907  1.00  0.00    -0.463 S  
HETATM   13  O   UNL     1     -12.967  12.694  64.879  1.00  0.00    -0.830 OA 
BRANCH  12  14
HETATM   14  C   UNL     1     -11.550  12.349  67.008  1.00  0.00    -0.365 A  
HETATM   15  N   UNL     1     -12.196  11.352  67.576  1.00  0.00    -0.146 NA 
HETATM   16  C   UNL     1     -11.227  10.643  68.253  1.00  0.00    -0.301 A  
HETATM   17  H   UNL     1     -13.194  11.150  67.527  1.00  0.00     0.000 HD 
HETATM   18  C   UNL     1      -9.980  11.242  68.115  1.00  0.00    -0.181 A  
HETATM   19  N   UNL     1     -10.220  12.339  67.333  1.00  0.00    -0.202 NA 
HETATM   20  C   UNL     1      -8.813  10.725  68.686  1.00  0.00    -0.152 A  
HETATM   21  C   UNL     1      -8.933   9.546  69.439  1.00  0.00    -0.172 A  
HETATM   22  C   UNL     1     -10.171   8.910  69.573  1.00  0.00    -0.204 A  
HETATM   23  C   UNL     1     -11.329   9.454  68.992  1.00  0.00     0.183 A  
BRANCH  21  24
HETATM   24  O   UNL     1      -7.755   9.099  69.976  1.00  0.00    -0.068 OA 
HETATM   25  C   UNL     1      -6.814  10.104  70.318  1.00  0.00    -0.148 C  
HETATM   26  F   UNL     1      -7.113  10.584  71.550  1.00  0.00     0.890 F  
HETATM   27  F   UNL     1      -5.601   9.503  70.417  1.00  0.00    -0.034 F  
ENDBRANCH  21  24
ENDBRANCH  12  14
ENDBRANCH  11  12
ENDBRANCH   6  11
ENDBRANCH   2   3
TORSDOF 6
ENDMDL
MODEL      255
REMARK 921   NORMALIZED FREE ENERGY PREDICTED BY IDOCK:   -3.07 KCAL/MOL
REMARK 922        TOTAL FREE ENERGY PREDICTED BY IDOCK:   -4.90 KCAL/MOL
REMARK 923 INTER-LIGAND FREE ENERGY PREDICTED BY IDOCK:   -4.61 KCAL/MOL
REMARK 924 INTRA-LIGAND FREE ENERGY PREDICTED BY IDOCK:   -0.29 KCAL/MOL
REMARK 927      BINDING AFFINITY PREDICTED BY RF-SCORE:    0.00 PKD
ROOT
HETATM    1  C   UNL     1     -11.763  15.553  64.538  1.00  0.00    -0.253 C  
HETATM    2  O   UNL     1     -12.335  14.534  65.356  1.00  0.00    -0.361 OA 
ENDROOT
BRANCH   2   3
HETATM    3  C   UNL     1     -11.479  13.515  65.698  1.00  0.00    -0.315 A  
HETATM    4  C   UNL     1     -10.522  13.546  66.733  1.00  0.00    -0.273 A  
HETATM    5  C   UNL     1     -10.771  11.309  65.169  1.00  0.00    -0.246 A  
HETATM    6  C   UNL     1      -9.819  12.368  67.011  1.00  0.00    -0.211 A  
HETATM    7  C   UNL     1     -11.581  12.390  64.891  1.00  0.00    -0.392 A  
HETATM    8  N   UNL     1      -9.907  11.272  66.205  1.00  0.00    -0.217 NA 
BRANCH   4   9
HETATM    9  O   UNL     1     -10.410  14.703  67.464  1.00  0.00    -0.234 OA 
HETATM   10  C   UNL     1     -11.266  14.811  68.603  1.00  0.00    -0.273 C  
ENDBRANCH   4   9
BRANCH   6  11
HETATM   11  C   UNL     1      -8.974  12.174  68.245  1.00  0.00    -0.186 C  
BRANCH  11  12
HETATM   12  S   UNL     1      -7.446  11.270  67.869  1.00  0.00    -0.099 S  
HETATM   13  O   UNL     1      -6.238  12.088  68.223  1.00  0.00    -0.049 OA 
BRANCH  12  14
HETATM   14  C   UNL     1      -7.557  10.045  69.088  1.00  0.00    -0.096 A  
HETATM   15  N   UNL     1      -8.186  10.158  70.239  1.00  0.00    -0.396 NA 
HETATM   16  C   UNL     1      -8.113   8.903  70.805  1.00  0.00    -0.156 A  
HETATM   17  H   UNL     1      -8.629  10.990  70.626  1.00  0.00     0.000 HD 
HETATM   18  C   UNL     1      -7.400   8.028  69.994  1.00  0.00    -0.062 A  
HETATM   19  N   UNL     1      -7.039   8.790  68.915  1.00  0.00    -0.065 NA 
HETATM   20  C   UNL     1      -7.184   6.685  70.317  1.00  0.00    -0.077 A  
HETATM   21  C   UNL     1      -7.717   6.222  71.530  1.00  0.00    -0.100 A  
HETATM   22  C   UNL     1      -8.460   7.074  72.353  1.00  0.00    -0.122 A  
HETATM   23  C   UNL     1      -8.657   8.421  72.005  1.00  0.00    -0.254 A  
BRANCH  21  24
HETATM   24  O   UNL     1      -7.463   4.900  71.788  1.00  0.00    -0.082 OA 
HETATM   25  C   UNL     1      -7.379   4.057  70.651  1.00  0.00    -0.041 C  
HETATM   26  F   UNL     1      -6.124   4.128  70.143  1.00  0.00    -0.016 F  
HETATM   27  F   UNL     1      -7.554   2.781  71.081  1.00  0.00    -0.035 F  
ENDBRANCH  21  24
ENDBRANCH  12  14
ENDBRANCH  11  12
ENDBRANCH   6  11
ENDBRANCH   2   3
TORSDOF 6
ENDMDL
MODEL      256
REMARK 921   NORMALIZED FREE ENERGY PREDICTED BY IDOCK:   -3.05 KCAL/MOL
REMARK 922        TOTAL FREE ENERGY PREDICTED BY IDOCK:   -4.87 KCAL/MOL
REMARK 923 INTER-LIGAND FREE ENERGY PREDICTED BY IDOCK:   -4.62 KCAL/MOL
REMARK 924 INTRA-LIGAND FREE ENERGY PREDICTED BY IDOCK:   -0.25 KCAL/MOL
REMARK 927      BINDING AFFINITY PREDICTED BY RF-SCORE:    0.00 PKD
ROOT
HETATM    1  C   UNL     1     -10.232  19.623  68.342  1.00  0.00    -0.441 C  
HETATM    2  O   UNL     1     -10.381  19.113  67.018  1.00  0.00    -0.359 OA 
ENDROOT
BRANCH   2   3
HETATM    3  C   UNL     1      -9.742  17.920  66.780  1.00  0.00    -0.314 A  
HETATM    4  C   UNL     1      -8.423  17.594  67.158  1.00  0.00    -0.226 A  
HETATM    5  C   UNL     1      -9.944  15.769  65.791  1.00  0.00    -0.358 A  
HETATM    6  C   UNL     1      -7.982  16.285  66.934  1.00  0.00    -0.243 A  
HETATM    7  C   UNL     1     -10.497  17.002  66.064  1.00  0.00    -0.280 A  
HETATM    8  N   UNL     1      -8.719  15.393  66.213  1.00  0.00    -0.275 NA 
BRANCH   4   9
HETATM    9  O   UNL     1      -7.689  18.557  67.807  1.00  0.00    -0.229 OA 
HETATM   10  C   UNL     1      -6.831  19.350  66.984  1.00  0.00    -0.193 C  
ENDBRANCH   4   9
BRANCH   6  11
HETATM   11  C   UNL     1      -6.712  15.722  67.521  1.00  0.00    -0.190 C  
BRANCH  11  12
HETATM   12  S   UNL     1      -7.014  14.939  69.130  1.00  0.00    -0.151 S  
HETATM   13  O   UNL     1      -8.445  15.110  69.550  1.00  0.00    -0.222 OA 
BRANCH  12  14
HETATM   14  C   UNL     1      -6.861  13.282  68.650  1.00  0.00    -0.099 A  
HETATM   15  N   UNL     1      -6.182  12.353  69.290  1.00  0.00    -0.094 NA 
HETATM   16  C   UNL     1      -6.459  11.184  68.614  1.00  0.00    -0.049 A  
HETATM   17  H   UNL     1      -5.584  12.472  70.107  1.00  0.00     0.000 HD 
HETATM   18  C   UNL     1      -7.293  11.419  67.527  1.00  0.00    -0.112 A  
HETATM   19  N   UNL     1      -7.517  12.770  67.563  1.00  0.00    -0.145 NA 
HETATM   20  C   UNL     1      -7.745  10.408  66.674  1.00  0.00    -0.117 A  
HETATM   21  C   UNL     1      -7.315   9.099  66.943  1.00  0.00    -0.090 A  
HETATM   22  C   UNL     1      -6.496   8.831  68.044  1.00  0.00    -0.057 A  
HETATM   23  C   UNL     1      -6.052   9.868  68.882  1.00  0.00    -0.041 A  
BRANCH  21  24
HETATM   24  O   UNL     1      -7.789   8.160  66.066  1.00  0.00    -0.087 OA 
HETATM   25  C   UNL     1      -7.252   8.217  64.754  1.00  0.00    -0.082 C  
HETATM   26  F   UNL     1      -6.075   7.544  64.732  1.00  0.00    -0.036 F  
HETATM   27  F   UNL     1      -8.103   7.541  63.940  1.00  0.00    -0.134 F  
ENDBRANCH  21  24
ENDBRANCH  12  14
ENDBRANCH  11  12
ENDBRANCH   6  11
ENDBRANCH   2   3
TORSDOF 6
ENDMDL
MODEL      257
REMARK 921   NORMALIZED FREE ENERGY PREDICTED BY IDOCK:   -3.04 KCAL/MOL
REMARK 922        TOTAL FREE ENERGY PREDICTED BY IDOCK:   -4.85 KCAL/MOL
REMARK 923 INTER-LIGAND FREE ENERGY PREDICTED BY IDOCK:   -4.29 KCAL/MOL
REMARK 924 INTRA-LIGAND FREE ENERGY PREDICTED BY IDOCK:   -0.57 KCAL/MOL
REMARK 927      BINDING AFFINITY PREDICTED BY RF-SCORE:    0.00 PKD
ROOT
HETATM    1  C   UNL     1      -8.880   9.791  68.632  1.00  0.00    -0.126 C  
HETATM    2  O   UNL     1      -8.272   9.841  69.922  1.00  0.00    -0.152 OA 
ENDROOT
BRANCH   2   3
HETATM    3  C   UNL     1      -8.181   8.631  70.567  1.00  0.00    -0.123 A  
HETATM    4  C   UNL     1      -8.935   8.229  71.689  1.00  0.00    -0.180 A  
HETATM    5  C   UNL     1      -7.059   6.537  70.625  1.00  0.00    -0.069 A  
HETATM    6  C   UNL     1      -8.788   6.912  72.139  1.00  0.00    -0.131 A  
HETATM    7  C   UNL     1      -7.213   7.781  70.050  1.00  0.00    -0.067 A  
HETATM    8  N   UNL     1      -7.823   6.087  71.642  1.00  0.00    -0.101 NA 
BRANCH   4   9
HETATM    9  O   UNL     1      -9.835   9.128  72.208  1.00  0.00    -0.159 OA 
HETATM   10  C   UNL     1     -11.006   9.364  71.424  1.00  0.00    -0.373 C  
ENDBRANCH   4   9
BRANCH   6  11
HETATM   11  C   UNL     1      -9.712   6.267  73.140  1.00  0.00    -0.159 C  
BRANCH  11  12
HETATM   12  S   UNL     1     -11.199   5.602  72.340  1.00  0.00    -0.262 S  
HETATM   13  O   UNL     1     -12.149   6.705  71.970  1.00  0.00    -0.321 OA 
BRANCH  12  14
HETATM   14  C   UNL     1     -10.486   5.077  70.852  1.00  0.00    -0.142 A  
HETATM   15  N   UNL     1      -9.816   3.959  70.670  1.00  0.00    -0.174 NA 
HETATM   16  C   UNL     1      -9.564   3.914  69.316  1.00  0.00    -0.162 A  
HETATM   17  H   UNL     1      -9.543   3.276  71.376  1.00  0.00     0.000 HD 
HETATM   18  C   UNL     1     -10.064   5.042  68.675  1.00  0.00    -0.121 A  
HETATM   19  N   UNL     1     -10.630   5.776  69.683  1.00  0.00    -0.297 NA 
HETATM   20  C   UNL     1      -9.962   5.251  67.297  1.00  0.00    -0.207 A  
HETATM   21  C   UNL     1      -9.310   4.262  66.543  1.00  0.00    -0.167 A  
HETATM   22  C   UNL     1      -8.819   3.106  67.159  1.00  0.00    -0.155 A  
HETATM   23  C   UNL     1      -8.932   2.925  68.548  1.00  0.00    -0.192 A  
BRANCH  21  24
HETATM   24  O   UNL     1      -9.238   4.532  65.202  1.00  0.00    -0.147 OA 
HETATM   25  C   UNL     1      -8.189   5.400  64.805  1.00  0.00    -0.132 C  
HETATM   26  F   UNL     1      -7.054   4.675  64.649  1.00  0.00    -0.055 F  
HETATM   27  F   UNL     1      -8.512   5.888  63.580  1.00  0.00    -0.116 F  
ENDBRANCH  21  24
ENDBRANCH  12  14
ENDBRANCH  11  12
ENDBRANCH   6  11
ENDBRANCH   2   3
TORSDOF 6
ENDMDL
MODEL      258
REMARK 921   NORMALIZED FREE ENERGY PREDICTED BY IDOCK:   -3.04 KCAL/MOL
REMARK 922        TOTAL FREE ENERGY PREDICTED BY IDOCK:   -4.85 KCAL/MOL
REMARK 923 INTER-LIGAND FREE ENERGY PREDICTED BY IDOCK:   -4.21 KCAL/MOL
REMARK 924 INTRA-LIGAND FREE ENERGY PREDICTED BY IDOCK:   -0.64 KCAL/MOL
REMARK 927      BINDING AFFINITY PREDICTED BY RF-SCORE:    0.00 PKD
ROOT
HETATM    1  C   UNL     1     -12.371  11.553  63.133  1.00  0.00     0.143 C  
HETATM    2  O   UNL     1     -11.214  12.163  63.702  1.00  0.00    -0.395 OA 
ENDROOT
BRANCH   2   3
HETATM    3  C   UNL     1     -10.717  11.536  64.818  1.00  0.00    -0.306 A  
HETATM    4  C   UNL     1      -9.861  10.415  64.829  1.00  0.00    -0.340 A  
HETATM    5  C   UNL     1     -10.703  11.514  67.194  1.00  0.00    -0.254 A  
HETATM    6  C   UNL     1      -9.361   9.984  66.063  1.00  0.00    -0.174 A  
HETATM    7  C   UNL     1     -11.162  12.070  66.020  1.00  0.00    -0.385 A  
HETATM    8  N   UNL     1      -9.816  10.498  67.241  1.00  0.00    -0.172 NA 
BRANCH   4   9
HETATM    9  O   UNL     1      -9.498   9.878  63.618  1.00  0.00    -0.262 OA 
HETATM   10  C   UNL     1      -8.363  10.471  62.984  1.00  0.00    -0.158 C  
ENDBRANCH   4   9
BRANCH   6  11
HETATM   11  C   UNL     1      -8.240   8.986  66.204  1.00  0.00    -0.115 C  
BRANCH  11  12
HETATM   12  S   UNL     1      -8.813   7.293  65.889  1.00  0.00    -0.058 S  
HETATM   13  O   UNL     1      -7.832   6.545  65.034  1.00  0.00    -0.099 OA 
BRANCH  12  14
HETATM   14  C   UNL     1      -8.628   6.650  67.487  1.00  0.00    -0.120 A  
HETATM   15  N   UNL     1      -7.834   7.127  68.423  1.00  0.00    -0.120 NA 
HETATM   16  C   UNL     1      -8.122   6.380  69.545  1.00  0.00    -0.118 A  
HETATM   17  H   UNL     1      -7.155   7.883  68.337  1.00  0.00     0.000 HD 
HETATM   18  C   UNL     1      -9.084   5.414  69.270  1.00  0.00    -0.108 A  
HETATM   19  N   UNL     1      -9.373   5.597  67.944  1.00  0.00    -0.106 NA 
HETATM   20  C   UNL     1      -9.575   4.525  70.231  1.00  0.00    -0.263 A  
HETATM   21  C   UNL     1      -9.050   4.626  71.529  1.00  0.00    -0.135 A  
HETATM   22  C   UNL     1      -8.100   5.605  71.838  1.00  0.00    -0.115 A  
HETATM   23  C   UNL     1      -7.620   6.482  70.851  1.00  0.00    -0.089 A  
BRANCH  21  24
HETATM   24  O   UNL     1      -9.569   3.722  72.418  1.00  0.00    -0.125 OA 
HETATM   25  C   UNL     1     -10.261   2.624  71.844  1.00  0.00     0.010 C  
HETATM   26  F   UNL     1      -9.362   1.668  71.503  1.00  0.00    -0.117 F  
HETATM   27  F   UNL     1     -11.047   2.092  72.816  1.00  0.00    -0.227 F  
ENDBRANCH  21  24
ENDBRANCH  12  14
ENDBRANCH  11  12
ENDBRANCH   6  11
ENDBRANCH   2   3
TORSDOF 6
ENDMDL
MODEL      259
REMARK 921   NORMALIZED FREE ENERGY PREDICTED BY IDOCK:   -3.01 KCAL/MOL
REMARK 922        TOTAL FREE ENERGY PREDICTED BY IDOCK:   -4.82 KCAL/MOL
REMARK 923 INTER-LIGAND FREE ENERGY PREDICTED BY IDOCK:   -5.36 KCAL/MOL
REMARK 924 INTRA-LIGAND FREE ENERGY PREDICTED BY IDOCK:    0.54 KCAL/MOL
REMARK 927      BINDING AFFINITY PREDICTED BY RF-SCORE:    0.00 PKD
ROOT
HETATM    1  C   UNL     1     -13.065  15.463  70.719  1.00  0.00    -0.424 C  
HETATM    2  O   UNL     1     -12.573  16.240  69.628  1.00  0.00     0.104 OA 
ENDROOT
BRANCH   2   3
HETATM    3  C   UNL     1     -11.207  16.232  69.480  1.00  0.00    -0.308 A  
HETATM    4  C   UNL     1     -10.473  16.939  68.505  1.00  0.00    -0.361 A  
HETATM    5  C   UNL     1      -9.166  15.343  70.310  1.00  0.00     0.649 A  
HETATM    6  C   UNL     1      -9.076  16.902  68.583  1.00  0.00    -0.265 A  
HETATM    7  C   UNL     1     -10.541  15.404  70.373  1.00  0.00    -0.274 A  
HETATM    8  N   UNL     1      -8.427  16.073  69.448  1.00  0.00    -0.215 NA 
BRANCH   4   9
HETATM    9  O   UNL     1     -11.177  17.694  67.600  1.00  0.00    -0.081 OA 
HETATM   10  C   UNL     1     -10.963  19.106  67.661  1.00  0.00    -0.267 C  
ENDBRANCH   4   9
BRANCH   6  11
HETATM   11  C   UNL     1      -8.174  17.813  67.789  1.00  0.00    -0.227 C  
BRANCH  11  12
HETATM   12  S   UNL     1      -7.675  17.051  66.219  1.00  0.00    -0.264 S  
HETATM   13  O   UNL     1      -6.228  16.654  66.251  1.00  0.00    -0.189 OA 
BRANCH  12  14
HETATM   14  C   UNL     1      -8.570  15.574  66.346  1.00  0.00    -0.257 A  
HETATM   15  N   UNL     1      -9.720  15.316  65.760  1.00  0.00    -0.347 NA 
HETATM   16  C   UNL     1      -9.972  13.991  66.042  1.00  0.00    -0.315 A  
HETATM   17  H   UNL     1     -10.298  15.956  65.216  1.00  0.00     0.000 HD 
HETATM   18  C   UNL     1      -8.970  13.450  66.840  1.00  0.00    -0.209 A  
HETATM   19  N   UNL     1      -8.099  14.488  67.035  1.00  0.00    -0.160 NA 
HETATM   20  C   UNL     1      -8.964  12.118  67.267  1.00  0.00    -0.184 A  
HETATM   21  C   UNL     1     -10.037  11.309  66.864  1.00  0.00    -0.212 A  
HETATM   22  C   UNL     1     -11.045  11.821  66.040  1.00  0.00    -0.363 A  
HETATM   23  C   UNL     1     -11.029  13.165  65.631  1.00  0.00    -0.295 A  
BRANCH  21  24
HETATM   24  O   UNL     1      -9.972  10.019  67.321  1.00  0.00    -0.179 OA 
HETATM   25  C   UNL     1     -10.524   9.034  66.463  1.00  0.00    -0.122 C  
HETATM   26  F   UNL     1      -9.593   8.681  65.543  1.00  0.00    -0.252 F  
HETATM   27  F   UNL     1     -10.763   7.931  67.217  1.00  0.00    -0.338 F  
ENDBRANCH  21  24
ENDBRANCH  12  14
ENDBRANCH  11  12
ENDBRANCH   6  11
ENDBRANCH   2   3
TORSDOF 6
ENDMDL
MODEL      260
REMARK 921   NORMALIZED FREE ENERGY PREDICTED BY IDOCK:   -3.01 KCAL/MOL
REMARK 922        TOTAL FREE ENERGY PREDICTED BY IDOCK:   -4.82 KCAL/MOL
REMARK 923 INTER-LIGAND FREE ENERGY PREDICTED BY IDOCK:   -3.99 KCAL/MOL
REMARK 924 INTRA-LIGAND FREE ENERGY PREDICTED BY IDOCK:   -0.82 KCAL/MOL
REMARK 927      BINDING AFFINITY PREDICTED BY RF-SCORE:    0.00 PKD
ROOT
HETATM    1  C   UNL     1     -11.741  14.488  67.588  1.00  0.00    -0.382 C  
HETATM    2  O   UNL     1     -10.718  14.300  66.612  1.00  0.00    -0.285 OA 
ENDROOT
BRANCH   2   3
HETATM    3  C   UNL     1     -10.322  12.997  66.429  1.00  0.00    -0.281 A  
HETATM    4  C   UNL     1      -9.039  12.474  66.692  1.00  0.00    -0.203 A  
HETATM    5  C   UNL     1     -11.002  10.843  65.693  1.00  0.00     0.038 A  
HETATM    6  C   UNL     1      -8.854  11.094  66.556  1.00  0.00    -0.171 A  
HETATM    7  C   UNL     1     -11.304  12.172  65.897  1.00  0.00    -0.407 A  
HETATM    8  N   UNL     1      -9.813  10.291  66.014  1.00  0.00    -0.219 NA 
BRANCH   4   9
HETATM    9  O   UNL     1      -8.080  13.341  67.155  1.00  0.00    -0.164 OA 
HETATM   10  C   UNL     1      -8.247  13.800  68.498  1.00  0.00    -0.124 C  
ENDBRANCH   4   9
BRANCH   6  11
HETATM   11  C   UNL     1      -7.633  10.364  67.055  1.00  0.00    -0.101 C  
BRANCH  11  12
HETATM   12  S   UNL     1      -7.773   9.964  68.820  1.00  0.00    -0.090 S  
HETATM   13  O   UNL     1      -9.047  10.510  69.395  1.00  0.00    -0.181 OA 
BRANCH  12  14
HETATM   14  C   UNL     1      -8.015   8.254  68.685  1.00  0.00    -0.122 A  
HETATM   15  N   UNL     1      -8.614   7.488  69.571  1.00  0.00    -0.133 NA 
HETATM   16  C   UNL     1      -8.685   6.247  68.976  1.00  0.00    -0.125 A  
HETATM   17  H   UNL     1      -8.953   7.754  70.496  1.00  0.00     0.000 HD 
HETATM   18  C   UNL     1      -8.088   6.259  67.720  1.00  0.00    -0.114 A  
HETATM   19  N   UNL     1      -7.651   7.548  67.570  1.00  0.00    -0.110 NA 
HETATM   20  C   UNL     1      -8.028   5.138  66.888  1.00  0.00    -0.104 A  
HETATM   21  C   UNL     1      -8.600   3.949  67.368  1.00  0.00    -0.102 A  
HETATM   22  C   UNL     1      -9.229   3.915  68.616  1.00  0.00    -0.211 A  
HETATM   23  C   UNL     1      -9.269   5.057  69.435  1.00  0.00    -0.156 A  
BRANCH  21  24
HETATM   24  O   UNL     1      -8.501   2.889  66.506  1.00  0.00    -0.092 OA 
HETATM   25  C   UNL     1      -7.467   2.977  65.539  1.00  0.00    -0.073 C  
HETATM   26  F   UNL     1      -6.308   2.545  66.094  1.00  0.00    -0.023 F  
HETATM   27  F   UNL     1      -7.772   2.106  64.543  1.00  0.00    -0.063 F  
ENDBRANCH  21  24
ENDBRANCH  12  14
ENDBRANCH  11  12
ENDBRANCH   6  11
ENDBRANCH   2   3
TORSDOF 6
ENDMDL
MODEL      261
REMARK 921   NORMALIZED FREE ENERGY PREDICTED BY IDOCK:   -3.01 KCAL/MOL
REMARK 922        TOTAL FREE ENERGY PREDICTED BY IDOCK:   -4.81 KCAL/MOL
REMARK 923 INTER-LIGAND FREE ENERGY PREDICTED BY IDOCK:   -4.27 KCAL/MOL
REMARK 924 INTRA-LIGAND FREE ENERGY PREDICTED BY IDOCK:   -0.54 KCAL/MOL
REMARK 927      BINDING AFFINITY PREDICTED BY RF-SCORE:    0.00 PKD
ROOT
HETATM    1  C   UNL     1      -6.366  18.360  65.079  1.00  0.00     0.005 C  
HETATM    2  O   UNL     1      -7.745  18.186  65.404  1.00  0.00    -0.334 OA 
ENDROOT
BRANCH   2   3
HETATM    3  C   UNL     1      -8.034  17.048  66.118  1.00  0.00    -0.264 A  
HETATM    4  C   UNL     1      -9.320  16.605  66.490  1.00  0.00    -0.265 A  
HETATM    5  C   UNL     1      -7.110  15.161  67.228  1.00  0.00    -0.126 A  
HETATM    6  C   UNL     1      -9.428  15.358  67.116  1.00  0.00    -0.213 A  
HETATM    7  C   UNL     1      -6.917  16.327  66.518  1.00  0.00     0.105 A  
HETATM    8  N   UNL     1      -8.329  14.663  67.525  1.00  0.00    -0.176 NA 
BRANCH   4   9
HETATM    9  O   UNL     1     -10.392  17.385  66.130  1.00  0.00    -0.355 OA 
HETATM   10  C   UNL     1     -10.893  17.187  64.806  1.00  0.00     0.409 C  
ENDBRANCH   4   9
BRANCH   6  11
HETATM   11  C   UNL     1     -10.738  14.642  67.323  1.00  0.00    -0.290 C  
BRANCH  11  12
HETATM   12  S   UNL     1     -11.227  13.708  65.846  1.00  0.00    -0.308 S  
HETATM   13  O   UNL     1     -10.578  14.272  64.615  1.00  0.00    -0.421 OA 
BRANCH  12  14
HETATM   14  C   UNL     1     -10.392  12.228  66.180  1.00  0.00    -0.242 A  
HETATM   15  N   UNL     1      -9.919  11.857  67.351  1.00  0.00    -0.189 NA 
HETATM   16  C   UNL     1      -9.464  10.571  67.157  1.00  0.00    -0.159 A  
HETATM   17  H   UNL     1      -9.894  12.402  68.213  1.00  0.00     0.000 HD 
HETATM   18  C   UNL     1      -9.637  10.172  65.837  1.00  0.00    -0.218 A  
HETATM   19  N   UNL     1     -10.213  11.257  65.232  1.00  0.00    -0.261 NA 
HETATM   20  C   UNL     1      -9.277   8.907  65.364  1.00  0.00    -0.202 A  
HETATM   21  C   UNL     1      -8.705   8.014  66.285  1.00  0.00    -0.153 A  
HETATM   22  C   UNL     1      -8.542   8.381  67.624  1.00  0.00    -0.130 A  
HETATM   23  C   UNL     1      -8.909   9.662  68.071  1.00  0.00    -0.119 A  
BRANCH  21  24
HETATM   24  O   UNL     1      -8.369   6.797  65.754  1.00  0.00    -0.132 OA 
HETATM   25  C   UNL     1      -7.846   6.824  64.436  1.00  0.00    -0.113 C  
HETATM   26  F   UNL     1      -6.517   7.087  64.496  1.00  0.00    -0.035 F  
HETATM   27  F   UNL     1      -7.973   5.572  63.927  1.00  0.00    -0.088 F  
ENDBRANCH  21  24
ENDBRANCH  12  14
ENDBRANCH  11  12
ENDBRANCH   6  11
ENDBRANCH   2   3
TORSDOF 6
ENDMDL
MODEL      262
REMARK 921   NORMALIZED FREE ENERGY PREDICTED BY IDOCK:   -2.87 KCAL/MOL
REMARK 922        TOTAL FREE ENERGY PREDICTED BY IDOCK:   -4.62 KCAL/MOL
REMARK 923 INTER-LIGAND FREE ENERGY PREDICTED BY IDOCK:   -4.05 KCAL/MOL
REMARK 924 INTRA-LIGAND FREE ENERGY PREDICTED BY IDOCK:   -0.57 KCAL/MOL
REMARK 927      BINDING AFFINITY PREDICTED BY RF-SCORE:    0.00 PKD
ROOT
HETATM    1  C   UNL     1     -10.085   6.562  67.257  1.00  0.00    -0.164 C  
HETATM    2  O   UNL     1     -10.131   7.922  67.684  1.00  0.00    -0.175 OA 
ENDROOT
BRANCH   2   3
HETATM    3  C   UNL     1      -9.133   8.722  67.182  1.00  0.00    -0.132 A  
HETATM    4  C   UNL     1      -9.110  10.132  67.201  1.00  0.00    -0.135 A  
HETATM    5  C   UNL     1      -7.041   8.746  66.055  1.00  0.00    -0.084 A  
HETATM    6  C   UNL     1      -7.952  10.774  66.747  1.00  0.00    -0.138 A  
HETATM    7  C   UNL     1      -8.096   8.027  66.576  1.00  0.00    -0.103 A  
HETATM    8  N   UNL     1      -6.945  10.090  66.134  1.00  0.00    -0.101 NA 
BRANCH   4   9
HETATM    9  O   UNL     1     -10.188  10.780  67.751  1.00  0.00    -0.172 OA 
HETATM   10  C   UNL     1     -11.158  11.279  66.827  1.00  0.00    -0.250 C  
ENDBRANCH   4   9
BRANCH   6  11
HETATM   11  C   UNL     1      -7.678  12.242  66.956  1.00  0.00    -0.089 C  
BRANCH  11  12
HETATM   12  S   UNL     1      -7.304  12.607  68.694  1.00  0.00    -0.073 S  
HETATM   13  O   UNL     1      -5.925  12.136  69.057  1.00  0.00    -0.061 OA 
BRANCH  12  14
HETATM   14  C   UNL     1      -7.197  14.332  68.584  1.00  0.00    -0.125 A  
HETATM   15  N   UNL     1      -7.005  15.158  69.592  1.00  0.00    -0.184 NA 
HETATM   16  C   UNL     1      -6.859  16.399  69.009  1.00  0.00    -0.198 A  
HETATM   17  H   UNL     1      -6.972  14.930  70.585  1.00  0.00     0.000 HD 
HETATM   18  C   UNL     1      -6.998  16.322  67.627  1.00  0.00    -0.144 A  
HETATM   19  N   UNL     1      -7.232  14.995  67.387  1.00  0.00    -0.204 NA 
HETATM   20  C   UNL     1      -6.882  17.430  66.782  1.00  0.00    -0.247 A  
HETATM   21  C   UNL     1      -6.622  18.672  67.382  1.00  0.00    -0.197 A  
HETATM   22  C   UNL     1      -6.453  18.773  68.766  1.00  0.00    -0.270 A  
HETATM   23  C   UNL     1      -6.580  17.643  69.593  1.00  0.00    -0.078 A  
BRANCH  21  24
HETATM   24  O   UNL     1      -6.528  19.715  66.498  1.00  0.00    -0.181 OA 
HETATM   25  C   UNL     1      -5.315  19.793  65.767  1.00  0.00    -0.155 C  
HETATM   26  F   UNL     1      -5.399  18.976  64.688  1.00  0.00    -0.182 F  
HETATM   27  F   UNL     1      -5.213  21.060  65.290  1.00  0.00    -0.214 F  
ENDBRANCH  21  24
ENDBRANCH  12  14
ENDBRANCH  11  12
ENDBRANCH   6  11
ENDBRANCH   2   3
TORSDOF 6
ENDMDL
MODEL      263
REMARK 921   NORMALIZED FREE ENERGY PREDICTED BY IDOCK:   -2.81 KCAL/MOL
REMARK 922        TOTAL FREE ENERGY PREDICTED BY IDOCK:   -4.54 KCAL/MOL
REMARK 923 INTER-LIGAND FREE ENERGY PREDICTED BY IDOCK:   -5.19 KCAL/MOL
REMARK 924 INTRA-LIGAND FREE ENERGY PREDICTED BY IDOCK:    0.65 KCAL/MOL
REMARK 927      BINDING AFFINITY PREDICTED BY RF-SCORE:    0.00 PKD
ROOT
HETATM    1  C   UNL     1      -6.119   4.144  73.221  1.00  0.00    -0.016 C  
HETATM    2  O   UNL     1      -7.004   5.038  73.893  1.00  0.00    -0.077 OA 
ENDROOT
BRANCH   2   3
HETATM    3  C   UNL     1      -7.626   5.956  73.083  1.00  0.00    -0.098 A  
HETATM    4  C   UNL     1      -7.819   5.841  71.690  1.00  0.00    -0.109 A  
HETATM    5  C   UNL     1      -8.700   8.075  73.010  1.00  0.00    -0.219 A  
HETATM    6  C   UNL     1      -8.581   6.825  71.050  1.00  0.00    -0.136 A  
HETATM    7  C   UNL     1      -8.050   7.103  73.740  1.00  0.00    -0.137 A  
HETATM    8  N   UNL     1      -8.978   7.958  71.695  1.00  0.00    -0.131 NA 
BRANCH   4   9
HETATM    9  O   UNL     1      -7.325   4.720  71.069  1.00  0.00    -0.056 OA 
HETATM   10  C   UNL     1      -8.235   3.626  70.935  1.00  0.00    -0.066 C  
ENDBRANCH   4   9
BRANCH   6  11
HETATM   11  C   UNL     1      -9.092   6.693  69.637  1.00  0.00    -0.142 C  
BRANCH  11  12
HETATM   12  S   UNL     1     -10.906   6.699  69.584  1.00  0.00    -0.315 S  
HETATM   13  O   UNL     1     -11.485   6.486  70.953  1.00  0.00    -0.312 OA 
BRANCH  12  14
HETATM   14  C   UNL     1     -11.155   8.375  69.226  1.00  0.00     0.162 A  
HETATM   15  N   UNL     1     -11.540   9.297  70.082  1.00  0.00    -0.450 NA 
HETATM   16  C   UNL     1     -11.470  10.482  69.381  1.00  0.00    -0.262 A  
HETATM   17  H   UNL     1     -11.826   9.165  71.052  1.00  0.00     0.000 HD 
HETATM   18  C   UNL     1     -11.067  10.264  68.068  1.00  0.00    -0.274 A  
HETATM   19  N   UNL     1     -10.892   8.908  67.992  1.00  0.00    -0.091 NA 
HETATM   20  C   UNL     1     -10.898  11.292  67.137  1.00  0.00    -0.321 A  
HETATM   21  C   UNL     1     -11.163  12.602  67.568  1.00  0.00    -0.288 A  
HETATM   22  C   UNL     1     -11.546  12.851  68.890  1.00  0.00    -0.360 A  
HETATM   23  C   UNL     1     -11.713  11.797  69.804  1.00  0.00    -0.408 A  
BRANCH  21  24
HETATM   24  O   UNL     1     -10.984  13.559  66.605  1.00  0.00    -0.285 OA 
HETATM   25  C   UNL     1     -10.703  14.865  67.081  1.00  0.00    -0.296 C  
HETATM   26  F   UNL     1      -9.374  14.966  67.329  1.00  0.00    -0.189 F  
HETATM   27  F   UNL     1     -10.977  15.730  66.070  1.00  0.00    -0.319 F  
ENDBRANCH  21  24
ENDBRANCH  12  14
ENDBRANCH  11  12
ENDBRANCH   6  11
ENDBRANCH   2   3
TORSDOF 6
ENDMDL
MODEL      264
REMARK 921   NORMALIZED FREE ENERGY PREDICTED BY IDOCK:   -2.79 KCAL/MOL
REMARK 922        TOTAL FREE ENERGY PREDICTED BY IDOCK:   -4.52 KCAL/MOL
REMARK 923 INTER-LIGAND FREE ENERGY PREDICTED BY IDOCK:   -4.47 KCAL/MOL
REMARK 924 INTRA-LIGAND FREE ENERGY PREDICTED BY IDOCK:   -0.05 KCAL/MOL
REMARK 927      BINDING AFFINITY PREDICTED BY RF-SCORE:    0.00 PKD
ROOT
HETATM    1  C   UNL     1     -11.996  14.589  69.441  1.00  0.00    -0.322 C  
HETATM    2  O   UNL     1     -11.843  13.965  68.168  1.00  0.00    -0.339 OA 
ENDROOT
BRANCH   2   3
HETATM    3  C   UNL     1     -10.575  13.518  67.889  1.00  0.00    -0.248 A  
HETATM    4  C   UNL     1     -10.185  12.173  67.727  1.00  0.00    -0.201 A  
HETATM    5  C   UNL     1      -8.320  14.171  67.518  1.00  0.00    -0.185 A  
HETATM    6  C   UNL     1      -8.868  11.916  67.328  1.00  0.00    -0.179 A  
HETATM    7  C   UNL     1      -9.621  14.524  67.810  1.00  0.00    -0.215 A  
HETATM    8  N   UNL     1      -7.930  12.903  67.271  1.00  0.00    -0.170 NA 
BRANCH   4   9
HETATM    9  O   UNL     1     -11.148  11.207  67.879  1.00  0.00    -0.230 OA 
HETATM   10  C   UNL     1     -11.785  11.153  69.158  1.00  0.00    -0.338 C  
ENDBRANCH   4   9
BRANCH   6  11
HETATM   11  C   UNL     1      -8.388  10.566  66.859  1.00  0.00    -0.126 C  
BRANCH  11  12
HETATM   12  S   UNL     1      -7.072   9.919  67.928  1.00  0.00    -0.087 S  
HETATM   13  O   UNL     1      -6.730  10.899  69.012  1.00  0.00    -0.058 OA 
BRANCH  12  14
HETATM   14  C   UNL     1      -7.960   8.651  68.704  1.00  0.00    -0.115 A  
HETATM   15  N   UNL     1      -9.163   8.234  68.367  1.00  0.00    -0.136 NA 
HETATM   16  C   UNL     1      -9.395   7.139  69.171  1.00  0.00    -0.141 A  
HETATM   17  H   UNL     1      -9.785   8.633  67.664  1.00  0.00     0.000 HD 
HETATM   18  C   UNL     1      -8.327   6.913  70.031  1.00  0.00    -0.139 A  
HETATM   19  N   UNL     1      -7.434   7.906  69.725  1.00  0.00    -0.086 NA 
HETATM   20  C   UNL     1      -8.289   5.859  70.948  1.00  0.00    -0.126 A  
HETATM   21  C   UNL     1      -9.401   5.003  70.991  1.00  0.00    -0.152 A  
HETATM   22  C   UNL     1     -10.478   5.192  70.119  1.00  0.00    -0.305 A  
HETATM   23  C   UNL     1     -10.492   6.265  69.211  1.00  0.00    -0.298 A  
BRANCH  21  24
HETATM   24  O   UNL     1      -9.302   3.996  71.914  1.00  0.00    -0.120 OA 
HETATM   25  C   UNL     1      -8.389   2.958  71.596  1.00  0.00    -0.064 C  
HETATM   26  F   UNL     1      -7.144   3.335  71.975  1.00  0.00    -0.033 F  
HETATM   27  F   UNL     1      -8.720   1.884  72.358  1.00  0.00    -0.058 F  
ENDBRANCH  21  24
ENDBRANCH  12  14
ENDBRANCH  11  12
ENDBRANCH   6  11
ENDBRANCH   2   3
TORSDOF 6
ENDMDL
MODEL      265
REMARK 921   NORMALIZED FREE ENERGY PREDICTED BY IDOCK:   -2.70 KCAL/MOL
REMARK 922        TOTAL FREE ENERGY PREDICTED BY IDOCK:   -4.40 KCAL/MOL
REMARK 923 INTER-LIGAND FREE ENERGY PREDICTED BY IDOCK:   -3.80 KCAL/MOL
REMARK 924 INTRA-LIGAND FREE ENERGY PREDICTED BY IDOCK:   -0.60 KCAL/MOL
REMARK 927      BINDING AFFINITY PREDICTED BY RF-SCORE:    0.00 PKD
ROOT
HETATM    1  C   UNL     1     -11.960   7.894  70.486  1.00  0.00     0.046 C  
HETATM    2  O   UNL     1     -11.030   8.897  70.892  1.00  0.00    -0.238 OA 
ENDROOT
BRANCH   2   3
HETATM    3  C   UNL     1     -11.048  10.045  70.138  1.00  0.00    -0.310 A  
HETATM    4  C   UNL     1     -10.248  10.308  69.007  1.00  0.00    -0.210 A  
HETATM    5  C   UNL     1     -12.021  12.199  69.896  1.00  0.00    -0.309 A  
HETATM    6  C   UNL     1     -10.489  11.488  68.294  1.00  0.00    -0.197 A  
HETATM    7  C   UNL     1     -11.924  11.017  70.599  1.00  0.00    -0.464 A  
HETATM    8  N   UNL     1     -11.335  12.449  68.761  1.00  0.00    -0.270 NA 
BRANCH   4   9
HETATM    9  O   UNL     1      -9.347   9.344  68.624  1.00  0.00    -0.140 OA 
HETATM   10  C   UNL     1      -9.858   8.309  67.782  1.00  0.00    -0.170 C  
ENDBRANCH   4   9
BRANCH   6  11
HETATM   11  C   UNL     1      -9.908  11.771  66.931  1.00  0.00    -0.203 C  
BRANCH  11  12
HETATM   12  S   UNL     1      -8.126  12.099  67.023  1.00  0.00    -0.118 S  
HETATM   13  O   UNL     1      -7.614  11.901  68.421  1.00  0.00    -0.107 OA 
BRANCH  12  14
HETATM   14  C   UNL     1      -7.559  10.735  66.119  1.00  0.00    -0.139 A  
HETATM   15  N   UNL     1      -6.376  10.169  66.237  1.00  0.00    -0.078 NA 
HETATM   16  C   UNL     1      -6.433   9.058  65.423  1.00  0.00    -0.067 A  
HETATM   17  H   UNL     1      -5.591  10.484  66.805  1.00  0.00     0.000 HD 
HETATM   18  C   UNL     1      -7.662   8.972  64.778  1.00  0.00    -0.109 A  
HETATM   19  N   UNL     1      -8.353  10.066  65.226  1.00  0.00    -0.146 NA 
HETATM   20  C   UNL     1      -7.998   7.935  63.903  1.00  0.00    -0.121 A  
HETATM   21  C   UNL     1      -7.027   6.947  63.672  1.00  0.00    -0.057 A  
HETATM   22  C   UNL     1      -5.792   6.997  64.327  1.00  0.00    -0.036 A  
HETATM   23  C   UNL     1      -5.479   8.054  65.198  1.00  0.00    -0.036 A  
BRANCH  21  24
HETATM   24  O   UNL     1      -7.418   5.966  62.800  1.00  0.00    -0.051 OA 
HETATM   25  C   UNL     1      -7.726   4.711  63.386  1.00  0.00    -0.068 C  
HETATM   26  F   UNL     1      -9.007   4.734  63.828  1.00  0.00    -0.142 F  
HETATM   27  F   UNL     1      -7.671   3.781  62.398  1.00  0.00    -0.055 F  
ENDBRANCH  21  24
ENDBRANCH  12  14
ENDBRANCH  11  12
ENDBRANCH   6  11
ENDBRANCH   2   3
TORSDOF 6
ENDMDL
MODEL      266
REMARK 921   NORMALIZED FREE ENERGY PREDICTED BY IDOCK:   -2.64 KCAL/MOL
REMARK 922        TOTAL FREE ENERGY PREDICTED BY IDOCK:   -4.31 KCAL/MOL
REMARK 923 INTER-LIGAND FREE ENERGY PREDICTED BY IDOCK:   -3.51 KCAL/MOL
REMARK 924 INTRA-LIGAND FREE ENERGY PREDICTED BY IDOCK:   -0.81 KCAL/MOL
REMARK 927      BINDING AFFINITY PREDICTED BY RF-SCORE:    0.00 PKD
ROOT
HETATM    1  C   UNL     1     -10.456  11.802  68.487  1.00  0.00    -0.215 C  
HETATM    2  O   UNL     1     -10.499  10.376  68.520  1.00  0.00    -0.167 OA 
ENDROOT
BRANCH   2   3
HETATM    3  C   UNL     1      -9.312   9.767  68.848  1.00  0.00    -0.158 A  
HETATM    4  C   UNL     1      -8.456   9.083  67.960  1.00  0.00    -0.125 A  
HETATM    5  C   UNL     1      -7.813   9.254  70.619  1.00  0.00    -0.158 A  
HETATM    6  C   UNL     1      -7.229   8.627  68.454  1.00  0.00    -0.085 A  
HETATM    7  C   UNL     1      -8.995   9.826  70.198  1.00  0.00    -0.235 A  
HETATM    8  N   UNL     1      -6.930   8.669  69.784  1.00  0.00    -0.046 NA 
BRANCH   4   9
HETATM    9  O   UNL     1      -8.842   8.992  66.646  1.00  0.00    -0.126 OA 
HETATM   10  C   UNL     1      -9.821   7.994  66.348  1.00  0.00    -0.167 C  
ENDBRANCH   4   9
BRANCH   6  11
HETATM   11  C   UNL     1      -6.111   8.127  67.574  1.00  0.00    -0.051 C  
BRANCH  11  12
HETATM   12  S   UNL     1      -5.380   9.472  66.600  1.00  0.00    -0.045 S  
HETATM   13  O   UNL     1      -6.124   9.669  65.311  1.00  0.00    -0.064 OA 
BRANCH  12  14
HETATM   14  C   UNL     1      -5.831  10.805  67.610  1.00  0.00    -0.043 A  
HETATM   15  N   UNL     1      -5.381  11.039  68.825  1.00  0.00    -0.041 NA 
HETATM   16  C   UNL     1      -5.913  12.263  69.170  1.00  0.00    -0.080 A  
HETATM   17  H   UNL     1      -4.773  10.444  69.388  1.00  0.00     0.000 HD 
HETATM   18  C   UNL     1      -6.724  12.760  68.156  1.00  0.00    -0.092 A  
HETATM   19  N   UNL     1      -6.669  11.800  67.181  1.00  0.00    -0.135 NA 
HETATM   20  C   UNL     1      -7.380  13.992  68.232  1.00  0.00    -0.115 A  
HETATM   21  C   UNL     1      -7.203  14.743  69.405  1.00  0.00    -0.168 A  
HETATM   22  C   UNL     1      -6.373  14.278  70.430  1.00  0.00    -0.128 A  
HETATM   23  C   UNL     1      -5.730  13.032  70.328  1.00  0.00    -0.159 A  
BRANCH  21  24
HETATM   24  O   UNL     1      -7.879  15.935  69.417  1.00  0.00    -0.229 OA 
HETATM   25  C   UNL     1      -9.110  15.951  68.712  1.00  0.00    -0.219 C  
HETATM   26  F   UNL     1     -10.085  15.469  69.521  1.00  0.00    -0.207 F  
HETATM   27  F   UNL     1      -9.415  17.250  68.465  1.00  0.00    -0.247 F  
ENDBRANCH  21  24
ENDBRANCH  12  14
ENDBRANCH  11  12
ENDBRANCH   6  11
ENDBRANCH   2   3
TORSDOF 6
ENDMDL
MODEL      267
REMARK 921   NORMALIZED FREE ENERGY PREDICTED BY IDOCK:   -2.33 KCAL/MOL
REMARK 922        TOTAL FREE ENERGY PREDICTED BY IDOCK:   -3.89 KCAL/MOL
REMARK 923 INTER-LIGAND FREE ENERGY PREDICTED BY IDOCK:   -3.93 KCAL/MOL
REMARK 924 INTRA-LIGAND FREE ENERGY PREDICTED BY IDOCK:    0.03 KCAL/MOL
REMARK 927      BINDING AFFINITY PREDICTED BY RF-SCORE:    0.00 PKD
ROOT
HETATM    1  C   UNL     1      -7.199   7.388  62.646  1.00  0.00    -0.084 C  
HETATM    2  O   UNL     1      -6.450   6.981  63.789  1.00  0.00    -0.042 OA 
ENDROOT
BRANCH   2   3
HETATM    3  C   UNL     1      -6.561   7.807  64.880  1.00  0.00    -0.047 A  
HETATM    4  C   UNL     1      -7.686   7.924  65.723  1.00  0.00    -0.090 A  
HETATM    5  C   UNL     1      -5.464   9.460  66.189  1.00  0.00    -0.044 A  
HETATM    6  C   UNL     1      -7.573   8.734  66.859  1.00  0.00    -0.090 A  
HETATM    7  C   UNL     1      -5.449   8.608  65.106  1.00  0.00    -0.039 A  
HETATM    8  N   UNL     1      -6.488   9.533  67.065  1.00  0.00    -0.066 NA 
BRANCH   4   9
HETATM    9  O   UNL     1      -8.789   7.162  65.424  1.00  0.00    -0.044 OA 
HETATM   10  C   UNL     1      -8.796   5.835  65.956  1.00  0.00    -0.148 C  
ENDBRANCH   4   9
BRANCH   6  11
HETATM   11  C   UNL     1      -8.582   8.743  67.979  1.00  0.00    -0.134 C  
BRANCH  11  12
HETATM   12  S   UNL     1     -10.282   8.723  67.342  1.00  0.00    -0.273 S  
HETATM   13  O   UNL     1     -11.212   8.059  68.315  1.00  0.00     0.286 OA 
BRANCH  12  14
HETATM   14  C   UNL     1     -10.623  10.418  67.450  1.00  0.00    -0.269 A  
HETATM   15  N   UNL     1     -11.368  10.997  68.368  1.00  0.00    -0.270 NA 
HETATM   16  C   UNL     1     -11.241  12.348  68.125  1.00  0.00    -0.265 A  
HETATM   17  H   UNL     1     -11.918  10.546  69.098  1.00  0.00     0.000 HD 
HETATM   18  C   UNL     1     -10.431  12.584  67.020  1.00  0.00    -0.231 A  
HETATM   19  N   UNL     1     -10.067  11.334  66.598  1.00  0.00    -0.208 NA 
HETATM   20  C   UNL     1     -10.119  13.866  66.557  1.00  0.00    -0.286 A  
HETATM   21  C   UNL     1     -10.671  14.953  67.253  1.00  0.00    -0.294 A  
HETATM   22  C   UNL     1     -11.469  14.745  68.382  1.00  0.00    -0.336 A  
HETATM   23  C   UNL     1     -11.770  13.444  68.822  1.00  0.00    -0.377 A  
BRANCH  21  24
HETATM   24  O   UNL     1     -10.331  16.178  66.743  1.00  0.00    -0.282 OA 
HETATM   25  C   UNL     1      -9.665  16.160  65.490  1.00  0.00    -0.088 C  
HETATM   26  F   UNL     1     -10.591  16.082  64.502  1.00  0.00    -0.362 F  
HETATM   27  F   UNL     1      -9.043  17.358  65.347  1.00  0.00     0.155 F  
ENDBRANCH  21  24
ENDBRANCH  12  14
ENDBRANCH  11  12
ENDBRANCH   6  11
ENDBRANCH   2   3
TORSDOF 6
ENDMDL
MODEL      268
REMARK 921   NORMALIZED FREE ENERGY PREDICTED BY IDOCK:   -2.28 KCAL/MOL
REMARK 922        TOTAL FREE ENERGY PREDICTED BY IDOCK:   -3.82 KCAL/MOL
REMARK 923 INTER-LIGAND FREE ENERGY PREDICTED BY IDOCK:   -5.77 KCAL/MOL
REMARK 924 INTRA-LIGAND FREE ENERGY PREDICTED BY IDOCK:    1.95 KCAL/MOL
REMARK 927      BINDING AFFINITY PREDICTED BY RF-SCORE:    0.00 PKD
ROOT
HETATM    1  C   UNL     1      -6.115  18.369  69.490  1.00  0.00    -0.255 C  
HETATM    2  O   UNL     1      -5.148  17.417  69.051  1.00  0.00    -0.147 OA 
ENDROOT
BRANCH   2   3
HETATM    3  C   UNL     1      -5.491  16.103  69.257  1.00  0.00    -0.115 A  
HETATM    4  C   UNL     1      -5.845  15.171  68.259  1.00  0.00    -0.121 A  
HETATM    5  C   UNL     1      -5.832  14.415  70.894  1.00  0.00    -0.195 A  
HETATM    6  C   UNL     1      -6.050  13.842  68.648  1.00  0.00    -0.088 A  
HETATM    7  C   UNL     1      -5.513  15.722  70.591  1.00  0.00    -0.117 A  
HETATM    8  N   UNL     1      -6.091  13.476  69.960  1.00  0.00    -0.139 NA 
BRANCH   4   9
HETATM    9  O   UNL     1      -5.874  15.609  66.958  1.00  0.00    -0.294 OA 
HETATM   10  C   UNL     1      -5.323  16.906  66.722  1.00  0.00    -0.105 C  
ENDBRANCH   4   9
BRANCH   6  11
HETATM   11  C   UNL     1      -6.166  12.698  67.672  1.00  0.00    -0.148 C  
BRANCH  11  12
HETATM   12  S   UNL     1      -7.863  12.060  67.594  1.00  0.00    -0.161 S  
HETATM   13  O   UNL     1      -8.458  11.945  68.968  1.00  0.00     0.067 OA 
BRANCH  12  14
HETATM   14  C   UNL     1      -8.628  13.433  66.866  1.00  0.00    -0.100 A  
HETATM   15  N   UNL     1      -9.414  13.407  65.810  1.00  0.00    -0.487 NA 
HETATM   16  C   UNL     1      -9.882  14.698  65.686  1.00  0.00    -0.321 A  
HETATM   17  H   UNL     1      -9.629  12.608  65.214  1.00  0.00     0.000 HD 
HETATM   18  C   UNL     1      -9.342  15.522  66.667  1.00  0.00    -0.266 A  
HETATM   19  N   UNL     1      -8.530  14.693  67.393  1.00  0.00    -0.190 NA 
HETATM   20  C   UNL     1      -9.656  16.879  66.786  1.00  0.00    -0.273 A  
HETATM   21  C   UNL     1     -10.557  17.416  65.853  1.00  0.00    -0.200 A  
HETATM   22  C   UNL     1     -11.134  16.604  64.872  1.00  0.00    -0.137 A  
HETATM   23  C   UNL     1     -10.796  15.243  64.772  1.00  0.00    -0.379 A  
BRANCH  21  24
HETATM   24  O   UNL     1     -10.814  18.751  66.023  1.00  0.00    -0.320 OA 
HETATM   25  C   UNL     1      -9.800  19.494  66.679  1.00  0.00    -0.394 C  
HETATM   26  F   UNL     1      -8.865  19.861  65.768  1.00  0.00    -0.367 F  
HETATM   27  F   UNL     1     -10.370  20.639  67.135  1.00  0.00    -0.520 F  
ENDBRANCH  21  24
ENDBRANCH  12  14
ENDBRANCH  11  12
ENDBRANCH   6  11
ENDBRANCH   2   3
TORSDOF 6
ENDMDL
MODEL      269
REMARK 921   NORMALIZED FREE ENERGY PREDICTED BY IDOCK:   -2.26 KCAL/MOL
REMARK 922        TOTAL FREE ENERGY PREDICTED BY IDOCK:   -3.81 KCAL/MOL
REMARK 923 INTER-LIGAND FREE ENERGY PREDICTED BY IDOCK:   -3.86 KCAL/MOL
REMARK 924 INTRA-LIGAND FREE ENERGY PREDICTED BY IDOCK:    0.05 KCAL/MOL
REMARK 927      BINDING AFFINITY PREDICTED BY RF-SCORE:    0.00 PKD
ROOT
HETATM    1  C   UNL     1      -5.489  10.057  69.263  1.00  0.00    -0.034 C  
HETATM    2  O   UNL     1      -6.062  11.267  68.769  1.00  0.00    -0.043 OA 
ENDROOT
BRANCH   2   3
HETATM    3  C   UNL     1      -7.227  11.109  68.058  1.00  0.00    -0.079 A  
HETATM    4  C   UNL     1      -7.359  11.177  66.655  1.00  0.00    -0.145 A  
HETATM    5  C   UNL     1      -9.566  10.724  68.216  1.00  0.00    -0.166 A  
HETATM    6  C   UNL     1      -8.607  10.873  66.100  1.00  0.00    -0.169 A  
HETATM    7  C   UNL     1      -8.353  10.907  68.844  1.00  0.00    -0.139 A  
HETATM    8  N   UNL     1      -9.714  10.695  66.875  1.00  0.00    -0.175 NA 
BRANCH   4   9
HETATM    9  O   UNL     1      -6.230  11.444  65.921  1.00  0.00     0.024 OA 
HETATM   10  C   UNL     1      -5.242  10.413  65.893  1.00  0.00    -0.065 C  
ENDBRANCH   4   9
BRANCH   6  11
HETATM   11  C   UNL     1      -8.828  10.641  64.626  1.00  0.00    -0.177 C  
BRANCH  11  12
HETATM   12  S   UNL     1      -8.312   8.973  64.131  1.00  0.00    -0.158 S  
HETATM   13  O   UNL     1      -6.829   8.915  63.904  1.00  0.00    -0.087 OA 
BRANCH  12  14
HETATM   14  C   UNL     1      -8.588   8.154  65.632  1.00  0.00    -0.158 A  
HETATM   15  N   UNL     1      -7.674   7.871  66.536  1.00  0.00    -0.095 NA 
HETATM   16  C   UNL     1      -8.377   7.345  67.598  1.00  0.00    -0.118 A  
HETATM   17  H   UNL     1      -6.666   8.010  66.465  1.00  0.00     0.000 HD 
HETATM   18  C   UNL     1      -9.737   7.281  67.315  1.00  0.00    -0.158 A  
HETATM   19  N   UNL     1      -9.840   7.785  66.046  1.00  0.00     0.093 NA 
HETATM   20  C   UNL     1     -10.687   6.802  68.221  1.00  0.00    -0.290 A  
HETATM   21  C   UNL     1     -10.221   6.361  69.470  1.00  0.00    -0.189 A  
HETATM   22  C   UNL     1      -8.862   6.438  69.789  1.00  0.00    -0.142 A  
HETATM   23  C   UNL     1      -7.927   6.919  68.856  1.00  0.00    -0.116 A  
BRANCH  21  24
HETATM   24  O   UNL     1     -11.202   5.899  70.306  1.00  0.00    -0.332 OA 
HETATM   25  C   UNL     1     -11.634   6.805  71.308  1.00  0.00    -0.320 C  
HETATM   26  F   UNL     1     -12.570   7.632  70.779  1.00  0.00    -0.250 F  
HETATM   27  F   UNL     1     -12.256   6.076  72.270  1.00  0.00    -0.369 F  
ENDBRANCH  21  24
ENDBRANCH  12  14
ENDBRANCH  11  12
ENDBRANCH   6  11
ENDBRANCH   2   3
TORSDOF 6
ENDMDL
MODEL      270
REMARK 921   NORMALIZED FREE ENERGY PREDICTED BY IDOCK:   -2.21 KCAL/MOL
REMARK 922        TOTAL FREE ENERGY PREDICTED BY IDOCK:   -3.73 KCAL/MOL
REMARK 923 INTER-LIGAND FREE ENERGY PREDICTED BY IDOCK:   -5.51 KCAL/MOL
REMARK 924 INTRA-LIGAND FREE ENERGY PREDICTED BY IDOCK:    1.78 KCAL/MOL
REMARK 927      BINDING AFFINITY PREDICTED BY RF-SCORE:    0.00 PKD
ROOT
HETATM    1  C   UNL     1      -7.561  19.479  67.719  1.00  0.00    -0.272 C  
HETATM    2  O   UNL     1      -7.146  18.313  68.429  1.00  0.00    -0.239 OA 
ENDROOT
BRANCH   2   3
HETATM    3  C   UNL     1      -7.720  17.140  68.004  1.00  0.00    -0.189 A  
HETATM    4  C   UNL     1      -8.856  17.023  67.177  1.00  0.00    -0.218 A  
HETATM    5  C   UNL     1      -7.607  14.769  68.111  1.00  0.00    -0.119 A  
HETATM    6  C   UNL     1      -9.228  15.742  66.751  1.00  0.00    -0.243 A  
HETATM    7  C   UNL     1      -7.108  15.995  68.496  1.00  0.00    -0.132 A  
HETATM    8  N   UNL     1      -8.638  14.621  67.252  1.00  0.00    -0.201 NA 
BRANCH   4   9
HETATM    9  O   UNL     1      -9.469  18.182  66.767  1.00  0.00    -0.275 OA 
HETATM   10  C   UNL     1     -10.766  18.033  66.187  1.00  0.00    -0.131 C  
ENDBRANCH   4   9
BRANCH   6  11
HETATM   11  C   UNL     1     -10.240  15.488  65.663  1.00  0.00    -0.376 C  
BRANCH  11  12
HETATM   12  S   UNL     1     -11.470  14.256  66.175  1.00  0.00    -0.364 S  
HETATM   13  O   UNL     1     -12.780  14.484  65.477  1.00  0.00    -0.331 OA 
BRANCH  12  14
HETATM   14  C   UNL     1     -10.775  12.860  65.423  1.00  0.00    -0.285 A  
HETATM   15  N   UNL     1     -11.018  12.442  64.198  1.00  0.00    -0.336 NA 
HETATM   16  C   UNL     1     -10.148  11.390  64.005  1.00  0.00    -0.320 A  
HETATM   17  H   UNL     1     -11.699  12.814  63.538  1.00  0.00     0.000 HD 
HETATM   18  C   UNL     1      -9.391  11.150  65.146  1.00  0.00    -0.213 A  
HETATM   19  N   UNL     1      -9.826  12.090  66.041  1.00  0.00    -0.233 NA 
HETATM   20  C   UNL     1      -8.418  10.149  65.225  1.00  0.00    -0.165 A  
HETATM   21  C   UNL     1      -8.220   9.353  64.085  1.00  0.00    -0.158 A  
HETATM   22  C   UNL     1      -8.951   9.589  62.917  1.00  0.00    -0.230 A  
HETATM   23  C   UNL     1      -9.927  10.600  62.867  1.00  0.00    -0.185 A  
BRANCH  21  24
HETATM   24  O   UNL     1      -7.259   8.388  64.233  1.00  0.00    -0.086 OA 
HETATM   25  C   UNL     1      -7.555   7.131  63.647  1.00  0.00    -0.109 C  
HETATM   26  F   UNL     1      -7.219   7.168  62.334  1.00  0.00    -0.065 F  
HETATM   27  F   UNL     1      -6.743   6.213  64.232  1.00  0.00    -0.035 F  
ENDBRANCH  21  24
ENDBRANCH  12  14
ENDBRANCH  11  12
ENDBRANCH   6  11
ENDBRANCH   2   3
TORSDOF 6
ENDMDL
MODEL      271
REMARK 921   NORMALIZED FREE ENERGY PREDICTED BY IDOCK:   -2.07 KCAL/MOL
REMARK 922        TOTAL FREE ENERGY PREDICTED BY IDOCK:   -3.54 KCAL/MOL
REMARK 923 INTER-LIGAND FREE ENERGY PREDICTED BY IDOCK:   -3.26 KCAL/MOL
REMARK 924 INTRA-LIGAND FREE ENERGY PREDICTED BY IDOCK:   -0.29 KCAL/MOL
REMARK 927      BINDING AFFINITY PREDICTED BY RF-SCORE:    0.00 PKD
ROOT
HETATM    1  C   UNL     1     -10.476  20.630  65.044  1.00  0.00     1.153 C  
HETATM    2  O   UNL     1     -10.545  19.432  65.816  1.00  0.00    -0.496 OA 
ENDROOT
BRANCH   2   3
HETATM    3  C   UNL     1      -9.490  19.232  66.673  1.00  0.00    -0.344 A  
HETATM    4  C   UNL     1      -9.362  18.178  67.601  1.00  0.00    -0.260 A  
HETATM    5  C   UNL     1      -7.401  20.083  67.418  1.00  0.00    -0.270 A  
HETATM    6  C   UNL     1      -8.159  18.070  68.309  1.00  0.00    -0.291 A  
HETATM    7  C   UNL     1      -8.507  20.209  66.604  1.00  0.00    -0.343 A  
HETATM    8  N   UNL     1      -7.205  19.042  68.253  1.00  0.00    -0.266 NA 
BRANCH   4   9
HETATM    9  O   UNL     1     -10.390  17.270  67.681  1.00  0.00    -0.324 OA 
HETATM   10  C   UNL     1     -10.714  16.583  66.471  1.00  0.00    -0.144 C  
ENDBRANCH   4   9
BRANCH   6  11
HETATM   11  C   UNL     1      -7.777  16.860  69.121  1.00  0.00    -0.138 C  
BRANCH  11  12
HETATM   12  S   UNL     1      -6.098  16.295  68.725  1.00  0.00    -0.120 S  
HETATM   13  O   UNL     1      -5.193  16.422  69.916  1.00  0.00    -0.133 OA 
BRANCH  12  14
HETATM   14  C   UNL     1      -6.421  14.602  68.560  1.00  0.00    -0.089 A  
HETATM   15  N   UNL     1      -6.840  14.000  67.466  1.00  0.00    -0.228 NA 
HETATM   16  C   UNL     1      -6.825  12.657  67.775  1.00  0.00    -0.128 A  
HETATM   17  H   UNL     1      -7.115  14.432  66.585  1.00  0.00     0.000 HD 
HETATM   18  C   UNL     1      -6.421  12.449  69.088  1.00  0.00    -0.100 A  
HETATM   19  N   UNL     1      -6.189  13.709  69.571  1.00  0.00    -0.113 NA 
HETATM   20  C   UNL     1      -6.302  11.180  69.663  1.00  0.00    -0.119 A  
HETATM   21  C   UNL     1      -6.620  10.076  68.857  1.00  0.00    -0.049 A  
HETATM   22  C   UNL     1      -7.006  10.255  67.524  1.00  0.00    -0.085 A  
HETATM   23  C   UNL     1      -7.122  11.543  66.974  1.00  0.00    -0.147 A  
BRANCH  21  24
HETATM   24  O   UNL     1      -6.489   8.865  69.483  1.00  0.00    -0.042 OA 
HETATM   25  C   UNL     1      -7.136   7.772  68.851  1.00  0.00    -0.075 C  
HETATM   26  F   UNL     1      -6.326   7.281  67.882  1.00  0.00    -0.040 F  
HETATM   27  F   UNL     1      -7.271   6.792  69.780  1.00  0.00    -0.067 F  
ENDBRANCH  21  24
ENDBRANCH  12  14
ENDBRANCH  11  12
ENDBRANCH   6  11
ENDBRANCH   2   3
TORSDOF 6
ENDMDL
MODEL      272
REMARK 921   NORMALIZED FREE ENERGY PREDICTED BY IDOCK:   -1.72 KCAL/MOL
REMARK 922        TOTAL FREE ENERGY PREDICTED BY IDOCK:   -3.07 KCAL/MOL
REMARK 923 INTER-LIGAND FREE ENERGY PREDICTED BY IDOCK:   -4.87 KCAL/MOL
REMARK 924 INTRA-LIGAND FREE ENERGY PREDICTED BY IDOCK:    1.80 KCAL/MOL
REMARK 927      BINDING AFFINITY PREDICTED BY RF-SCORE:    0.00 PKD
ROOT
HETATM    1  C   UNL     1      -5.412   3.509  71.817  1.00  0.00    -0.008 C  
HETATM    2  O   UNL     1      -6.447   4.258  72.453  1.00  0.00    -0.020 OA 
ENDROOT
BRANCH   2   3
HETATM    3  C   UNL     1      -7.246   4.982  71.602  1.00  0.00    -0.070 A  
HETATM    4  C   UNL     1      -7.555   4.648  70.267  1.00  0.00    -0.051 A  
HETATM    5  C   UNL     1      -8.560   6.948  71.368  1.00  0.00    -0.119 A  
HETATM    6  C   UNL     1      -8.483   5.448  69.590  1.00  0.00    -0.100 A  
HETATM    7  C   UNL     1      -7.736   6.162  72.145  1.00  0.00    -0.101 A  
HETATM    8  N   UNL     1      -8.946   6.615  70.119  1.00  0.00    -0.151 NA 
BRANCH   4   9
HETATM    9  O   UNL     1      -6.995   3.506  69.749  1.00  0.00    -0.040 OA 
HETATM   10  C   UNL     1      -7.662   2.283  70.065  1.00  0.00    -0.042 C  
ENDBRANCH   4   9
BRANCH   6  11
HETATM   11  C   UNL     1      -9.107   5.064  68.272  1.00  0.00    -0.115 C  
BRANCH  11  12
HETATM   12  S   UNL     1     -10.764   5.781  68.087  1.00  0.00    -0.156 S  
HETATM   13  O   UNL     1     -11.365   6.097  69.426  1.00  0.00    -0.420 OA 
BRANCH  12  14
HETATM   14  C   UNL     1     -10.316   7.307  67.402  1.00  0.00    -0.260 A  
HETATM   15  N   UNL     1      -9.492   7.486  66.390  1.00  0.00    -0.304 NA 
HETATM   16  C   UNL     1      -9.550   8.837  66.122  1.00  0.00    -0.253 A  
HETATM   17  H   UNL     1      -8.933   6.780  65.911  1.00  0.00     0.000 HD 
HETATM   18  C   UNL     1     -10.400   9.488  67.009  1.00  0.00    -0.250 A  
HETATM   19  N   UNL     1     -10.859   8.490  67.827  1.00  0.00    -0.086 NA 
HETATM   20  C   UNL     1     -10.657  10.861  66.958  1.00  0.00    -0.307 A  
HETATM   21  C   UNL     1     -10.007  11.600  65.958  1.00  0.00    -0.228 A  
HETATM   22  C   UNL     1      -9.166  10.966  65.037  1.00  0.00    -0.233 A  
HETATM   23  C   UNL     1      -8.921   9.585  65.115  1.00  0.00    -0.253 A  
BRANCH  21  24
HETATM   24  O   UNL     1     -10.298  12.939  65.968  1.00  0.00    -0.271 OA 
HETATM   25  C   UNL     1     -11.650  13.272  66.239  1.00  0.00    -0.346 C  
HETATM   26  F   UNL     1     -11.837  13.291  67.582  1.00  0.00    -0.335 F  
HETATM   27  F   UNL     1     -11.847  14.541  65.800  1.00  0.00    -0.353 F  
ENDBRANCH  21  24
ENDBRANCH  12  14
ENDBRANCH  11  12
ENDBRANCH   6  11
ENDBRANCH   2   3
TORSDOF 6
ENDMDL
MODEL      273
REMARK 921   NORMALIZED FREE ENERGY PREDICTED BY IDOCK:   -1.56 KCAL/MOL
REMARK 922        TOTAL FREE ENERGY PREDICTED BY IDOCK:   -2.86 KCAL/MOL
REMARK 923 INTER-LIGAND FREE ENERGY PREDICTED BY IDOCK:   -3.61 KCAL/MOL
REMARK 924 INTRA-LIGAND FREE ENERGY PREDICTED BY IDOCK:    0.75 KCAL/MOL
REMARK 927      BINDING AFFINITY PREDICTED BY RF-SCORE:    0.00 PKD
ROOT
HETATM    1  C   UNL     1     -11.599  13.423  63.478  1.00  0.00    -0.153 C  
HETATM    2  O   UNL     1     -10.404  12.899  64.055  1.00  0.00    -0.422 OA 
ENDROOT
BRANCH   2   3
HETATM    3  C   UNL     1     -10.598  12.029  65.100  1.00  0.00    -0.288 A  
HETATM    4  C   UNL     1     -11.074  12.366  66.385  1.00  0.00    -0.301 A  
HETATM    5  C   UNL     1     -10.413   9.769  65.810  1.00  0.00     0.114 A  
HETATM    6  C   UNL     1     -11.319  11.325  67.287  1.00  0.00    -0.255 A  
HETATM    7  C   UNL     1     -10.239  10.717  64.824  1.00  0.00    -0.401 A  
HETATM    8  N   UNL     1     -10.947  10.041  67.019  1.00  0.00    -0.127 NA 
BRANCH   4   9
HETATM    9  O   UNL     1     -11.353  13.687  66.635  1.00  0.00    -0.309 OA 
HETATM   10  C   UNL     1     -10.229  14.523  66.918  1.00  0.00    -0.264 C  
ENDBRANCH   4   9
BRANCH   6  11
HETATM   11  C   UNL     1     -12.073  11.504  68.580  1.00  0.00    -0.129 C  
BRANCH  11  12
HETATM   12  S   UNL     1     -10.980  11.321  70.017  1.00  0.00     0.234 S  
HETATM   13  O   UNL     1     -11.480  10.247  70.939  1.00  0.00    -0.338 OA 
BRANCH  12  14
HETATM   14  C   UNL     1      -9.601  10.646  69.216  1.00  0.00    -0.144 A  
HETATM   15  N   UNL     1      -8.694  11.321  68.541  1.00  0.00    -0.155 NA 
HETATM   16  C   UNL     1      -7.736  10.388  68.206  1.00  0.00    -0.096 A  
HETATM   17  H   UNL     1      -8.700  12.315  68.315  1.00  0.00     0.000 HD 
HETATM   18  C   UNL     1      -8.088   9.123  68.661  1.00  0.00    -0.102 A  
HETATM   19  N   UNL     1      -9.292   9.313  69.284  1.00  0.00    -0.155 NA 
HETATM   20  C   UNL     1      -7.290   7.990  68.473  1.00  0.00    -0.097 A  
HETATM   21  C   UNL     1      -6.082   8.162  67.780  1.00  0.00    -0.047 A  
HETATM   22  C   UNL     1      -5.692   9.429  67.334  1.00  0.00    -0.041 A  
HETATM   23  C   UNL     1      -6.516  10.550  67.532  1.00  0.00    -0.058 A  
BRANCH  21  24
HETATM   24  O   UNL     1      -5.353   7.013  67.624  1.00  0.00    -0.014 OA 
HETATM   25  C   UNL     1      -6.093   5.862  67.249  1.00  0.00    -0.018 C  
HETATM   26  F   UNL     1      -6.252   5.861  65.903  1.00  0.00    -0.031 F  
HETATM   27  F   UNL     1      -5.334   4.778  67.553  1.00  0.00    -0.009 F  
ENDBRANCH  21  24
ENDBRANCH  12  14
ENDBRANCH  11  12
ENDBRANCH   6  11
ENDBRANCH   2   3
TORSDOF 6
ENDMDL
MODEL      274
REMARK 921   NORMALIZED FREE ENERGY PREDICTED BY IDOCK:   -1.19 KCAL/MOL
REMARK 922        TOTAL FREE ENERGY PREDICTED BY IDOCK:   -2.36 KCAL/MOL
REMARK 923 INTER-LIGAND FREE ENERGY PREDICTED BY IDOCK:   -2.57 KCAL/MOL
REMARK 924 INTRA-LIGAND FREE ENERGY PREDICTED BY IDOCK:    0.20 KCAL/MOL
REMARK 927      BINDING AFFINITY PREDICTED BY RF-SCORE:    0.00 PKD
ROOT
HETATM    1  C   UNL     1      -6.840  21.160  66.587  1.00  0.00    -0.156 C  
HETATM    2  O   UNL     1      -5.911  20.095  66.781  1.00  0.00    -0.173 OA 
ENDROOT
BRANCH   2   3
HETATM    3  C   UNL     1      -6.442  18.834  66.668  1.00  0.00    -0.189 A  
HETATM    4  C   UNL     1      -6.150  17.732  67.499  1.00  0.00    -0.154 A  
HETATM    5  C   UNL     1      -7.904  17.444  65.412  1.00  0.00     1.370 A  
HETATM    6  C   UNL     1      -6.879  16.553  67.304  1.00  0.00    -0.177 A  
HETATM    7  C   UNL     1      -7.310  18.674  65.596  1.00  0.00    -0.096 A  
HETATM    8  N   UNL     1      -7.715  16.394  66.239  1.00  0.00    -0.215 NA 
BRANCH   4   9
HETATM    9  O   UNL     1      -5.236  17.918  68.507  1.00  0.00    -0.147 OA 
HETATM   10  C   UNL     1      -5.777  18.198  69.799  1.00  0.00    -0.239 C  
ENDBRANCH   4   9
BRANCH   6  11
HETATM   11  C   UNL     1      -6.871  15.400  68.275  1.00  0.00    -0.117 C  
BRANCH  11  12
HETATM   12  S   UNL     1      -8.554  14.934  68.769  1.00  0.00    -0.178 S  
HETATM   13  O   UNL     1      -9.564  15.448  67.784  1.00  0.00    -0.209 OA 
BRANCH  12  14
HETATM   14  C   UNL     1      -8.450  13.229  68.488  1.00  0.00    -0.067 A  
HETATM   15  N   UNL     1      -7.791  12.363  69.231  1.00  0.00    -0.224 NA 
HETATM   16  C   UNL     1      -8.105  11.131  68.699  1.00  0.00    -0.150 A  
HETATM   17  H   UNL     1      -7.184  12.562  70.025  1.00  0.00     0.000 HD 
HETATM   18  C   UNL     1      -8.941  11.259  67.596  1.00  0.00    -0.142 A  
HETATM   19  N   UNL     1      -9.128  12.610  67.472  1.00  0.00    -0.183 NA 
HETATM   20  C   UNL     1      -9.427  10.167  66.871  1.00  0.00    -0.203 A  
HETATM   21  C   UNL     1      -9.031   8.888  67.290  1.00  0.00    -0.128 A  
HETATM   22  C   UNL     1      -8.211   8.729  68.412  1.00  0.00    -0.118 A  
HETATM   23  C   UNL     1      -7.732   9.845  69.119  1.00  0.00    -0.098 A  
BRANCH  21  24
HETATM   24  O   UNL     1      -9.537   7.865  66.533  1.00  0.00    -0.203 OA 
HETATM   25  C   UNL     1      -8.688   6.740  66.373  1.00  0.00    -0.138 C  
HETATM   26  F   UNL     1      -8.832   5.924  67.446  1.00  0.00    -0.111 F  
HETATM   27  F   UNL     1      -9.136   6.048  65.294  1.00  0.00    -0.123 F  
ENDBRANCH  21  24
ENDBRANCH  12  14
ENDBRANCH  11  12
ENDBRANCH   6  11
ENDBRANCH   2   3
TORSDOF 6
ENDMDL
MODEL      275
REMARK 921   NORMALIZED FREE ENERGY PREDICTED BY IDOCK:   -0.14 KCAL/MOL
REMARK 922        TOTAL FREE ENERGY PREDICTED BY IDOCK:   -0.94 KCAL/MOL
REMARK 923 INTER-LIGAND FREE ENERGY PREDICTED BY IDOCK:   -1.11 KCAL/MOL
REMARK 924 INTRA-LIGAND FREE ENERGY PREDICTED BY IDOCK:    0.17 KCAL/MOL
REMARK 927      BINDING AFFINITY PREDICTED BY RF-SCORE:    0.00 PKD
ROOT
HETATM    1  C   UNL     1      -6.853  21.151  66.511  1.00  0.00    -0.102 C  
HETATM    2  O   UNL     1      -5.858  20.145  66.692  1.00  0.00    -0.173 OA 
ENDROOT
BRANCH   2   3
HETATM    3  C   UNL     1      -6.316  18.853  66.599  1.00  0.00    -0.186 A  
HETATM    4  C   UNL     1      -5.998  17.794  67.475  1.00  0.00    -0.150 A  
HETATM    5  C   UNL     1      -7.651  17.348  65.335  1.00  0.00     1.283 A  
HETATM    6  C   UNL     1      -6.654  16.572  67.291  1.00  0.00    -0.180 A  
HETATM    7  C   UNL     1      -7.131  18.614  65.501  1.00  0.00    -0.135 A  
HETATM    8  N   UNL     1      -7.438  16.335  66.201  1.00  0.00     0.090 NA 
BRANCH   4   9
HETATM    9  O   UNL     1      -5.135  18.060  68.510  1.00  0.00    -0.148 OA 
HETATM   10  C   UNL     1      -5.740  18.335  69.775  1.00  0.00    -0.235 C  
ENDBRANCH   4   9
BRANCH   6  11
HETATM   11  C   UNL     1      -6.622  15.450  68.297  1.00  0.00    -0.121 C  
BRANCH  11  12
HETATM   12  S   UNL     1      -8.296  14.933  68.772  1.00  0.00    -0.175 S  
HETATM   13  O   UNL     1      -9.280  15.234  67.679  1.00  0.00    -0.185 OA 
BRANCH  12  14
HETATM   14  C   UNL     1      -8.063  13.218  68.734  1.00  0.00     0.063 A  
HETATM   15  N   UNL     1      -8.754  12.362  68.009  1.00  0.00    -0.179 NA 
HETATM   16  C   UNL     1      -8.130  11.149  68.206  1.00  0.00    -0.131 A  
HETATM   17  H   UNL     1      -9.570  12.555  67.430  1.00  0.00     0.000 HD 
HETATM   18  C   UNL     1      -7.065  11.270  69.091  1.00  0.00    -0.122 A  
HETATM   19  N   UNL     1      -7.058  12.598  69.427  1.00  0.00     0.096 NA 
HETATM   20  C   UNL     1      -6.247  10.198  69.459  1.00  0.00    -0.048 A  
HETATM   21  C   UNL     1      -6.540   8.944  68.902  1.00  0.00    -0.052 A  
HETATM   22  C   UNL     1      -7.591   8.798  67.991  1.00  0.00    -0.097 A  
HETATM   23  C   UNL     1      -8.400   9.893  67.642  1.00  0.00    -0.114 A  
BRANCH  21  24
HETATM   24  O   UNL     1      -5.706   7.937  69.311  1.00  0.00    -0.029 OA 
HETATM   25  C   UNL     1      -6.304   6.658  69.443  1.00  0.00    -0.038 C  
HETATM   26  F   UNL     1      -6.325   6.055  68.229  1.00  0.00    -0.035 F  
HETATM   27  F   UNL     1      -5.491   5.913  70.235  1.00  0.00    -0.010 F  
ENDBRANCH  21  24
ENDBRANCH  12  14
ENDBRANCH  11  12
ENDBRANCH   6  11
ENDBRANCH   2   3
TORSDOF 6
ENDMDL
MODEL      276
REMARK 921   NORMALIZED FREE ENERGY PREDICTED BY IDOCK:    2.63 KCAL/MOL
REMARK 922        TOTAL FREE ENERGY PREDICTED BY IDOCK:    2.81 KCAL/MOL
REMARK 923 INTER-LIGAND FREE ENERGY PREDICTED BY IDOCK:    2.96 KCAL/MOL
REMARK 924 INTRA-LIGAND FREE ENERGY PREDICTED BY IDOCK:   -0.16 KCAL/MOL
REMARK 927      BINDING AFFINITY PREDICTED BY RF-SCORE:    0.00 PKD
ROOT
HETATM    1  C   UNL     1      -7.289   7.308  62.653  1.00  0.00    -0.085 C  
HETATM    2  O   UNL     1      -6.584   6.328  63.415  1.00  0.00    -0.038 OA 
ENDROOT
BRANCH   2   3
HETATM    3  C   UNL     1      -6.905   6.290  64.750  1.00  0.00    -0.047 A  
HETATM    4  C   UNL     1      -8.207   6.237  65.290  1.00  0.00    -0.138 A  
HETATM    5  C   UNL     1      -6.036   6.304  66.961  1.00  0.00    -0.021 A  
HETATM    6  C   UNL     1      -8.336   6.084  66.675  1.00  0.00    -0.111 A  
HETATM    7  C   UNL     1      -5.811   6.352  65.602  1.00  0.00    -0.025 A  
HETATM    8  N   UNL     1      -7.261   6.165  67.509  1.00  0.00    -0.074 NA 
BRANCH   4   9
HETATM    9  O   UNL     1      -9.263   6.244  64.412  1.00  0.00     0.709 OA 
HETATM   10  C   UNL     1      -9.908   4.987  64.198  1.00  0.00     0.633 C  
ENDBRANCH   4   9
BRANCH   6  11
HETATM   11  C   UNL     1      -9.637   5.744  67.358  1.00  0.00    -0.115 C  
BRANCH  11  12
HETATM   12  S   UNL     1     -10.598   7.236  67.736  1.00  0.00    -0.206 S  
HETATM   13  O   UNL     1     -12.071   6.942  67.728  1.00  0.00     1.517 OA 
BRANCH  12  14
HETATM   14  C   UNL     1     -10.164   7.415  69.402  1.00  0.00    -0.201 A  
HETATM   15  N   UNL     1     -10.808   6.895  70.427  1.00  0.00    -0.248 NA 
HETATM   16  C   UNL     1     -10.026   7.193  71.523  1.00  0.00    -0.182 A  
HETATM   17  H   UNL     1     -11.690   6.385  70.413  1.00  0.00     0.000 HD 
HETATM   18  C   UNL     1      -8.909   7.934  71.155  1.00  0.00    -0.138 A  
HETATM   19  N   UNL     1      -9.033   8.077  69.799  1.00  0.00    -0.144 NA 
HETATM   20  C   UNL     1      -7.937   8.360  72.065  1.00  0.00    -0.184 A  
HETATM   21  C   UNL     1      -8.125   8.020  73.414  1.00  0.00    -0.192 A  
HETATM   22  C   UNL     1      -9.227   7.254  73.807  1.00  0.00    -0.281 A  
HETATM   23  C   UNL     1     -10.192   6.843  72.871  1.00  0.00    -0.226 A  
BRANCH  21  24
HETATM   24  O   UNL     1      -7.141   8.474  74.252  1.00  0.00    -0.221 OA 
HETATM   25  C   UNL     1      -6.337   9.526  73.742  1.00  0.00     0.637 C  
HETATM   26  F   UNL     1      -6.969  10.706  73.956  1.00  0.00     2.464 F  
HETATM   27  F   UNL     1      -5.197   9.555  74.479  1.00  0.00    -0.118 F  
ENDBRANCH  21  24
ENDBRANCH  12  14
ENDBRANCH  11  12
ENDBRANCH   6  11
ENDBRANCH   2   3
TORSDOF 6
ENDMDL
MODEL      277
REMARK 921   NORMALIZED FREE ENERGY PREDICTED BY IDOCK:    3.30 KCAL/MOL
REMARK 922        TOTAL FREE ENERGY PREDICTED BY IDOCK:    3.70 KCAL/MOL
REMARK 923 INTER-LIGAND FREE ENERGY PREDICTED BY IDOCK:   -2.56 KCAL/MOL
REMARK 924 INTRA-LIGAND FREE ENERGY PREDICTED BY IDOCK:    6.26 KCAL/MOL
REMARK 927      BINDING AFFINITY PREDICTED BY RF-SCORE:    0.00 PKD
ROOT
HETATM    1  C   UNL     1      -5.688   6.613  70.591  1.00  0.00    -0.023 C  
HETATM    2  O   UNL     1      -6.743   5.652  70.598  1.00  0.00    -0.044 OA 
ENDROOT
BRANCH   2   3
HETATM    3  C   UNL     1      -7.768   5.910  69.722  1.00  0.00    -0.089 A  
HETATM    4  C   UNL     1      -8.019   7.137  69.074  1.00  0.00    -0.120 A  
HETATM    5  C   UNL     1      -9.682   5.001  68.645  1.00  0.00    -0.158 A  
HETATM    6  C   UNL     1      -9.044   7.178  68.122  1.00  0.00    -0.133 A  
HETATM    7  C   UNL     1      -8.630   4.840  69.522  1.00  0.00    -0.103 A  
HETATM    8  N   UNL     1      -9.900   6.132  67.943  1.00  0.00    -0.119 NA 
BRANCH   4   9
HETATM    9  O   UNL     1      -7.180   8.188  69.352  1.00  0.00    -0.064 OA 
HETATM   10  C   UNL     1      -5.857   7.841  69.765  1.00  0.00    -0.023 C  
ENDBRANCH   4   9
BRANCH   6  11
HETATM   11  C   UNL     1      -9.249   8.327  67.168  1.00  0.00    -0.144 C  
BRANCH  11  12
HETATM   12  S   UNL     1      -7.666   9.004  66.594  1.00  0.00    -0.097 S  
HETATM   13  O   UNL     1      -7.502   8.807  65.115  1.00  0.00    -0.087 OA 
BRANCH  12  14
HETATM   14  C   UNL     1      -8.006  10.689  66.808  1.00  0.00    -0.132 A  
HETATM   15  N   UNL     1      -7.595  11.437  67.810  1.00  0.00    -0.101 NA 
HETATM   16  C   UNL     1      -7.994  12.716  67.483  1.00  0.00    -0.174 A  
HETATM   17  H   UNL     1      -7.092  11.137  68.645  1.00  0.00     0.000 HD 
HETATM   18  C   UNL     1      -8.686  12.732  66.277  1.00  0.00     0.235 A  
HETATM   19  N   UNL     1      -8.695  11.422  65.879  1.00  0.00    -0.149 NA 
HETATM   20  C   UNL     1      -9.193  13.899  65.699  1.00  0.00     0.397 A  
HETATM   21  C   UNL     1      -8.989  15.102  66.393  1.00  0.00    -0.279 A  
HETATM   22  C   UNL     1      -8.275  15.118  67.595  1.00  0.00    -0.178 A  
HETATM   23  C   UNL     1      -7.780  13.928  68.156  1.00  0.00    -0.142 A  
BRANCH  21  24
HETATM   24  O   UNL     1      -9.516  16.205  65.775  1.00  0.00    -0.385 OA 
HETATM   25  C   UNL     1     -10.733  16.691  66.319  1.00  0.00    -0.119 C  
HETATM   26  F   UNL     1     -10.452  17.500  67.370  1.00  0.00    -0.316 F  
HETATM   27  F   UNL     1     -11.314  17.471  65.371  1.00  0.00    -0.014 F  
ENDBRANCH  21  24
ENDBRANCH  12  14
ENDBRANCH  11  12
ENDBRANCH   6  11
ENDBRANCH   2   3
TORSDOF 6
ENDMDL
MODEL      278
REMARK 921   NORMALIZED FREE ENERGY PREDICTED BY IDOCK:    4.04 KCAL/MOL
REMARK 922        TOTAL FREE ENERGY PREDICTED BY IDOCK:    4.71 KCAL/MOL
REMARK 923 INTER-LIGAND FREE ENERGY PREDICTED BY IDOCK:    4.86 KCAL/MOL
REMARK 924 INTRA-LIGAND FREE ENERGY PREDICTED BY IDOCK:   -0.15 KCAL/MOL
REMARK 927      BINDING AFFINITY PREDICTED BY RF-SCORE:    0.00 PKD
ROOT
HETATM    1  C   UNL     1      -8.459  21.258  63.638  1.00  0.00     2.983 C  
HETATM    2  O   UNL     1      -8.716  21.071  65.028  1.00  0.00     1.363 OA 
ENDROOT
BRANCH   2   3
HETATM    3  C   UNL     1      -9.314  19.878  65.353  1.00  0.00     0.646 A  
HETATM    4  C   UNL     1      -8.699  18.609  65.335  1.00  0.00     1.454 A  
HETATM    5  C   UNL     1     -11.338  18.839  66.038  1.00  0.00     1.082 A  
HETATM    6  C   UNL     1      -9.435  17.518  65.812  1.00  0.00     0.185 A  
HETATM    7  C   UNL     1     -10.658  19.985  65.683  1.00  0.00    -0.380 A  
HETATM    8  N   UNL     1     -10.759  17.623  66.116  1.00  0.00    -0.194 NA 
BRANCH   4   9
HETATM    9  O   UNL     1      -7.386  18.542  64.938  1.00  0.00     0.263 OA 
HETATM   10  C   UNL     1      -6.411  18.774  65.957  1.00  0.00    -0.222 C  
ENDBRANCH   4   9
BRANCH   6  11
HETATM   11  C   UNL     1      -8.828  16.169  66.104  1.00  0.00    -0.332 C  
BRANCH  11  12
HETATM   12  S   UNL     1      -7.969  16.157  67.702  1.00  0.00    -0.152 S  
HETATM   13  O   UNL     1      -8.944  16.277  68.837  1.00  0.00    -0.227 OA 
BRANCH  12  14
HETATM   14  C   UNL     1      -7.442  14.508  67.708  1.00  0.00    -0.169 A  
HETATM   15  N   UNL     1      -6.196  14.096  67.599  1.00  0.00    -0.306 NA 
HETATM   16  C   UNL     1      -6.258  12.732  67.787  1.00  0.00    -0.138 A  
HETATM   17  H   UNL     1      -5.368  14.662  67.417  1.00  0.00     0.000 HD 
HETATM   18  C   UNL     1      -7.568  12.311  67.980  1.00  0.00    -0.126 A  
HETATM   19  N   UNL     1      -8.305  13.463  67.904  1.00  0.00    -0.153 NA 
HETATM   20  C   UNL     1      -7.921  10.978  68.209  1.00  0.00    -0.124 A  
HETATM   21  C   UNL     1      -6.883  10.033  68.233  1.00  0.00    -0.063 A  
HETATM   22  C   UNL     1      -5.553  10.433  68.067  1.00  0.00    -0.040 A  
HETATM   23  C   UNL     1      -5.228  11.780  67.833  1.00  0.00    -0.051 A  
BRANCH  21  24
HETATM   24  O   UNL     1      -7.298   8.746  68.455  1.00  0.00    -0.082 OA 
HETATM   25  C   UNL     1      -8.010   8.530  69.663  1.00  0.00    -0.101 C  
HETATM   26  F   UNL     1      -9.314   8.844  69.465  1.00  0.00    -0.147 F  
HETATM   27  F   UNL     1      -7.964   7.199  69.924  1.00  0.00    -0.110 F  
ENDBRANCH  21  24
ENDBRANCH  12  14
ENDBRANCH  11  12
ENDBRANCH   6  11
ENDBRANCH   2   3
TORSDOF 6
ENDMDL
MODEL      279
REMARK 921   NORMALIZED FREE ENERGY PREDICTED BY IDOCK:    4.08 KCAL/MOL
REMARK 922        TOTAL FREE ENERGY PREDICTED BY IDOCK:    4.76 KCAL/MOL
REMARK 923 INTER-LIGAND FREE ENERGY PREDICTED BY IDOCK:    5.03 KCAL/MOL
REMARK 924 INTRA-LIGAND FREE ENERGY PREDICTED BY IDOCK:   -0.27 KCAL/MOL
REMARK 927      BINDING AFFINITY PREDICTED BY RF-SCORE:    0.00 PKD
ROOT
HETATM    1  C   UNL     1     -13.720  15.550  71.524  1.00  0.00    -0.460 C  
HETATM    2  O   UNL     1     -13.087  14.688  70.579  1.00  0.00    -0.334 OA 
ENDROOT
BRANCH   2   3
HETATM    3  C   UNL     1     -12.851  13.411  71.026  1.00  0.00    -0.251 A  
HETATM    4  C   UNL     1     -12.521  12.299  70.224  1.00  0.00    -0.084 A  
HETATM    5  C   UNL     1     -12.772  12.002  72.937  1.00  0.00     3.072 A  
HETATM    6  C   UNL     1     -12.200  11.099  70.869  1.00  0.00    -0.364 A  
HETATM    7  C   UNL     1     -13.003  13.248  72.396  1.00  0.00    -0.334 A  
HETATM    8  N   UNL     1     -12.370  10.938  72.212  1.00  0.00     0.665 NA 
BRANCH   4   9
HETATM    9  O   UNL     1     -12.446  12.491  68.866  1.00  0.00     0.117 OA 
HETATM   10  C   UNL     1     -13.085  11.501  68.057  1.00  0.00     4.680 C  
ENDBRANCH   4   9
BRANCH   6  11
HETATM   11  C   UNL     1     -11.574   9.919  70.169  1.00  0.00    -0.218 C  
BRANCH  11  12
HETATM   12  S   UNL     1      -9.763  10.038  70.154  1.00  0.00    -0.015 S  
HETATM   13  O   UNL     1      -9.187   9.614  71.474  1.00  0.00    -0.040 OA 
BRANCH  12  14
HETATM   14  C   UNL     1      -9.422   8.745  69.055  1.00  0.00    -0.160 A  
HETATM   15  N   UNL     1      -9.707   8.729  67.770  1.00  0.00    -0.152 NA 
HETATM   16  C   UNL     1      -9.135   7.569  67.295  1.00  0.00    -0.124 A  
HETATM   17  H   UNL     1     -10.236   9.423  67.242  1.00  0.00     0.000 HD 
HETATM   18  C   UNL     1      -8.521   6.857  68.319  1.00  0.00    -0.125 A  
HETATM   19  N   UNL     1      -8.737   7.621  69.434  1.00  0.00    -0.136 NA 
HETATM   20  C   UNL     1      -7.848   5.648  68.117  1.00  0.00    -0.096 A  
HETATM   21  C   UNL     1      -7.812   5.143  66.808  1.00  0.00    -0.100 A  
HETATM   22  C   UNL     1      -8.399   5.851  65.755  1.00  0.00    -0.140 A  
HETATM   23  C   UNL     1      -9.074   7.062  65.988  1.00  0.00    -0.105 A  
BRANCH  21  24
HETATM   24  O   UNL     1      -7.144   3.953  66.683  1.00  0.00    -0.058 OA 
HETATM   25  C   UNL     1      -7.769   2.831  67.283  1.00  0.00    -0.069 C  
HETATM   26  F   UNL     1      -8.688   2.327  66.422  1.00  0.00    -0.098 F  
HETATM   27  F   UNL     1      -6.817   1.876  67.441  1.00  0.00    -0.036 F  
ENDBRANCH  21  24
ENDBRANCH  12  14
ENDBRANCH  11  12
ENDBRANCH   6  11
ENDBRANCH   2   3
TORSDOF 6
ENDMDL
MODEL      280
REMARK 921   NORMALIZED FREE ENERGY PREDICTED BY IDOCK:    4.98 KCAL/MOL
REMARK 922        TOTAL FREE ENERGY PREDICTED BY IDOCK:    5.98 KCAL/MOL
REMARK 923 INTER-LIGAND FREE ENERGY PREDICTED BY IDOCK:    5.37 KCAL/MOL
REMARK 924 INTRA-LIGAND FREE ENERGY PREDICTED BY IDOCK:    0.60 KCAL/MOL
REMARK 927      BINDING AFFINITY PREDICTED BY RF-SCORE:    0.00 PKD
ROOT
HETATM    1  C   UNL     1     -11.514  21.121  68.938  1.00  0.00     2.950 C  
HETATM    2  O   UNL     1     -10.243  20.493  68.785  1.00  0.00    -0.131 OA 
ENDROOT
BRANCH   2   3
HETATM    3  C   UNL     1     -10.192  19.180  69.185  1.00  0.00    -0.078 A  
HETATM    4  C   UNL     1     -10.273  18.051  68.343  1.00  0.00    -0.391 A  
HETATM    5  C   UNL     1     -10.020  17.719  71.051  1.00  0.00     3.845 A  
HETATM    6  C   UNL     1     -10.084  16.789  68.918  1.00  0.00    -0.285 A  
HETATM    7  C   UNL     1     -10.092  19.005  70.558  1.00  0.00     1.589 A  
HETATM    8  N   UNL     1     -10.007  16.621  70.268  1.00  0.00     0.700 NA 
BRANCH   4   9
HETATM    9  O   UNL     1     -10.438  18.271  66.997  1.00  0.00    -0.378 OA 
HETATM   10  C   UNL     1      -9.647  17.457  66.128  1.00  0.00    -0.193 C  
ENDBRANCH   4   9
BRANCH   6  11
HETATM   11  C   UNL     1      -9.875  15.531  68.114  1.00  0.00    -0.216 C  
BRANCH  11  12
HETATM   12  S   UNL     1      -8.165  14.937  68.241  1.00  0.00    -0.153 S  
HETATM   13  O   UNL     1      -7.731  14.854  69.676  1.00  0.00    -0.167 OA 
BRANCH  12  14
HETATM   14  C   UNL     1      -8.415  13.302  67.731  1.00  0.00    -0.181 A  
HETATM   15  N   UNL     1      -9.394  12.513  68.122  1.00  0.00    -0.207 NA 
HETATM   16  C   UNL     1      -9.255  11.373  67.358  1.00  0.00    -0.164 A  
HETATM   17  H   UNL     1     -10.099  12.703  68.832  1.00  0.00     0.000 HD 
HETATM   18  C   UNL     1      -8.153  11.465  66.516  1.00  0.00    -0.141 A  
HETATM   19  N   UNL     1      -7.624  12.698  66.790  1.00  0.00     0.144 NA 
HETATM   20  C   UNL     1      -7.785  10.457  65.621  1.00  0.00    -0.150 A  
HETATM   21  C   UNL     1      -8.578   9.298  65.595  1.00  0.00    -0.153 A  
HETATM   22  C   UNL     1      -9.707   9.190  66.414  1.00  0.00    -0.330 A  
HETATM   23  C   UNL     1     -10.050  10.218  67.308  1.00  0.00    -0.249 A  
BRANCH  21  24
HETATM   24  O   UNL     1      -8.158   8.349  64.701  1.00  0.00    -0.142 OA 
HETATM   25  C   UNL     1      -8.593   8.529  63.363  1.00  0.00     0.055 C  
HETATM   26  F   UNL     1      -7.750   9.389  62.740  1.00  0.00    -0.113 F  
HETATM   27  F   UNL     1      -8.465   7.333  62.734  1.00  0.00    -0.088 F  
ENDBRANCH  21  24
ENDBRANCH  12  14
ENDBRANCH  11  12
ENDBRANCH   6  11
ENDBRANCH   2   3
TORSDOF 6
ENDMDL
MODEL      281
REMARK 921   NORMALIZED FREE ENERGY PREDICTED BY IDOCK:    5.12 KCAL/MOL
REMARK 922        TOTAL FREE ENERGY PREDICTED BY IDOCK:    6.17 KCAL/MOL
REMARK 923 INTER-LIGAND FREE ENERGY PREDICTED BY IDOCK:    2.84 KCAL/MOL
REMARK 924 INTRA-LIGAND FREE ENERGY PREDICTED BY IDOCK:    3.33 KCAL/MOL
REMARK 927      BINDING AFFINITY PREDICTED BY RF-SCORE:    0.00 PKD
ROOT
HETATM    1  C   UNL     1      -7.546  13.688  67.089  1.00  0.00     0.070 C  
HETATM    2  O   UNL     1      -8.858  13.927  66.583  1.00  0.00    -0.191 OA 
ENDROOT
BRANCH   2   3
HETATM    3  C   UNL     1      -9.504  12.817  66.098  1.00  0.00    -0.164 A  
HETATM    4  C   UNL     1      -9.022  11.944  65.101  1.00  0.00     0.375 A  
HETATM    5  C   UNL     1     -11.479  11.502  66.232  1.00  0.00    -0.049 A  
HETATM    6  C   UNL     1      -9.770  10.794  64.819  1.00  0.00    -0.283 A  
HETATM    7  C   UNL     1     -10.761  12.603  66.648  1.00  0.00    -0.275 A  
HETATM    8  N   UNL     1     -11.012  10.599  65.345  1.00  0.00     0.085 NA 
BRANCH   4   9
HETATM    9  O   UNL     1      -7.803  12.230  64.538  1.00  0.00     3.119 OA 
HETATM   10  C   UNL     1      -7.702  12.030  63.126  1.00  0.00     2.889 C  
ENDBRANCH   4   9
BRANCH   6  11
HETATM   11  C   UNL     1      -9.253   9.649  63.986  1.00  0.00    -0.148 C  
BRANCH  11  12
HETATM   12  S   UNL     1      -7.696   8.994  64.649  1.00  0.00    -0.121 S  
HETATM   13  O   UNL     1      -6.728  10.103  64.943  1.00  0.00    -0.122 OA 
BRANCH  12  14
HETATM   14  C   UNL     1      -8.272   8.454  66.191  1.00  0.00    -0.113 A  
HETATM   15  N   UNL     1      -7.918   7.342  66.800  1.00  0.00    -0.116 NA 
HETATM   16  C   UNL     1      -8.524   7.408  68.036  1.00  0.00    -0.123 A  
HETATM   17  H   UNL     1      -7.326   6.596  66.437  1.00  0.00     0.000 HD 
HETATM   18  C   UNL     1      -9.283   8.566  68.161  1.00  0.00    -0.137 A  
HETATM   19  N   UNL     1      -9.119   9.205  66.961  1.00  0.00    -0.122 NA 
HETATM   20  C   UNL     1      -9.994   8.896  69.318  1.00  0.00    -0.192 A  
HETATM   21  C   UNL     1      -9.932   7.994  70.392  1.00  0.00    -0.188 A  
HETATM   22  C   UNL     1      -9.156   6.834  70.302  1.00  0.00    -0.153 A  
HETATM   23  C   UNL     1      -8.455   6.524  69.124  1.00  0.00    -0.126 A  
BRANCH  21  24
HETATM   24  O   UNL     1     -10.656   8.375  71.490  1.00  0.00    -0.214 OA 
HETATM   25  C   UNL     1     -10.504   7.558  72.640  1.00  0.00    -0.271 C  
HETATM   26  F   UNL     1      -9.399   7.953  73.317  1.00  0.00    -0.245 F  
HETATM   27  F   UNL     1     -11.566   7.802  73.450  1.00  0.00    -0.344 F  
ENDBRANCH  21  24
ENDBRANCH  12  14
ENDBRANCH  11  12
ENDBRANCH   6  11
ENDBRANCH   2   3
TORSDOF 6
ENDMDL
MODEL      282
REMARK 921   NORMALIZED FREE ENERGY PREDICTED BY IDOCK:    5.38 KCAL/MOL
REMARK 922        TOTAL FREE ENERGY PREDICTED BY IDOCK:    6.52 KCAL/MOL
REMARK 923 INTER-LIGAND FREE ENERGY PREDICTED BY IDOCK:   -1.51 KCAL/MOL
REMARK 924 INTRA-LIGAND FREE ENERGY PREDICTED BY IDOCK:    8.03 KCAL/MOL
REMARK 927      BINDING AFFINITY PREDICTED BY RF-SCORE:    0.00 PKD
ROOT
HETATM    1  C   UNL     1      -5.970   3.901  72.432  1.00  0.00    -0.009 C  
HETATM    2  O   UNL     1      -6.878   4.959  72.736  1.00  0.00    -0.065 OA 
ENDROOT
BRANCH   2   3
HETATM    3  C   UNL     1      -7.136   5.819  71.697  1.00  0.00    -0.081 A  
HETATM    4  C   UNL     1      -7.436   7.192  71.810  1.00  0.00    -0.086 A  
HETATM    5  C   UNL     1      -7.359   6.010  69.339  1.00  0.00    -0.079 A  
HETATM    6  C   UNL     1      -7.554   7.937  70.630  1.00  0.00    -0.077 A  
HETATM    7  C   UNL     1      -7.126   5.220  70.444  1.00  0.00    -0.061 A  
HETATM    8  N   UNL     1      -7.563   7.342  69.404  1.00  0.00    -0.095 NA 
BRANCH   4   9
HETATM    9  O   UNL     1      -7.501   7.729  73.072  1.00  0.00    -0.094 OA 
HETATM   10  C   UNL     1      -6.559   7.218  74.019  1.00  0.00    -0.077 C  
ENDBRANCH   4   9
BRANCH   6  11
HETATM   11  C   UNL     1      -7.602   9.443  70.599  1.00  0.00    -0.144 C  
BRANCH  11  12
HETATM   12  S   UNL     1      -6.895  10.099  69.061  1.00  0.00    -0.060 S  
HETATM   13  O   UNL     1      -5.394  10.087  69.113  1.00  0.00    -0.036 OA 
BRANCH  12  14
HETATM   14  C   UNL     1      -7.338   8.808  67.995  1.00  0.00    -0.088 A  
HETATM   15  N   UNL     1      -8.484   8.695  67.356  1.00  0.00    -0.122 NA 
HETATM   16  C   UNL     1      -8.325   7.596  66.539  1.00  0.00    -0.129 A  
HETATM   17  H   UNL     1      -9.307   9.289  67.447  1.00  0.00     0.000 HD 
HETATM   18  C   UNL     1      -7.072   7.019  66.713  1.00  0.00    -0.082 A  
HETATM   19  N   UNL     1      -6.472   7.801  67.662  1.00  0.00    -0.054 NA 
HETATM   20  C   UNL     1      -6.638   5.898  65.999  1.00  0.00    -0.047 A  
HETATM   21  C   UNL     1      -7.533   5.339  65.073  1.00  0.00    -0.073 A  
HETATM   22  C   UNL     1      -8.789   5.915  64.860  1.00  0.00     0.105 A  
HETATM   23  C   UNL     1      -9.202   7.039  65.596  1.00  0.00     0.184 A  
BRANCH  21  24
HETATM   24  O   UNL     1      -7.047   4.241  64.414  1.00  0.00    -0.046 OA 
HETATM   25  C   UNL     1      -7.974   3.566  63.578  1.00  0.00    -0.083 C  
HETATM   26  F   UNL     1      -8.012   4.186  62.373  1.00  0.00    -0.060 F  
HETATM   27  F   UNL     1      -7.484   2.318  63.360  1.00  0.00    -0.048 F  
ENDBRANCH  21  24
ENDBRANCH  12  14
ENDBRANCH  11  12
ENDBRANCH   6  11
ENDBRANCH   2   3
TORSDOF 6
ENDMDL
MODEL      283
REMARK 921   NORMALIZED FREE ENERGY PREDICTED BY IDOCK:    5.70 KCAL/MOL
REMARK 922        TOTAL FREE ENERGY PREDICTED BY IDOCK:    6.95 KCAL/MOL
REMARK 923 INTER-LIGAND FREE ENERGY PREDICTED BY IDOCK:    7.72 KCAL/MOL
REMARK 924 INTRA-LIGAND FREE ENERGY PREDICTED BY IDOCK:   -0.77 KCAL/MOL
REMARK 927      BINDING AFFINITY PREDICTED BY RF-SCORE:    0.00 PKD
ROOT
HETATM    1  C   UNL     1      -6.446   7.947  64.128  1.00  0.00    -0.061 C  
HETATM    2  O   UNL     1      -7.708   8.600  64.257  1.00  0.00    -0.113 OA 
ENDROOT
BRANCH   2   3
HETATM    3  C   UNL     1      -7.642   9.930  64.593  1.00  0.00    -0.139 A  
HETATM    4  C   UNL     1      -8.098  10.507  65.796  1.00  0.00    -0.158 A  
HETATM    5  C   UNL     1      -6.982  12.091  63.859  1.00  0.00     4.936 A  
HETATM    6  C   UNL     1      -7.839  11.865  66.012  1.00  0.00     0.558 A  
HETATM    7  C   UNL     1      -7.103  10.742  63.604  1.00  0.00     0.352 A  
HETATM    8  N   UNL     1      -7.328  12.662  65.031  1.00  0.00     4.983 NA 
BRANCH   4   9
HETATM    9  O   UNL     1      -8.685   9.676  66.719  1.00  0.00    -0.132 OA 
HETATM   10  C   UNL     1     -10.055   9.344  66.482  1.00  0.00    -0.262 C  
ENDBRANCH   4   9
BRANCH   6  11
HETATM   11  C   UNL     1      -8.022  12.546  67.344  1.00  0.00    -0.180 C  
BRANCH  11  12
HETATM   12  S   UNL     1      -9.638  13.366  67.455  1.00  0.00    -0.229 S  
HETATM   13  O   UNL     1     -10.428  12.840  68.619  1.00  0.00    -0.244 OA 
BRANCH  12  14
HETATM   14  C   UNL     1      -9.102  14.943  67.927  1.00  0.00    -0.182 A  
HETATM   15  N   UNL     1      -9.828  16.042  67.909  1.00  0.00    -0.225 NA 
HETATM   16  C   UNL     1      -9.029  17.003  68.489  1.00  0.00    -0.263 A  
HETATM   17  H   UNL     1     -10.774  16.156  67.545  1.00  0.00     0.000 HD 
HETATM   18  C   UNL     1      -7.787  16.482  68.833  1.00  0.00    -0.240 A  
HETATM   19  N   UNL     1      -7.855  15.170  68.445  1.00  0.00    -0.122 NA 
HETATM   20  C   UNL     1      -6.784  17.233  69.452  1.00  0.00    -0.193 A  
HETATM   21  C   UNL     1      -7.064  18.582  69.720  1.00  0.00     0.298 A  
HETATM   22  C   UNL     1      -8.314  19.126  69.407  1.00  0.00     0.110 A  
HETATM   23  C   UNL     1      -9.302  18.348  68.781  1.00  0.00    -0.301 A  
BRANCH  21  24
HETATM   24  O   UNL     1      -6.036  19.262  70.320  1.00  0.00    -0.243 OA 
HETATM   25  C   UNL     1      -6.387  20.495  70.928  1.00  0.00     0.178 C  
HETATM   26  F   UNL     1      -6.862  20.251  72.174  1.00  0.00    -0.183 F  
HETATM   27  F   UNL     1      -5.242  21.208  71.079  1.00  0.00    -0.220 F  
ENDBRANCH  21  24
ENDBRANCH  12  14
ENDBRANCH  11  12
ENDBRANCH   6  11
ENDBRANCH   2   3
TORSDOF 6
ENDMDL
MODEL      284
REMARK 921   NORMALIZED FREE ENERGY PREDICTED BY IDOCK:    9.36 KCAL/MOL
REMARK 922        TOTAL FREE ENERGY PREDICTED BY IDOCK:   11.90 KCAL/MOL
REMARK 923 INTER-LIGAND FREE ENERGY PREDICTED BY IDOCK:    5.31 KCAL/MOL
REMARK 924 INTRA-LIGAND FREE ENERGY PREDICTED BY IDOCK:    6.59 KCAL/MOL
REMARK 927      BINDING AFFINITY PREDICTED BY RF-SCORE:    0.00 PKD
ROOT
HETATM    1  C   UNL     1      -5.769   6.248  70.339  1.00  0.00    -0.018 C  
HETATM    2  O   UNL     1      -7.104   5.749  70.390  1.00  0.00    -0.065 OA 
ENDROOT
BRANCH   2   3
HETATM    3  C   UNL     1      -8.052   6.570  69.828  1.00  0.00    -0.125 A  
HETATM    4  C   UNL     1      -7.943   7.965  69.651  1.00  0.00    -0.118 A  
HETATM    5  C   UNL     1     -10.224   6.661  68.868  1.00  0.00    -0.177 A  
HETATM    6  C   UNL     1      -8.965   8.617  68.950  1.00  0.00    -0.142 A  
HETATM    7  C   UNL     1      -9.220   5.919  69.455  1.00  0.00    -0.144 A  
HETATM    8  N   UNL     1     -10.118   7.980  68.604  1.00  0.00    -0.194 NA 
BRANCH   4   9
HETATM    9  O   UNL     1      -6.797   8.577  70.095  1.00  0.00    -0.038 OA 
HETATM   10  C   UNL     1      -5.670   7.722  70.299  1.00  0.00    -0.023 C  
ENDBRANCH   4   9
BRANCH   6  11
HETATM   11  C   UNL     1      -8.857  10.037  68.454  1.00  0.00    -0.117 C  
BRANCH  11  12
HETATM   12  S   UNL     1      -7.132  10.499  68.130  1.00  0.00    -0.083 S  
HETATM   13  O   UNL     1      -6.894  10.688  66.660  1.00  0.00    -0.099 OA 
BRANCH  12  14
HETATM   14  C   UNL     1      -7.154  12.092  68.810  1.00  0.00    -0.111 A  
HETATM   15  N   UNL     1      -6.605  12.450  69.952  1.00  0.00    -0.357 NA 
HETATM   16  C   UNL     1      -6.763  13.818  70.006  1.00  0.00     0.131 A  
HETATM   17  H   UNL     1      -6.161  11.848  70.644  1.00  0.00     0.000 HD 
HETATM   18  C   UNL     1      -7.447  14.288  68.891  1.00  0.00    -0.123 A  
HETATM   19  N   UNL     1      -7.702  13.162  68.155  1.00  0.00    -0.131 NA 
HETATM   20  C   UNL     1      -7.734  15.640  68.680  1.00  0.00    -0.150 A  
HETATM   21  C   UNL     1      -7.306  16.549  69.660  1.00  0.00     0.154 A  
HETATM   22  C   UNL     1      -6.594  16.106  70.779  1.00  0.00     1.216 A  
HETATM   23  C   UNL     1      -6.324  14.740  70.968  1.00  0.00     0.201 A  
BRANCH  21  24
HETATM   24  O   UNL     1      -7.625  17.855  69.394  1.00  0.00    -0.012 OA 
HETATM   25  C   UNL     1      -8.668  18.405  70.182  1.00  0.00     2.306 C  
HETATM   26  F   UNL     1      -8.148  18.843  71.355  1.00  0.00     3.823 F  
HETATM   27  F   UNL     1      -9.132  19.501  69.528  1.00  0.00    -0.294 F  
ENDBRANCH  21  24
ENDBRANCH  12  14
ENDBRANCH  11  12
ENDBRANCH   6  11
ENDBRANCH   2   3
TORSDOF 6
ENDMDL
MODEL      285
REMARK 921   NORMALIZED FREE ENERGY PREDICTED BY IDOCK:   11.37 KCAL/MOL
REMARK 922        TOTAL FREE ENERGY PREDICTED BY IDOCK:   14.61 KCAL/MOL
REMARK 923 INTER-LIGAND FREE ENERGY PREDICTED BY IDOCK:   14.86 KCAL/MOL
REMARK 924 INTRA-LIGAND FREE ENERGY PREDICTED BY IDOCK:   -0.25 KCAL/MOL
REMARK 927      BINDING AFFINITY PREDICTED BY RF-SCORE:    0.00 PKD
ROOT
HETATM    1  C   UNL     1      -7.245   8.338  64.928  1.00  0.00    -0.081 C  
HETATM    2  O   UNL     1      -8.443   9.107  65.024  1.00  0.00    -0.151 OA 
ENDROOT
BRANCH   2   3
HETATM    3  C   UNL     1      -8.256  10.446  65.262  1.00  0.00    -0.162 A  
HETATM    4  C   UNL     1      -7.704  11.013  66.430  1.00  0.00    -0.146 A  
HETATM    5  C   UNL     1      -8.544  12.637  64.387  1.00  0.00     2.862 A  
HETATM    6  C   UNL     1      -7.482  12.395  66.445  1.00  0.00     0.751 A  
HETATM    7  C   UNL     1      -8.705  11.275  64.243  1.00  0.00     0.292 A  
HETATM    8  N   UNL     1      -7.942  13.207  65.452  1.00  0.00     3.400 NA 
BRANCH   4   9
HETATM    9  O   UNL     1      -7.335  10.160  67.440  1.00  0.00    -0.088 OA 
HETATM   10  C   UNL     1      -8.373   9.770  68.341  1.00  0.00    -0.110 C  
ENDBRANCH   4   9
BRANCH   6  11
HETATM   11  C   UNL     1      -6.662  13.094  67.500  1.00  0.00    -0.152 C  
BRANCH  11  12
HETATM   12  S   UNL     1      -7.403  12.912  69.146  1.00  0.00     0.243 S  
HETATM   13  O   UNL     1      -6.342  12.833  70.206  1.00  0.00    -0.046 OA 
BRANCH  12  14
HETATM   14  C   UNL     1      -8.100  14.490  69.299  1.00  0.00     0.029 A  
HETATM   15  N   UNL     1      -7.462  15.584  69.659  1.00  0.00    -0.194 NA 
HETATM   16  C   UNL     1      -8.384  16.597  69.509  1.00  0.00     0.338 A  
HETATM   17  H   UNL     1      -6.497  15.664  69.979  1.00  0.00     0.000 HD 
HETATM   18  C   UNL     1      -9.610  16.099  69.081  1.00  0.00    -0.249 A  
HETATM   19  N   UNL     1      -9.405  14.750  68.975  1.00  0.00    -0.192 NA 
HETATM   20  C   UNL     1     -10.723  16.909  68.834  1.00  0.00    -0.321 A  
HETATM   21  C   UNL     1     -10.574  18.289  69.043  1.00  0.00     0.272 A  
HETATM   22  C   UNL     1      -9.345  18.818  69.449  1.00  0.00     0.163 A  
HETATM   23  C   UNL     1      -8.244  17.980  69.696  1.00  0.00     0.915 A  
BRANCH  21  24
HETATM   24  O   UNL     1     -11.703  19.021  68.789  1.00  0.00     2.467 OA 
HETATM   25  C   UNL     1     -11.490  20.292  68.196  1.00  0.00     1.811 C  
HETATM   26  F   UNL     1     -11.373  20.136  66.854  1.00  0.00    -0.264 F  
HETATM   27  F   UNL     1     -12.612  21.027  68.406  1.00  0.00     3.473 F  
ENDBRANCH  21  24
ENDBRANCH  12  14
ENDBRANCH  11  12
ENDBRANCH   6  11
ENDBRANCH   2   3
TORSDOF 6
ENDMDL
MODEL      286
REMARK 921   NORMALIZED FREE ENERGY PREDICTED BY IDOCK:   12.47 KCAL/MOL
REMARK 922        TOTAL FREE ENERGY PREDICTED BY IDOCK:   16.09 KCAL/MOL
REMARK 923 INTER-LIGAND FREE ENERGY PREDICTED BY IDOCK:    8.91 KCAL/MOL
REMARK 924 INTRA-LIGAND FREE ENERGY PREDICTED BY IDOCK:    7.18 KCAL/MOL
REMARK 927      BINDING AFFINITY PREDICTED BY RF-SCORE:    0.00 PKD
ROOT
HETATM    1  C   UNL     1     -12.550  16.041  73.769  1.00  0.00    -0.610 C  
HETATM    2  O   UNL     1     -11.284  15.661  73.231  1.00  0.00     0.184 OA 
ENDROOT
BRANCH   2   3
HETATM    3  C   UNL     1     -11.201  15.699  71.861  1.00  0.00    -0.212 A  
HETATM    4  C   UNL     1     -12.134  15.152  70.956  1.00  0.00    -0.333 A  
HETATM    5  C   UNL     1      -9.889  16.408  70.011  1.00  0.00     0.425 A  
HETATM    6  C   UNL     1     -11.942  15.391  69.591  1.00  0.00    -0.343 A  
HETATM    7  C   UNL     1     -10.052  16.309  71.376  1.00  0.00     2.670 A  
HETATM    8  N   UNL     1     -10.803  15.973  69.118  1.00  0.00    -0.260 NA 
BRANCH   4   9
HETATM    9  O   UNL     1     -13.223  14.499  71.481  1.00  0.00    -0.325 OA 
HETATM   10  C   UNL     1     -13.642  14.923  72.779  1.00  0.00    -0.435 C  
ENDBRANCH   4   9
BRANCH   6  11
HETATM   11  C   UNL     1     -12.985  15.107  68.541  1.00  0.00     1.699 C  
BRANCH  11  12
HETATM   12  S   UNL     1     -13.012  13.349  68.090  1.00  0.00     2.836 S  
HETATM   13  O   UNL     1     -13.218  13.176  66.613  1.00  0.00     0.774 OA 
BRANCH  12  14
HETATM   14  C   UNL     1     -11.346  12.976  68.378  1.00  0.00    -0.291 A  
HETATM   15  N   UNL     1     -10.600  13.474  69.342  1.00  0.00    -0.433 NA 
HETATM   16  C   UNL     1      -9.405  12.793  69.251  1.00  0.00     0.928 A  
HETATM   17  H   UNL     1     -10.851  14.203  70.008  1.00  0.00     0.000 HD 
HETATM   18  C   UNL     1      -9.421  11.891  68.194  1.00  0.00    -0.195 A  
HETATM   19  N   UNL     1     -10.665  12.044  67.642  1.00  0.00    -0.211 NA 
HETATM   20  C   UNL     1      -8.344  11.057  67.880  1.00  0.00    -0.124 A  
HETATM   21  C   UNL     1      -7.197  11.158  68.682  1.00  0.00    -0.098 A  
HETATM   22  C   UNL     1      -7.163  12.039  69.768  1.00  0.00     0.537 A  
HETATM   23  C   UNL     1      -8.259  12.870  70.057  1.00  0.00     2.933 A  
BRANCH  21  24
HETATM   24  O   UNL     1      -6.178  10.318  68.316  1.00  0.00    -0.048 OA 
HETATM   25  C   UNL     1      -6.514   8.942  68.239  1.00  0.00    -0.059 C  
HETATM   26  F   UNL     1      -7.064   8.691  67.026  1.00  0.00    -0.071 F  
HETATM   27  F   UNL     1      -5.352   8.241  68.293  1.00  0.00    -0.030 F  
ENDBRANCH  21  24
ENDBRANCH  12  14
ENDBRANCH  11  12
ENDBRANCH   6  11
ENDBRANCH   2   3
TORSDOF 6
ENDMDL
MODEL      287
REMARK 921   NORMALIZED FREE ENERGY PREDICTED BY IDOCK:   52.34 KCAL/MOL
REMARK 922        TOTAL FREE ENERGY PREDICTED BY IDOCK:   69.95 KCAL/MOL
REMARK 923 INTER-LIGAND FREE ENERGY PREDICTED BY IDOCK:   63.97 KCAL/MOL
REMARK 924 INTRA-LIGAND FREE ENERGY PREDICTED BY IDOCK:    5.98 KCAL/MOL
REMARK 927      BINDING AFFINITY PREDICTED BY RF-SCORE:    0.00 PKD
ROOT
HETATM    1  C   UNL     1     -12.465  16.139  73.976  1.00  0.00    -0.595 C  
HETATM    2  O   UNL     1     -11.053  15.980  73.849  1.00  0.00     1.457 OA 
ENDROOT
BRANCH   2   3
HETATM    3  C   UNL     1     -10.468  16.745  72.869  1.00  0.00     5.392 A  
HETATM    4  C   UNL     1     -11.075  17.156  71.664  1.00  0.00     1.338 A  
HETATM    5  C   UNL     1      -8.481  17.862  72.199  1.00  0.00    15.313 A  
HETATM    6  C   UNL     1     -10.363  18.033  70.837  1.00  0.00     2.628 A  
HETATM    7  C   UNL     1      -9.146  17.083  73.121  1.00  0.00    16.015 A  
HETATM    8  N   UNL     1      -9.058  18.345  71.079  1.00  0.00     5.280 NA 
BRANCH   4   9
HETATM    9  O   UNL     1     -12.363  16.744  71.426  1.00  0.00     0.645 OA 
HETATM   10  C   UNL     1     -13.208  17.684  70.758  1.00  0.00    14.104 C  
ENDBRANCH   4   9
BRANCH   6  11
HETATM   11  C   UNL     1     -10.978  18.761  69.670  1.00  0.00     2.185 C  
BRANCH  11  12
HETATM   12  S   UNL     1     -10.981  17.736  68.173  1.00  0.00     0.139 S  
HETATM   13  O   UNL     1     -10.583  18.542  66.970  1.00  0.00    -0.395 OA 
BRANCH  12  14
HETATM   14  C   UNL     1      -9.617  16.733  68.537  1.00  0.00    -0.245 A  
HETATM   15  N   UNL     1      -9.045  16.608  69.716  1.00  0.00     0.474 NA 
HETATM   16  C   UNL     1      -8.102  15.617  69.548  1.00  0.00    -0.174 A  
HETATM   17  H   UNL     1      -9.254  17.130  70.567  1.00  0.00     0.000 HD 
HETATM   18  C   UNL     1      -8.084  15.159  68.235  1.00  0.00    -0.138 A  
HETATM   19  N   UNL     1      -9.048  15.904  67.608  1.00  0.00    -0.197 NA 
HETATM   20  C   UNL     1      -7.234  14.145  67.788  1.00  0.00    -0.187 A  
HETATM   21  C   UNL     1      -6.356  13.580  68.726  1.00  0.00    -0.093 A  
HETATM   22  C   UNL     1      -6.370  14.004  70.059  1.00  0.00    -0.118 A  
HETATM   23  C   UNL     1      -7.233  15.030  70.480  1.00  0.00     0.554 A  
BRANCH  21  24
HETATM   24  O   UNL     1      -5.546  12.598  68.220  1.00  0.00    -0.054 OA 
HETATM   25  C   UNL     1      -6.114  11.803  67.191  1.00  0.00    -0.144 C  
HETATM   26  F   UNL     1      -5.960  12.445  66.006  1.00  0.00     0.826 F  
HETATM   27  F   UNL     1      -5.383  10.662  67.114  1.00  0.00    -0.039 F  
ENDBRANCH  21  24
ENDBRANCH  12  14
ENDBRANCH  11  12
ENDBRANCH   6  11
ENDBRANCH   2   3
TORSDOF 6
ENDMDL
