MODEL        1
REMARK 921   NORMALIZED FREE ENERGY PREDICTED BY IDOCK:   -6.53 KCAL/MOL
REMARK 922        TOTAL FREE ENERGY PREDICTED BY IDOCK:   -9.63 KCAL/MOL
REMARK 923 INTER-LIGAND FREE ENERGY PREDICTED BY IDOCK:   -8.82 KCAL/MOL
REMARK 924 INTRA-LIGAND FREE ENERGY PREDICTED BY IDOCK:   -0.81 KCAL/MOL
REMARK 927      BINDING AFFINITY PREDICTED BY RF-SCORE:    0.00 PKD
ROOT
HETATM    1  C   UNL     1     -12.785  11.982  63.431  1.00  0.00    -0.398 C  
HETATM    2  O   UNL     1     -11.539  11.851  64.114  1.00  0.00    -0.358 OA 
ENDROOT
BRANCH   2   3
HETATM    3  C   UNL     1     -11.391  12.615  65.244  1.00  0.00    -0.315 A  
HETATM    4  C   UNL     1     -10.210  12.435  65.985  1.00  0.00    -0.245 A  
HETATM    5  C   UNL     1     -12.376  13.480  65.725  1.00  0.00    -0.516 A  
HETATM    6  C   UNL     1     -10.037  13.144  67.182  1.00  0.00    -0.242 A  
HETATM    7  C   UNL     1     -11.056  13.964  67.699  1.00  0.00    -0.295 A  
HETATM    8  C   UNL     1     -12.215  14.149  66.939  1.00  0.00    -0.400 A  
BRANCH   4   9
HETATM    9  O   UNL     1      -9.297  11.543  65.475  1.00  0.00    -0.223 OA 
HETATM   10  C   UNL     1      -8.617  10.702  66.403  1.00  0.00    -0.149 C  
ENDBRANCH   4   9
BRANCH   7  11
HETATM   11  C   UNL     1     -10.924  14.646  69.043  1.00  0.00    -0.269 C  
BRANCH  11  12
HETATM   12  C   UNL     1     -12.050  14.332  70.009  1.00  0.00    -0.340 A  
HETATM   13  N   UNL     1     -12.716  15.429  70.471  1.00  0.00    -0.421 NA 
HETATM   14  C   UNL     1     -13.640  15.243  71.429  1.00  0.00    -0.514 A  
HETATM   15  C   UNL     1     -13.953  14.008  71.956  1.00  0.00    -0.598 A  
HETATM   16  C   UNL     1     -13.268  12.882  71.487  1.00  0.00    -0.346 A  
HETATM   17  C   UNL     1     -13.535  11.618  72.033  1.00  0.00    -0.304 A  
HETATM   18  C   UNL     1     -12.821  10.469  71.650  1.00  0.00    -0.475 A  
HETATM   19  C   UNL     1     -12.294  13.018  70.486  1.00  0.00    -0.365 A  
HETATM   20  C   UNL     1     -11.868  10.577  70.635  1.00  0.00    -0.360 A  
HETATM   21  C   UNL     1     -11.623  11.842  70.068  1.00  0.00    -0.318 A  
BRANCH  18  22
HETATM   22  O   UNL     1     -13.066   9.260  72.255  1.00  0.00    -0.412 OA 
HETATM   23  C   UNL     1     -14.176   8.521  71.739  1.00  0.00    -0.446 C  
ENDBRANCH  18  22
BRANCH  20  24
HETATM   24  O   UNL     1     -11.038   9.631  70.099  1.00  0.00    -0.244 OA 
HETATM   25  C   UNL     1      -9.777   9.327  70.666  1.00  0.00    -0.272 C  
ENDBRANCH  20  24
ENDBRANCH  11  12
ENDBRANCH   7  11
ENDBRANCH   2   3
TORSDOF 6
ENDMDL
MODEL        2
REMARK 921   NORMALIZED FREE ENERGY PREDICTED BY IDOCK:   -6.43 KCAL/MOL
REMARK 922        TOTAL FREE ENERGY PREDICTED BY IDOCK:   -9.49 KCAL/MOL
REMARK 923 INTER-LIGAND FREE ENERGY PREDICTED BY IDOCK:   -8.64 KCAL/MOL
REMARK 924 INTRA-LIGAND FREE ENERGY PREDICTED BY IDOCK:   -0.85 KCAL/MOL
REMARK 927      BINDING AFFINITY PREDICTED BY RF-SCORE:    0.00 PKD
ROOT
HETATM    1  C   UNL     1      -6.928  19.246  69.017  1.00  0.00    -0.346 C  
HETATM    2  O   UNL     1      -7.092  18.390  67.887  1.00  0.00    -0.217 OA 
ENDROOT
BRANCH   2   3
HETATM    3  C   UNL     1      -8.160  17.530  67.937  1.00  0.00    -0.230 A  
HETATM    4  C   UNL     1      -9.205  17.759  67.025  1.00  0.00    -0.255 A  
HETATM    5  C   UNL     1      -8.291  16.515  68.887  1.00  0.00    -0.241 A  
HETATM    6  C   UNL     1     -10.348  16.949  67.075  1.00  0.00    -0.307 A  
HETATM    7  C   UNL     1     -10.507  15.970  68.073  1.00  0.00    -0.275 A  
HETATM    8  C   UNL     1      -9.450  15.742  68.958  1.00  0.00    -0.247 A  
BRANCH   4   9
HETATM    9  O   UNL     1      -9.029  18.795  66.140  1.00  0.00    -0.449 OA 
HETATM   10  C   UNL     1     -10.098  19.729  66.007  1.00  0.00    -0.477 C  
ENDBRANCH   4   9
BRANCH   7  11
HETATM   11  C   UNL     1     -11.782  15.167  68.204  1.00  0.00    -0.323 C  
BRANCH  11  12
HETATM   12  C   UNL     1     -11.566  13.666  68.251  1.00  0.00    -0.339 A  
HETATM   13  N   UNL     1     -11.048  13.137  67.106  1.00  0.00    -0.272 NA 
HETATM   14  C   UNL     1     -10.950  11.799  67.023  1.00  0.00    -0.285 A  
HETATM   15  C   UNL     1     -11.334  10.944  68.033  1.00  0.00    -0.382 A  
HETATM   16  C   UNL     1     -11.869  11.485  69.207  1.00  0.00    -0.414 A  
HETATM   17  C   UNL     1     -12.307  10.638  70.236  1.00  0.00    -0.406 A  
HETATM   18  C   UNL     1     -12.922  11.128  71.401  1.00  0.00    -0.403 A  
HETATM   19  C   UNL     1     -11.994  12.874  69.348  1.00  0.00    -0.327 A  
HETATM   20  C   UNL     1     -13.028  12.509  71.575  1.00  0.00    -0.280 A  
HETATM   21  C   UNL     1     -12.562  13.358  70.553  1.00  0.00    -0.281 A  
BRANCH  18  22
HETATM   22  O   UNL     1     -13.397  10.263  72.358  1.00  0.00    -0.325 OA 
HETATM   23  C   UNL     1     -13.880   9.007  71.875  1.00  0.00    -0.423 C  
ENDBRANCH  18  22
BRANCH  20  24
HETATM   24  O   UNL     1     -13.590  13.230  72.592  1.00  0.00    -0.626 OA 
HETATM   25  C   UNL     1     -13.067  14.478  73.009  1.00  0.00    -0.510 C  
ENDBRANCH  20  24
ENDBRANCH  11  12
ENDBRANCH   7  11
ENDBRANCH   2   3
TORSDOF 6
ENDMDL
MODEL        3
REMARK 921   NORMALIZED FREE ENERGY PREDICTED BY IDOCK:   -6.41 KCAL/MOL
REMARK 922        TOTAL FREE ENERGY PREDICTED BY IDOCK:   -9.47 KCAL/MOL
REMARK 923 INTER-LIGAND FREE ENERGY PREDICTED BY IDOCK:   -8.52 KCAL/MOL
REMARK 924 INTRA-LIGAND FREE ENERGY PREDICTED BY IDOCK:   -0.95 KCAL/MOL
REMARK 927      BINDING AFFINITY PREDICTED BY RF-SCORE:    0.00 PKD
ROOT
HETATM    1  C   UNL     1     -13.886   9.082  72.215  1.00  0.00    -0.484 C  
HETATM    2  O   UNL     1     -13.391  10.420  72.211  1.00  0.00    -0.396 OA 
ENDROOT
BRANCH   2   3
HETATM    3  C   UNL     1     -12.540  10.742  71.183  1.00  0.00    -0.428 A  
HETATM    4  C   UNL     1     -12.484  12.094  70.804  1.00  0.00    -0.271 A  
HETATM    5  C   UNL     1     -11.811   9.797  70.459  1.00  0.00    -0.316 A  
HETATM    6  C   UNL     1     -11.679  12.469  69.718  1.00  0.00    -0.355 A  
HETATM    7  C   UNL     1     -10.998  11.508  68.949  1.00  0.00    -0.279 A  
HETATM    8  C   UNL     1     -11.048  10.171  69.352  1.00  0.00    -0.288 A  
BRANCH   4   9
HETATM    9  O   UNL     1     -13.252  12.969  71.535  1.00  0.00    -0.351 OA 
HETATM   10  C   UNL     1     -12.933  14.355  71.439  1.00  0.00    -0.335 C  
ENDBRANCH   4   9
BRANCH   7  11
HETATM   11  C   UNL     1     -10.217  11.888  67.710  1.00  0.00    -0.211 C  
BRANCH  11  12
HETATM   12  C   UNL     1     -10.976  12.788  66.753  1.00  0.00    -0.270 A  
HETATM   13  N   UNL     1     -11.899  12.141  65.986  1.00  0.00    -0.561 NA 
HETATM   14  C   UNL     1     -12.519  12.845  65.024  1.00  0.00    -0.492 A  
HETATM   15  C   UNL     1     -12.276  14.181  64.783  1.00  0.00    -0.457 A  
HETATM   16  C   UNL     1     -11.327  14.845  65.566  1.00  0.00    -0.339 A  
HETATM   17  C   UNL     1     -11.029  16.193  65.317  1.00  0.00    -0.280 A  
HETATM   18  C   UNL     1     -10.030  16.884  66.025  1.00  0.00    -0.293 A  
HETATM   19  C   UNL     1     -10.651  14.159  66.585  1.00  0.00    -0.278 A  
HETATM   20  C   UNL     1      -9.366  16.228  67.063  1.00  0.00    -0.221 A  
HETATM   21  C   UNL     1      -9.687  14.884  67.329  1.00  0.00    -0.228 A  
BRANCH  18  22
HETATM   22  O   UNL     1      -9.721  18.186  65.708  1.00  0.00    -0.503 OA 
HETATM   23  C   UNL     1     -10.493  19.187  66.377  1.00  0.00    -0.463 C  
ENDBRANCH  18  22
BRANCH  20  24
HETATM   24  O   UNL     1      -8.358  16.662  67.880  1.00  0.00    -0.180 OA 
HETATM   25  C   UNL     1      -8.025  15.996  69.084  1.00  0.00    -0.238 C  
ENDBRANCH  20  24
ENDBRANCH  11  12
ENDBRANCH   7  11
ENDBRANCH   2   3
TORSDOF 6
ENDMDL
MODEL        4
REMARK 921   NORMALIZED FREE ENERGY PREDICTED BY IDOCK:   -6.41 KCAL/MOL
REMARK 922        TOTAL FREE ENERGY PREDICTED BY IDOCK:   -9.47 KCAL/MOL
REMARK 923 INTER-LIGAND FREE ENERGY PREDICTED BY IDOCK:   -8.63 KCAL/MOL
REMARK 924 INTRA-LIGAND FREE ENERGY PREDICTED BY IDOCK:   -0.83 KCAL/MOL
REMARK 927      BINDING AFFINITY PREDICTED BY RF-SCORE:    0.00 PKD
ROOT
HETATM    1  C   UNL     1     -10.200   6.274  74.252  1.00  0.00    -0.335 C  
HETATM    2  O   UNL     1      -9.545   7.259  73.455  1.00  0.00    -0.198 OA 
ENDROOT
BRANCH   2   3
HETATM    3  C   UNL     1     -10.356   8.009  72.642  1.00  0.00    -0.329 A  
HETATM    4  C   UNL     1      -9.722   8.881  71.740  1.00  0.00    -0.295 A  
HETATM    5  C   UNL     1     -11.750   8.008  72.728  1.00  0.00    -0.352 A  
HETATM    6  C   UNL     1     -10.504   9.716  70.930  1.00  0.00    -0.359 A  
HETATM    7  C   UNL     1     -11.903   9.762  71.063  1.00  0.00    -0.442 A  
HETATM    8  C   UNL     1     -12.519   8.874  71.950  1.00  0.00    -0.445 A  
BRANCH   4   9
HETATM    9  O   UNL     1      -8.348   8.858  71.729  1.00  0.00    -0.321 OA 
HETATM   10  C   UNL     1      -7.696   9.356  70.563  1.00  0.00    -0.161 C  
ENDBRANCH   4   9
BRANCH   7  11
HETATM   11  C   UNL     1     -12.747  10.738  70.274  1.00  0.00    -0.286 C  
BRANCH  11  12
HETATM   12  C   UNL     1     -12.759  12.145  70.841  1.00  0.00    -0.189 A  
HETATM   13  N   UNL     1     -13.381  12.257  72.050  1.00  0.00    -0.477 NA 
HETATM   14  C   UNL     1     -13.548  13.491  72.557  1.00  0.00    -0.569 A  
HETATM   15  C   UNL     1     -13.116  14.637  71.925  1.00  0.00    -0.414 A  
HETATM   16  C   UNL     1     -12.482  14.524  70.683  1.00  0.00    -0.409 A  
HETATM   17  C   UNL     1     -12.070  15.676  69.997  1.00  0.00    -0.379 A  
HETATM   18  C   UNL     1     -11.498  15.621  68.714  1.00  0.00    -0.376 A  
HETATM   19  C   UNL     1     -12.281  13.261  70.108  1.00  0.00    -0.376 A  
HETATM   20  C   UNL     1     -11.262  14.372  68.136  1.00  0.00    -0.281 A  
HETATM   21  C   UNL     1     -11.651  13.216  68.840  1.00  0.00    -0.354 A  
BRANCH  18  22
HETATM   22  O   UNL     1     -11.166  16.775  68.045  1.00  0.00    -0.295 OA 
HETATM   23  C   UNL     1     -10.167  17.587  68.667  1.00  0.00    -0.373 C  
ENDBRANCH  18  22
BRANCH  20  24
HETATM   24  O   UNL     1     -10.743  14.049  66.912  1.00  0.00    -0.282 OA 
HETATM   25  C   UNL     1     -11.545  13.985  65.747  1.00  0.00    -0.339 C  
ENDBRANCH  20  24
ENDBRANCH  11  12
ENDBRANCH   7  11
ENDBRANCH   2   3
TORSDOF 6
ENDMDL
MODEL        5
REMARK 921   NORMALIZED FREE ENERGY PREDICTED BY IDOCK:   -6.31 KCAL/MOL
REMARK 922        TOTAL FREE ENERGY PREDICTED BY IDOCK:   -9.33 KCAL/MOL
REMARK 923 INTER-LIGAND FREE ENERGY PREDICTED BY IDOCK:   -8.36 KCAL/MOL
REMARK 924 INTRA-LIGAND FREE ENERGY PREDICTED BY IDOCK:   -0.98 KCAL/MOL
REMARK 927      BINDING AFFINITY PREDICTED BY RF-SCORE:    0.00 PKD
ROOT
HETATM    1  C   UNL     1     -12.865  15.980  73.739  1.00  0.00    -0.572 C  
HETATM    2  O   UNL     1     -13.127  14.689  73.190  1.00  0.00    -0.499 OA 
ENDROOT
BRANCH   2   3
HETATM    3  C   UNL     1     -12.832  14.533  71.859  1.00  0.00    -0.338 A  
HETATM    4  C   UNL     1     -12.837  13.220  71.356  1.00  0.00    -0.322 A  
HETATM    5  C   UNL     1     -12.451  15.585  71.023  1.00  0.00    -0.492 A  
HETATM    6  C   UNL     1     -12.480  12.997  70.018  1.00  0.00    -0.112 A  
HETATM    7  C   UNL     1     -12.035  14.049  69.197  1.00  0.00    -0.400 A  
HETATM    8  C   UNL     1     -12.055  15.350  69.706  1.00  0.00    -0.373 A  
BRANCH   4   9
HETATM    9  O   UNL     1     -13.186  12.227  72.239  1.00  0.00    -0.470 OA 
HETATM   10  C   UNL     1     -13.042  10.879  71.796  1.00  0.00    -0.459 C  
ENDBRANCH   4   9
BRANCH   7  11
HETATM   11  C   UNL     1     -11.542  13.803  67.788  1.00  0.00    -0.381 C  
BRANCH  11  12
HETATM   12  C   UNL     1     -10.048  13.998  67.612  1.00  0.00    -0.241 A  
HETATM   13  N   UNL     1      -9.286  12.992  68.130  1.00  0.00    -0.214 NA 
HETATM   14  C   UNL     1      -7.951  13.154  68.130  1.00  0.00    -0.154 A  
HETATM   15  C   UNL     1      -7.321  14.271  67.626  1.00  0.00    -0.192 A  
HETATM   16  C   UNL     1      -8.101  15.305  67.098  1.00  0.00    -0.248 A  
HETATM   17  C   UNL     1      -7.489  16.472  66.616  1.00  0.00    -0.296 A  
HETATM   18  C   UNL     1      -8.231  17.569  66.146  1.00  0.00    -0.187 A  
HETATM   19  C   UNL     1      -9.498  15.189  67.072  1.00  0.00    -0.237 A  
HETATM   20  C   UNL     1      -9.622  17.463  66.084  1.00  0.00    -0.193 A  
HETATM   21  C   UNL     1     -10.232  16.279  66.542  1.00  0.00    -0.307 A  
BRANCH  18  22
HETATM   22  O   UNL     1      -7.599  18.721  65.743  1.00  0.00    -0.468 OA 
HETATM   23  C   UNL     1      -7.195  19.607  66.790  1.00  0.00    -0.224 C  
ENDBRANCH  18  22
BRANCH  20  24
HETATM   24  O   UNL     1     -10.561  18.377  65.690  1.00  0.00    -0.622 OA 
HETATM   25  C   UNL     1     -10.875  19.517  66.470  1.00  0.00    -0.358 C  
ENDBRANCH  20  24
ENDBRANCH  11  12
ENDBRANCH   7  11
ENDBRANCH   2   3
TORSDOF 6
ENDMDL
MODEL        6
REMARK 921   NORMALIZED FREE ENERGY PREDICTED BY IDOCK:   -6.28 KCAL/MOL
REMARK 922        TOTAL FREE ENERGY PREDICTED BY IDOCK:   -9.29 KCAL/MOL
REMARK 923 INTER-LIGAND FREE ENERGY PREDICTED BY IDOCK:   -8.61 KCAL/MOL
REMARK 924 INTRA-LIGAND FREE ENERGY PREDICTED BY IDOCK:   -0.68 KCAL/MOL
REMARK 927      BINDING AFFINITY PREDICTED BY RF-SCORE:    0.00 PKD
ROOT
HETATM    1  C   UNL     1      -6.868  19.483  68.171  1.00  0.00    -0.271 C  
HETATM    2  O   UNL     1      -8.170  19.416  68.750  1.00  0.00    -0.360 OA 
ENDROOT
BRANCH   2   3
HETATM    3  C   UNL     1      -8.844  18.234  68.574  1.00  0.00    -0.304 A  
HETATM    4  C   UNL     1     -10.093  18.302  67.933  1.00  0.00    -0.361 A  
HETATM    5  C   UNL     1      -8.395  17.007  69.070  1.00  0.00    -0.125 A  
HETATM    6  C   UNL     1     -10.853  17.133  67.784  1.00  0.00    -0.270 A  
HETATM    7  C   UNL     1     -10.429  15.912  68.341  1.00  0.00    -0.254 A  
HETATM    8  C   UNL     1      -9.176  15.857  68.957  1.00  0.00    -0.242 A  
BRANCH   4   9
HETATM    9  O   UNL     1     -10.493  19.544  67.501  1.00  0.00    -0.418 OA 
HETATM   10  C   UNL     1     -10.457  19.789  66.097  1.00  0.00    -0.509 C  
ENDBRANCH   4   9
BRANCH   7  11
HETATM   11  C   UNL     1     -11.292  14.670  68.283  1.00  0.00    -0.317 C  
BRANCH  11  12
HETATM   12  C   UNL     1     -12.117  14.431  69.534  1.00  0.00    -0.322 A  
HETATM   13  N   UNL     1     -12.609  15.567  70.106  1.00  0.00    -0.341 NA 
HETATM   14  C   UNL     1     -13.240  15.450  71.288  1.00  0.00    -0.510 A  
HETATM   15  C   UNL     1     -13.420  14.248  71.938  1.00  0.00    -0.485 A  
HETATM   16  C   UNL     1     -12.911  13.083  71.354  1.00  0.00    -0.373 A  
HETATM   17  C   UNL     1     -13.043  11.851  72.012  1.00  0.00    -0.441 A  
HETATM   18  C   UNL     1     -12.483  10.666  71.505  1.00  0.00    -0.366 A  
HETATM   19  C   UNL     1     -12.246  13.146  70.121  1.00  0.00    -0.360 A  
HETATM   20  C   UNL     1     -11.842  10.701  70.265  1.00  0.00    -0.342 A  
HETATM   21  C   UNL     1     -11.737  11.934  69.593  1.00  0.00    -0.413 A  
BRANCH  18  22
HETATM   22  O   UNL     1     -12.577   9.490  72.211  1.00  0.00    -0.342 OA 
HETATM   23  C   UNL     1     -13.855   8.850  72.186  1.00  0.00    -0.473 C  
ENDBRANCH  18  22
BRANCH  20  24
HETATM   24  O   UNL     1     -11.209   9.708  69.570  1.00  0.00    -0.205 OA 
HETATM   25  C   UNL     1      -9.842   9.400  69.773  1.00  0.00    -0.201 C  
ENDBRANCH  20  24
ENDBRANCH  11  12
ENDBRANCH   7  11
ENDBRANCH   2   3
TORSDOF 6
ENDMDL
MODEL        7
REMARK 921   NORMALIZED FREE ENERGY PREDICTED BY IDOCK:   -6.26 KCAL/MOL
REMARK 922        TOTAL FREE ENERGY PREDICTED BY IDOCK:   -9.26 KCAL/MOL
REMARK 923 INTER-LIGAND FREE ENERGY PREDICTED BY IDOCK:   -8.73 KCAL/MOL
REMARK 924 INTRA-LIGAND FREE ENERGY PREDICTED BY IDOCK:   -0.53 KCAL/MOL
REMARK 927      BINDING AFFINITY PREDICTED BY RF-SCORE:    0.00 PKD
ROOT
HETATM    1  C   UNL     1     -12.554  11.962  63.205  1.00  0.00    -0.344 C  
HETATM    2  O   UNL     1     -12.294  13.281  63.682  1.00  0.00    -0.665 OA 
ENDROOT
BRANCH   2   3
HETATM    3  C   UNL     1     -12.045  13.395  65.026  1.00  0.00    -0.401 A  
HETATM    4  C   UNL     1     -11.577  14.639  65.484  1.00  0.00    -0.335 A  
HETATM    5  C   UNL     1     -12.152  12.331  65.924  1.00  0.00    -0.261 A  
HETATM    6  C   UNL     1     -11.247  14.791  66.838  1.00  0.00    -0.347 A  
HETATM    7  C   UNL     1     -11.292  13.702  67.727  1.00  0.00    -0.336 A  
HETATM    8  C   UNL     1     -11.779  12.478  67.261  1.00  0.00    -0.431 A  
BRANCH   4   9
HETATM    9  O   UNL     1     -11.462  15.634  64.543  1.00  0.00    -0.415 OA 
HETATM   10  C   UNL     1     -10.749  16.810  64.920  1.00  0.00    -0.018 C  
ENDBRANCH   4   9
BRANCH   7  11
HETATM   11  C   UNL     1     -10.832  13.828  69.163  1.00  0.00    -0.205 C  
BRANCH  11  12
HETATM   12  C   UNL     1     -11.879  13.430  70.186  1.00  0.00    -0.272 A  
HETATM   13  N   UNL     1     -12.546  14.481  70.744  1.00  0.00    -0.331 NA 
HETATM   14  C   UNL     1     -13.397  14.219  71.751  1.00  0.00    -0.371 A  
HETATM   15  C   UNL     1     -13.634  12.950  72.236  1.00  0.00    -0.611 A  
HETATM   16  C   UNL     1     -12.948  11.872  71.667  1.00  0.00    -0.447 A  
HETATM   17  C   UNL     1     -13.137  10.575  72.167  1.00  0.00    -0.413 A  
HETATM   18  C   UNL     1     -12.416   9.471  71.682  1.00  0.00    -0.391 A  
HETATM   19  C   UNL     1     -12.049  12.087  70.612  1.00  0.00    -0.369 A  
HETATM   20  C   UNL     1     -11.538   9.658  70.612  1.00  0.00    -0.299 A  
HETATM   21  C   UNL     1     -11.372  10.957  70.093  1.00  0.00    -0.367 A  
BRANCH  18  22
HETATM   22  O   UNL     1     -12.582   8.226  72.241  1.00  0.00    -0.334 OA 
HETATM   23  C   UNL     1     -13.508   7.364  71.575  1.00  0.00    -0.372 C  
ENDBRANCH  18  22
BRANCH  20  24
HETATM   24  O   UNL     1     -10.718   8.768  69.976  1.00  0.00    -0.224 OA 
HETATM   25  C   UNL     1      -9.474   8.368  70.522  1.00  0.00    -0.169 C  
ENDBRANCH  20  24
ENDBRANCH  11  12
ENDBRANCH   7  11
ENDBRANCH   2   3
TORSDOF 6
ENDMDL
MODEL        8
REMARK 921   NORMALIZED FREE ENERGY PREDICTED BY IDOCK:   -6.26 KCAL/MOL
REMARK 922        TOTAL FREE ENERGY PREDICTED BY IDOCK:   -9.25 KCAL/MOL
REMARK 923 INTER-LIGAND FREE ENERGY PREDICTED BY IDOCK:   -8.34 KCAL/MOL
REMARK 924 INTRA-LIGAND FREE ENERGY PREDICTED BY IDOCK:   -0.92 KCAL/MOL
REMARK 927      BINDING AFFINITY PREDICTED BY RF-SCORE:    0.00 PKD
ROOT
HETATM    1  C   UNL     1     -10.564  18.005  67.470  1.00  0.00    -0.388 C  
HETATM    2  O   UNL     1     -11.044  17.335  68.634  1.00  0.00    -0.194 OA 
ENDROOT
BRANCH   2   3
HETATM    3  C   UNL     1     -11.288  15.992  68.496  1.00  0.00    -0.382 A  
HETATM    4  C   UNL     1     -11.621  15.282  69.663  1.00  0.00    -0.321 A  
HETATM    5  C   UNL     1     -11.139  15.300  67.292  1.00  0.00    -0.325 A  
HETATM    6  C   UNL     1     -11.818  13.896  69.589  1.00  0.00    -0.385 A  
HETATM    7  C   UNL     1     -11.604  13.191  68.390  1.00  0.00    -0.372 A  
HETATM    8  C   UNL     1     -11.294  13.914  67.235  1.00  0.00    -0.344 A  
BRANCH   4   9
HETATM    9  O   UNL     1     -11.717  16.016  70.821  1.00  0.00    -0.379 OA 
HETATM   10  C   UNL     1     -12.789  15.702  71.705  1.00  0.00    -0.458 C  
ENDBRANCH   4   9
BRANCH   7  11
HETATM   11  C   UNL     1     -11.705  11.683  68.325  1.00  0.00    -0.374 C  
BRANCH  11  12
HETATM   12  C   UNL     1     -10.544  10.956  68.977  1.00  0.00    -0.216 A  
HETATM   13  N   UNL     1      -9.371  11.040  68.286  1.00  0.00    -0.166 NA 
HETATM   14  C   UNL     1      -8.329  10.316  68.730  1.00  0.00    -0.125 A  
HETATM   15  C   UNL     1      -8.385   9.507  69.845  1.00  0.00    -0.180 A  
HETATM   16  C   UNL     1      -9.589   9.415  70.551  1.00  0.00    -0.330 A  
HETATM   17  C   UNL     1      -9.688   8.568  71.665  1.00  0.00    -0.322 A  
HETATM   18  C   UNL     1     -10.895   8.383  72.362  1.00  0.00    -0.346 A  
HETATM   19  C   UNL     1     -10.708  10.151  70.134  1.00  0.00    -0.355 A  
HETATM   20  C   UNL     1     -12.013   9.128  71.981  1.00  0.00    -0.350 A  
HETATM   21  C   UNL     1     -11.902   9.999  70.880  1.00  0.00    -0.459 A  
BRANCH  18  22
HETATM   22  O   UNL     1     -10.970   7.495  73.408  1.00  0.00    -0.380 OA 
HETATM   23  C   UNL     1     -10.760   6.121  73.073  1.00  0.00    -0.252 C  
ENDBRANCH  18  22
BRANCH  20  24
HETATM   24  O   UNL     1     -13.288   9.122  72.475  1.00  0.00    -0.458 OA 
HETATM   25  C   UNL     1     -14.303   8.298  71.930  1.00  0.00    -0.476 C  
ENDBRANCH  20  24
ENDBRANCH  11  12
ENDBRANCH   7  11
ENDBRANCH   2   3
TORSDOF 6
ENDMDL
MODEL        9
REMARK 921   NORMALIZED FREE ENERGY PREDICTED BY IDOCK:   -6.23 KCAL/MOL
REMARK 922        TOTAL FREE ENERGY PREDICTED BY IDOCK:   -9.22 KCAL/MOL
REMARK 923 INTER-LIGAND FREE ENERGY PREDICTED BY IDOCK:   -8.44 KCAL/MOL
REMARK 924 INTRA-LIGAND FREE ENERGY PREDICTED BY IDOCK:   -0.78 KCAL/MOL
REMARK 927      BINDING AFFINITY PREDICTED BY RF-SCORE:    0.00 PKD
ROOT
HETATM    1  C   UNL     1      -6.504  18.840  69.265  1.00  0.00    -0.279 C  
HETATM    2  O   UNL     1      -7.263  18.358  68.158  1.00  0.00    -0.246 OA 
ENDROOT
BRANCH   2   3
HETATM    3  C   UNL     1      -8.365  17.603  68.471  1.00  0.00    -0.291 A  
HETATM    4  C   UNL     1      -9.622  18.154  68.165  1.00  0.00    -0.307 A  
HETATM    5  C   UNL     1      -8.299  16.379  69.140  1.00  0.00    -0.182 A  
HETATM    6  C   UNL     1     -10.783  17.453  68.521  1.00  0.00    -0.279 A  
HETATM    7  C   UNL     1     -10.716  16.253  69.253  1.00  0.00    -0.307 A  
HETATM    8  C   UNL     1      -9.458  15.709  69.530  1.00  0.00    -0.275 A  
BRANCH   4   9
HETATM    9  O   UNL     1      -9.619  19.377  67.538  1.00  0.00    -0.309 OA 
HETATM   10  C   UNL     1     -10.488  19.539  66.420  1.00  0.00    -0.498 C  
ENDBRANCH   4   9
BRANCH   7  11
HETATM   11  C   UNL     1     -11.962  15.546  69.738  1.00  0.00    -0.384 C  
BRANCH  11  12
HETATM   12  C   UNL     1     -12.022  14.076  69.371  1.00  0.00    -0.343 A  
HETATM   13  N   UNL     1     -12.086  13.232  70.440  1.00  0.00    -0.352 NA 
HETATM   14  C   UNL     1     -12.011  11.911  70.202  1.00  0.00    -0.332 A  
HETATM   15  C   UNL     1     -11.883  11.372  68.940  1.00  0.00    -0.413 A  
HETATM   16  C   UNL     1     -11.813  12.236  67.842  1.00  0.00    -0.358 A  
HETATM   17  C   UNL     1     -11.641  11.718  66.550  1.00  0.00    -0.256 A  
HETATM   18  C   UNL     1     -11.489  12.545  65.424  1.00  0.00    -0.344 A  
HETATM   19  C   UNL     1     -11.888  13.623  68.032  1.00  0.00    -0.397 A  
HETATM   20  C   UNL     1     -11.590  13.928  65.587  1.00  0.00    -0.333 A  
HETATM   21  C   UNL     1     -11.791  14.444  66.882  1.00  0.00    -0.433 A  
BRANCH  18  22
HETATM   22  O   UNL     1     -11.257  12.003  64.183  1.00  0.00    -0.325 OA 
HETATM   23  C   UNL     1     -12.377  11.986  63.293  1.00  0.00    -0.438 C  
ENDBRANCH  18  22
BRANCH  20  24
HETATM   24  O   UNL     1     -11.464  14.937  64.672  1.00  0.00    -0.398 OA 
HETATM   25  C   UNL     1     -10.806  16.154  64.978  1.00  0.00    -0.363 C  
ENDBRANCH  20  24
ENDBRANCH  11  12
ENDBRANCH   7  11
ENDBRANCH   2   3
TORSDOF 6
ENDMDL
MODEL       10
REMARK 921   NORMALIZED FREE ENERGY PREDICTED BY IDOCK:   -6.23 KCAL/MOL
REMARK 922        TOTAL FREE ENERGY PREDICTED BY IDOCK:   -9.21 KCAL/MOL
REMARK 923 INTER-LIGAND FREE ENERGY PREDICTED BY IDOCK:   -8.47 KCAL/MOL
REMARK 924 INTRA-LIGAND FREE ENERGY PREDICTED BY IDOCK:   -0.75 KCAL/MOL
REMARK 927      BINDING AFFINITY PREDICTED BY RF-SCORE:    0.00 PKD
ROOT
HETATM    1  C   UNL     1      -9.956  19.555  68.966  1.00  0.00    -0.414 C  
HETATM    2  O   UNL     1      -9.201  18.478  68.413  1.00  0.00    -0.306 OA 
ENDROOT
BRANCH   2   3
HETATM    3  C   UNL     1      -9.877  17.295  68.249  1.00  0.00    -0.304 A  
HETATM    4  C   UNL     1      -9.781  16.676  66.990  1.00  0.00    -0.249 A  
HETATM    5  C   UNL     1     -10.706  16.737  69.225  1.00  0.00    -0.324 A  
HETATM    6  C   UNL     1     -10.503  15.499  66.748  1.00  0.00    -0.295 A  
HETATM    7  C   UNL     1     -11.388  14.974  67.709  1.00  0.00    -0.340 A  
HETATM    8  C   UNL     1     -11.456  15.590  68.962  1.00  0.00    -0.361 A  
BRANCH   4   9
HETATM    9  O   UNL     1      -8.977  17.295  66.063  1.00  0.00    -0.486 OA 
HETATM   10  C   UNL     1      -7.586  16.986  66.096  1.00  0.00    -0.245 C  
ENDBRANCH   4   9
BRANCH   7  11
HETATM   11  C   UNL     1     -12.254  13.769  67.418  1.00  0.00    -0.290 C  
BRANCH  11  12
HETATM   12  C   UNL     1     -11.556  12.439  67.630  1.00  0.00    -0.357 A  
HETATM   13  N   UNL     1     -10.885  11.976  66.537  1.00  0.00    -0.265 NA 
HETATM   14  C   UNL     1     -10.350  10.745  66.605  1.00  0.00    -0.241 A  
HETATM   15  C   UNL     1     -10.439   9.938  67.719  1.00  0.00    -0.292 A  
HETATM   16  C   UNL     1     -11.131  10.409  68.839  1.00  0.00    -0.296 A  
HETATM   17  C   UNL     1     -11.272   9.594  69.972  1.00  0.00    -0.271 A  
HETATM   18  C   UNL     1     -12.022   9.990  71.093  1.00  0.00    -0.392 A  
HETATM   19  C   UNL     1     -11.707  11.687  68.824  1.00  0.00    -0.392 A  
HETATM   20  C   UNL     1     -12.579  11.271  71.111  1.00  0.00    -0.397 A  
HETATM   21  C   UNL     1     -12.411  12.097  69.983  1.00  0.00    -0.167 A  
BRANCH  18  22
HETATM   22  O   UNL     1     -12.193   9.139  72.158  1.00  0.00    -0.367 OA 
HETATM   23  C   UNL     1     -11.070   8.314  72.481  1.00  0.00    -0.368 C  
ENDBRANCH  18  22
BRANCH  20  24
HETATM   24  O   UNL     1     -13.355  11.884  72.056  1.00  0.00    -0.487 OA 
HETATM   25  C   UNL     1     -13.444  13.293  72.158  1.00  0.00    -0.562 C  
ENDBRANCH  20  24
ENDBRANCH  11  12
ENDBRANCH   7  11
ENDBRANCH   2   3
TORSDOF 6
ENDMDL
MODEL       11
REMARK 921   NORMALIZED FREE ENERGY PREDICTED BY IDOCK:   -6.22 KCAL/MOL
REMARK 922        TOTAL FREE ENERGY PREDICTED BY IDOCK:   -9.21 KCAL/MOL
REMARK 923 INTER-LIGAND FREE ENERGY PREDICTED BY IDOCK:   -8.61 KCAL/MOL
REMARK 924 INTRA-LIGAND FREE ENERGY PREDICTED BY IDOCK:   -0.59 KCAL/MOL
REMARK 927      BINDING AFFINITY PREDICTED BY RF-SCORE:    0.00 PKD
ROOT
HETATM    1  C   UNL     1     -10.602   6.590  71.565  1.00  0.00    -0.229 C  
HETATM    2  O   UNL     1     -10.864   7.773  72.318  1.00  0.00    -0.243 OA 
ENDROOT
BRANCH   2   3
HETATM    3  C   UNL     1     -11.082   8.913  71.587  1.00  0.00    -0.350 A  
HETATM    4  C   UNL     1     -12.362   9.488  71.671  1.00  0.00    -0.398 A  
HETATM    5  C   UNL     1     -10.139   9.465  70.716  1.00  0.00    -0.366 A  
HETATM    6  C   UNL     1     -12.658  10.618  70.895  1.00  0.00    -0.503 A  
HETATM    7  C   UNL     1     -11.730  11.133  69.971  1.00  0.00    -0.438 A  
HETATM    8  C   UNL     1     -10.456  10.562  69.915  1.00  0.00    -0.213 A  
BRANCH   4   9
HETATM    9  O   UNL     1     -13.254   8.877  72.518  1.00  0.00    -0.426 OA 
HETATM   10  C   UNL     1     -14.406   8.277  71.931  1.00  0.00    -0.476 C  
ENDBRANCH   4   9
BRANCH   7  11
HETATM   11  C   UNL     1     -12.079  12.281  69.050  1.00  0.00    -0.197 C  
BRANCH  11  12
HETATM   12  C   UNL     1     -11.761  13.650  69.620  1.00  0.00    -0.320 A  
HETATM   13  N   UNL     1     -12.155  13.824  70.914  1.00  0.00    -0.331 NA 
HETATM   14  C   UNL     1     -12.027  15.051  71.449  1.00  0.00    -0.341 A  
HETATM   15  C   UNL     1     -11.512  16.130  70.762  1.00  0.00    -0.408 A  
HETATM   16  C   UNL     1     -11.113  15.955  69.433  1.00  0.00    -0.322 A  
HETATM   17  C   UNL     1     -10.625  17.044  68.696  1.00  0.00    -0.362 A  
HETATM   18  C   UNL     1     -10.282  16.937  67.337  1.00  0.00    -0.298 A  
HETATM   19  C   UNL     1     -11.223  14.695  68.825  1.00  0.00    -0.285 A  
HETATM   20  C   UNL     1     -10.356  15.686  66.721  1.00  0.00    -0.287 A  
HETATM   21  C   UNL     1     -10.819  14.589  67.471  1.00  0.00    -0.289 A  
BRANCH  18  22
HETATM   22  O   UNL     1      -9.869  18.041  66.630  1.00  0.00    -0.317 OA 
HETATM   23  C   UNL     1     -10.436  19.288  67.040  1.00  0.00    -0.456 C  
ENDBRANCH  18  22
BRANCH  20  24
HETATM   24  O   UNL     1     -10.101  15.322  65.427  1.00  0.00    -0.354 OA 
HETATM   25  C   UNL     1     -10.796  14.265  64.792  1.00  0.00    -0.405 C  
ENDBRANCH  20  24
ENDBRANCH  11  12
ENDBRANCH   7  11
ENDBRANCH   2   3
TORSDOF 6
ENDMDL
MODEL       12
REMARK 921   NORMALIZED FREE ENERGY PREDICTED BY IDOCK:   -6.22 KCAL/MOL
REMARK 922        TOTAL FREE ENERGY PREDICTED BY IDOCK:   -9.20 KCAL/MOL
REMARK 923 INTER-LIGAND FREE ENERGY PREDICTED BY IDOCK:   -8.27 KCAL/MOL
REMARK 924 INTRA-LIGAND FREE ENERGY PREDICTED BY IDOCK:   -0.93 KCAL/MOL
REMARK 927      BINDING AFFINITY PREDICTED BY RF-SCORE:    0.00 PKD
ROOT
HETATM    1  C   UNL     1     -13.456   9.390  72.084  1.00  0.00    -0.471 C  
HETATM    2  O   UNL     1     -13.553  10.812  72.129  1.00  0.00    -0.276 OA 
ENDROOT
BRANCH   2   3
HETATM    3  C   UNL     1     -12.748  11.496  71.253  1.00  0.00    -0.364 A  
HETATM    4  C   UNL     1     -12.881  12.895  71.226  1.00  0.00    -0.270 A  
HETATM    5  C   UNL     1     -11.885  10.873  70.350  1.00  0.00    -0.449 A  
HETATM    6  C   UNL     1     -12.128  13.637  70.305  1.00  0.00    -0.427 A  
HETATM    7  C   UNL     1     -11.308  13.004  69.353  1.00  0.00    -0.269 A  
HETATM    8  C   UNL     1     -11.172  11.614  69.407  1.00  0.00    -0.311 A  
BRANCH   4   9
HETATM    9  O   UNL     1     -13.773  13.443  72.116  1.00  0.00    -0.499 OA 
HETATM   10  C   UNL     1     -14.367  14.690  71.761  1.00  0.00    -0.554 C  
ENDBRANCH   4   9
BRANCH   7  11
HETATM   11  C   UNL     1     -10.578  13.788  68.285  1.00  0.00    -0.262 C  
BRANCH  11  12
HETATM   12  C   UNL     1     -11.059  13.507  66.874  1.00  0.00    -0.296 A  
HETATM   13  N   UNL     1     -12.196  14.175  66.525  1.00  0.00    -0.457 NA 
HETATM   14  C   UNL     1     -12.756  13.880  65.339  1.00  0.00    -0.490 A  
HETATM   15  C   UNL     1     -12.238  12.951  64.462  1.00  0.00    -0.489 A  
HETATM   16  C   UNL     1     -11.075  12.262  64.821  1.00  0.00    -0.356 A  
HETATM   17  C   UNL     1     -10.547  11.282  63.967  1.00  0.00    -0.450 A  
HETATM   18  C   UNL     1      -9.426  10.509  64.315  1.00  0.00    -0.285 A  
HETATM   19  C   UNL     1     -10.447  12.531  66.046  1.00  0.00    -0.282 A  
HETATM   20  C   UNL     1      -8.768  10.780  65.517  1.00  0.00    -0.187 A  
HETATM   21  C   UNL     1      -9.283  11.785  66.358  1.00  0.00    -0.223 A  
BRANCH  18  22
HETATM   22  O   UNL     1      -8.977   9.513  63.482  1.00  0.00    -0.233 OA 
HETATM   23  C   UNL     1      -8.191   9.942  62.367  1.00  0.00    -0.133 C  
ENDBRANCH  18  22
BRANCH  20  24
HETATM   24  O   UNL     1      -7.684  10.172  66.087  1.00  0.00    -0.104 OA 
HETATM   25  C   UNL     1      -6.356  10.535  65.755  1.00  0.00    -0.129 C  
ENDBRANCH  20  24
ENDBRANCH  11  12
ENDBRANCH   7  11
ENDBRANCH   2   3
TORSDOF 6
ENDMDL
MODEL       13
REMARK 921   NORMALIZED FREE ENERGY PREDICTED BY IDOCK:   -6.21 KCAL/MOL
REMARK 922        TOTAL FREE ENERGY PREDICTED BY IDOCK:   -9.19 KCAL/MOL
REMARK 923 INTER-LIGAND FREE ENERGY PREDICTED BY IDOCK:   -8.30 KCAL/MOL
REMARK 924 INTRA-LIGAND FREE ENERGY PREDICTED BY IDOCK:   -0.89 KCAL/MOL
REMARK 927      BINDING AFFINITY PREDICTED BY RF-SCORE:    0.00 PKD
ROOT
HETATM    1  C   UNL     1      -7.901   6.434  71.151  1.00  0.00    -0.114 C  
HETATM    2  O   UNL     1      -8.320   7.392  72.122  1.00  0.00    -0.106 OA 
ENDROOT
BRANCH   2   3
HETATM    3  C   UNL     1      -9.306   8.258  71.723  1.00  0.00    -0.202 A  
HETATM    4  C   UNL     1     -10.548   8.150  72.373  1.00  0.00    -0.323 A  
HETATM    5  C   UNL     1      -9.162   9.161  70.667  1.00  0.00    -0.310 A  
HETATM    6  C   UNL     1     -11.611   8.968  71.961  1.00  0.00    -0.413 A  
HETATM    7  C   UNL     1     -11.483   9.829  70.856  1.00  0.00    -0.447 A  
HETATM    8  C   UNL     1     -10.236   9.939  70.234  1.00  0.00    -0.322 A  
BRANCH   4   9
HETATM    9  O   UNL     1     -10.635   7.219  73.379  1.00  0.00    -0.346 OA 
HETATM   10  C   UNL     1     -11.207   5.955  73.051  1.00  0.00    -0.221 C  
ENDBRANCH   4   9
BRANCH   7  11
HETATM   11  C   UNL     1     -12.654  10.632  70.334  1.00  0.00    -0.395 C  
BRANCH  11  12
HETATM   12  C   UNL     1     -12.737  12.040  70.893  1.00  0.00    -0.199 A  
HETATM   13  N   UNL     1     -13.407  12.135  72.077  1.00  0.00    -0.467 NA 
HETATM   14  C   UNL     1     -13.636  13.364  72.571  1.00  0.00    -0.554 A  
HETATM   15  C   UNL     1     -13.222  14.523  71.949  1.00  0.00    -0.440 A  
HETATM   16  C   UNL     1     -12.539  14.427  70.732  1.00  0.00    -0.426 A  
HETATM   17  C   UNL     1     -12.141  15.590  70.056  1.00  0.00    -0.391 A  
HETATM   18  C   UNL     1     -11.521  15.550  68.795  1.00  0.00    -0.355 A  
HETATM   19  C   UNL     1     -12.271  13.170  70.172  1.00  0.00    -0.360 A  
HETATM   20  C   UNL     1     -11.219  14.308  68.233  1.00  0.00    -0.276 A  
HETATM   21  C   UNL     1     -11.593  13.142  68.928  1.00  0.00    -0.354 A  
BRANCH  18  22
HETATM   22  O   UNL     1     -11.205  16.713  68.133  1.00  0.00    -0.339 OA 
HETATM   23  C   UNL     1     -10.125  17.469  68.686  1.00  0.00    -0.361 C  
ENDBRANCH  18  22
BRANCH  20  24
HETATM   24  O   UNL     1     -10.644  13.999  67.031  1.00  0.00    -0.276 OA 
HETATM   25  C   UNL     1     -11.338  13.282  66.027  1.00  0.00    -0.305 C  
ENDBRANCH  20  24
ENDBRANCH  11  12
ENDBRANCH   7  11
ENDBRANCH   2   3
TORSDOF 6
ENDMDL
MODEL       14
REMARK 921   NORMALIZED FREE ENERGY PREDICTED BY IDOCK:   -6.21 KCAL/MOL
REMARK 922        TOTAL FREE ENERGY PREDICTED BY IDOCK:   -9.19 KCAL/MOL
REMARK 923 INTER-LIGAND FREE ENERGY PREDICTED BY IDOCK:   -8.23 KCAL/MOL
REMARK 924 INTRA-LIGAND FREE ENERGY PREDICTED BY IDOCK:   -0.96 KCAL/MOL
REMARK 927      BINDING AFFINITY PREDICTED BY RF-SCORE:    0.00 PKD
ROOT
HETATM    1  C   UNL     1     -10.141  19.013  67.890  1.00  0.00    -0.381 C  
HETATM    2  O   UNL     1      -9.788  17.663  68.184  1.00  0.00    -0.288 OA 
ENDROOT
BRANCH   2   3
HETATM    3  C   UNL     1     -10.442  16.700  67.456  1.00  0.00    -0.317 A  
HETATM    4  C   UNL     1     -11.245  15.796  68.173  1.00  0.00    -0.344 A  
HETATM    5  C   UNL     1     -10.279  16.530  66.080  1.00  0.00    -0.372 A  
HETATM    6  C   UNL     1     -11.885  14.755  67.486  1.00  0.00    -0.326 A  
HETATM    7  C   UNL     1     -11.669  14.545  66.111  1.00  0.00    -0.355 A  
HETATM    8  C   UNL     1     -10.883  15.465  65.411  1.00  0.00    -0.403 A  
BRANCH   4   9
HETATM    9  O   UNL     1     -11.335  15.998  69.529  1.00  0.00    -0.318 OA 
HETATM   10  C   UNL     1     -12.407  15.356  70.215  1.00  0.00    -0.388 C  
ENDBRANCH   4   9
BRANCH   7  11
HETATM   11  C   UNL     1     -12.264  13.360  65.384  1.00  0.00    -0.492 C  
BRANCH  11  12
HETATM   12  C   UNL     1     -11.250  12.305  64.986  1.00  0.00    -0.321 A  
HETATM   13  N   UNL     1     -10.854  12.370  63.682  1.00  0.00    -0.444 NA 
HETATM   14  C   UNL     1     -10.058  11.391  63.219  1.00  0.00    -0.387 A  
HETATM   15  C   UNL     1      -9.617  10.340  63.994  1.00  0.00    -0.365 A  
HETATM   16  C   UNL     1     -10.025  10.269  65.330  1.00  0.00    -0.387 A  
HETATM   17  C   UNL     1      -9.626   9.188  66.130  1.00  0.00    -0.333 A  
HETATM   18  C   UNL     1     -10.071   9.031  67.454  1.00  0.00    -0.230 A  
HETATM   19  C   UNL     1     -10.855  11.264  65.865  1.00  0.00    -0.264 A  
HETATM   20  C   UNL     1     -10.874  10.025  68.016  1.00  0.00    -0.260 A  
HETATM   21  C   UNL     1     -11.249  11.123  67.219  1.00  0.00    -0.347 A  
BRANCH  18  22
HETATM   22  O   UNL     1      -9.711   7.925  68.187  1.00  0.00    -0.152 OA 
HETATM   23  C   UNL     1     -10.539   6.771  68.016  1.00  0.00    -0.231 C  
ENDBRANCH  18  22
BRANCH  20  24
HETATM   24  O   UNL     1     -11.445  10.103  69.257  1.00  0.00    -0.197 OA 
HETATM   25  C   UNL     1     -12.041  11.294  69.738  1.00  0.00    -0.325 C  
ENDBRANCH  20  24
ENDBRANCH  11  12
ENDBRANCH   7  11
ENDBRANCH   2   3
TORSDOF 6
ENDMDL
MODEL       15
REMARK 921   NORMALIZED FREE ENERGY PREDICTED BY IDOCK:   -6.19 KCAL/MOL
REMARK 922        TOTAL FREE ENERGY PREDICTED BY IDOCK:   -9.16 KCAL/MOL
REMARK 923 INTER-LIGAND FREE ENERGY PREDICTED BY IDOCK:   -8.28 KCAL/MOL
REMARK 924 INTRA-LIGAND FREE ENERGY PREDICTED BY IDOCK:   -0.88 KCAL/MOL
REMARK 927      BINDING AFFINITY PREDICTED BY RF-SCORE:    0.00 PKD
ROOT
HETATM    1  C   UNL     1     -13.528   9.339  72.140  1.00  0.00    -0.473 C  
HETATM    2  O   UNL     1     -12.139   9.602  71.949  1.00  0.00    -0.376 OA 
ENDROOT
BRANCH   2   3
HETATM    3  C   UNL     1     -11.766   9.957  70.677  1.00  0.00    -0.323 A  
HETATM    4  C   UNL     1     -10.981   9.036  69.963  1.00  0.00    -0.214 A  
HETATM    5  C   UNL     1     -12.051  11.200  70.107  1.00  0.00    -0.443 A  
HETATM    6  C   UNL     1     -10.519   9.375  68.683  1.00  0.00    -0.236 A  
HETATM    7  C   UNL     1     -10.753  10.651  68.137  1.00  0.00    -0.267 A  
HETATM    8  C   UNL     1     -11.552  11.548  68.852  1.00  0.00    -0.384 A  
BRANCH   4   9
HETATM    9  O   UNL     1     -10.706   7.846  70.593  1.00  0.00    -0.220 OA 
HETATM   10  C   UNL     1     -11.365   6.681  70.104  1.00  0.00    -0.382 C  
ENDBRANCH   4   9
BRANCH   7  11
HETATM   11  C   UNL     1     -10.166  11.066  66.806  1.00  0.00    -0.272 C  
BRANCH  11  12
HETATM   12  C   UNL     1     -10.897  12.216  66.139  1.00  0.00    -0.282 A  
HETATM   13  N   UNL     1     -12.006  11.845  65.438  1.00  0.00    -0.340 NA 
HETATM   14  C   UNL     1     -12.633  12.787  64.713  1.00  0.00    -0.446 A  
HETATM   15  C   UNL     1     -12.219  14.100  64.651  1.00  0.00    -0.465 A  
HETATM   16  C   UNL     1     -11.079  14.482  65.366  1.00  0.00    -0.345 A  
HETATM   17  C   UNL     1     -10.610  15.802  65.290  1.00  0.00    -0.446 A  
HETATM   18  C   UNL     1      -9.428  16.216  65.928  1.00  0.00    -0.302 A  
HETATM   19  C   UNL     1     -10.386  13.540  66.141  1.00  0.00    -0.296 A  
HETATM   20  C   UNL     1      -8.740  15.302  66.728  1.00  0.00    -0.270 A  
HETATM   21  C   UNL     1      -9.229  13.986  66.826  1.00  0.00    -0.280 A  
BRANCH  18  22
HETATM   22  O   UNL     1      -8.965  17.501  65.777  1.00  0.00    -0.512 OA 
HETATM   23  C   UNL     1      -9.791  18.528  66.331  1.00  0.00    -0.361 C  
ENDBRANCH  18  22
BRANCH  20  24
HETATM   24  O   UNL     1      -7.574  15.446  67.430  1.00  0.00    -0.167 OA 
HETATM   25  C   UNL     1      -7.528  16.098  68.686  1.00  0.00    -0.179 C  
ENDBRANCH  20  24
ENDBRANCH  11  12
ENDBRANCH   7  11
ENDBRANCH   2   3
TORSDOF 6
ENDMDL
MODEL       16
REMARK 921   NORMALIZED FREE ENERGY PREDICTED BY IDOCK:   -6.17 KCAL/MOL
REMARK 922        TOTAL FREE ENERGY PREDICTED BY IDOCK:   -9.14 KCAL/MOL
REMARK 923 INTER-LIGAND FREE ENERGY PREDICTED BY IDOCK:   -8.22 KCAL/MOL
REMARK 924 INTRA-LIGAND FREE ENERGY PREDICTED BY IDOCK:   -0.93 KCAL/MOL
REMARK 927      BINDING AFFINITY PREDICTED BY RF-SCORE:    0.00 PKD
ROOT
HETATM    1  C   UNL     1     -12.385  15.376  74.282  1.00  0.00    -0.664 C  
HETATM    2  O   UNL     1     -12.951  14.605  73.223  1.00  0.00    -0.518 OA 
ENDROOT
BRANCH   2   3
HETATM    3  C   UNL     1     -12.405  14.803  71.980  1.00  0.00    -0.341 A  
HETATM    4  C   UNL     1     -12.482  13.731  71.074  1.00  0.00    -0.380 A  
HETATM    5  C   UNL     1     -11.716  15.962  71.614  1.00  0.00    -0.563 A  
HETATM    6  C   UNL     1     -11.884  13.857  69.811  1.00  0.00    -0.390 A  
HETATM    7  C   UNL     1     -11.136  14.998  69.468  1.00  0.00    -0.292 A  
HETATM    8  C   UNL     1     -11.086  16.062  70.373  1.00  0.00    -0.376 A  
BRANCH   4   9
HETATM    9  O   UNL     1     -13.142  12.607  71.508  1.00  0.00    -0.373 OA 
HETATM   10  C   UNL     1     -12.516  11.349  71.269  1.00  0.00    -0.318 C  
ENDBRANCH   4   9
BRANCH   7  11
HETATM   11  C   UNL     1     -10.394  15.097  68.153  1.00  0.00    -0.239 C  
BRANCH  11  12
HETATM   12  C   UNL     1     -10.934  14.185  67.068  1.00  0.00    -0.300 A  
HETATM   13  N   UNL     1     -11.980  14.707  66.366  1.00  0.00    -0.317 NA 
HETATM   14  C   UNL     1     -12.597  13.910  65.476  1.00  0.00    -0.526 A  
HETATM   15  C   UNL     1     -12.220  12.606  65.234  1.00  0.00    -0.532 A  
HETATM   16  C   UNL     1     -11.150  12.068  65.957  1.00  0.00    -0.364 A  
HETATM   17  C   UNL     1     -10.771  10.732  65.762  1.00  0.00    -0.141 A  
HETATM   18  C   UNL     1      -9.754  10.123  66.516  1.00  0.00    -0.200 A  
HETATM   19  C   UNL     1     -10.470  12.855  66.897  1.00  0.00    -0.252 A  
HETATM   20  C   UNL     1      -9.044  10.897  67.437  1.00  0.00    -0.140 A  
HETATM   21  C   UNL     1      -9.408  12.246  67.610  1.00  0.00    -0.186 A  
BRANCH  18  22
HETATM   22  O   UNL     1      -9.454   8.793  66.343  1.00  0.00    -0.189 OA 
HETATM   23  C   UNL     1     -10.402   7.867  66.880  1.00  0.00    -0.330 C  
ENDBRANCH  18  22
BRANCH  20  24
HETATM   24  O   UNL     1      -8.037  10.547  68.294  1.00  0.00    -0.108 OA 
HETATM   25  C   UNL     1      -8.295  10.058  69.598  1.00  0.00    -0.176 C  
ENDBRANCH  20  24
ENDBRANCH  11  12
ENDBRANCH   7  11
ENDBRANCH   2   3
TORSDOF 6
ENDMDL
MODEL       17
REMARK 921   NORMALIZED FREE ENERGY PREDICTED BY IDOCK:   -6.17 KCAL/MOL
REMARK 922        TOTAL FREE ENERGY PREDICTED BY IDOCK:   -9.14 KCAL/MOL
REMARK 923 INTER-LIGAND FREE ENERGY PREDICTED BY IDOCK:   -8.22 KCAL/MOL
REMARK 924 INTRA-LIGAND FREE ENERGY PREDICTED BY IDOCK:   -0.92 KCAL/MOL
REMARK 927      BINDING AFFINITY PREDICTED BY RF-SCORE:    0.00 PKD
ROOT
HETATM    1  C   UNL     1      -8.283   8.697  62.783  1.00  0.00    -0.188 C  
HETATM    2  O   UNL     1      -8.611   8.846  64.164  1.00  0.00    -0.179 OA 
ENDROOT
BRANCH   2   3
HETATM    3  C   UNL     1      -9.405   9.920  64.479  1.00  0.00    -0.275 A  
HETATM    4  C   UNL     1      -9.788  10.055  65.824  1.00  0.00    -0.278 A  
HETATM    5  C   UNL     1      -9.907  10.814  63.530  1.00  0.00    -0.401 A  
HETATM    6  C   UNL     1     -10.651  11.099  66.190  1.00  0.00    -0.305 A  
HETATM    7  C   UNL     1     -11.208  11.958  65.225  1.00  0.00    -0.351 A  
HETATM    8  C   UNL     1     -10.800  11.822  63.895  1.00  0.00    -0.468 A  
BRANCH   4   9
HETATM    9  O   UNL     1      -9.287   9.123  66.701  1.00  0.00    -0.156 OA 
HETATM   10  C   UNL     1     -10.131   8.718  67.776  1.00  0.00    -0.207 C  
ENDBRANCH   4   9
BRANCH   7  11
HETATM   11  C   UNL     1     -12.225  13.015  65.593  1.00  0.00    -0.521 C  
BRANCH  11  12
HETATM   12  C   UNL     1     -11.619  14.288  66.153  1.00  0.00    -0.369 A  
HETATM   13  N   UNL     1     -11.037  15.091  65.218  1.00  0.00    -0.367 NA 
HETATM   14  C   UNL     1     -10.365  16.172  65.651  1.00  0.00    -0.382 A  
HETATM   15  C   UNL     1     -10.246  16.511  66.982  1.00  0.00    -0.288 A  
HETATM   16  C   UNL     1     -10.839  15.685  67.943  1.00  0.00    -0.306 A  
HETATM   17  C   UNL     1     -10.700  15.982  69.307  1.00  0.00    -0.275 A  
HETATM   18  C   UNL     1     -11.212  15.144  70.313  1.00  0.00    -0.277 A  
HETATM   19  C   UNL     1     -11.554  14.545  67.547  1.00  0.00    -0.403 A  
HETATM   20  C   UNL     1     -11.951  14.020  69.940  1.00  0.00    -0.336 A  
HETATM   21  C   UNL     1     -12.114  13.740  68.570  1.00  0.00    -0.327 A  
BRANCH  18  22
HETATM   22  O   UNL     1     -10.999  15.433  71.640  1.00  0.00    -0.307 OA 
HETATM   23  C   UNL     1     -12.113  15.994  72.340  1.00  0.00    -0.535 C  
ENDBRANCH  18  22
BRANCH  20  24
HETATM   24  O   UNL     1     -12.532  13.049  70.710  1.00  0.00    -0.354 OA 
HETATM   25  C   UNL     1     -12.248  11.674  70.529  1.00  0.00    -0.361 C  
ENDBRANCH  20  24
ENDBRANCH  11  12
ENDBRANCH   7  11
ENDBRANCH   2   3
TORSDOF 6
ENDMDL
MODEL       18
REMARK 921   NORMALIZED FREE ENERGY PREDICTED BY IDOCK:   -6.15 KCAL/MOL
REMARK 922        TOTAL FREE ENERGY PREDICTED BY IDOCK:   -9.11 KCAL/MOL
REMARK 923 INTER-LIGAND FREE ENERGY PREDICTED BY IDOCK:   -8.17 KCAL/MOL
REMARK 924 INTRA-LIGAND FREE ENERGY PREDICTED BY IDOCK:   -0.94 KCAL/MOL
REMARK 927      BINDING AFFINITY PREDICTED BY RF-SCORE:    0.00 PKD
ROOT
HETATM    1  C   UNL     1     -12.783  15.379  73.786  1.00  0.00    -0.583 C  
HETATM    2  O   UNL     1     -13.178  14.435  72.792  1.00  0.00    -0.463 OA 
ENDROOT
BRANCH   2   3
HETATM    3  C   UNL     1     -12.553  14.548  71.576  1.00  0.00    -0.348 A  
HETATM    4  C   UNL     1     -12.367  13.362  70.843  1.00  0.00    -0.353 A  
HETATM    5  C   UNL     1     -12.030  15.746  71.084  1.00  0.00    -0.469 A  
HETATM    6  C   UNL     1     -11.678  13.412  69.623  1.00  0.00    -0.375 A  
HETATM    7  C   UNL     1     -11.095  14.606  69.161  1.00  0.00    -0.285 A  
HETATM    8  C   UNL     1     -11.307  15.779  69.891  1.00  0.00    -0.349 A  
BRANCH   4   9
HETATM    9  O   UNL     1     -12.875  12.213  71.399  1.00  0.00    -0.376 OA 
HETATM   10  C   UNL     1     -12.513  10.977  70.787  1.00  0.00    -0.396 C  
ENDBRANCH   4   9
BRANCH   7  11
HETATM   11  C   UNL     1     -10.255  14.647  67.904  1.00  0.00    -0.226 C  
BRANCH  11  12
HETATM   12  C   UNL     1     -10.885  13.945  66.716  1.00  0.00    -0.286 A  
HETATM   13  N   UNL     1     -12.085  14.464  66.328  1.00  0.00    -0.397 NA 
HETATM   14  C   UNL     1     -12.767  13.817  65.367  1.00  0.00    -0.472 A  
HETATM   15  C   UNL     1     -12.313  12.669  64.754  1.00  0.00    -0.556 A  
HETATM   16  C   UNL     1     -11.084  12.132  65.153  1.00  0.00    -0.369 A  
HETATM   17  C   UNL     1     -10.615  10.943  64.576  1.00  0.00    -0.335 A  
HETATM   18  C   UNL     1      -9.426  10.323  64.996  1.00  0.00    -0.257 A  
HETATM   19  C   UNL     1     -10.330  12.768  66.150  1.00  0.00    -0.283 A  
HETATM   20  C   UNL     1      -8.645  10.954  65.967  1.00  0.00    -0.177 A  
HETATM   21  C   UNL     1      -9.104  12.163  66.524  1.00  0.00    -0.199 A  
BRANCH  18  22
HETATM   22  O   UNL     1      -9.032   9.124  64.453  1.00  0.00    -0.173 OA 
HETATM   23  C   UNL     1      -8.370   9.203  63.188  1.00  0.00    -0.193 C  
ENDBRANCH  18  22
BRANCH  20  24
HETATM   24  O   UNL     1      -7.474  10.558  66.552  1.00  0.00    -0.115 OA 
HETATM   25  C   UNL     1      -6.221  10.717  65.911  1.00  0.00    -0.134 C  
ENDBRANCH  20  24
ENDBRANCH  11  12
ENDBRANCH   7  11
ENDBRANCH   2   3
TORSDOF 6
ENDMDL
MODEL       19
REMARK 921   NORMALIZED FREE ENERGY PREDICTED BY IDOCK:   -6.14 KCAL/MOL
REMARK 922        TOTAL FREE ENERGY PREDICTED BY IDOCK:   -9.10 KCAL/MOL
REMARK 923 INTER-LIGAND FREE ENERGY PREDICTED BY IDOCK:   -8.16 KCAL/MOL
REMARK 924 INTRA-LIGAND FREE ENERGY PREDICTED BY IDOCK:   -0.93 KCAL/MOL
REMARK 927      BINDING AFFINITY PREDICTED BY RF-SCORE:    0.00 PKD
ROOT
HETATM    1  C   UNL     1      -9.461  19.009  66.470  1.00  0.00    -0.345 C  
HETATM    2  O   UNL     1      -9.455  17.968  67.445  1.00  0.00    -0.258 OA 
ENDROOT
BRANCH   2   3
HETATM    3  C   UNL     1     -10.193  16.853  67.135  1.00  0.00    -0.297 A  
HETATM    4  C   UNL     1     -10.913  16.255  68.184  1.00  0.00    -0.343 A  
HETATM    5  C   UNL     1     -10.191  16.251  65.875  1.00  0.00    -0.384 A  
HETATM    6  C   UNL     1     -11.632  15.077  67.936  1.00  0.00    -0.350 A  
HETATM    7  C   UNL     1     -11.577  14.437  66.685  1.00  0.00    -0.396 A  
HETATM    8  C   UNL     1     -10.873  15.056  65.648  1.00  0.00    -0.356 A  
BRANCH   4   9
HETATM    9  O   UNL     1     -10.844  16.877  69.407  1.00  0.00    -0.308 OA 
HETATM   10  C   UNL     1     -11.345  16.160  70.533  1.00  0.00    -0.373 C  
ENDBRANCH   4   9
BRANCH   7  11
HETATM   11  C   UNL     1     -12.258  13.108  66.440  1.00  0.00    -0.396 C  
BRANCH  11  12
HETATM   12  C   UNL     1     -11.373  11.903  66.694  1.00  0.00    -0.337 A  
HETATM   13  N   UNL     1     -10.755  11.416  65.581  1.00  0.00    -0.261 NA 
HETATM   14  C   UNL     1     -10.058  10.272  65.700  1.00  0.00    -0.271 A  
HETATM   15  C   UNL     1      -9.931   9.580  66.886  1.00  0.00    -0.278 A  
HETATM   16  C   UNL     1     -10.568  10.076  68.028  1.00  0.00    -0.280 A  
HETATM   17  C   UNL     1     -10.492   9.371  69.238  1.00  0.00    -0.230 A  
HETATM   18  C   UNL     1     -11.176   9.786  70.393  1.00  0.00    -0.300 A  
HETATM   19  C   UNL     1     -11.308  11.265  67.960  1.00  0.00    -0.372 A  
HETATM   20  C   UNL     1     -11.893  10.983  70.356  1.00  0.00    -0.367 A  
HETATM   21  C   UNL     1     -11.945  11.704  69.147  1.00  0.00    -0.378 A  
BRANCH  18  22
HETATM   22  O   UNL     1     -11.129   9.034  71.543  1.00  0.00    -0.295 OA 
HETATM   23  C   UNL     1      -9.824   8.646  71.979  1.00  0.00    -0.325 C  
ENDBRANCH  18  22
BRANCH  20  24
HETATM   24  O   UNL     1     -12.649  11.591  71.321  1.00  0.00    -0.383 OA 
HETATM   25  C   UNL     1     -12.903  12.983  71.312  1.00  0.00    -0.281 C  
ENDBRANCH  20  24
ENDBRANCH  11  12
ENDBRANCH   7  11
ENDBRANCH   2   3
TORSDOF 6
ENDMDL
MODEL       20
REMARK 921   NORMALIZED FREE ENERGY PREDICTED BY IDOCK:   -6.08 KCAL/MOL
REMARK 922        TOTAL FREE ENERGY PREDICTED BY IDOCK:   -9.01 KCAL/MOL
REMARK 923 INTER-LIGAND FREE ENERGY PREDICTED BY IDOCK:   -8.25 KCAL/MOL
REMARK 924 INTRA-LIGAND FREE ENERGY PREDICTED BY IDOCK:   -0.76 KCAL/MOL
REMARK 927      BINDING AFFINITY PREDICTED BY RF-SCORE:    0.00 PKD
ROOT
HETATM    1  C   UNL     1     -10.217  19.316  68.700  1.00  0.00    -0.355 C  
HETATM    2  O   UNL     1      -9.371  18.203  68.415  1.00  0.00    -0.291 OA 
ENDROOT
BRANCH   2   3
HETATM    3  C   UNL     1      -9.993  17.095  67.897  1.00  0.00    -0.292 A  
HETATM    4  C   UNL     1      -9.673  16.746  66.573  1.00  0.00    -0.283 A  
HETATM    5  C   UNL     1     -10.969  16.367  68.580  1.00  0.00    -0.345 A  
HETATM    6  C   UNL     1     -10.327  15.660  65.974  1.00  0.00    -0.351 A  
HETATM    7  C   UNL     1     -11.356  14.969  66.639  1.00  0.00    -0.289 A  
HETATM    8  C   UNL     1     -11.646  15.315  67.962  1.00  0.00    -0.325 A  
BRANCH   4   9
HETATM    9  O   UNL     1      -8.731  17.525  65.945  1.00  0.00    -0.525 OA 
HETATM   10  C   UNL     1      -7.365  17.144  66.095  1.00  0.00    -0.246 C  
ENDBRANCH   4   9
BRANCH   7  11
HETATM   11  C   UNL     1     -12.143  13.869  65.962  1.00  0.00    -0.465 C  
BRANCH  11  12
HETATM   12  C   UNL     1     -11.283  12.779  65.351  1.00  0.00    -0.292 A  
HETATM   13  N   UNL     1     -11.000  12.962  64.030  1.00  0.00    -0.399 NA 
HETATM   14  C   UNL     1     -10.354  11.975  63.385  1.00  0.00    -0.434 A  
HETATM   15  C   UNL     1      -9.958  10.802  63.991  1.00  0.00    -0.403 A  
HETATM   16  C   UNL     1     -10.251  10.611  65.346  1.00  0.00    -0.341 A  
HETATM   17  C   UNL     1      -9.897   9.411  65.980  1.00  0.00    -0.366 A  
HETATM   18  C   UNL     1     -10.236   9.140  67.316  1.00  0.00    -0.254 A  
HETATM   19  C   UNL     1     -10.922  11.609  66.068  1.00  0.00    -0.338 A  
HETATM   20  C   UNL     1     -10.879  10.130  68.061  1.00  0.00    -0.270 A  
HETATM   21  C   UNL     1     -11.207  11.346  67.431  1.00  0.00    -0.370 A  
BRANCH  18  22
HETATM   22  O   UNL     1      -9.930   7.926  67.884  1.00  0.00    -0.162 OA 
HETATM   23  C   UNL     1     -10.775   6.834  67.510  1.00  0.00    -0.311 C  
ENDBRANCH  18  22
BRANCH  20  24
HETATM   24  O   UNL     1     -11.326  10.113  69.354  1.00  0.00    -0.226 OA 
HETATM   25  C   UNL     1     -12.162  11.130  69.875  1.00  0.00    -0.314 C  
ENDBRANCH  20  24
ENDBRANCH  11  12
ENDBRANCH   7  11
ENDBRANCH   2   3
TORSDOF 6
ENDMDL
MODEL       21
REMARK 921   NORMALIZED FREE ENERGY PREDICTED BY IDOCK:   -6.07 KCAL/MOL
REMARK 922        TOTAL FREE ENERGY PREDICTED BY IDOCK:   -9.00 KCAL/MOL
REMARK 923 INTER-LIGAND FREE ENERGY PREDICTED BY IDOCK:   -8.36 KCAL/MOL
REMARK 924 INTRA-LIGAND FREE ENERGY PREDICTED BY IDOCK:   -0.64 KCAL/MOL
REMARK 927      BINDING AFFINITY PREDICTED BY RF-SCORE:    0.00 PKD
ROOT
HETATM    1  C   UNL     1     -11.158   5.012  73.403  1.00  0.00    -0.335 C  
HETATM    2  O   UNL     1     -10.840   5.552  72.121  1.00  0.00    -0.228 OA 
ENDROOT
BRANCH   2   3
HETATM    3  C   UNL     1     -11.332   6.806  71.861  1.00  0.00    -0.271 A  
HETATM    4  C   UNL     1     -10.432   7.880  71.974  1.00  0.00    -0.231 A  
HETATM    5  C   UNL     1     -12.675   7.066  71.579  1.00  0.00    -0.425 A  
HETATM    6  C   UNL     1     -10.897   9.188  71.780  1.00  0.00    -0.416 A  
HETATM    7  C   UNL     1     -12.261   9.453  71.561  1.00  0.00    -0.448 A  
HETATM    8  C   UNL     1     -13.139   8.373  71.431  1.00  0.00    -0.243 A  
BRANCH   4   9
HETATM    9  O   UNL     1      -9.133   7.559  72.288  1.00  0.00    -0.131 OA 
HETATM   10  C   UNL     1      -8.672   7.905  73.592  1.00  0.00    -0.269 C  
ENDBRANCH   4   9
BRANCH   7  11
HETATM   11  C   UNL     1     -12.791  10.866  71.462  1.00  0.00    -0.560 C  
BRANCH  11  12
HETATM   12  C   UNL     1     -12.388  11.591  70.192  1.00  0.00    -0.245 A  
HETATM   13  N   UNL     1     -12.218  10.777  69.111  1.00  0.00    -0.386 NA 
HETATM   14  C   UNL     1     -11.735  11.325  67.983  1.00  0.00    -0.233 A  
HETATM   15  C   UNL     1     -11.416  12.661  67.863  1.00  0.00    -0.360 A  
HETATM   16  C   UNL     1     -11.585  13.496  68.972  1.00  0.00    -0.356 A  
HETATM   17  C   UNL     1     -11.229  14.851  68.892  1.00  0.00    -0.282 A  
HETATM   18  C   UNL     1     -11.308  15.714  69.999  1.00  0.00    -0.334 A  
HETATM   19  C   UNL     1     -12.086  12.977  70.174  1.00  0.00    -0.377 A  
HETATM   20  C   UNL     1     -11.832  15.225  71.197  1.00  0.00    -0.348 A  
HETATM   21  C   UNL     1     -12.215  13.871  71.266  1.00  0.00    -0.353 A  
BRANCH  18  22
HETATM   22  O   UNL     1     -10.888  17.019  69.901  1.00  0.00    -0.177 OA 
HETATM   23  C   UNL     1     -10.226  17.368  68.682  1.00  0.00    -0.361 C  
ENDBRANCH  18  22
BRANCH  20  24
HETATM   24  O   UNL     1     -11.997  15.842  72.407  1.00  0.00    -0.427 OA 
HETATM   25  C   UNL     1     -13.171  15.678  73.182  1.00  0.00    -0.569 C  
ENDBRANCH  20  24
ENDBRANCH  11  12
ENDBRANCH   7  11
ENDBRANCH   2   3
TORSDOF 6
ENDMDL
MODEL       22
REMARK 921   NORMALIZED FREE ENERGY PREDICTED BY IDOCK:   -6.06 KCAL/MOL
REMARK 922        TOTAL FREE ENERGY PREDICTED BY IDOCK:   -9.00 KCAL/MOL
REMARK 923 INTER-LIGAND FREE ENERGY PREDICTED BY IDOCK:   -8.11 KCAL/MOL
REMARK 924 INTRA-LIGAND FREE ENERGY PREDICTED BY IDOCK:   -0.89 KCAL/MOL
REMARK 927      BINDING AFFINITY PREDICTED BY RF-SCORE:    0.00 PKD
ROOT
HETATM    1  C   UNL     1     -12.206  12.497  63.755  1.00  0.00    -0.525 C  
HETATM    2  O   UNL     1     -12.323  12.131  65.129  1.00  0.00    -0.488 OA 
ENDROOT
BRANCH   2   3
HETATM    3  C   UNL     1     -11.775  13.007  66.032  1.00  0.00    -0.393 A  
HETATM    4  C   UNL     1     -11.636  12.553  67.355  1.00  0.00    -0.370 A  
HETATM    5  C   UNL     1     -11.438  14.326  65.721  1.00  0.00    -0.335 A  
HETATM    6  C   UNL     1     -11.140  13.429  68.331  1.00  0.00    -0.301 A  
HETATM    7  C   UNL     1     -10.862  14.775  68.032  1.00  0.00    -0.261 A  
HETATM    8  C   UNL     1     -10.987  15.204  66.707  1.00  0.00    -0.321 A  
BRANCH   4   9
HETATM    9  O   UNL     1     -12.018  11.256  67.602  1.00  0.00    -0.634 OA 
HETATM   10  C   UNL     1     -10.996  10.333  67.968  1.00  0.00    -0.289 C  
ENDBRANCH   4   9
BRANCH   7  11
HETATM   11  C   UNL     1     -10.434  15.756  69.100  1.00  0.00    -0.240 C  
BRANCH  11  12
HETATM   12  C   UNL     1      -8.984  16.190  68.997  1.00  0.00    -0.247 A  
HETATM   13  N   UNL     1      -8.097  15.325  69.568  1.00  0.00    -0.232 NA 
HETATM   14  C   UNL     1      -6.808  15.701  69.633  1.00  0.00    -0.173 A  
HETATM   15  C   UNL     1      -6.341  16.903  69.144  1.00  0.00    -0.204 A  
HETATM   16  C   UNL     1      -7.250  17.792  68.562  1.00  0.00    -0.259 A  
HETATM   17  C   UNL     1      -6.811  19.040  68.094  1.00  0.00    -0.268 A  
HETATM   18  C   UNL     1      -7.696  19.999  67.571  1.00  0.00    -0.298 A  
HETATM   19  C   UNL     1      -8.607  17.451  68.467  1.00  0.00    -0.270 A  
HETATM   20  C   UNL     1      -9.046  19.668  67.440  1.00  0.00    -0.315 A  
HETATM   21  C   UNL     1      -9.479  18.404  67.885  1.00  0.00    -0.299 A  
BRANCH  18  22
HETATM   22  O   UNL     1      -7.238  21.235  67.182  1.00  0.00    -0.475 OA 
HETATM   23  C   UNL     1      -5.982  21.246  66.500  1.00  0.00    -0.301 C  
ENDBRANCH  18  22
BRANCH  20  24
HETATM   24  O   UNL     1     -10.098  20.414  66.986  1.00  0.00    -0.445 OA 
HETATM   25  C   UNL     1     -10.729  20.150  65.746  1.00  0.00    -0.168 C  
ENDBRANCH  20  24
ENDBRANCH  11  12
ENDBRANCH   7  11
ENDBRANCH   2   3
TORSDOF 6
ENDMDL
MODEL       23
REMARK 921   NORMALIZED FREE ENERGY PREDICTED BY IDOCK:   -6.06 KCAL/MOL
REMARK 922        TOTAL FREE ENERGY PREDICTED BY IDOCK:   -9.00 KCAL/MOL
REMARK 923 INTER-LIGAND FREE ENERGY PREDICTED BY IDOCK:   -8.19 KCAL/MOL
REMARK 924 INTRA-LIGAND FREE ENERGY PREDICTED BY IDOCK:   -0.80 KCAL/MOL
REMARK 927      BINDING AFFINITY PREDICTED BY RF-SCORE:    0.00 PKD
ROOT
HETATM    1  C   UNL     1     -12.401  16.199  73.838  1.00  0.00    -0.569 C  
HETATM    2  O   UNL     1     -12.880  15.983  72.512  1.00  0.00    -0.442 OA 
ENDROOT
BRANCH   2   3
HETATM    3  C   UNL     1     -12.722  14.713  72.017  1.00  0.00    -0.334 A  
HETATM    4  C   UNL     1     -12.017  14.584  70.807  1.00  0.00    -0.322 A  
HETATM    5  C   UNL     1     -13.290  13.579  72.602  1.00  0.00    -0.546 A  
HETATM    6  C   UNL     1     -11.881  13.316  70.225  1.00  0.00    -0.307 A  
HETATM    7  C   UNL     1     -12.509  12.186  70.780  1.00  0.00    -0.362 A  
HETATM    8  C   UNL     1     -13.188  12.328  71.994  1.00  0.00    -0.508 A  
BRANCH   4   9
HETATM    9  O   UNL     1     -11.513  15.742  70.266  1.00  0.00    -0.300 OA 
HETATM   10  C   UNL     1     -11.081  15.694  68.908  1.00  0.00    -0.290 C  
ENDBRANCH   4   9
BRANCH   7  11
HETATM   11  C   UNL     1     -12.462  10.835  70.101  1.00  0.00    -0.357 C  
BRANCH  11  12
HETATM   12  C   UNL     1     -11.165  10.558  69.365  1.00  0.00    -0.269 A  
HETATM   13  N   UNL     1     -10.193   9.990  70.135  1.00  0.00    -0.265 NA 
HETATM   14  C   UNL     1      -8.974   9.832  69.591  1.00  0.00    -0.215 A  
HETATM   15  C   UNL     1      -8.664  10.205  68.301  1.00  0.00    -0.120 A  
HETATM   16  C   UNL     1      -9.658  10.792  67.511  1.00  0.00    -0.176 A  
HETATM   17  C   UNL     1      -9.360  11.219  66.209  1.00  0.00    -0.226 A  
HETATM   18  C   UNL     1     -10.301  11.883  65.403  1.00  0.00    -0.267 A  
HETATM   19  C   UNL     1     -10.948  10.979  68.027  1.00  0.00    -0.312 A  
HETATM   20  C   UNL     1     -11.600  12.052  65.887  1.00  0.00    -0.300 A  
HETATM   21  C   UNL     1     -11.904  11.596  67.184  1.00  0.00    -0.090 A  
BRANCH  18  22
HETATM   22  O   UNL     1      -9.954  12.345  64.156  1.00  0.00    -0.291 OA 
HETATM   23  C   UNL     1     -10.203  11.449  63.070  1.00  0.00    -0.263 C  
ENDBRANCH  18  22
BRANCH  20  24
HETATM   24  O   UNL     1     -12.681  12.669  65.319  1.00  0.00    -0.652 OA 
HETATM   25  C   UNL     1     -12.905  14.062  65.445  1.00  0.00    -0.410 C  
ENDBRANCH  20  24
ENDBRANCH  11  12
ENDBRANCH   7  11
ENDBRANCH   2   3
TORSDOF 6
ENDMDL
MODEL       24
REMARK 921   NORMALIZED FREE ENERGY PREDICTED BY IDOCK:   -6.05 KCAL/MOL
REMARK 922        TOTAL FREE ENERGY PREDICTED BY IDOCK:   -8.98 KCAL/MOL
REMARK 923 INTER-LIGAND FREE ENERGY PREDICTED BY IDOCK:   -8.70 KCAL/MOL
REMARK 924 INTRA-LIGAND FREE ENERGY PREDICTED BY IDOCK:   -0.28 KCAL/MOL
REMARK 927      BINDING AFFINITY PREDICTED BY RF-SCORE:    0.00 PKD
ROOT
HETATM    1  C   UNL     1     -11.411  16.196  64.402  1.00  0.00    -0.201 C  
HETATM    2  O   UNL     1     -12.045  14.927  64.556  1.00  0.00    -0.458 OA 
ENDROOT
BRANCH   2   3
HETATM    3  C   UNL     1     -11.494  14.092  65.495  1.00  0.00    -0.318 A  
HETATM    4  C   UNL     1     -12.055  12.808  65.612  1.00  0.00    -0.459 A  
HETATM    5  C   UNL     1     -10.483  14.480  66.376  1.00  0.00    -0.295 A  
HETATM    6  C   UNL     1     -11.571  11.936  66.598  1.00  0.00    -0.337 A  
HETATM    7  C   UNL     1     -10.599  12.351  67.527  1.00  0.00    -0.240 A  
HETATM    8  C   UNL     1     -10.038  13.623  67.383  1.00  0.00    -0.241 A  
BRANCH   4   9
HETATM    9  O   UNL     1     -13.070  12.501  64.738  1.00  0.00    -0.853 OA 
HETATM   10  C   UNL     1     -12.707  11.869  63.513  1.00  0.00    -0.405 C  
ENDBRANCH   4   9
BRANCH   7  11
HETATM   11  C   UNL     1     -10.151  11.458  68.663  1.00  0.00    -0.217 C  
BRANCH  11  12
HETATM   12  C   UNL     1     -11.194  11.267  69.748  1.00  0.00    -0.220 A  
HETATM   13  N   UNL     1     -11.592   9.975  69.922  1.00  0.00    -0.212 NA 
HETATM   14  C   UNL     1     -12.606   9.741  70.773  1.00  0.00    -0.196 A  
HETATM   15  C   UNL     1     -13.251  10.734  71.480  1.00  0.00    -0.434 A  
HETATM   16  C   UNL     1     -12.847  12.061  71.298  1.00  0.00    -0.364 A  
HETATM   17  C   UNL     1     -13.511  13.097  71.972  1.00  0.00    -0.598 A  
HETATM   18  C   UNL     1     -13.194  14.450  71.766  1.00  0.00    -0.358 A  
HETATM   19  C   UNL     1     -11.793  12.362  70.423  1.00  0.00    -0.249 A  
HETATM   20  C   UNL     1     -12.129  14.770  70.922  1.00  0.00    -0.324 A  
HETATM   21  C   UNL     1     -11.445  13.727  70.269  1.00  0.00    -0.087 A  
BRANCH  18  22
HETATM   22  O   UNL     1     -13.911  15.440  72.394  1.00  0.00    -0.478 OA 
HETATM   23  C   UNL     1     -13.286  16.029  73.538  1.00  0.00    -0.492 C  
ENDBRANCH  18  22
BRANCH  20  24
HETATM   24  O   UNL     1     -11.636  15.990  70.545  1.00  0.00    -0.354 OA 
HETATM   25  C   UNL     1     -10.651  16.125  69.537  1.00  0.00    -0.306 C  
ENDBRANCH  20  24
ENDBRANCH  11  12
ENDBRANCH   7  11
ENDBRANCH   2   3
TORSDOF 6
ENDMDL
MODEL       25
REMARK 921   NORMALIZED FREE ENERGY PREDICTED BY IDOCK:   -5.95 KCAL/MOL
REMARK 922        TOTAL FREE ENERGY PREDICTED BY IDOCK:   -8.84 KCAL/MOL
REMARK 923 INTER-LIGAND FREE ENERGY PREDICTED BY IDOCK:   -8.05 KCAL/MOL
REMARK 924 INTRA-LIGAND FREE ENERGY PREDICTED BY IDOCK:   -0.79 KCAL/MOL
REMARK 927      BINDING AFFINITY PREDICTED BY RF-SCORE:    0.00 PKD
ROOT
HETATM    1  C   UNL     1      -7.474   6.428  72.068  1.00  0.00    -0.093 C  
HETATM    2  O   UNL     1      -8.418   6.807  73.068  1.00  0.00    -0.116 OA 
ENDROOT
BRANCH   2   3
HETATM    3  C   UNL     1      -9.451   7.606  72.646  1.00  0.00    -0.176 A  
HETATM    4  C   UNL     1     -10.749   7.221  73.024  1.00  0.00    -0.339 A  
HETATM    5  C   UNL     1      -9.281   8.709  71.806  1.00  0.00    -0.338 A  
HETATM    6  C   UNL     1     -11.845   7.967  72.567  1.00  0.00    -0.390 A  
HETATM    7  C   UNL     1     -11.677   9.037  71.669  1.00  0.00    -0.431 A  
HETATM    8  C   UNL     1     -10.379   9.418  71.319  1.00  0.00    -0.363 A  
BRANCH   4   9
HETATM    9  O   UNL     1     -10.850   6.107  73.822  1.00  0.00    -0.220 OA 
HETATM   10  C   UNL     1     -11.330   4.911  73.215  1.00  0.00    -0.327 C  
ENDBRANCH   4   9
BRANCH   7  11
HETATM   11  C   UNL     1     -12.859   9.776  71.082  1.00  0.00    -0.434 C  
BRANCH  11  12
HETATM   12  C   UNL     1     -12.703  11.285  71.074  1.00  0.00    -0.359 A  
HETATM   13  N   UNL     1     -13.174  11.904  72.194  1.00  0.00    -0.423 NA 
HETATM   14  C   UNL     1     -13.191  13.248  72.207  1.00  0.00    -0.467 A  
HETATM   15  C   UNL     1     -12.749  14.024  71.157  1.00  0.00    -0.436 A  
HETATM   16  C   UNL     1     -12.270  13.391  70.005  1.00  0.00    -0.367 A  
HETATM   17  C   UNL     1     -11.854  14.154  68.904  1.00  0.00    -0.382 A  
HETATM   18  C   UNL     1     -11.437  13.566  67.698  1.00  0.00    -0.318 A  
HETATM   19  C   UNL     1     -12.229  11.991  69.938  1.00  0.00    -0.249 A  
HETATM   20  C   UNL     1     -11.360  12.174  67.620  1.00  0.00    -0.314 A  
HETATM   21  C   UNL     1     -11.752  11.411  68.736  1.00  0.00    -0.404 A  
BRANCH  18  22
HETATM   22  O   UNL     1     -11.098  14.347  66.619  1.00  0.00    -0.311 OA 
HETATM   23  C   UNL     1     -10.600  15.651  66.928  1.00  0.00    -0.311 C  
ENDBRANCH  18  22
BRANCH  20  24
HETATM   24  O   UNL     1     -11.008  11.366  66.574  1.00  0.00    -0.282 OA 
HETATM   25  C   UNL     1      -9.682  10.905  66.391  1.00  0.00    -0.201 C  
ENDBRANCH  20  24
ENDBRANCH  11  12
ENDBRANCH   7  11
ENDBRANCH   2   3
TORSDOF 6
ENDMDL
MODEL       26
REMARK 921   NORMALIZED FREE ENERGY PREDICTED BY IDOCK:   -5.94 KCAL/MOL
REMARK 922        TOTAL FREE ENERGY PREDICTED BY IDOCK:   -8.83 KCAL/MOL
REMARK 923 INTER-LIGAND FREE ENERGY PREDICTED BY IDOCK:   -8.20 KCAL/MOL
REMARK 924 INTRA-LIGAND FREE ENERGY PREDICTED BY IDOCK:   -0.63 KCAL/MOL
REMARK 927      BINDING AFFINITY PREDICTED BY RF-SCORE:    0.00 PKD
ROOT
HETATM    1  C   UNL     1     -11.997  16.119  64.209  1.00  0.00     0.237 C  
HETATM    2  O   UNL     1     -12.611  14.880  64.560  1.00  0.00    -0.519 OA 
ENDROOT
BRANCH   2   3
HETATM    3  C   UNL     1     -11.967  14.143  65.522  1.00  0.00    -0.391 A  
HETATM    4  C   UNL     1     -12.236  12.764  65.554  1.00  0.00    -0.463 A  
HETATM    5  C   UNL     1     -11.145  14.703  66.502  1.00  0.00    -0.329 A  
HETATM    6  C   UNL     1     -11.654  11.975  66.556  1.00  0.00    -0.384 A  
HETATM    7  C   UNL     1     -10.879  12.550  67.580  1.00  0.00    -0.255 A  
HETATM    8  C   UNL     1     -10.605  13.919  67.522  1.00  0.00    -0.256 A  
BRANCH   4   9
HETATM    9  O   UNL     1     -13.081  12.282  64.583  1.00  0.00    -0.770 OA 
HETATM   10  C   UNL     1     -12.493  11.869  63.352  1.00  0.00    -0.463 C  
ENDBRANCH   4   9
BRANCH   7  11
HETATM   11  C   UNL     1     -10.340  11.726  68.728  1.00  0.00    -0.198 C  
BRANCH  11  12
HETATM   12  C   UNL     1     -11.378  11.366  69.773  1.00  0.00    -0.255 A  
HETATM   13  N   UNL     1     -12.041  12.436  70.297  1.00  0.00    -0.341 NA 
HETATM   14  C   UNL     1     -12.883  12.212  71.321  1.00  0.00    -0.250 A  
HETATM   15  C   UNL     1     -13.115  10.962  71.855  1.00  0.00    -0.537 A  
HETATM   16  C   UNL     1     -12.433   9.864  71.322  1.00  0.00    -0.479 A  
HETATM   17  C   UNL     1     -12.617   8.587  71.872  1.00  0.00    -0.400 A  
HETATM   18  C   UNL     1     -11.898   7.465  71.422  1.00  0.00    -0.300 A  
HETATM   19  C   UNL     1     -11.543  10.040  70.252  1.00  0.00    -0.354 A  
HETATM   20  C   UNL     1     -11.030   7.613  70.339  1.00  0.00    -0.247 A  
HETATM   21  C   UNL     1     -10.868   8.891  69.770  1.00  0.00    -0.207 A  
BRANCH  18  22
HETATM   22  O   UNL     1     -12.058   6.243  72.029  1.00  0.00    -0.337 OA 
HETATM   23  C   UNL     1     -11.004   5.845  72.911  1.00  0.00    -0.268 C  
ENDBRANCH  18  22
BRANCH  20  24
HETATM   24  O   UNL     1     -10.213   6.700  69.731  1.00  0.00    -0.178 OA 
HETATM   25  C   UNL     1     -10.630   5.952  68.603  1.00  0.00    -0.256 C  
ENDBRANCH  20  24
ENDBRANCH  11  12
ENDBRANCH   7  11
ENDBRANCH   2   3
TORSDOF 6
ENDMDL
MODEL       27
REMARK 921   NORMALIZED FREE ENERGY PREDICTED BY IDOCK:   -5.91 KCAL/MOL
REMARK 922        TOTAL FREE ENERGY PREDICTED BY IDOCK:   -8.78 KCAL/MOL
REMARK 923 INTER-LIGAND FREE ENERGY PREDICTED BY IDOCK:   -8.25 KCAL/MOL
REMARK 924 INTRA-LIGAND FREE ENERGY PREDICTED BY IDOCK:   -0.53 KCAL/MOL
REMARK 927      BINDING AFFINITY PREDICTED BY RF-SCORE:    0.00 PKD
ROOT
HETATM    1  C   UNL     1     -10.641  16.833  65.369  1.00  0.00    -0.203 C  
HETATM    2  O   UNL     1     -11.204  15.613  64.892  1.00  0.00    -0.401 OA 
ENDROOT
BRANCH   2   3
HETATM    3  C   UNL     1     -11.301  14.598  65.810  1.00  0.00    -0.340 A  
HETATM    4  C   UNL     1     -11.345  13.286  65.307  1.00  0.00    -0.295 A  
HETATM    5  C   UNL     1     -11.442  14.810  67.184  1.00  0.00    -0.375 A  
HETATM    6  C   UNL     1     -11.507  12.215  66.198  1.00  0.00    -0.429 A  
HETATM    7  C   UNL     1     -11.714  12.434  67.573  1.00  0.00    -0.425 A  
HETATM    8  C   UNL     1     -11.647  13.743  68.059  1.00  0.00    -0.368 A  
BRANCH   4   9
HETATM    9  O   UNL     1     -11.236  13.148  63.944  1.00  0.00    -0.387 OA 
HETATM   10  C   UNL     1     -10.579  11.981  63.457  1.00  0.00    -0.465 C  
ENDBRANCH   4   9
BRANCH   7  11
HETATM   11  C   UNL     1     -12.000  11.294  68.525  1.00  0.00    -0.288 C  
BRANCH  11  12
HETATM   12  C   UNL     1     -10.770  10.746  69.222  1.00  0.00    -0.229 A  
HETATM   13  N   UNL     1      -9.595  11.027  68.590  1.00  0.00    -0.190 NA 
HETATM   14  C   UNL     1      -8.473  10.466  69.074  1.00  0.00    -0.155 A  
HETATM   15  C   UNL     1      -8.452   9.636  70.175  1.00  0.00    -0.231 A  
HETATM   16  C   UNL     1      -9.657   9.343  70.821  1.00  0.00    -0.322 A  
HETATM   17  C   UNL     1      -9.672   8.468  71.918  1.00  0.00    -0.358 A  
HETATM   18  C   UNL     1     -10.865   8.082  72.553  1.00  0.00    -0.349 A  
HETATM   19  C   UNL     1     -10.857   9.902  70.359  1.00  0.00    -0.380 A  
HETATM   20  C   UNL     1     -12.067   8.649  72.128  1.00  0.00    -0.381 A  
HETATM   21  C   UNL     1     -12.046   9.549  71.046  1.00  0.00    -0.398 A  
BRANCH  18  22
HETATM   22  O   UNL     1     -10.846   7.172  73.583  1.00  0.00    -0.352 OA 
HETATM   23  C   UNL     1     -10.777   5.797  73.196  1.00  0.00    -0.262 C  
ENDBRANCH  18  22
BRANCH  20  24
HETATM   24  O   UNL     1     -13.347   8.433  72.560  1.00  0.00    -0.245 OA 
HETATM   25  C   UNL     1     -14.267   7.646  71.825  1.00  0.00    -0.426 C  
ENDBRANCH  20  24
ENDBRANCH  11  12
ENDBRANCH   7  11
ENDBRANCH   2   3
TORSDOF 6
ENDMDL
MODEL       28
REMARK 921   NORMALIZED FREE ENERGY PREDICTED BY IDOCK:   -5.85 KCAL/MOL
REMARK 922        TOTAL FREE ENERGY PREDICTED BY IDOCK:   -8.71 KCAL/MOL
REMARK 923 INTER-LIGAND FREE ENERGY PREDICTED BY IDOCK:   -7.91 KCAL/MOL
REMARK 924 INTRA-LIGAND FREE ENERGY PREDICTED BY IDOCK:   -0.80 KCAL/MOL
REMARK 927      BINDING AFFINITY PREDICTED BY RF-SCORE:    0.00 PKD
ROOT
HETATM    1  C   UNL     1     -13.455   9.251  72.064  1.00  0.00    -0.451 C  
HETATM    2  O   UNL     1     -13.406  10.669  72.202  1.00  0.00    -0.444 OA 
ENDROOT
BRANCH   2   3
HETATM    3  C   UNL     1     -12.771  11.349  71.193  1.00  0.00    -0.377 A  
HETATM    4  C   UNL     1     -12.773  12.752  71.272  1.00  0.00    -0.269 A  
HETATM    5  C   UNL     1     -12.213  10.726  70.075  1.00  0.00    -0.409 A  
HETATM    6  C   UNL     1     -12.193  13.497  70.235  1.00  0.00    -0.417 A  
HETATM    7  C   UNL     1     -11.690  12.872  69.079  1.00  0.00    -0.375 A  
HETATM    8  C   UNL     1     -11.678  11.476  69.026  1.00  0.00    -0.400 A  
BRANCH   4   9
HETATM    9  O   UNL     1     -13.369  13.304  72.381  1.00  0.00    -0.525 OA 
HETATM   10  C   UNL     1     -14.074  14.529  72.201  1.00  0.00    -0.524 C  
ENDBRANCH   4   9
BRANCH   7  11
HETATM   11  C   UNL     1     -11.165  13.671  67.907  1.00  0.00    -0.300 C  
BRANCH  11  12
HETATM   12  C   UNL     1      -9.705  14.062  68.028  1.00  0.00    -0.221 A  
HETATM   13  N   UNL     1      -8.853  13.008  68.186  1.00  0.00    -0.191 NA 
HETATM   14  C   UNL     1      -7.560  13.279  68.431  1.00  0.00    -0.137 A  
HETATM   15  C   UNL     1      -7.054  14.558  68.520  1.00  0.00    -0.114 A  
HETATM   16  C   UNL     1      -7.927  15.640  68.363  1.00  0.00    -0.136 A  
HETATM   17  C   UNL     1      -7.449  16.953  68.490  1.00  0.00    -0.217 A  
HETATM   18  C   UNL     1      -8.298  18.071  68.416  1.00  0.00    -0.298 A  
HETATM   19  C   UNL     1      -9.287  15.415  68.104  1.00  0.00    -0.197 A  
HETATM   20  C   UNL     1      -9.650  17.871  68.130  1.00  0.00    -0.306 A  
HETATM   21  C   UNL     1     -10.121  16.553  67.975  1.00  0.00    -0.255 A  
BRANCH  18  22
HETATM   22  O   UNL     1      -7.804  19.338  68.610  1.00  0.00    -0.338 OA 
HETATM   23  C   UNL     1      -7.272  19.982  67.449  1.00  0.00    -0.260 C  
ENDBRANCH  18  22
BRANCH  20  24
HETATM   24  O   UNL     1     -10.673  18.773  68.024  1.00  0.00    -0.336 OA 
HETATM   25  C   UNL     1     -10.907  19.509  66.837  1.00  0.00    -0.411 C  
ENDBRANCH  20  24
ENDBRANCH  11  12
ENDBRANCH   7  11
ENDBRANCH   2   3
TORSDOF 6
ENDMDL
MODEL       29
REMARK 921   NORMALIZED FREE ENERGY PREDICTED BY IDOCK:   -5.85 KCAL/MOL
REMARK 922        TOTAL FREE ENERGY PREDICTED BY IDOCK:   -8.70 KCAL/MOL
REMARK 923 INTER-LIGAND FREE ENERGY PREDICTED BY IDOCK:   -8.02 KCAL/MOL
REMARK 924 INTRA-LIGAND FREE ENERGY PREDICTED BY IDOCK:   -0.68 KCAL/MOL
REMARK 927      BINDING AFFINITY PREDICTED BY RF-SCORE:    0.00 PKD
ROOT
HETATM    1  C   UNL     1      -8.635   7.953  70.566  1.00  0.00    -0.131 C  
HETATM    2  O   UNL     1      -9.981   8.261  70.926  1.00  0.00    -0.185 OA 
ENDROOT
BRANCH   2   3
HETATM    3  C   UNL     1     -10.444   9.487  70.521  1.00  0.00    -0.296 A  
HETATM    4  C   UNL     1     -11.674   9.911  71.054  1.00  0.00    -0.382 A  
HETATM    5  C   UNL     1      -9.806  10.275  69.560  1.00  0.00    -0.244 A  
HETATM    6  C   UNL     1     -12.224  11.128  70.626  1.00  0.00    -0.492 A  
HETATM    7  C   UNL     1     -11.614  11.888  69.611  1.00  0.00    -0.387 A  
HETATM    8  C   UNL     1     -10.381  11.463  69.107  1.00  0.00    -0.122 A  
BRANCH   4   9
HETATM    9  O   UNL     1     -12.267   9.074  71.968  1.00  0.00    -0.350 OA 
HETATM   10  C   UNL     1     -13.672   9.211  72.164  1.00  0.00    -0.471 C  
ENDBRANCH   4   9
BRANCH   7  11
HETATM   11  C   UNL     1     -12.255  13.144  69.064  1.00  0.00    -0.114 C  
BRANCH  11  12
HETATM   12  C   UNL     1     -11.899  13.441  67.619  1.00  0.00    -0.354 A  
HETATM   13  N   UNL     1     -12.269  12.467  66.739  1.00  0.00    -0.481 NA 
HETATM   14  C   UNL     1     -11.874  12.595  65.460  1.00  0.00    -0.431 A  
HETATM   15  C   UNL     1     -11.130  13.659  64.997  1.00  0.00    -0.338 A  
HETATM   16  C   UNL     1     -10.746  14.657  65.900  1.00  0.00    -0.312 A  
HETATM   17  C   UNL     1      -9.954  15.730  65.467  1.00  0.00    -0.341 A  
HETATM   18  C   UNL     1      -9.479  16.716  66.348  1.00  0.00    -0.280 A  
HETATM   19  C   UNL     1     -11.132  14.574  67.246  1.00  0.00    -0.317 A  
HETATM   20  C   UNL     1      -9.875  16.669  67.686  1.00  0.00    -0.256 A  
HETATM   21  C   UNL     1     -10.695  15.606  68.112  1.00  0.00    -0.287 A  
BRANCH  18  22
HETATM   22  O   UNL     1      -8.650  17.717  65.899  1.00  0.00    -0.526 OA 
HETATM   23  C   UNL     1      -7.249  17.468  66.030  1.00  0.00    -0.263 C  
ENDBRANCH  18  22
BRANCH  20  24
HETATM   24  O   UNL     1      -9.545  17.484  68.735  1.00  0.00    -0.291 OA 
HETATM   25  C   UNL     1     -10.020  18.814  68.833  1.00  0.00    -0.371 C  
ENDBRANCH  20  24
ENDBRANCH  11  12
ENDBRANCH   7  11
ENDBRANCH   2   3
TORSDOF 6
ENDMDL
MODEL       30
REMARK 921   NORMALIZED FREE ENERGY PREDICTED BY IDOCK:   -5.84 KCAL/MOL
REMARK 922        TOTAL FREE ENERGY PREDICTED BY IDOCK:   -8.70 KCAL/MOL
REMARK 923 INTER-LIGAND FREE ENERGY PREDICTED BY IDOCK:   -7.87 KCAL/MOL
REMARK 924 INTRA-LIGAND FREE ENERGY PREDICTED BY IDOCK:   -0.83 KCAL/MOL
REMARK 927      BINDING AFFINITY PREDICTED BY RF-SCORE:    0.00 PKD
ROOT
HETATM    1  C   UNL     1     -10.189  19.160  67.949  1.00  0.00    -0.406 C  
HETATM    2  O   UNL     1      -9.786  17.957  68.600  1.00  0.00    -0.328 OA 
ENDROOT
BRANCH   2   3
HETATM    3  C   UNL     1     -10.416  16.811  68.184  1.00  0.00    -0.332 A  
HETATM    4  C   UNL     1     -11.090  16.063  69.166  1.00  0.00    -0.317 A  
HETATM    5  C   UNL     1     -10.346  16.321  66.878  1.00  0.00    -0.299 A  
HETATM    6  C   UNL     1     -11.697  14.851  68.807  1.00  0.00    -0.353 A  
HETATM    7  C   UNL     1     -11.570  14.327  67.508  1.00  0.00    -0.390 A  
HETATM    8  C   UNL     1     -10.914  15.093  66.540  1.00  0.00    -0.318 A  
BRANCH   4   9
HETATM    9  O   UNL     1     -11.092  16.583  70.438  1.00  0.00    -0.333 OA 
HETATM   10  C   UNL     1     -11.835  15.878  71.430  1.00  0.00    -0.463 C  
ENDBRANCH   4   9
BRANCH   7  11
HETATM   11  C   UNL     1     -12.125  12.969  67.140  1.00  0.00    -0.325 C  
BRANCH  11  12
HETATM   12  C   UNL     1     -11.904  12.582  65.690  1.00  0.00    -0.438 A  
HETATM   13  N   UNL     1     -12.959  12.854  64.870  1.00  0.00    -0.823 NA 
HETATM   14  C   UNL     1     -12.892  12.423  63.598  1.00  0.00    -0.241 A  
HETATM   15  C   UNL     1     -11.814  11.734  63.085  1.00  0.00    -0.194 A  
HETATM   16  C   UNL     1     -10.733  11.449  63.927  1.00  0.00    -0.462 A  
HETATM   17  C   UNL     1      -9.641  10.713  63.444  1.00  0.00    -0.373 A  
HETATM   18  C   UNL     1      -8.567  10.336  64.269  1.00  0.00    -0.192 A  
HETATM   19  C   UNL     1     -10.750  11.877  65.262  1.00  0.00    -0.331 A  
HETATM   20  C   UNL     1      -8.550  10.777  65.594  1.00  0.00    -0.180 A  
HETATM   21  C   UNL     1      -9.634  11.540  66.068  1.00  0.00    -0.251 A  
BRANCH  18  22
HETATM   22  O   UNL     1      -7.546   9.559  63.777  1.00  0.00    -0.112 OA 
HETATM   23  C   UNL     1      -7.939   8.320  63.181  1.00  0.00    -0.158 C  
ENDBRANCH  18  22
BRANCH  20  24
HETATM   24  O   UNL     1      -7.645  10.539  66.592  1.00  0.00    -0.109 OA 
HETATM   25  C   UNL     1      -6.869  11.574  67.168  1.00  0.00    -0.139 C  
ENDBRANCH  20  24
ENDBRANCH  11  12
ENDBRANCH   7  11
ENDBRANCH   2   3
TORSDOF 6
ENDMDL
MODEL       31
REMARK 921   NORMALIZED FREE ENERGY PREDICTED BY IDOCK:   -5.82 KCAL/MOL
REMARK 922        TOTAL FREE ENERGY PREDICTED BY IDOCK:   -8.67 KCAL/MOL
REMARK 923 INTER-LIGAND FREE ENERGY PREDICTED BY IDOCK:   -8.19 KCAL/MOL
REMARK 924 INTRA-LIGAND FREE ENERGY PREDICTED BY IDOCK:   -0.49 KCAL/MOL
REMARK 927      BINDING AFFINITY PREDICTED BY RF-SCORE:    0.00 PKD
ROOT
HETATM    1  C   UNL     1     -13.931  15.605  72.438  1.00  0.00    -0.515 C  
HETATM    2  O   UNL     1     -13.304  15.677  71.158  1.00  0.00    -0.514 OA 
ENDROOT
BRANCH   2   3
HETATM    3  C   UNL     1     -12.739  14.514  70.701  1.00  0.00    -0.360 A  
HETATM    4  C   UNL     1     -12.044  14.580  69.481  1.00  0.00    -0.306 A  
HETATM    5  C   UNL     1     -12.893  13.279  71.335  1.00  0.00    -0.411 A  
HETATM    6  C   UNL     1     -11.501  13.407  68.936  1.00  0.00    -0.347 A  
HETATM    7  C   UNL     1     -11.713  12.155  69.542  1.00  0.00    -0.402 A  
HETATM    8  C   UNL     1     -12.388  12.110  70.765  1.00  0.00    -0.391 A  
BRANCH   4   9
HETATM    9  O   UNL     1     -11.958  15.818  68.891  1.00  0.00    -0.382 OA 
HETATM   10  C   UNL     1     -10.700  16.485  68.954  1.00  0.00    -0.337 C  
ENDBRANCH   4   9
BRANCH   7  11
HETATM   11  C   UNL     1     -11.228  10.871  68.906  1.00  0.00    -0.327 C  
BRANCH  11  12
HETATM   12  C   UNL     1     -10.059  10.226  69.626  1.00  0.00    -0.224 A  
HETATM   13  N   UNL     1      -8.857  10.388  69.003  1.00  0.00    -0.164 NA 
HETATM   14  C   UNL     1      -7.796   9.737  69.510  1.00  0.00    -0.128 A  
HETATM   15  C   UNL     1      -7.861   8.929  70.624  1.00  0.00    -0.124 A  
HETATM   16  C   UNL     1      -9.094   8.758  71.262  1.00  0.00    -0.300 A  
HETATM   17  C   UNL     1      -9.199   7.909  72.374  1.00  0.00    -0.239 A  
HETATM   18  C   UNL     1     -10.428   7.644  73.002  1.00  0.00    -0.356 A  
HETATM   19  C   UNL     1     -10.234   9.415  70.777  1.00  0.00    -0.368 A  
HETATM   20  C   UNL     1     -11.570   8.310  72.554  1.00  0.00    -0.385 A  
HETATM   21  C   UNL     1     -11.456   9.185  71.456  1.00  0.00    -0.437 A  
BRANCH  18  22
HETATM   22  O   UNL     1     -10.502   6.756  74.048  1.00  0.00    -0.364 OA 
HETATM   23  C   UNL     1     -10.687   5.385  73.686  1.00  0.00    -0.293 C  
ENDBRANCH  18  22
BRANCH  20  24
HETATM   24  O   UNL     1     -12.868   8.219  72.975  1.00  0.00    -0.066 OA 
HETATM   25  C   UNL     1     -13.931   8.841  72.276  1.00  0.00    -0.447 C  
ENDBRANCH  20  24
ENDBRANCH  11  12
ENDBRANCH   7  11
ENDBRANCH   2   3
TORSDOF 6
ENDMDL
MODEL       32
REMARK 921   NORMALIZED FREE ENERGY PREDICTED BY IDOCK:   -5.82 KCAL/MOL
REMARK 922        TOTAL FREE ENERGY PREDICTED BY IDOCK:   -8.66 KCAL/MOL
REMARK 923 INTER-LIGAND FREE ENERGY PREDICTED BY IDOCK:   -7.85 KCAL/MOL
REMARK 924 INTRA-LIGAND FREE ENERGY PREDICTED BY IDOCK:   -0.81 KCAL/MOL
REMARK 927      BINDING AFFINITY PREDICTED BY RF-SCORE:    0.00 PKD
ROOT
HETATM    1  C   UNL     1     -13.739   9.078  72.202  1.00  0.00    -0.480 C  
HETATM    2  O   UNL     1     -12.319   9.155  72.088  1.00  0.00    -0.369 OA 
ENDROOT
BRANCH   2   3
HETATM    3  C   UNL     1     -11.836   9.554  70.868  1.00  0.00    -0.309 A  
HETATM    4  C   UNL     1     -10.947   8.680  70.218  1.00  0.00    -0.236 A  
HETATM    5  C   UNL     1     -12.114  10.797  70.296  1.00  0.00    -0.433 A  
HETATM    6  C   UNL     1     -10.374   9.067  68.998  1.00  0.00    -0.233 A  
HETATM    7  C   UNL     1     -10.604  10.345  68.456  1.00  0.00    -0.237 A  
HETATM    8  C   UNL     1     -11.506  11.193  69.104  1.00  0.00    -0.366 A  
BRANCH   4   9
HETATM    9  O   UNL     1     -10.688   7.488  70.851  1.00  0.00    -0.229 OA 
HETATM   10  C   UNL     1     -11.531   6.384  70.533  1.00  0.00    -0.379 C  
ENDBRANCH   4   9
BRANCH   7  11
HETATM   11  C   UNL     1      -9.905  10.813  67.199  1.00  0.00    -0.216 C  
BRANCH  11  12
HETATM   12  C   UNL     1      -9.145  12.116  67.362  1.00  0.00    -0.181 A  
HETATM   13  N   UNL     1      -8.143  12.069  68.285  1.00  0.00    -0.150 NA 
HETATM   14  C   UNL     1      -7.509  13.218  68.581  1.00  0.00    -0.099 A  
HETATM   15  C   UNL     1      -7.815  14.427  67.995  1.00  0.00    -0.141 A  
HETATM   16  C   UNL     1      -8.846  14.478  67.051  1.00  0.00    -0.256 A  
HETATM   17  C   UNL     1      -9.206  15.702  66.468  1.00  0.00    -0.325 A  
HETATM   18  C   UNL     1     -10.284  15.818  65.573  1.00  0.00    -0.378 A  
HETATM   19  C   UNL     1      -9.539  13.309  66.703  1.00  0.00    -0.262 A  
HETATM   20  C   UNL     1     -10.969  14.663  65.191  1.00  0.00    -0.386 A  
HETATM   21  C   UNL     1     -10.586  13.431  65.756  1.00  0.00    -0.286 A  
BRANCH  18  22
HETATM   22  O   UNL     1     -10.649  17.045  65.073  1.00  0.00    -0.703 OA 
HETATM   23  C   UNL     1     -10.389  18.165  65.923  1.00  0.00    -0.277 C  
ENDBRANCH  18  22
BRANCH  20  24
HETATM   24  O   UNL     1     -12.046  14.508  64.363  1.00  0.00    -0.472 OA 
HETATM   25  C   UNL     1     -12.262  13.320  63.623  1.00  0.00    -0.451 C  
ENDBRANCH  20  24
ENDBRANCH  11  12
ENDBRANCH   7  11
ENDBRANCH   2   3
TORSDOF 6
ENDMDL
MODEL       33
REMARK 921   NORMALIZED FREE ENERGY PREDICTED BY IDOCK:   -5.81 KCAL/MOL
REMARK 922        TOTAL FREE ENERGY PREDICTED BY IDOCK:   -8.65 KCAL/MOL
REMARK 923 INTER-LIGAND FREE ENERGY PREDICTED BY IDOCK:   -7.87 KCAL/MOL
REMARK 924 INTRA-LIGAND FREE ENERGY PREDICTED BY IDOCK:   -0.78 KCAL/MOL
REMARK 927      BINDING AFFINITY PREDICTED BY RF-SCORE:    0.00 PKD
ROOT
HETATM    1  C   UNL     1     -13.540  13.933  72.439  1.00  0.00    -0.575 C  
HETATM    2  O   UNL     1     -12.940  13.165  71.397  1.00  0.00    -0.354 OA 
ENDROOT
BRANCH   2   3
HETATM    3  C   UNL     1     -12.365  13.882  70.379  1.00  0.00    -0.363 A  
HETATM    4  C   UNL     1     -11.771  13.146  69.338  1.00  0.00    -0.327 A  
HETATM    5  C   UNL     1     -12.270  15.275  70.373  1.00  0.00    -0.404 A  
HETATM    6  C   UNL     1     -11.113  13.829  68.305  1.00  0.00    -0.279 A  
HETATM    7  C   UNL     1     -10.962  15.227  68.334  1.00  0.00    -0.271 A  
HETATM    8  C   UNL     1     -11.576  15.945  69.364  1.00  0.00    -0.352 A  
BRANCH   4   9
HETATM    9  O   UNL     1     -11.869  11.778  69.422  1.00  0.00    -0.300 OA 
HETATM   10  C   UNL     1     -11.432  11.023  68.295  1.00  0.00    -0.304 C  
ENDBRANCH   4   9
BRANCH   7  11
HETATM   11  C   UNL     1     -10.159  15.963  67.283  1.00  0.00    -0.260 C  
BRANCH  11  12
HETATM   12  C   UNL     1      -9.928  17.429  67.595  1.00  0.00    -0.300 A  
HETATM   13  N   UNL     1     -10.907  18.261  67.137  1.00  0.00    -0.297 NA 
HETATM   14  C   UNL     1     -10.711  19.586  67.260  1.00  0.00    -0.484 A  
HETATM   15  C   UNL     1      -9.584  20.138  67.829  1.00  0.00    -0.508 A  
HETATM   16  C   UNL     1      -8.577  19.286  68.295  1.00  0.00    -0.374 A  
HETATM   17  C   UNL     1      -7.401  19.820  68.842  1.00  0.00    -0.327 A  
HETATM   18  C   UNL     1      -6.329  19.010  69.254  1.00  0.00    -0.287 A  
HETATM   19  C   UNL     1      -8.729  17.896  68.194  1.00  0.00    -0.268 A  
HETATM   20  C   UNL     1      -6.472  17.622  69.189  1.00  0.00    -0.237 A  
HETATM   21  C   UNL     1      -7.665  17.088  68.667  1.00  0.00    -0.251 A  
BRANCH  18  22
HETATM   22  O   UNL     1      -5.166  19.572  69.724  1.00  0.00    -0.195 OA 
HETATM   23  C   UNL     1      -5.223  20.095  71.053  1.00  0.00    -0.267 C  
ENDBRANCH  18  22
BRANCH  20  24
HETATM   24  O   UNL     1      -5.588  16.628  69.506  1.00  0.00    -0.145 OA 
HETATM   25  C   UNL     1      -5.199  16.363  70.841  1.00  0.00    -0.143 C  
ENDBRANCH  20  24
ENDBRANCH  11  12
ENDBRANCH   7  11
ENDBRANCH   2   3
TORSDOF 6
ENDMDL
MODEL       34
REMARK 921   NORMALIZED FREE ENERGY PREDICTED BY IDOCK:   -5.81 KCAL/MOL
REMARK 922        TOTAL FREE ENERGY PREDICTED BY IDOCK:   -8.65 KCAL/MOL
REMARK 923 INTER-LIGAND FREE ENERGY PREDICTED BY IDOCK:   -7.78 KCAL/MOL
REMARK 924 INTRA-LIGAND FREE ENERGY PREDICTED BY IDOCK:   -0.87 KCAL/MOL
REMARK 927      BINDING AFFINITY PREDICTED BY RF-SCORE:    0.00 PKD
ROOT
HETATM    1  C   UNL     1      -6.966   9.784  66.666  1.00  0.00    -0.085 C  
HETATM    2  O   UNL     1      -8.220   9.489  66.054  1.00  0.00    -0.113 OA 
ENDROOT
BRANCH   2   3
HETATM    3  C   UNL     1      -9.247  10.349  66.349  1.00  0.00    -0.161 A  
HETATM    4  C   UNL     1     -10.104  10.704  65.292  1.00  0.00    -0.297 A  
HETATM    5  C   UNL     1      -9.425  10.940  67.602  1.00  0.00    -0.170 A  
HETATM    6  C   UNL     1     -11.132  11.629  65.524  1.00  0.00    -0.297 A  
HETATM    7  C   UNL     1     -11.269  12.272  66.767  1.00  0.00    -0.371 A  
HETATM    8  C   UNL     1     -10.422  11.893  67.813  1.00  0.00    -0.224 A  
BRANCH   4   9
HETATM    9  O   UNL     1      -9.854  10.114  64.076  1.00  0.00    -0.290 OA 
HETATM   10  C   UNL     1      -9.557  10.976  62.981  1.00  0.00    -0.364 C  
ENDBRANCH   4   9
BRANCH   7  11
HETATM   11  C   UNL     1     -12.303  13.352  66.995  1.00  0.00    -0.231 C  
BRANCH  11  12
HETATM   12  C   UNL     1     -11.783  14.557  67.755  1.00  0.00    -0.374 A  
HETATM   13  N   UNL     1     -11.088  15.446  66.989  1.00  0.00    -0.307 NA 
HETATM   14  C   UNL     1     -10.485  16.473  67.613  1.00  0.00    -0.305 A  
HETATM   15  C   UNL     1     -10.542  16.675  68.975  1.00  0.00    -0.340 A  
HETATM   16  C   UNL     1     -11.251  15.762  69.763  1.00  0.00    -0.330 A  
HETATM   17  C   UNL     1     -11.292  15.918  71.156  1.00  0.00    -0.435 A  
HETATM   18  C   UNL     1     -11.925  14.987  71.997  1.00  0.00    -0.388 A  
HETATM   19  C   UNL     1     -11.901  14.672  69.164  1.00  0.00    -0.347 A  
HETATM   20  C   UNL     1     -12.604  13.911  71.420  1.00  0.00    -0.361 A  
HETATM   21  C   UNL     1     -12.585  13.773  70.019  1.00  0.00    -0.207 A  
BRANCH  18  22
HETATM   22  O   UNL     1     -11.889  15.139  73.363  1.00  0.00    -0.406 OA 
HETATM   23  C   UNL     1     -12.868  16.022  73.916  1.00  0.00    -0.528 C  
ENDBRANCH  18  22
BRANCH  20  24
HETATM   24  O   UNL     1     -13.274  12.873  72.006  1.00  0.00    -0.452 OA 
HETATM   25  C   UNL     1     -13.005  11.522  71.678  1.00  0.00    -0.394 C  
ENDBRANCH  20  24
ENDBRANCH  11  12
ENDBRANCH   7  11
ENDBRANCH   2   3
TORSDOF 6
ENDMDL
MODEL       35
REMARK 921   NORMALIZED FREE ENERGY PREDICTED BY IDOCK:   -5.80 KCAL/MOL
REMARK 922        TOTAL FREE ENERGY PREDICTED BY IDOCK:   -8.64 KCAL/MOL
REMARK 923 INTER-LIGAND FREE ENERGY PREDICTED BY IDOCK:   -7.97 KCAL/MOL
REMARK 924 INTRA-LIGAND FREE ENERGY PREDICTED BY IDOCK:   -0.67 KCAL/MOL
REMARK 927      BINDING AFFINITY PREDICTED BY RF-SCORE:    0.00 PKD
ROOT
HETATM    1  C   UNL     1      -7.792   7.056  70.369  1.00  0.00    -0.108 C  
HETATM    2  O   UNL     1      -8.017   8.224  71.156  1.00  0.00    -0.086 OA 
ENDROOT
BRANCH   2   3
HETATM    3  C   UNL     1      -8.979   9.084  70.691  1.00  0.00    -0.220 A  
HETATM    4  C   UNL     1     -10.190   9.131  71.404  1.00  0.00    -0.332 A  
HETATM    5  C   UNL     1      -8.844   9.834  69.521  1.00  0.00    -0.202 A  
HETATM    6  C   UNL     1     -11.230   9.946  70.936  1.00  0.00    -0.433 A  
HETATM    7  C   UNL     1     -11.117  10.649  69.722  1.00  0.00    -0.358 A  
HETATM    8  C   UNL     1      -9.899  10.608  69.037  1.00  0.00    -0.218 A  
BRANCH   4   9
HETATM    9  O   UNL     1     -10.270   8.343  72.527  1.00  0.00    -0.306 OA 
HETATM   10  C   UNL     1     -11.346   7.409  72.594  1.00  0.00    -0.313 C  
ENDBRANCH   4   9
BRANCH   7  11
HETATM   11  C   UNL     1     -12.272  11.442  69.152  1.00  0.00    -0.242 C  
BRANCH  11  12
HETATM   12  C   UNL     1     -11.874  12.414  68.057  1.00  0.00    -0.316 A  
HETATM   13  N   UNL     1     -11.675  11.836  66.838  1.00  0.00    -0.584 NA 
HETATM   14  C   UNL     1     -11.195  12.609  65.849  1.00  0.00    -0.314 A  
HETATM   15  C   UNL     1     -10.906  13.948  66.002  1.00  0.00    -0.290 A  
HETATM   16  C   UNL     1     -11.106  14.542  67.253  1.00  0.00    -0.317 A  
HETATM   17  C   UNL     1     -10.782  15.892  67.450  1.00  0.00    -0.313 A  
HETATM   18  C   UNL     1     -10.891  16.515  68.705  1.00  0.00    -0.345 A  
HETATM   19  C   UNL     1     -11.606  13.783  68.320  1.00  0.00    -0.373 A  
HETATM   20  C   UNL     1     -11.415  15.786  69.774  1.00  0.00    -0.349 A  
HETATM   21  C   UNL     1     -11.766  14.438  69.566  1.00  0.00    -0.362 A  
BRANCH  18  22
HETATM   22  O   UNL     1     -10.502  17.822  68.874  1.00  0.00    -0.342 OA 
HETATM   23  C   UNL     1     -10.507  18.629  67.693  1.00  0.00    -0.423 C  
ENDBRANCH  18  22
BRANCH  20  24
HETATM   24  O   UNL     1     -11.606  16.146  71.080  1.00  0.00    -0.413 OA 
HETATM   25  C   UNL     1     -11.880  15.194  72.091  1.00  0.00    -0.415 C  
ENDBRANCH  20  24
ENDBRANCH  11  12
ENDBRANCH   7  11
ENDBRANCH   2   3
TORSDOF 6
ENDMDL
MODEL       36
REMARK 921   NORMALIZED FREE ENERGY PREDICTED BY IDOCK:   -5.80 KCAL/MOL
REMARK 922        TOTAL FREE ENERGY PREDICTED BY IDOCK:   -8.64 KCAL/MOL
REMARK 923 INTER-LIGAND FREE ENERGY PREDICTED BY IDOCK:   -7.67 KCAL/MOL
REMARK 924 INTRA-LIGAND FREE ENERGY PREDICTED BY IDOCK:   -0.97 KCAL/MOL
REMARK 927      BINDING AFFINITY PREDICTED BY RF-SCORE:    0.00 PKD
ROOT
HETATM    1  C   UNL     1     -13.765   9.276  72.044  1.00  0.00    -0.428 C  
HETATM    2  O   UNL     1     -13.125  10.551  72.034  1.00  0.00    -0.467 OA 
ENDROOT
BRANCH   2   3
HETATM    3  C   UNL     1     -12.198  10.748  71.042  1.00  0.00    -0.380 A  
HETATM    4  C   UNL     1     -12.222  11.991  70.386  1.00  0.00    -0.294 A  
HETATM    5  C   UNL     1     -11.310   9.762  70.606  1.00  0.00    -0.401 A  
HETATM    6  C   UNL     1     -11.339  12.223  69.322  1.00  0.00    -0.317 A  
HETATM    7  C   UNL     1     -10.491  11.207  68.842  1.00  0.00    -0.233 A  
HETATM    8  C   UNL     1     -10.465   9.984  69.518  1.00  0.00    -0.260 A  
BRANCH   4   9
HETATM    9  O   UNL     1     -13.143  12.905  70.840  1.00  0.00    -0.086 OA 
HETATM   10  C   UNL     1     -12.640  14.074  71.483  1.00  0.00    -0.349 C  
ENDBRANCH   4   9
BRANCH   7  11
HETATM   11  C   UNL     1      -9.615  11.410  67.626  1.00  0.00    -0.176 C  
BRANCH  11  12
HETATM   12  C   UNL     1      -8.871  12.732  67.613  1.00  0.00    -0.189 A  
HETATM   13  N   UNL     1      -7.793  12.777  68.446  1.00  0.00    -0.137 NA 
HETATM   14  C   UNL     1      -7.160  13.955  68.589  1.00  0.00    -0.110 A  
HETATM   15  C   UNL     1      -7.538  15.106  67.931  1.00  0.00    -0.151 A  
HETATM   16  C   UNL     1      -8.647  15.062  67.079  1.00  0.00    -0.266 A  
HETATM   17  C   UNL     1      -9.080  16.227  66.429  1.00  0.00    -0.336 A  
HETATM   18  C   UNL     1     -10.232  16.253  65.624  1.00  0.00    -0.343 A  
HETATM   19  C   UNL     1      -9.344  13.859  66.892  1.00  0.00    -0.265 A  
HETATM   20  C   UNL     1     -10.924  15.060  65.401  1.00  0.00    -0.373 A  
HETATM   21  C   UNL     1     -10.469  13.886  66.032  1.00  0.00    -0.299 A  
BRANCH  18  22
HETATM   22  O   UNL     1     -10.663  17.427  65.056  1.00  0.00    -0.688 OA 
HETATM   23  C   UNL     1     -10.518  18.598  65.864  1.00  0.00    -0.356 C  
ENDBRANCH  18  22
BRANCH  20  24
HETATM   24  O   UNL     1     -12.064  14.821  64.685  1.00  0.00    -0.443 OA 
HETATM   25  C   UNL     1     -12.291  13.593  64.018  1.00  0.00    -0.325 C  
ENDBRANCH  20  24
ENDBRANCH  11  12
ENDBRANCH   7  11
ENDBRANCH   2   3
TORSDOF 6
ENDMDL
MODEL       37
REMARK 921   NORMALIZED FREE ENERGY PREDICTED BY IDOCK:   -5.79 KCAL/MOL
REMARK 922        TOTAL FREE ENERGY PREDICTED BY IDOCK:   -8.62 KCAL/MOL
REMARK 923 INTER-LIGAND FREE ENERGY PREDICTED BY IDOCK:   -7.70 KCAL/MOL
REMARK 924 INTRA-LIGAND FREE ENERGY PREDICTED BY IDOCK:   -0.92 KCAL/MOL
REMARK 927      BINDING AFFINITY PREDICTED BY RF-SCORE:    0.00 PKD
ROOT
HETATM    1  C   UNL     1     -10.643   6.352  73.483  1.00  0.00    -0.276 C  
HETATM    2  O   UNL     1     -11.387   7.413  72.885  1.00  0.00    -0.317 OA 
ENDROOT
BRANCH   2   3
HETATM    3  C   UNL     1     -10.688   8.226  72.029  1.00  0.00    -0.297 A  
HETATM    4  C   UNL     1     -11.433   9.157  71.284  1.00  0.00    -0.335 A  
HETATM    5  C   UNL     1      -9.314   8.114  71.806  1.00  0.00    -0.241 A  
HETATM    6  C   UNL     1     -10.777   9.969  70.349  1.00  0.00    -0.369 A  
HETATM    7  C   UNL     1      -9.405   9.811  70.079  1.00  0.00    -0.274 A  
HETATM    8  C   UNL     1      -8.676   8.895  70.842  1.00  0.00    -0.256 A  
BRANCH   4   9
HETATM    9  O   UNL     1     -12.786   9.192  71.526  1.00  0.00    -0.315 OA 
HETATM   10  C   UNL     1     -13.350  10.448  71.896  1.00  0.00    -0.364 C  
ENDBRANCH   4   9
BRANCH   7  11
HETATM   11  C   UNL     1      -8.711  10.604  68.994  1.00  0.00    -0.152 C  
BRANCH  11  12
HETATM   12  C   UNL     1      -9.285  10.387  67.606  1.00  0.00    -0.148 A  
HETATM   13  N   UNL     1      -8.706   9.365  66.913  1.00  0.00    -0.127 NA 
HETATM   14  C   UNL     1      -9.069   9.194  65.630  1.00  0.00    -0.219 A  
HETATM   15  C   UNL     1      -9.996   9.988  64.989  1.00  0.00    -0.320 A  
HETATM   16  C   UNL     1     -10.586  11.040  65.697  1.00  0.00    -0.263 A  
HETATM   17  C   UNL     1     -11.502  11.890  65.059  1.00  0.00    -0.306 A  
HETATM   18  C   UNL     1     -12.065  13.005  65.704  1.00  0.00    -0.454 A  
HETATM   19  C   UNL     1     -10.246  11.263  67.039  1.00  0.00    -0.250 A  
HETATM   20  C   UNL     1     -11.762  13.229  67.048  1.00  0.00    -0.389 A  
HETATM   21  C   UNL     1     -10.865  12.357  67.694  1.00  0.00    -0.258 A  
BRANCH  18  22
HETATM   22  O   UNL     1     -12.908  13.854  65.026  1.00  0.00    -0.693 OA 
HETATM   23  C   UNL     1     -12.279  14.949  64.356  1.00  0.00    -0.381 C  
ENDBRANCH  18  22
BRANCH  20  24
HETATM   24  O   UNL     1     -12.157  14.235  67.887  1.00  0.00    -0.345 OA 
HETATM   25  C   UNL     1     -11.360  15.383  68.113  1.00  0.00    -0.348 C  
ENDBRANCH  20  24
ENDBRANCH  11  12
ENDBRANCH   7  11
ENDBRANCH   2   3
TORSDOF 6
ENDMDL
MODEL       38
REMARK 921   NORMALIZED FREE ENERGY PREDICTED BY IDOCK:   -5.77 KCAL/MOL
REMARK 922        TOTAL FREE ENERGY PREDICTED BY IDOCK:   -8.60 KCAL/MOL
REMARK 923 INTER-LIGAND FREE ENERGY PREDICTED BY IDOCK:   -7.61 KCAL/MOL
REMARK 924 INTRA-LIGAND FREE ENERGY PREDICTED BY IDOCK:   -0.99 KCAL/MOL
REMARK 927      BINDING AFFINITY PREDICTED BY RF-SCORE:    0.00 PKD
ROOT
HETATM    1  C   UNL     1      -7.215   8.976  66.055  1.00  0.00    -0.093 C  
HETATM    2  O   UNL     1      -8.560   8.747  66.470  1.00  0.00    -0.112 OA 
ENDROOT
BRANCH   2   3
HETATM    3  C   UNL     1      -9.364   9.857  66.536  1.00  0.00    -0.164 A  
HETATM    4  C   UNL     1      -9.989  10.118  67.768  1.00  0.00    -0.168 A  
HETATM    5  C   UNL     1      -9.649  10.670  65.437  1.00  0.00    -0.282 A  
HETATM    6  C   UNL     1     -10.871  11.203  67.873  1.00  0.00    -0.285 A  
HETATM    7  C   UNL     1     -11.208  11.982  66.750  1.00  0.00    -0.376 A  
HETATM    8  C   UNL     1     -10.561  11.721  65.538  1.00  0.00    -0.323 A  
BRANCH   4   9
HETATM    9  O   UNL     1      -9.693   9.260  68.799  1.00  0.00    -0.153 OA 
HETATM   10  C   UNL     1     -10.729   8.988  69.741  1.00  0.00    -0.225 C  
ENDBRANCH   4   9
BRANCH   7  11
HETATM   11  C   UNL     1     -12.241  13.083  66.827  1.00  0.00    -0.261 C  
BRANCH  11  12
HETATM   12  C   UNL     1     -11.745  14.352  67.495  1.00  0.00    -0.387 A  
HETATM   13  N   UNL     1     -11.076  15.199  66.662  1.00  0.00    -0.327 NA 
HETATM   14  C   UNL     1     -10.493  16.282  67.206  1.00  0.00    -0.300 A  
HETATM   15  C   UNL     1     -10.546  16.579  68.551  1.00  0.00    -0.318 A  
HETATM   16  C   UNL     1     -11.228  15.708  69.407  1.00  0.00    -0.313 A  
HETATM   17  C   UNL     1     -11.265  15.963  70.786  1.00  0.00    -0.398 A  
HETATM   18  C   UNL     1     -11.871  15.080  71.697  1.00  0.00    -0.378 A  
HETATM   19  C   UNL     1     -11.856  14.565  68.893  1.00  0.00    -0.359 A  
HETATM   20  C   UNL     1     -12.527  13.951  71.203  1.00  0.00    -0.372 A  
HETATM   21  C   UNL     1     -12.514  13.713  69.815  1.00  0.00    -0.193 A  
BRANCH  18  22
HETATM   22  O   UNL     1     -11.829  15.331  73.047  1.00  0.00    -0.421 OA 
HETATM   23  C   UNL     1     -12.924  16.086  73.573  1.00  0.00    -0.586 C  
ENDBRANCH  18  22
BRANCH  20  24
HETATM   24  O   UNL     1     -13.169  12.942  71.867  1.00  0.00    -0.437 OA 
HETATM   25  C   UNL     1     -13.009  11.582  71.507  1.00  0.00    -0.380 C  
ENDBRANCH  20  24
ENDBRANCH  11  12
ENDBRANCH   7  11
ENDBRANCH   2   3
TORSDOF 6
ENDMDL
MODEL       39
REMARK 921   NORMALIZED FREE ENERGY PREDICTED BY IDOCK:   -5.76 KCAL/MOL
REMARK 922        TOTAL FREE ENERGY PREDICTED BY IDOCK:   -8.59 KCAL/MOL
REMARK 923 INTER-LIGAND FREE ENERGY PREDICTED BY IDOCK:   -7.70 KCAL/MOL
REMARK 924 INTRA-LIGAND FREE ENERGY PREDICTED BY IDOCK:   -0.89 KCAL/MOL
REMARK 927      BINDING AFFINITY PREDICTED BY RF-SCORE:    0.00 PKD
ROOT
HETATM    1  C   UNL     1     -12.812  10.017  72.073  1.00  0.00    -0.389 C  
HETATM    2  O   UNL     1     -13.001  11.399  71.777  1.00  0.00    -0.459 OA 
ENDROOT
BRANCH   2   3
HETATM    3  C   UNL     1     -12.371  11.862  70.649  1.00  0.00    -0.313 A  
HETATM    4  C   UNL     1     -12.129  13.245  70.576  1.00  0.00    -0.314 A  
HETATM    5  C   UNL     1     -12.045  11.052  69.559  1.00  0.00    -0.400 A  
HETATM    6  C   UNL     1     -11.545  13.779  69.419  1.00  0.00    -0.365 A  
HETATM    7  C   UNL     1     -11.278  12.973  68.297  1.00  0.00    -0.309 A  
HETATM    8  C   UNL     1     -11.505  11.597  68.394  1.00  0.00    -0.360 A  
BRANCH   4   9
HETATM    9  O   UNL     1     -12.505  13.990  71.668  1.00  0.00    -0.331 OA 
HETATM   10  C   UNL     1     -13.238  15.187  71.419  1.00  0.00    -0.449 C  
ENDBRANCH   4   9
BRANCH   7  11
HETATM   11  C   UNL     1     -10.752  13.557  67.005  1.00  0.00    -0.278 C  
BRANCH  11  12
HETATM   12  C   UNL     1      -9.302  13.996  67.069  1.00  0.00    -0.250 A  
HETATM   13  N   UNL     1      -8.442  13.031  67.504  1.00  0.00    -0.178 NA 
HETATM   14  C   UNL     1      -7.161  13.380  67.712  1.00  0.00    -0.156 A  
HETATM   15  C   UNL     1      -6.676  14.653  67.499  1.00  0.00    -0.148 A  
HETATM   16  C   UNL     1      -7.557  15.645  67.057  1.00  0.00    -0.245 A  
HETATM   17  C   UNL     1      -7.102  16.959  66.872  1.00  0.00    -0.251 A  
HETATM   18  C   UNL     1      -7.963  18.007  66.503  1.00  0.00    -0.263 A  
HETATM   19  C   UNL     1      -8.905  15.336  66.822  1.00  0.00    -0.302 A  
HETATM   20  C   UNL     1      -9.302  17.715  66.236  1.00  0.00    -0.197 A  
HETATM   21  C   UNL     1      -9.750  16.389  66.395  1.00  0.00    -0.308 A  
BRANCH  18  22
HETATM   22  O   UNL     1      -7.492  19.294  66.394  1.00  0.00    -0.235 OA 
HETATM   23  C   UNL     1      -7.109  19.920  67.621  1.00  0.00    -0.262 C  
ENDBRANCH  18  22
BRANCH  20  24
HETATM   24  O   UNL     1     -10.333  18.541  65.883  1.00  0.00    -0.543 OA 
HETATM   25  C   UNL     1     -10.895  19.473  66.789  1.00  0.00    -0.390 C  
ENDBRANCH  20  24
ENDBRANCH  11  12
ENDBRANCH   7  11
ENDBRANCH   2   3
TORSDOF 6
ENDMDL
MODEL       40
REMARK 921   NORMALIZED FREE ENERGY PREDICTED BY IDOCK:   -5.75 KCAL/MOL
REMARK 922        TOTAL FREE ENERGY PREDICTED BY IDOCK:   -8.57 KCAL/MOL
REMARK 923 INTER-LIGAND FREE ENERGY PREDICTED BY IDOCK:   -7.77 KCAL/MOL
REMARK 924 INTRA-LIGAND FREE ENERGY PREDICTED BY IDOCK:   -0.80 KCAL/MOL
REMARK 927      BINDING AFFINITY PREDICTED BY RF-SCORE:    0.00 PKD
ROOT
HETATM    1  C   UNL     1     -12.087  13.522  65.615  1.00  0.00    -0.430 C  
HETATM    2  O   UNL     1     -11.320  13.794  66.787  1.00  0.00    -0.311 OA 
ENDROOT
BRANCH   2   3
HETATM    3  C   UNL     1     -11.704  13.126  67.923  1.00  0.00    -0.357 A  
HETATM    4  C   UNL     1     -12.019  13.909  69.047  1.00  0.00    -0.364 A  
HETATM    5  C   UNL     1     -11.711  11.734  68.035  1.00  0.00    -0.363 A  
HETATM    6  C   UNL     1     -12.356  13.275  70.251  1.00  0.00    -0.334 A  
HETATM    7  C   UNL     1     -12.299  11.875  70.381  1.00  0.00    -0.334 A  
HETATM    8  C   UNL     1     -12.004  11.111  69.248  1.00  0.00    -0.421 A  
BRANCH   4   9
HETATM    9  O   UNL     1     -11.959  15.272  68.880  1.00  0.00    -0.322 OA 
HETATM   10  C   UNL     1     -11.007  15.984  69.667  1.00  0.00    -0.326 C  
ENDBRANCH   4   9
BRANCH   7  11
HETATM   11  C   UNL     1     -12.552  11.188  71.704  1.00  0.00    -0.386 C  
BRANCH  11  12
HETATM   12  C   UNL     1     -12.719   9.684  71.598  1.00  0.00    -0.407 A  
HETATM   13  N   UNL     1     -14.016   9.267  71.530  1.00  0.00    -0.273 NA 
HETATM   14  C   UNL     1     -14.251   7.944  71.566  1.00  0.00    -0.420 A  
HETATM   15  C   UNL     1     -13.254   6.996  71.657  1.00  0.00    -0.368 A  
HETATM   16  C   UNL     1     -11.924   7.422  71.731  1.00  0.00    -0.338 A  
HETATM   17  C   UNL     1     -10.891   6.483  71.867  1.00  0.00    -0.273 A  
HETATM   18  C   UNL     1      -9.547   6.863  72.022  1.00  0.00    -0.142 A  
HETATM   19  C   UNL     1     -11.621   8.791  71.697  1.00  0.00    -0.390 A  
HETATM   20  C   UNL     1      -9.220   8.219  71.961  1.00  0.00    -0.204 A  
HETATM   21  C   UNL     1     -10.256   9.158  71.796  1.00  0.00    -0.305 A  
BRANCH  18  22
HETATM   22  O   UNL     1      -8.570   5.916  72.217  1.00  0.00    -0.124 OA 
HETATM   23  C   UNL     1      -8.944   4.794  73.021  1.00  0.00    -0.115 C  
ENDBRANCH  18  22
BRANCH  20  24
HETATM   24  O   UNL     1      -8.010   8.843  72.099  1.00  0.00    -0.364 OA 
HETATM   25  C   UNL     1      -7.110   8.988  71.015  1.00  0.00    -0.100 C  
ENDBRANCH  20  24
ENDBRANCH  11  12
ENDBRANCH   7  11
ENDBRANCH   2   3
TORSDOF 6
ENDMDL
MODEL       41
REMARK 921   NORMALIZED FREE ENERGY PREDICTED BY IDOCK:   -5.73 KCAL/MOL
REMARK 922        TOTAL FREE ENERGY PREDICTED BY IDOCK:   -8.55 KCAL/MOL
REMARK 923 INTER-LIGAND FREE ENERGY PREDICTED BY IDOCK:   -7.58 KCAL/MOL
REMARK 924 INTRA-LIGAND FREE ENERGY PREDICTED BY IDOCK:   -0.97 KCAL/MOL
REMARK 927      BINDING AFFINITY PREDICTED BY RF-SCORE:    0.00 PKD
ROOT
HETATM    1  C   UNL     1      -6.048  17.415  67.289  1.00  0.00    -0.139 C  
HETATM    2  O   UNL     1      -7.322  17.897  67.713  1.00  0.00    -0.202 OA 
ENDROOT
BRANCH   2   3
HETATM    3  C   UNL     1      -8.398  17.107  67.396  1.00  0.00    -0.190 A  
HETATM    4  C   UNL     1      -9.638  17.468  67.951  1.00  0.00    -0.277 A  
HETATM    5  C   UNL     1      -8.301  15.940  66.635  1.00  0.00    -0.328 A  
HETATM    6  C   UNL     1     -10.758  16.659  67.711  1.00  0.00    -0.327 A  
HETATM    7  C   UNL     1     -10.646  15.449  67.000  1.00  0.00    -0.309 A  
HETATM    8  C   UNL     1      -9.410  15.116  66.438  1.00  0.00    -0.332 A  
BRANCH   4   9
HETATM    9  O   UNL     1      -9.658  18.608  68.718  1.00  0.00    -0.349 OA 
HETATM   10  C   UNL     1     -10.377  19.727  68.205  1.00  0.00    -0.431 C  
ENDBRANCH   4   9
BRANCH   7  11
HETATM   11  C   UNL     1     -11.823  14.515  66.831  1.00  0.00    -0.399 C  
BRANCH  11  12
HETATM   12  C   UNL     1     -11.785  13.301  67.740  1.00  0.00    -0.358 A  
HETATM   13  N   UNL     1     -12.127  13.559  69.035  1.00  0.00    -0.330 NA 
HETATM   14  C   UNL     1     -11.993  12.564  69.929  1.00  0.00    -0.301 A  
HETATM   15  C   UNL     1     -11.539  11.304  69.602  1.00  0.00    -0.401 A  
HETATM   16  C   UNL     1     -11.184  11.039  68.275  1.00  0.00    -0.340 A  
HETATM   17  C   UNL     1     -10.680   9.779  67.920  1.00  0.00    -0.312 A  
HETATM   18  C   UNL     1     -10.238   9.487  66.619  1.00  0.00    -0.240 A  
HETATM   19  C   UNL     1     -11.306  12.040  67.300  1.00  0.00    -0.394 A  
HETATM   20  C   UNL     1     -10.378  10.459  65.627  1.00  0.00    -0.190 A  
HETATM   21  C   UNL     1     -10.911  11.714  65.980  1.00  0.00    -0.339 A  
BRANCH  18  22
HETATM   22  O   UNL     1      -9.689   8.261  66.324  1.00  0.00    -0.230 OA 
HETATM   23  C   UNL     1      -8.312   8.097  66.672  1.00  0.00    -0.111 C  
ENDBRANCH  18  22
BRANCH  20  24
HETATM   24  O   UNL     1     -10.016  10.434  64.308  1.00  0.00    -0.335 OA 
HETATM   25  C   UNL     1     -10.302  11.507  63.428  1.00  0.00    -0.418 C  
ENDBRANCH  20  24
ENDBRANCH  11  12
ENDBRANCH   7  11
ENDBRANCH   2   3
TORSDOF 6
ENDMDL
MODEL       42
REMARK 921   NORMALIZED FREE ENERGY PREDICTED BY IDOCK:   -5.73 KCAL/MOL
REMARK 922        TOTAL FREE ENERGY PREDICTED BY IDOCK:   -8.54 KCAL/MOL
REMARK 923 INTER-LIGAND FREE ENERGY PREDICTED BY IDOCK:   -7.70 KCAL/MOL
REMARK 924 INTRA-LIGAND FREE ENERGY PREDICTED BY IDOCK:   -0.84 KCAL/MOL
REMARK 927      BINDING AFFINITY PREDICTED BY RF-SCORE:    0.00 PKD
ROOT
HETATM    1  C   UNL     1      -6.084  17.928  68.456  1.00  0.00    -0.186 C  
HETATM    2  O   UNL     1      -7.339  18.437  68.009  1.00  0.00    -0.236 OA 
ENDROOT
BRANCH   2   3
HETATM    3  C   UNL     1      -8.130  17.558  67.315  1.00  0.00    -0.203 A  
HETATM    4  C   UNL     1      -9.378  18.034  66.875  1.00  0.00    -0.276 A  
HETATM    5  C   UNL     1      -7.796  16.218  67.106  1.00  0.00    -0.225 A  
HETATM    6  C   UNL     1     -10.252  17.158  66.217  1.00  0.00    -0.340 A  
HETATM    7  C   UNL     1      -9.942  15.794  66.064  1.00  0.00    -0.358 A  
HETATM    8  C   UNL     1      -8.690  15.342  66.489  1.00  0.00    -0.314 A  
BRANCH   4   9
HETATM    9  O   UNL     1      -9.660  19.352  67.144  1.00  0.00    -0.309 OA 
HETATM   10  C   UNL     1     -10.619  19.997  66.309  1.00  0.00    -0.350 C  
ENDBRANCH   4   9
BRANCH   7  11
HETATM   11  C   UNL     1     -10.925  14.818  65.455  1.00  0.00    -0.350 C  
BRANCH  11  12
HETATM   12  C   UNL     1     -10.688  13.373  65.852  1.00  0.00    -0.279 A  
HETATM   13  N   UNL     1     -10.215  12.585  64.845  1.00  0.00    -0.290 NA 
HETATM   14  C   UNL     1     -10.104  11.266  65.081  1.00  0.00    -0.275 A  
HETATM   15  C   UNL     1     -10.432  10.678  66.284  1.00  0.00    -0.268 A  
HETATM   16  C   UNL     1     -10.922  11.485  67.316  1.00  0.00    -0.323 A  
HETATM   17  C   UNL     1     -11.303  10.909  68.538  1.00  0.00    -0.367 A  
HETATM   18  C   UNL     1     -11.871  11.664  69.578  1.00  0.00    -0.348 A  
HETATM   19  C   UNL     1     -11.057  12.868  67.126  1.00  0.00    -0.309 A  
HETATM   20  C   UNL     1     -11.988  13.047  69.420  1.00  0.00    -0.281 A  
HETATM   21  C   UNL     1     -11.577  13.626  68.204  1.00  0.00    -0.367 A  
BRANCH  18  22
HETATM   22  O   UNL     1     -12.293  11.055  70.735  1.00  0.00    -0.337 OA 
HETATM   23  C   UNL     1     -11.583   9.871  71.109  1.00  0.00    -0.389 C  
ENDBRANCH  18  22
BRANCH  20  24
HETATM   24  O   UNL     1     -12.513  13.991  70.259  1.00  0.00    -0.342 OA 
HETATM   25  C   UNL     1     -12.216  15.368  70.122  1.00  0.00    -0.375 C  
ENDBRANCH  20  24
ENDBRANCH  11  12
ENDBRANCH   7  11
ENDBRANCH   2   3
TORSDOF 6
ENDMDL
MODEL       43
REMARK 921   NORMALIZED FREE ENERGY PREDICTED BY IDOCK:   -5.72 KCAL/MOL
REMARK 922        TOTAL FREE ENERGY PREDICTED BY IDOCK:   -8.53 KCAL/MOL
REMARK 923 INTER-LIGAND FREE ENERGY PREDICTED BY IDOCK:   -7.59 KCAL/MOL
REMARK 924 INTRA-LIGAND FREE ENERGY PREDICTED BY IDOCK:   -0.94 KCAL/MOL
REMARK 927      BINDING AFFINITY PREDICTED BY RF-SCORE:    0.00 PKD
ROOT
HETATM    1  C   UNL     1     -12.710  16.318  73.859  1.00  0.00    -0.474 C  
HETATM    2  O   UNL     1     -12.727  16.140  72.444  1.00  0.00    -0.442 OA 
ENDROOT
BRANCH   2   3
HETATM    3  C   UNL     1     -12.704  14.842  72.002  1.00  0.00    -0.329 A  
HETATM    4  C   UNL     1     -12.037  14.593  70.789  1.00  0.00    -0.320 A  
HETATM    5  C   UNL     1     -13.369  13.795  72.644  1.00  0.00    -0.618 A  
HETATM    6  C   UNL     1     -12.037  13.295  70.261  1.00  0.00    -0.405 A  
HETATM    7  C   UNL     1     -12.762  12.256  70.874  1.00  0.00    -0.277 A  
HETATM    8  C   UNL     1     -13.402  12.516  72.089  1.00  0.00    -0.540 A  
BRANCH   4   9
HETATM    9  O   UNL     1     -11.432  15.672  70.191  1.00  0.00    -0.289 OA 
HETATM   10  C   UNL     1     -11.509  15.758  68.770  1.00  0.00    -0.388 C  
ENDBRANCH   4   9
BRANCH   7  11
HETATM   11  C   UNL     1     -12.861  10.880  70.253  1.00  0.00    -0.209 C  
BRANCH  11  12
HETATM   12  C   UNL     1     -11.919   9.859  70.862  1.00  0.00    -0.345 A  
HETATM   13  N   UNL     1     -12.450   9.157  71.903  1.00  0.00    -0.362 NA 
HETATM   14  C   UNL     1     -11.636   8.326  72.578  1.00  0.00    -0.385 A  
HETATM   15  C   UNL     1     -10.306   8.143  72.265  1.00  0.00    -0.361 A  
HETATM   16  C   UNL     1      -9.759   8.865  71.199  1.00  0.00    -0.344 A  
HETATM   17  C   UNL     1      -8.399   8.731  70.883  1.00  0.00    -0.196 A  
HETATM   18  C   UNL     1      -7.785   9.491  69.872  1.00  0.00    -0.129 A  
HETATM   19  C   UNL     1     -10.563   9.745  70.460  1.00  0.00    -0.376 A  
HETATM   20  C   UNL     1      -8.573  10.351  69.105  1.00  0.00    -0.164 A  
HETATM   21  C   UNL     1      -9.944  10.462  69.406  1.00  0.00    -0.240 A  
BRANCH  18  22
HETATM   22  O   UNL     1      -6.436   9.379  69.635  1.00  0.00    -0.038 OA 
HETATM   23  C   UNL     1      -5.599  10.265  70.383  1.00  0.00    -0.068 C  
ENDBRANCH  18  22
BRANCH  20  24
HETATM   24  O   UNL     1      -8.224  11.200  68.091  1.00  0.00    -0.119 OA 
HETATM   25  C   UNL     1      -9.042  11.388  66.951  1.00  0.00    -0.175 C  
ENDBRANCH  20  24
ENDBRANCH  11  12
ENDBRANCH   7  11
ENDBRANCH   2   3
TORSDOF 6
ENDMDL
MODEL       44
REMARK 921   NORMALIZED FREE ENERGY PREDICTED BY IDOCK:   -5.72 KCAL/MOL
REMARK 922        TOTAL FREE ENERGY PREDICTED BY IDOCK:   -8.53 KCAL/MOL
REMARK 923 INTER-LIGAND FREE ENERGY PREDICTED BY IDOCK:   -7.81 KCAL/MOL
REMARK 924 INTRA-LIGAND FREE ENERGY PREDICTED BY IDOCK:   -0.72 KCAL/MOL
REMARK 927      BINDING AFFINITY PREDICTED BY RF-SCORE:    0.00 PKD
ROOT
HETATM    1  C   UNL     1      -8.886   9.340  62.365  1.00  0.00    -0.233 C  
HETATM    2  O   UNL     1      -8.623   9.789  63.694  1.00  0.00    -0.168 OA 
ENDROOT
BRANCH   2   3
HETATM    3  C   UNL     1      -9.437  10.790  64.160  1.00  0.00    -0.268 A  
HETATM    4  C   UNL     1      -9.232  11.212  65.485  1.00  0.00    -0.216 A  
HETATM    5  C   UNL     1     -10.492  11.334  63.424  1.00  0.00    -0.424 A  
HETATM    6  C   UNL     1     -10.077  12.188  66.032  1.00  0.00    -0.259 A  
HETATM    7  C   UNL     1     -11.178  12.687  65.313  1.00  0.00    -0.335 A  
HETATM    8  C   UNL     1     -11.356  12.271  63.990  1.00  0.00    -0.469 A  
BRANCH   4   9
HETATM    9  O   UNL     1      -8.200  10.613  66.166  1.00  0.00    -0.145 OA 
HETATM   10  C   UNL     1      -8.511   9.998  67.414  1.00  0.00    -0.121 C  
ENDBRANCH   4   9
BRANCH   7  11
HETATM   11  C   UNL     1     -12.161  13.656  65.933  1.00  0.00    -0.476 C  
BRANCH  11  12
HETATM   12  C   UNL     1     -11.792  14.098  67.337  1.00  0.00    -0.413 A  
HETATM   13  N   UNL     1     -12.196  13.242  68.319  1.00  0.00    -0.181 NA 
HETATM   14  C   UNL     1     -12.023  13.626  69.595  1.00  0.00    -0.343 A  
HETATM   15  C   UNL     1     -11.451  14.828  69.957  1.00  0.00    -0.321 A  
HETATM   16  C   UNL     1     -11.040  15.708  68.951  1.00  0.00    -0.290 A  
HETATM   17  C   UNL     1     -10.494  16.955  69.288  1.00  0.00    -0.319 A  
HETATM   18  C   UNL     1     -10.136  17.906  68.316  1.00  0.00    -0.375 A  
HETATM   19  C   UNL     1     -11.196  15.358  67.602  1.00  0.00    -0.311 A  
HETATM   20  C   UNL     1     -10.256  17.566  66.967  1.00  0.00    -0.327 A  
HETATM   21  C   UNL     1     -10.778  16.302  66.631  1.00  0.00    -0.197 A  
BRANCH  18  22
HETATM   22  O   UNL     1      -9.665  19.142  68.686  1.00  0.00    -0.369 OA 
HETATM   23  C   UNL     1      -8.242  19.288  68.695  1.00  0.00    -0.373 C  
ENDBRANCH  18  22
BRANCH  20  24
HETATM   24  O   UNL     1      -9.998  18.303  65.844  1.00  0.00    -0.538 OA 
HETATM   25  C   UNL     1     -10.647  19.534  65.586  1.00  0.00    -0.341 C  
ENDBRANCH  20  24
ENDBRANCH  11  12
ENDBRANCH   7  11
ENDBRANCH   2   3
TORSDOF 6
ENDMDL
MODEL       45
REMARK 921   NORMALIZED FREE ENERGY PREDICTED BY IDOCK:   -5.71 KCAL/MOL
REMARK 922        TOTAL FREE ENERGY PREDICTED BY IDOCK:   -8.51 KCAL/MOL
REMARK 923 INTER-LIGAND FREE ENERGY PREDICTED BY IDOCK:   -8.55 KCAL/MOL
REMARK 924 INTRA-LIGAND FREE ENERGY PREDICTED BY IDOCK:    0.04 KCAL/MOL
REMARK 927      BINDING AFFINITY PREDICTED BY RF-SCORE:    0.00 PKD
ROOT
HETATM    1  C   UNL     1     -14.009  14.913  72.904  1.00  0.00    -0.055 C  
HETATM    2  O   UNL     1     -13.691  13.545  72.658  1.00  0.00    -0.681 OA 
ENDROOT
BRANCH   2   3
HETATM    3  C   UNL     1     -13.089  13.276  71.455  1.00  0.00    -0.277 A  
HETATM    4  C   UNL     1     -12.874  11.923  71.138  1.00  0.00    -0.249 A  
HETATM    5  C   UNL     1     -12.614  14.265  70.591  1.00  0.00    -0.424 A  
HETATM    6  C   UNL     1     -12.206  11.596  69.949  1.00  0.00    -0.310 A  
HETATM    7  C   UNL     1     -11.671  12.593  69.113  1.00  0.00    -0.375 A  
HETATM    8  C   UNL     1     -11.911  13.932  69.433  1.00  0.00    -0.402 A  
BRANCH   4   9
HETATM    9  O   UNL     1     -13.335  11.001  72.046  1.00  0.00    -0.455 OA 
HETATM   10  C   UNL     1     -13.035   9.630  71.793  1.00  0.00    -0.420 C  
ENDBRANCH   4   9
BRANCH   7  11
HETATM   11  C   UNL     1     -10.853  12.249  67.888  1.00  0.00    -0.252 C  
BRANCH  11  12
HETATM   12  C   UNL     1     -11.259  13.009  66.640  1.00  0.00    -0.307 A  
HETATM   13  N   UNL     1     -11.866  12.243  65.689  1.00  0.00    -0.478 NA 
HETATM   14  C   UNL     1     -12.138  12.814  64.503  1.00  0.00    -0.414 A  
HETATM   15  C   UNL     1     -11.844  14.128  64.207  1.00  0.00    -0.420 A  
HETATM   16  C   UNL     1     -11.217  14.914  65.180  1.00  0.00    -0.389 A  
HETATM   17  C   UNL     1     -10.868  16.242  64.893  1.00  0.00    -0.315 A  
HETATM   18  C   UNL     1     -10.169  17.049  65.807  1.00  0.00    -0.245 A  
HETATM   19  C   UNL     1     -10.912  14.369  66.435  1.00  0.00    -0.319 A  
HETATM   20  C   UNL     1      -9.881  16.536  67.074  1.00  0.00    -0.257 A  
HETATM   21  C   UNL     1     -10.259  15.212  67.369  1.00  0.00    -0.235 A  
BRANCH  18  22
HETATM   22  O   UNL     1      -9.787  18.324  65.466  1.00  0.00    -0.334 OA 
HETATM   23  C   UNL     1     -10.642  19.373  65.928  1.00  0.00    -0.459 C  
ENDBRANCH  18  22
BRANCH  20  24
HETATM   24  O   UNL     1      -9.208  17.099  68.123  1.00  0.00    -0.246 OA 
HETATM   25  C   UNL     1      -8.230  16.387  68.859  1.00  0.00    -0.235 C  
ENDBRANCH  20  24
ENDBRANCH  11  12
ENDBRANCH   7  11
ENDBRANCH   2   3
TORSDOF 6
ENDMDL
MODEL       46
REMARK 921   NORMALIZED FREE ENERGY PREDICTED BY IDOCK:   -5.69 KCAL/MOL
REMARK 922        TOTAL FREE ENERGY PREDICTED BY IDOCK:   -8.50 KCAL/MOL
REMARK 923 INTER-LIGAND FREE ENERGY PREDICTED BY IDOCK:   -7.55 KCAL/MOL
REMARK 924 INTRA-LIGAND FREE ENERGY PREDICTED BY IDOCK:   -0.94 KCAL/MOL
REMARK 927      BINDING AFFINITY PREDICTED BY RF-SCORE:    0.00 PKD
ROOT
HETATM    1  C   UNL     1     -12.225  14.550  64.340  1.00  0.00    -0.458 C  
HETATM    2  O   UNL     1     -12.793  13.487  65.103  1.00  0.00    -0.681 OA 
ENDROOT
BRANCH   2   3
HETATM    3  C   UNL     1     -11.912  12.539  65.560  1.00  0.00    -0.442 A  
HETATM    4  C   UNL     1     -11.583  12.581  66.926  1.00  0.00    -0.370 A  
HETATM    5  C   UNL     1     -11.277  11.612  64.731  1.00  0.00    -0.300 A  
HETATM    6  C   UNL     1     -10.640  11.676  67.432  1.00  0.00    -0.257 A  
HETATM    7  C   UNL     1      -9.953  10.787  66.585  1.00  0.00    -0.251 A  
HETATM    8  C   UNL     1     -10.307  10.744  65.233  1.00  0.00    -0.327 A  
BRANCH   4   9
HETATM    9  O   UNL     1     -12.218  13.540  67.679  1.00  0.00    -0.312 OA 
HETATM   10  C   UNL     1     -11.932  13.567  69.075  1.00  0.00    -0.335 C  
ENDBRANCH   4   9
BRANCH   7  11
HETATM   11  C   UNL     1      -8.855   9.884  67.102  1.00  0.00    -0.146 C  
BRANCH  11  12
HETATM   12  C   UNL     1      -9.277   8.439  67.287  1.00  0.00    -0.138 A  
HETATM   13  N   UNL     1      -9.066   7.649  66.195  1.00  0.00    -0.168 NA 
HETATM   14  C   UNL     1      -9.533   6.389  66.235  1.00  0.00    -0.095 A  
HETATM   15  C   UNL     1     -10.199   5.858  67.319  1.00  0.00    -0.242 A  
HETATM   16  C   UNL     1     -10.420   6.669  68.437  1.00  0.00    -0.248 A  
HETATM   17  C   UNL     1     -11.132   6.169  69.538  1.00  0.00    -0.490 A  
HETATM   18  C   UNL     1     -11.446   6.966  70.652  1.00  0.00    -0.336 A  
HETATM   19  C   UNL     1      -9.954   7.991  68.451  1.00  0.00    -0.204 A  
HETATM   20  C   UNL     1     -10.966   8.276  70.699  1.00  0.00    -0.240 A  
HETATM   21  C   UNL     1     -10.227   8.766  69.605  1.00  0.00    -0.210 A  
BRANCH  18  22
HETATM   22  O   UNL     1     -12.201   6.461  71.683  1.00  0.00    -0.327 OA 
HETATM   23  C   UNL     1     -11.466   5.942  72.795  1.00  0.00    -0.230 C  
ENDBRANCH  18  22
BRANCH  20  24
HETATM   24  O   UNL     1     -11.142   9.248  71.645  1.00  0.00    -0.349 OA 
HETATM   25  C   UNL     1     -12.298  10.066  71.679  1.00  0.00    -0.394 C  
ENDBRANCH  20  24
ENDBRANCH  11  12
ENDBRANCH   7  11
ENDBRANCH   2   3
TORSDOF 6
ENDMDL
MODEL       47
REMARK 921   NORMALIZED FREE ENERGY PREDICTED BY IDOCK:   -5.67 KCAL/MOL
REMARK 922        TOTAL FREE ENERGY PREDICTED BY IDOCK:   -8.46 KCAL/MOL
REMARK 923 INTER-LIGAND FREE ENERGY PREDICTED BY IDOCK:   -7.87 KCAL/MOL
REMARK 924 INTRA-LIGAND FREE ENERGY PREDICTED BY IDOCK:   -0.59 KCAL/MOL
REMARK 927      BINDING AFFINITY PREDICTED BY RF-SCORE:    0.00 PKD
ROOT
HETATM    1  C   UNL     1      -9.820  20.018  67.916  1.00  0.00    -0.406 C  
HETATM    2  O   UNL     1      -9.051  18.819  67.973  1.00  0.00    -0.285 OA 
ENDROOT
BRANCH   2   3
HETATM    3  C   UNL     1      -9.750  17.649  67.816  1.00  0.00    -0.280 A  
HETATM    4  C   UNL     1      -9.543  16.938  66.622  1.00  0.00    -0.267 A  
HETATM    5  C   UNL     1     -10.702  17.189  68.730  1.00  0.00    -0.289 A  
HETATM    6  C   UNL     1     -10.279  15.769  66.382  1.00  0.00    -0.304 A  
HETATM    7  C   UNL     1     -11.283  15.343  67.272  1.00  0.00    -0.270 A  
HETATM    8  C   UNL     1     -11.462  16.050  68.465  1.00  0.00    -0.357 A  
BRANCH   4   9
HETATM    9  O   UNL     1      -8.619  17.462  65.750  1.00  0.00    -0.526 OA 
HETATM   10  C   UNL     1      -7.242  17.308  66.086  1.00  0.00    -0.269 C  
ENDBRANCH   4   9
BRANCH   7  11
HETATM   11  C   UNL     1     -12.159  14.148  66.970  1.00  0.00    -0.449 C  
BRANCH  11  12
HETATM   12  C   UNL     1     -11.759  13.388  65.719  1.00  0.00    -0.349 A  
HETATM   13  N   UNL     1     -12.309  13.871  64.569  1.00  0.00    -0.594 NA 
HETATM   14  C   UNL     1     -12.108  13.175  63.437  1.00  0.00    -0.486 A  
HETATM   15  C   UNL     1     -11.371  12.011  63.381  1.00  0.00    -0.484 A  
HETATM   16  C   UNL     1     -10.810  11.512  64.561  1.00  0.00    -0.390 A  
HETATM   17  C   UNL     1     -10.090  10.308  64.543  1.00  0.00    -0.286 A  
HETATM   18  C   UNL     1      -9.572   9.725  65.712  1.00  0.00    -0.254 A  
HETATM   19  C   UNL     1     -10.987  12.199  65.771  1.00  0.00    -0.338 A  
HETATM   20  C   UNL     1      -9.712  10.408  66.922  1.00  0.00    -0.181 A  
HETATM   21  C   UNL     1     -10.410  11.630  66.933  1.00  0.00    -0.253 A  
BRANCH  18  22
HETATM   22  O   UNL     1      -8.928   8.512  65.664  1.00  0.00    -0.187 OA 
HETATM   23  C   UNL     1      -7.527   8.563  65.385  1.00  0.00    -0.086 C  
ENDBRANCH  18  22
BRANCH  20  24
HETATM   24  O   UNL     1      -9.321  10.056  68.185  1.00  0.00    -0.131 OA 
HETATM   25  C   UNL     1      -8.285  10.737  68.870  1.00  0.00    -0.149 C  
ENDBRANCH  20  24
ENDBRANCH  11  12
ENDBRANCH   7  11
ENDBRANCH   2   3
TORSDOF 6
ENDMDL
MODEL       48
REMARK 921   NORMALIZED FREE ENERGY PREDICTED BY IDOCK:   -5.66 KCAL/MOL
REMARK 922        TOTAL FREE ENERGY PREDICTED BY IDOCK:   -8.44 KCAL/MOL
REMARK 923 INTER-LIGAND FREE ENERGY PREDICTED BY IDOCK:   -7.53 KCAL/MOL
REMARK 924 INTRA-LIGAND FREE ENERGY PREDICTED BY IDOCK:   -0.91 KCAL/MOL
REMARK 927      BINDING AFFINITY PREDICTED BY RF-SCORE:    0.00 PKD
ROOT
HETATM    1  C   UNL     1     -10.578   8.444  71.982  1.00  0.00    -0.317 C  
HETATM    2  O   UNL     1     -11.156   9.654  71.496  1.00  0.00    -0.370 OA 
ENDROOT
BRANCH   2   3
HETATM    3  C   UNL     1     -10.682  10.101  70.288  1.00  0.00    -0.293 A  
HETATM    4  C   UNL     1     -11.470  11.044  69.605  1.00  0.00    -0.303 A  
HETATM    5  C   UNL     1      -9.524   9.609  69.682  1.00  0.00    -0.226 A  
HETATM    6  C   UNL     1     -11.065  11.486  68.337  1.00  0.00    -0.288 A  
HETATM    7  C   UNL     1      -9.934  10.942  67.701  1.00  0.00    -0.197 A  
HETATM    8  C   UNL     1      -9.151  10.021  68.403  1.00  0.00    -0.121 A  
BRANCH   4   9
HETATM    9  O   UNL     1     -12.615  11.461  70.240  1.00  0.00    -0.231 OA 
HETATM   10  C   UNL     1     -12.577  12.731  70.886  1.00  0.00    -0.255 C  
ENDBRANCH   4   9
BRANCH   7  11
HETATM   11  C   UNL     1      -9.551  11.330  66.290  1.00  0.00    -0.235 C  
BRANCH  11  12
HETATM   12  C   UNL     1     -10.480  12.348  65.655  1.00  0.00    -0.261 A  
HETATM   13  N   UNL     1     -11.420  11.809  64.827  1.00  0.00    -0.260 NA 
HETATM   14  C   UNL     1     -12.196  12.655  64.126  1.00  0.00    -0.450 A  
HETATM   15  C   UNL     1     -12.094  14.027  64.210  1.00  0.00    -0.476 A  
HETATM   16  C   UNL     1     -11.127  14.581  65.055  1.00  0.00    -0.393 A  
HETATM   17  C   UNL     1     -10.973  15.973  65.130  1.00  0.00    -0.360 A  
HETATM   18  C   UNL     1      -9.967  16.576  65.904  1.00  0.00    -0.317 A  
HETATM   19  C   UNL     1     -10.292  13.746  65.811  1.00  0.00    -0.315 A  
HETATM   20  C   UNL     1      -9.143  15.764  66.687  1.00  0.00    -0.268 A  
HETATM   21  C   UNL     1      -9.320  14.369  66.632  1.00  0.00    -0.297 A  
BRANCH  18  22
HETATM   22  O   UNL     1      -9.804  17.941  65.901  1.00  0.00    -0.529 OA 
HETATM   23  C   UNL     1     -10.509  18.652  66.922  1.00  0.00    -0.402 C  
ENDBRANCH  18  22
BRANCH  20  24
HETATM   24  O   UNL     1      -8.095  16.094  67.502  1.00  0.00    -0.136 OA 
HETATM   25  C   UNL     1      -8.262  16.311  68.891  1.00  0.00    -0.231 C  
ENDBRANCH  20  24
ENDBRANCH  11  12
ENDBRANCH   7  11
ENDBRANCH   2   3
TORSDOF 6
ENDMDL
MODEL       49
REMARK 921   NORMALIZED FREE ENERGY PREDICTED BY IDOCK:   -5.65 KCAL/MOL
REMARK 922        TOTAL FREE ENERGY PREDICTED BY IDOCK:   -8.43 KCAL/MOL
REMARK 923 INTER-LIGAND FREE ENERGY PREDICTED BY IDOCK:   -8.16 KCAL/MOL
REMARK 924 INTRA-LIGAND FREE ENERGY PREDICTED BY IDOCK:   -0.27 KCAL/MOL
REMARK 927      BINDING AFFINITY PREDICTED BY RF-SCORE:    0.00 PKD
ROOT
HETATM    1  C   UNL     1      -9.007  10.754  62.437  1.00  0.00    -0.306 C  
HETATM    2  O   UNL     1     -10.142  11.516  62.842  1.00  0.00    -0.306 OA 
ENDROOT
BRANCH   2   3
HETATM    3  C   UNL     1     -10.501  11.402  64.161  1.00  0.00    -0.363 A  
HETATM    4  C   UNL     1     -11.234  12.466  64.716  1.00  0.00    -0.310 A  
HETATM    5  C   UNL     1     -10.106  10.342  64.980  1.00  0.00    -0.379 A  
HETATM    6  C   UNL     1     -11.573  12.429  66.076  1.00  0.00    -0.455 A  
HETATM    7  C   UNL     1     -11.119  11.394  66.914  1.00  0.00    -0.356 A  
HETATM    8  C   UNL     1     -10.409  10.335  66.342  1.00  0.00    -0.262 A  
BRANCH   4   9
HETATM    9  O   UNL     1     -11.561  13.494  63.865  1.00  0.00    -0.376 OA 
HETATM   10  C   UNL     1     -12.227  14.621  64.429  1.00  0.00    -0.452 C  
ENDBRANCH   4   9
BRANCH   7  11
HETATM   11  C   UNL     1     -11.383  11.402  68.403  1.00  0.00    -0.346 C  
BRANCH  11  12
HETATM   12  C   UNL     1     -10.290  10.752  69.230  1.00  0.00    -0.205 A  
HETATM   13  N   UNL     1      -9.029  10.960  68.755  1.00  0.00    -0.168 NA 
HETATM   14  C   UNL     1      -8.018  10.309  69.356  1.00  0.00    -0.159 A  
HETATM   15  C   UNL     1      -8.191   9.457  70.426  1.00  0.00    -0.214 A  
HETATM   16  C   UNL     1      -9.485   9.239  70.911  1.00  0.00    -0.330 A  
HETATM   17  C   UNL     1      -9.697   8.346  71.971  1.00  0.00    -0.353 A  
HETATM   18  C   UNL     1     -10.983   8.034  72.445  1.00  0.00    -0.338 A  
HETATM   19  C   UNL     1     -10.577   9.893  70.322  1.00  0.00    -0.359 A  
HETATM   20  C   UNL     1     -12.081   8.696  71.892  1.00  0.00    -0.356 A  
HETATM   21  C   UNL     1     -11.863   9.614  70.847  1.00  0.00    -0.403 A  
BRANCH  18  22
HETATM   22  O   UNL     1     -11.156   7.104  73.442  1.00  0.00    -0.289 OA 
HETATM   23  C   UNL     1     -11.006   5.738  73.050  1.00  0.00    -0.278 C  
ENDBRANCH  18  22
BRANCH  20  24
HETATM   24  O   UNL     1     -13.417   8.565  72.158  1.00  0.00    -0.351 OA 
HETATM   25  C   UNL     1     -14.205   7.546  71.569  1.00  0.00    -0.445 C  
ENDBRANCH  20  24
ENDBRANCH  11  12
ENDBRANCH   7  11
ENDBRANCH   2   3
TORSDOF 6
ENDMDL
MODEL       50
REMARK 921   NORMALIZED FREE ENERGY PREDICTED BY IDOCK:   -5.64 KCAL/MOL
REMARK 922        TOTAL FREE ENERGY PREDICTED BY IDOCK:   -8.42 KCAL/MOL
REMARK 923 INTER-LIGAND FREE ENERGY PREDICTED BY IDOCK:   -7.79 KCAL/MOL
REMARK 924 INTRA-LIGAND FREE ENERGY PREDICTED BY IDOCK:   -0.63 KCAL/MOL
REMARK 927      BINDING AFFINITY PREDICTED BY RF-SCORE:    0.00 PKD
ROOT
HETATM    1  C   UNL     1      -7.577   8.083  68.463  1.00  0.00    -0.104 C  
HETATM    2  O   UNL     1      -8.594   8.297  69.440  1.00  0.00    -0.131 OA 
ENDROOT
BRANCH   2   3
HETATM    3  C   UNL     1      -9.315   9.457  69.310  1.00  0.00    -0.167 A  
HETATM    4  C   UNL     1     -10.571   9.500  69.941  1.00  0.00    -0.241 A  
HETATM    5  C   UNL     1      -8.905  10.539  68.527  1.00  0.00    -0.144 A  
HETATM    6  C   UNL     1     -11.376  10.638  69.787  1.00  0.00    -0.371 A  
HETATM    7  C   UNL     1     -10.991  11.698  68.946  1.00  0.00    -0.282 A  
HETATM    8  C   UNL     1      -9.730  11.648  68.343  1.00  0.00    -0.199 A  
BRANCH   4   9
HETATM    9  O   UNL     1     -10.930   8.391  70.667  1.00  0.00    -0.235 OA 
HETATM   10  C   UNL     1     -11.325   8.597  72.021  1.00  0.00    -0.362 C  
ENDBRANCH   4   9
BRANCH   7  11
HETATM   11  C   UNL     1     -11.900  12.878  68.686  1.00  0.00    -0.347 C  
BRANCH  11  12
HETATM   12  C   UNL     1     -11.878  13.372  67.251  1.00  0.00    -0.376 A  
HETATM   13  N   UNL     1     -12.207  12.425  66.327  1.00  0.00    -0.583 NA 
HETATM   14  C   UNL     1     -12.084  12.748  65.028  1.00  0.00    -0.441 A  
HETATM   15  C   UNL     1     -11.655  13.982  64.589  1.00  0.00    -0.400 A  
HETATM   16  C   UNL     1     -11.313  14.953  65.536  1.00  0.00    -0.339 A  
HETATM   17  C   UNL     1     -10.834  16.204  65.119  1.00  0.00    -0.376 A  
HETATM   18  C   UNL     1     -10.406  17.185  66.030  1.00  0.00    -0.309 A  
HETATM   19  C   UNL     1     -11.424  14.670  66.905  1.00  0.00    -0.372 A  
HETATM   20  C   UNL     1     -10.535  16.935  67.397  1.00  0.00    -0.310 A  
HETATM   21  C   UNL     1     -11.043  15.689  67.813  1.00  0.00    -0.311 A  
BRANCH  18  22
HETATM   22  O   UNL     1      -9.881  18.374  65.583  1.00  0.00    -0.440 OA 
HETATM   23  C   UNL     1     -10.765  19.498  65.624  1.00  0.00    -0.325 C  
ENDBRANCH  18  22
BRANCH  20  24
HETATM   24  O   UNL     1     -10.182  17.703  68.473  1.00  0.00    -0.345 OA 
HETATM   25  C   UNL     1      -8.873  18.218  68.634  1.00  0.00    -0.275 C  
ENDBRANCH  20  24
ENDBRANCH  11  12
ENDBRANCH   7  11
ENDBRANCH   2   3
TORSDOF 6
ENDMDL
MODEL       51
REMARK 921   NORMALIZED FREE ENERGY PREDICTED BY IDOCK:   -5.56 KCAL/MOL
REMARK 922        TOTAL FREE ENERGY PREDICTED BY IDOCK:   -8.32 KCAL/MOL
REMARK 923 INTER-LIGAND FREE ENERGY PREDICTED BY IDOCK:   -7.40 KCAL/MOL
REMARK 924 INTRA-LIGAND FREE ENERGY PREDICTED BY IDOCK:   -0.92 KCAL/MOL
REMARK 927      BINDING AFFINITY PREDICTED BY RF-SCORE:    0.00 PKD
ROOT
HETATM    1  C   UNL     1      -6.823  18.108  68.838  1.00  0.00    -0.258 C  
HETATM    2  O   UNL     1      -7.240  18.285  67.486  1.00  0.00    -0.202 OA 
ENDROOT
BRANCH   2   3
HETATM    3  C   UNL     1      -8.085  17.325  66.988  1.00  0.00    -0.211 A  
HETATM    4  C   UNL     1      -9.339  17.759  66.524  1.00  0.00    -0.279 A  
HETATM    5  C   UNL     1      -7.795  15.959  67.002  1.00  0.00    -0.267 A  
HETATM    6  C   UNL     1     -10.265  16.812  66.064  1.00  0.00    -0.361 A  
HETATM    7  C   UNL     1      -9.997  15.433  66.140  1.00  0.00    -0.330 A  
HETATM    8  C   UNL     1      -8.738  15.019  66.584  1.00  0.00    -0.289 A  
BRANCH   4   9
HETATM    9  O   UNL     1      -9.574  19.112  66.570  1.00  0.00    -0.325 OA 
HETATM   10  C   UNL     1     -10.821  19.539  67.112  1.00  0.00    -0.437 C  
ENDBRANCH   4   9
BRANCH   7  11
HETATM   11  C   UNL     1     -11.031  14.399  65.751  1.00  0.00    -0.314 C  
BRANCH  11  12
HETATM   12  C   UNL     1     -11.345  13.396  66.844  1.00  0.00    -0.323 A  
HETATM   13  N   UNL     1     -11.880  13.944  67.972  1.00  0.00    -0.360 NA 
HETATM   14  C   UNL     1     -12.064  13.140  69.033  1.00  0.00    -0.198 A  
HETATM   15  C   UNL     1     -11.751  11.797  69.033  1.00  0.00    -0.390 A  
HETATM   16  C   UNL     1     -11.199  11.234  67.878  1.00  0.00    -0.353 A  
HETATM   17  C   UNL     1     -10.832   9.880  67.862  1.00  0.00    -0.312 A  
HETATM   18  C   UNL     1     -10.204   9.286  66.754  1.00  0.00    -0.255 A  
HETATM   19  C   UNL     1     -10.986  12.027  66.741  1.00  0.00    -0.329 A  
HETATM   20  C   UNL     1     -10.010  10.050  65.602  1.00  0.00    -0.285 A  
HETATM   21  C   UNL     1     -10.405  11.401  65.611  1.00  0.00    -0.307 A  
BRANCH  18  22
HETATM   22  O   UNL     1      -9.800   7.973  66.799  1.00  0.00    -0.213 OA 
HETATM   23  C   UNL     1     -10.835   7.012  67.017  1.00  0.00    -0.343 C  
ENDBRANCH  18  22
BRANCH  20  24
HETATM   24  O   UNL     1      -9.417   9.721  64.414  1.00  0.00    -0.274 OA 
HETATM   25  C   UNL     1      -8.838  10.696  63.565  1.00  0.00    -0.184 C  
ENDBRANCH  20  24
ENDBRANCH  11  12
ENDBRANCH   7  11
ENDBRANCH   2   3
TORSDOF 6
ENDMDL
MODEL       52
REMARK 921   NORMALIZED FREE ENERGY PREDICTED BY IDOCK:   -5.55 KCAL/MOL
REMARK 922        TOTAL FREE ENERGY PREDICTED BY IDOCK:   -8.30 KCAL/MOL
REMARK 923 INTER-LIGAND FREE ENERGY PREDICTED BY IDOCK:   -7.96 KCAL/MOL
REMARK 924 INTRA-LIGAND FREE ENERGY PREDICTED BY IDOCK:   -0.34 KCAL/MOL
REMARK 927      BINDING AFFINITY PREDICTED BY RF-SCORE:    0.00 PKD
ROOT
HETATM    1  C   UNL     1     -10.277   7.457  68.695  1.00  0.00    -0.191 C  
HETATM    2  O   UNL     1     -10.107   7.927  70.031  1.00  0.00    -0.193 OA 
ENDROOT
BRANCH   2   3
HETATM    3  C   UNL     1     -10.835   9.039  70.372  1.00  0.00    -0.246 A  
HETATM    4  C   UNL     1     -11.707   8.918  71.469  1.00  0.00    -0.324 A  
HETATM    5  C   UNL     1     -10.813  10.231  69.643  1.00  0.00    -0.311 A  
HETATM    6  C   UNL     1     -12.520  10.005  71.821  1.00  0.00    -0.475 A  
HETATM    7  C   UNL     1     -12.544  11.180  71.047  1.00  0.00    -0.503 A  
HETATM    8  C   UNL     1     -11.657  11.291  69.973  1.00  0.00    -0.404 A  
BRANCH   4   9
HETATM    9  O   UNL     1     -11.706   7.709  72.121  1.00  0.00    -0.286 OA 
HETATM   10  C   UNL     1     -12.748   6.792  71.797  1.00  0.00    -0.296 C  
ENDBRANCH   4   9
BRANCH   7  11
HETATM   11  C   UNL     1     -13.498  12.314  71.353  1.00  0.00     0.178 C  
BRANCH  11  12
HETATM   12  C   UNL     1     -12.817  13.587  71.816  1.00  0.00    -0.306 A  
HETATM   13  N   UNL     1     -12.957  13.846  73.148  1.00  0.00    -0.388 NA 
HETATM   14  C   UNL     1     -12.494  15.020  73.610  1.00  0.00    -0.532 A  
HETATM   15  C   UNL     1     -11.881  15.963  72.813  1.00  0.00    -0.583 A  
HETATM   16  C   UNL     1     -11.742  15.702  71.446  1.00  0.00    -0.491 A  
HETATM   17  C   UNL     1     -11.160  16.660  70.602  1.00  0.00     0.077 A  
HETATM   18  C   UNL     1     -11.066  16.478  69.212  1.00  0.00    -0.260 A  
HETATM   19  C   UNL     1     -12.205  14.492  70.910  1.00  0.00    -0.409 A  
HETATM   20  C   UNL     1     -11.495  15.268  68.662  1.00  0.00    -0.337 A  
HETATM   21  C   UNL     1     -12.052  14.296  69.515  1.00  0.00    -0.376 A  
BRANCH  18  22
HETATM   22  O   UNL     1     -10.549  17.467  68.410  1.00  0.00    -0.367 OA 
HETATM   23  C   UNL     1      -9.151  17.370  68.127  1.00  0.00    -0.267 C  
ENDBRANCH  18  22
BRANCH  20  24
HETATM   24  O   UNL     1     -11.528  14.853  67.359  1.00  0.00    -0.339 OA 
HETATM   25  C   UNL     1     -12.195  13.668  66.963  1.00  0.00    -0.329 C  
ENDBRANCH  20  24
ENDBRANCH  11  12
ENDBRANCH   7  11
ENDBRANCH   2   3
TORSDOF 6
ENDMDL
MODEL       53
REMARK 921   NORMALIZED FREE ENERGY PREDICTED BY IDOCK:   -5.52 KCAL/MOL
REMARK 922        TOTAL FREE ENERGY PREDICTED BY IDOCK:   -8.26 KCAL/MOL
REMARK 923 INTER-LIGAND FREE ENERGY PREDICTED BY IDOCK:   -7.65 KCAL/MOL
REMARK 924 INTRA-LIGAND FREE ENERGY PREDICTED BY IDOCK:   -0.61 KCAL/MOL
REMARK 927      BINDING AFFINITY PREDICTED BY RF-SCORE:    0.00 PKD
ROOT
HETATM    1  C   UNL     1     -12.147  13.760  64.073  1.00  0.00    -0.403 C  
HETATM    2  O   UNL     1     -12.234  14.256  65.408  1.00  0.00    -0.393 OA 
ENDROOT
BRANCH   2   3
HETATM    3  C   UNL     1     -11.843  13.389  66.397  1.00  0.00    -0.396 A  
HETATM    4  C   UNL     1     -11.554  13.947  67.654  1.00  0.00    -0.348 A  
HETATM    5  C   UNL     1     -11.641  12.023  66.191  1.00  0.00    -0.371 A  
HETATM    6  C   UNL     1     -11.089  13.114  68.683  1.00  0.00    -0.304 A  
HETATM    7  C   UNL     1     -10.824  11.751  68.455  1.00  0.00    -0.261 A  
HETATM    8  C   UNL     1     -11.136  11.209  67.206  1.00  0.00    -0.366 A  
BRANCH   4   9
HETATM    9  O   UNL     1     -11.740  15.302  67.781  1.00  0.00    -0.319 OA 
HETATM   10  C   UNL     1     -11.735  15.841  69.101  1.00  0.00    -0.388 C  
ENDBRANCH   4   9
BRANCH   7  11
HETATM   11  C   UNL     1     -10.217  10.870  69.525  1.00  0.00    -0.097 C  
BRANCH  11  12
HETATM   12  C   UNL     1     -11.238  10.131  70.369  1.00  0.00    -0.330 A  
HETATM   13  N   UNL     1     -12.233  10.920  70.866  1.00  0.00    -0.364 NA 
HETATM   14  C   UNL     1     -13.101  10.365  71.729  1.00  0.00    -0.462 A  
HETATM   15  C   UNL     1     -13.041   9.046  72.126  1.00  0.00    -0.496 A  
HETATM   16  C   UNL     1     -12.019   8.236  71.620  1.00  0.00    -0.346 A  
HETATM   17  C   UNL     1     -11.908   6.901  72.037  1.00  0.00    -0.345 A  
HETATM   18  C   UNL     1     -10.855   6.069  71.619  1.00  0.00    -0.260 A  
HETATM   19  C   UNL     1     -11.086   8.763  70.715  1.00  0.00    -0.306 A  
HETATM   20  C   UNL     1      -9.933   6.565  70.695  1.00  0.00    -0.184 A  
HETATM   21  C   UNL     1     -10.063   7.896  70.256  1.00  0.00    -0.196 A  
BRANCH  18  22
HETATM   22  O   UNL     1     -10.743   4.787  72.100  1.00  0.00    -0.174 OA 
HETATM   23  C   UNL     1     -11.216   4.580  73.433  1.00  0.00    -0.315 C  
ENDBRANCH  18  22
BRANCH  20  24
HETATM   24  O   UNL     1      -8.825   5.976  70.150  1.00  0.00    -0.140 OA 
HETATM   25  C   UNL     1      -8.907   5.098  69.042  1.00  0.00    -0.092 C  
ENDBRANCH  20  24
ENDBRANCH  11  12
ENDBRANCH   7  11
ENDBRANCH   2   3
TORSDOF 6
ENDMDL
MODEL       54
REMARK 921   NORMALIZED FREE ENERGY PREDICTED BY IDOCK:   -5.50 KCAL/MOL
REMARK 922        TOTAL FREE ENERGY PREDICTED BY IDOCK:   -8.24 KCAL/MOL
REMARK 923 INTER-LIGAND FREE ENERGY PREDICTED BY IDOCK:   -7.46 KCAL/MOL
REMARK 924 INTRA-LIGAND FREE ENERGY PREDICTED BY IDOCK:   -0.78 KCAL/MOL
REMARK 927      BINDING AFFINITY PREDICTED BY RF-SCORE:    0.00 PKD
ROOT
HETATM    1  C   UNL     1      -9.514  10.978  62.764  1.00  0.00    -0.334 C  
HETATM    2  O   UNL     1     -10.683  11.198  63.550  1.00  0.00    -0.368 OA 
ENDROOT
BRANCH   2   3
HETATM    3  C   UNL     1     -10.522  11.089  64.908  1.00  0.00    -0.303 A  
HETATM    4  C   UNL     1     -10.851  12.217  65.681  1.00  0.00    -0.284 A  
HETATM    5  C   UNL     1      -9.978   9.966  65.534  1.00  0.00    -0.363 A  
HETATM    6  C   UNL     1     -10.646  12.181  67.067  1.00  0.00    -0.256 A  
HETATM    7  C   UNL     1     -10.037  11.075  67.687  1.00  0.00    -0.208 A  
HETATM    8  C   UNL     1      -9.735   9.955  66.908  1.00  0.00    -0.236 A  
BRANCH   4   9
HETATM    9  O   UNL     1     -11.350  13.302  65.000  1.00  0.00    -0.296 OA 
HETATM   10  C   UNL     1     -12.540  13.900  65.507  1.00  0.00    -0.526 C  
ENDBRANCH   4   9
BRANCH   7  11
HETATM   11  C   UNL     1      -9.709  11.072  69.164  1.00  0.00    -0.096 C  
BRANCH  11  12
HETATM   12  C   UNL     1     -10.835  10.566  70.047  1.00  0.00    -0.259 A  
HETATM   13  N   UNL     1     -11.912  11.399  70.115  1.00  0.00    -0.352 NA 
HETATM   14  C   UNL     1     -12.894  11.084  70.977  1.00  0.00    -0.346 A  
HETATM   15  C   UNL     1     -12.870   9.964  71.781  1.00  0.00    -0.540 A  
HETATM   16  C   UNL     1     -11.763   9.111  71.716  1.00  0.00    -0.456 A  
HETATM   17  C   UNL     1     -11.691   7.987  72.552  1.00  0.00    -0.446 A  
HETATM   18  C   UNL     1     -10.568   7.143  72.579  1.00  0.00    -0.240 A  
HETATM   19  C   UNL     1     -10.710   9.391  70.833  1.00  0.00    -0.393 A  
HETATM   20  C   UNL     1      -9.522   7.386  71.687  1.00  0.00    -0.150 A  
HETATM   21  C   UNL     1      -9.610   8.499  70.829  1.00  0.00    -0.217 A  
BRANCH  18  22
HETATM   22  O   UNL     1     -10.506   6.089  73.459  1.00  0.00    -0.228 OA 
HETATM   23  C   UNL     1     -11.271   4.935  73.100  1.00  0.00    -0.326 C  
ENDBRANCH  18  22
BRANCH  20  24
HETATM   24  O   UNL     1      -8.330   6.736  71.526  1.00  0.00    -0.114 OA 
HETATM   25  C   UNL     1      -8.242   5.469  70.899  1.00  0.00    -0.118 C  
ENDBRANCH  20  24
ENDBRANCH  11  12
ENDBRANCH   7  11
ENDBRANCH   2   3
TORSDOF 6
ENDMDL
MODEL       55
REMARK 921   NORMALIZED FREE ENERGY PREDICTED BY IDOCK:   -5.50 KCAL/MOL
REMARK 922        TOTAL FREE ENERGY PREDICTED BY IDOCK:   -8.23 KCAL/MOL
REMARK 923 INTER-LIGAND FREE ENERGY PREDICTED BY IDOCK:   -7.56 KCAL/MOL
REMARK 924 INTRA-LIGAND FREE ENERGY PREDICTED BY IDOCK:   -0.67 KCAL/MOL
REMARK 927      BINDING AFFINITY PREDICTED BY RF-SCORE:    0.00 PKD
ROOT
HETATM    1  C   UNL     1      -8.591   9.286  62.334  1.00  0.00    -0.219 C  
HETATM    2  O   UNL     1      -9.658  10.131  62.761  1.00  0.00    -0.302 OA 
ENDROOT
BRANCH   2   3
HETATM    3  C   UNL     1      -9.587  10.578  64.057  1.00  0.00    -0.311 A  
HETATM    4  C   UNL     1     -10.534  11.539  64.452  1.00  0.00    -0.325 A  
HETATM    5  C   UNL     1      -8.587  10.193  64.953  1.00  0.00    -0.188 A  
HETATM    6  C   UNL     1     -10.468  12.075  65.745  1.00  0.00    -0.290 A  
HETATM    7  C   UNL     1      -9.422  11.736  66.624  1.00  0.00    -0.215 A  
HETATM    8  C   UNL     1      -8.501  10.764  66.223  1.00  0.00    -0.161 A  
BRANCH   4   9
HETATM    9  O   UNL     1     -11.470  11.900  63.512  1.00  0.00    -0.424 OA 
HETATM   10  C   UNL     1     -11.802  13.283  63.419  1.00  0.00    -0.355 C  
ENDBRANCH   4   9
BRANCH   7  11
HETATM   11  C   UNL     1      -9.277  12.392  67.979  1.00  0.00    -0.203 C  
BRANCH  11  12
HETATM   12  C   UNL     1     -10.107  13.650  68.149  1.00  0.00    -0.245 A  
HETATM   13  N   UNL     1      -9.684  14.708  67.400  1.00  0.00    -0.217 NA 
HETATM   14  C   UNL     1     -10.286  15.894  67.593  1.00  0.00    -0.281 A  
HETATM   15  C   UNL     1     -11.309  16.089  68.496  1.00  0.00    -0.382 A  
HETATM   16  C   UNL     1     -11.742  15.007  69.269  1.00  0.00    -0.349 A  
HETATM   17  C   UNL     1     -12.752  15.185  70.226  1.00  0.00    -0.340 A  
HETATM   18  C   UNL     1     -13.169  14.149  71.079  1.00  0.00    -0.272 A  
HETATM   19  C   UNL     1     -11.149  13.746  69.108  1.00  0.00    -0.282 A  
HETATM   20  C   UNL     1     -12.613  12.878  70.915  1.00  0.00    -0.270 A  
HETATM   21  C   UNL     1     -11.619  12.696  69.935  1.00  0.00    -0.248 A  
BRANCH  18  22
HETATM   22  O   UNL     1     -14.116  14.378  72.048  1.00  0.00    -0.447 OA 
HETATM   23  C   UNL     1     -14.052  15.654  72.689  1.00  0.00    -0.446 C  
ENDBRANCH  18  22
BRANCH  20  24
HETATM   24  O   UNL     1     -12.829  11.723  71.615  1.00  0.00    -0.383 OA 
HETATM   25  C   UNL     1     -12.482  10.452  71.096  1.00  0.00    -0.404 C  
ENDBRANCH  20  24
ENDBRANCH  11  12
ENDBRANCH   7  11
ENDBRANCH   2   3
TORSDOF 6
ENDMDL
MODEL       56
REMARK 921   NORMALIZED FREE ENERGY PREDICTED BY IDOCK:   -5.48 KCAL/MOL
REMARK 922        TOTAL FREE ENERGY PREDICTED BY IDOCK:   -8.20 KCAL/MOL
REMARK 923 INTER-LIGAND FREE ENERGY PREDICTED BY IDOCK:   -7.46 KCAL/MOL
REMARK 924 INTRA-LIGAND FREE ENERGY PREDICTED BY IDOCK:   -0.75 KCAL/MOL
REMARK 927      BINDING AFFINITY PREDICTED BY RF-SCORE:    0.00 PKD
ROOT
HETATM    1  C   UNL     1     -12.403  16.251  73.800  1.00  0.00    -0.537 C  
HETATM    2  O   UNL     1     -12.732  16.105  72.420  1.00  0.00    -0.442 OA 
ENDROOT
BRANCH   2   3
HETATM    3  C   UNL     1     -12.609  14.839  71.905  1.00  0.00    -0.334 A  
HETATM    4  C   UNL     1     -11.801  14.692  70.764  1.00  0.00    -0.311 A  
HETATM    5  C   UNL     1     -13.303  13.733  72.400  1.00  0.00    -0.635 A  
HETATM    6  C   UNL     1     -11.691  13.431  70.160  1.00  0.00    -0.266 A  
HETATM    7  C   UNL     1     -12.440  12.333  70.620  1.00  0.00    -0.323 A  
HETATM    8  C   UNL     1     -13.223  12.492  71.768  1.00  0.00    -0.444 A  
BRANCH   4   9
HETATM    9  O   UNL     1     -11.174  15.826  70.307  1.00  0.00    -0.303 OA 
HETATM   10  C   UNL     1     -11.275  16.111  68.914  1.00  0.00    -0.351 C  
ENDBRANCH   4   9
BRANCH   7  11
HETATM   11  C   UNL     1     -12.415  10.998  69.909  1.00  0.00    -0.286 C  
BRANCH  11  12
HETATM   12  C   UNL     1     -12.544   9.802  70.833  1.00  0.00    -0.263 A  
HETATM   13  N   UNL     1     -13.828   9.481  71.159  1.00  0.00    -0.162 NA 
HETATM   14  C   UNL     1     -14.020   8.516  72.075  1.00  0.00    -0.433 A  
HETATM   15  C   UNL     1     -12.990   7.835  72.689  1.00  0.00     0.292 A  
HETATM   16  C   UNL     1     -11.672   8.166  72.358  1.00  0.00    -0.461 A  
HETATM   17  C   UNL     1     -10.604   7.518  72.996  1.00  0.00    -0.422 A  
HETATM   18  C   UNL     1      -9.263   7.868  72.756  1.00  0.00    -0.221 A  
HETATM   19  C   UNL     1     -11.414   9.164  71.408  1.00  0.00    -0.420 A  
HETATM   20  C   UNL     1      -8.984   8.838  71.792  1.00  0.00    -0.212 A  
HETATM   21  C   UNL     1     -10.058   9.466  71.133  1.00  0.00    -0.335 A  
BRANCH  18  22
HETATM   22  O   UNL     1      -8.246   7.256  73.448  1.00  0.00    -0.105 OA 
HETATM   23  C   UNL     1      -7.981   5.897  73.091  1.00  0.00    -0.110 C  
ENDBRANCH  18  22
BRANCH  20  24
HETATM   24  O   UNL     1      -7.787   9.363  71.389  1.00  0.00    -0.325 OA 
HETATM   25  C   UNL     1      -7.116   8.905  70.229  1.00  0.00    -0.049 C  
ENDBRANCH  20  24
ENDBRANCH  11  12
ENDBRANCH   7  11
ENDBRANCH   2   3
TORSDOF 6
ENDMDL
MODEL       57
REMARK 921   NORMALIZED FREE ENERGY PREDICTED BY IDOCK:   -5.47 KCAL/MOL
REMARK 922        TOTAL FREE ENERGY PREDICTED BY IDOCK:   -8.20 KCAL/MOL
REMARK 923 INTER-LIGAND FREE ENERGY PREDICTED BY IDOCK:   -7.23 KCAL/MOL
REMARK 924 INTRA-LIGAND FREE ENERGY PREDICTED BY IDOCK:   -0.97 KCAL/MOL
REMARK 927      BINDING AFFINITY PREDICTED BY RF-SCORE:    0.00 PKD
ROOT
HETATM    1  C   UNL     1     -13.530  14.719  72.916  1.00  0.00    -0.442 C  
HETATM    2  O   UNL     1     -13.441  13.734  71.888  1.00  0.00    -0.371 OA 
ENDROOT
BRANCH   2   3
HETATM    3  C   UNL     1     -12.621  14.043  70.832  1.00  0.00    -0.361 A  
HETATM    4  C   UNL     1     -12.022  12.966  70.155  1.00  0.00    -0.301 A  
HETATM    5  C   UNL     1     -12.294  15.350  70.463  1.00  0.00    -0.452 A  
HETATM    6  C   UNL     1     -11.125  13.228  69.109  1.00  0.00    -0.259 A  
HETATM    7  C   UNL     1     -10.748  14.543  68.782  1.00  0.00    -0.257 A  
HETATM    8  C   UNL     1     -11.368  15.602  69.451  1.00  0.00    -0.332 A  
BRANCH   4   9
HETATM    9  O   UNL     1     -12.358  11.706  70.589  1.00  0.00    -0.359 OA 
HETATM   10  C   UNL     1     -11.495  10.635  70.214  1.00  0.00    -0.337 C  
ENDBRANCH   4   9
BRANCH   7  11
HETATM   11  C   UNL     1      -9.698  14.832  67.732  1.00  0.00    -0.213 C  
BRANCH  11  12
HETATM   12  C   UNL     1      -8.332  15.170  68.298  1.00  0.00    -0.149 A  
HETATM   13  N   UNL     1      -7.617  14.089  68.721  1.00  0.00    -0.125 NA 
HETATM   14  C   UNL     1      -6.453  14.316  69.354  1.00  0.00    -0.125 A  
HETATM   15  C   UNL     1      -5.947  15.578  69.585  1.00  0.00    -0.133 A  
HETATM   16  C   UNL     1      -6.681  16.688  69.155  1.00  0.00    -0.217 A  
HETATM   17  C   UNL     1      -6.212  17.984  69.413  1.00  0.00    -0.250 A  
HETATM   18  C   UNL     1      -6.949  19.131  69.071  1.00  0.00    -0.335 A  
HETATM   19  C   UNL     1      -7.902  16.509  68.489  1.00  0.00    -0.210 A  
HETATM   20  C   UNL     1      -8.152  18.976  68.380  1.00  0.00    -0.346 A  
HETATM   21  C   UNL     1      -8.607  17.673  68.097  1.00  0.00    -0.261 A  
BRANCH  18  22
HETATM   22  O   UNL     1      -6.487  20.383  69.398  1.00  0.00    -0.282 OA 
HETATM   23  C   UNL     1      -5.457  20.905  68.555  1.00  0.00    -0.340 C  
ENDBRANCH  18  22
BRANCH  20  24
HETATM   24  O   UNL     1      -9.053  19.913  67.954  1.00  0.00    -0.321 OA 
HETATM   25  C   UNL     1     -10.398  19.584  67.658  1.00  0.00    -0.451 C  
ENDBRANCH  20  24
ENDBRANCH  11  12
ENDBRANCH   7  11
ENDBRANCH   2   3
TORSDOF 6
ENDMDL
MODEL       58
REMARK 921   NORMALIZED FREE ENERGY PREDICTED BY IDOCK:   -5.47 KCAL/MOL
REMARK 922        TOTAL FREE ENERGY PREDICTED BY IDOCK:   -8.20 KCAL/MOL
REMARK 923 INTER-LIGAND FREE ENERGY PREDICTED BY IDOCK:   -7.68 KCAL/MOL
REMARK 924 INTRA-LIGAND FREE ENERGY PREDICTED BY IDOCK:   -0.52 KCAL/MOL
REMARK 927      BINDING AFFINITY PREDICTED BY RF-SCORE:    0.00 PKD
ROOT
HETATM    1  C   UNL     1      -7.769  17.065  66.321  1.00  0.00    -0.311 C  
HETATM    2  O   UNL     1      -8.985  16.484  65.855  1.00  0.00    -0.461 OA 
ENDROOT
BRANCH   2   3
HETATM    3  C   UNL     1      -9.220  15.191  66.248  1.00  0.00    -0.301 A  
HETATM    4  C   UNL     1     -10.319  14.537  65.663  1.00  0.00    -0.349 A  
HETATM    5  C   UNL     1      -8.487  14.540  67.243  1.00  0.00    -0.234 A  
HETATM    6  C   UNL     1     -10.642  13.236  66.075  1.00  0.00    -0.292 A  
HETATM    7  C   UNL     1      -9.944  12.607  67.122  1.00  0.00    -0.217 A  
HETATM    8  C   UNL     1      -8.842  13.263  67.679  1.00  0.00    -0.200 A  
BRANCH   4   9
HETATM    9  O   UNL     1     -11.019  15.245  64.716  1.00  0.00    -0.410 OA 
HETATM   10  C   UNL     1     -12.261  14.698  64.279  1.00  0.00    -0.408 C  
ENDBRANCH   4   9
BRANCH   7  11
HETATM   11  C   UNL     1     -10.354  11.250  67.650  1.00  0.00    -0.212 C  
BRANCH  11  12
HETATM   12  C   UNL     1     -11.212  11.306  68.900  1.00  0.00    -0.253 A  
HETATM   13  N   UNL     1     -11.717  12.542  69.179  1.00  0.00    -0.309 NA 
HETATM   14  C   UNL     1     -12.379  12.701  70.338  1.00  0.00    -0.237 A  
HETATM   15  C   UNL     1     -12.579  11.682  71.246  1.00  0.00    -0.425 A  
HETATM   16  C   UNL     1     -12.057  10.415  70.963  1.00  0.00    -0.488 A  
HETATM   17  C   UNL     1     -12.208   9.370  71.886  1.00  0.00    -0.440 A  
HETATM   18  C   UNL     1     -11.638   8.102  71.684  1.00  0.00    -0.279 A  
HETATM   19  C   UNL     1     -11.359  10.193  69.767  1.00  0.00    -0.312 A  
HETATM   20  C   UNL     1     -10.965   7.850  70.487  1.00  0.00    -0.248 A  
HETATM   21  C   UNL     1     -10.839   8.893  69.549  1.00  0.00    -0.163 A  
BRANCH  18  22
HETATM   22  O   UNL     1     -11.753   7.122  72.641  1.00  0.00    -0.234 OA 
HETATM   23  C   UNL     1     -10.660   7.019  73.558  1.00  0.00    -0.368 C  
ENDBRANCH  18  22
BRANCH  20  24
HETATM   24  O   UNL     1     -10.316   6.725  70.058  1.00  0.00    -0.191 OA 
HETATM   25  C   UNL     1     -10.885   5.844  69.108  1.00  0.00    -0.336 C  
ENDBRANCH  20  24
ENDBRANCH  11  12
ENDBRANCH   7  11
ENDBRANCH   2   3
TORSDOF 6
ENDMDL
MODEL       59
REMARK 921   NORMALIZED FREE ENERGY PREDICTED BY IDOCK:   -5.47 KCAL/MOL
REMARK 922        TOTAL FREE ENERGY PREDICTED BY IDOCK:   -8.19 KCAL/MOL
REMARK 923 INTER-LIGAND FREE ENERGY PREDICTED BY IDOCK:   -7.42 KCAL/MOL
REMARK 924 INTRA-LIGAND FREE ENERGY PREDICTED BY IDOCK:   -0.77 KCAL/MOL
REMARK 927      BINDING AFFINITY PREDICTED BY RF-SCORE:    0.00 PKD
ROOT
HETATM    1  C   UNL     1     -11.361   5.460  72.851  1.00  0.00    -0.303 C  
HETATM    2  O   UNL     1     -12.140   6.321  72.022  1.00  0.00    -0.337 OA 
ENDROOT
BRANCH   2   3
HETATM    3  C   UNL     1     -11.492   6.854  70.936  1.00  0.00    -0.323 A  
HETATM    4  C   UNL     1     -11.382   8.255  70.885  1.00  0.00    -0.268 A  
HETATM    5  C   UNL     1     -11.025   6.092  69.863  1.00  0.00    -0.458 A  
HETATM    6  C   UNL     1     -10.785   8.855  69.768  1.00  0.00    -0.230 A  
HETATM    7  C   UNL     1     -10.375   8.091  68.660  1.00  0.00    -0.224 A  
HETATM    8  C   UNL     1     -10.473   6.699  68.735  1.00  0.00    -0.241 A  
BRANCH   4   9
HETATM    9  O   UNL     1     -11.893   8.949  71.956  1.00  0.00    -0.346 OA 
HETATM   10  C   UNL     1     -12.962   9.855  71.696  1.00  0.00    -0.434 C  
ENDBRANCH   4   9
BRANCH   7  11
HETATM   11  C   UNL     1      -9.833   8.738  67.404  1.00  0.00    -0.250 C  
BRANCH  11  12
HETATM   12  C   UNL     1      -9.227  10.110  67.627  1.00  0.00    -0.141 A  
HETATM   13  N   UNL     1      -8.143  10.118  68.454  1.00  0.00    -0.101 NA 
HETATM   14  C   UNL     1      -7.629  11.310  68.804  1.00  0.00    -0.130 A  
HETATM   15  C   UNL     1      -8.135  12.514  68.364  1.00  0.00    -0.136 A  
HETATM   16  C   UNL     1      -9.249  12.509  67.519  1.00  0.00    -0.188 A  
HETATM   17  C   UNL     1      -9.811  13.720  67.088  1.00  0.00    -0.242 A  
HETATM   18  C   UNL     1     -10.975  13.769  66.301  1.00  0.00    -0.297 A  
HETATM   19  C   UNL     1      -9.825  11.293  67.121  1.00  0.00    -0.213 A  
HETATM   20  C   UNL     1     -11.546  12.571  65.870  1.00  0.00    -0.405 A  
HETATM   21  C   UNL     1     -10.963  11.357  66.280  1.00  0.00    -0.303 A  
BRANCH  18  22
HETATM   22  O   UNL     1     -11.533  14.976  65.953  1.00  0.00    -0.321 OA 
HETATM   23  C   UNL     1     -10.770  15.775  65.046  1.00  0.00    -0.421 C  
ENDBRANCH  18  22
BRANCH  20  24
HETATM   24  O   UNL     1     -12.671  12.347  65.123  1.00  0.00    -0.630 OA 
HETATM   25  C   UNL     1     -12.622  12.193  63.717  1.00  0.00    -0.475 C  
ENDBRANCH  20  24
ENDBRANCH  11  12
ENDBRANCH   7  11
ENDBRANCH   2   3
TORSDOF 6
ENDMDL
MODEL       60
REMARK 921   NORMALIZED FREE ENERGY PREDICTED BY IDOCK:   -5.47 KCAL/MOL
REMARK 922        TOTAL FREE ENERGY PREDICTED BY IDOCK:   -8.19 KCAL/MOL
REMARK 923 INTER-LIGAND FREE ENERGY PREDICTED BY IDOCK:   -7.31 KCAL/MOL
REMARK 924 INTRA-LIGAND FREE ENERGY PREDICTED BY IDOCK:   -0.88 KCAL/MOL
REMARK 927      BINDING AFFINITY PREDICTED BY RF-SCORE:    0.00 PKD
ROOT
HETATM    1  C   UNL     1      -6.490   8.246  66.102  1.00  0.00    -0.050 C  
HETATM    2  O   UNL     1      -7.796   7.877  66.540  1.00  0.00    -0.094 OA 
ENDROOT
BRANCH   2   3
HETATM    3  C   UNL     1      -8.633   8.912  66.871  1.00  0.00    -0.115 A  
HETATM    4  C   UNL     1      -9.799   8.585  67.586  1.00  0.00    -0.174 A  
HETATM    5  C   UNL     1      -8.426  10.233  66.466  1.00  0.00    -0.126 A  
HETATM    6  C   UNL     1     -10.719   9.597  67.894  1.00  0.00    -0.302 A  
HETATM    7  C   UNL     1     -10.542  10.913  67.429  1.00  0.00    -0.285 A  
HETATM    8  C   UNL     1      -9.368  11.225  66.738  1.00  0.00    -0.191 A  
BRANCH   4   9
HETATM    9  O   UNL     1      -9.959   7.263  67.924  1.00  0.00    -0.146 OA 
HETATM   10  C   UNL     1     -10.958   6.527  67.223  1.00  0.00    -0.400 C  
ENDBRANCH   4   9
BRANCH   7  11
HETATM   11  C   UNL     1     -11.583  11.985  67.661  1.00  0.00    -0.392 C  
BRANCH  11  12
HETATM   12  C   UNL     1     -11.799  12.905  66.474  1.00  0.00    -0.407 A  
HETATM   13  N   UNL     1     -12.423  12.317  65.414  1.00  0.00    -0.533 NA 
HETATM   14  C   UNL     1     -12.533  13.027  64.279  1.00  0.00    -0.315 A  
HETATM   15  C   UNL     1     -12.060  14.314  64.138  1.00  0.00    -0.423 A  
HETATM   16  C   UNL     1     -11.416  14.918  65.223  1.00  0.00    -0.336 A  
HETATM   17  C   UNL     1     -10.887  16.211  65.096  1.00  0.00    -0.376 A  
HETATM   18  C   UNL     1     -10.165  16.831  66.131  1.00  0.00    -0.351 A  
HETATM   19  C   UNL     1     -11.274  14.223  66.433  1.00  0.00    -0.337 A  
HETATM   20  C   UNL     1     -10.037  16.169  67.353  1.00  0.00    -0.257 A  
HETATM   21  C   UNL     1     -10.594  14.882  67.487  1.00  0.00    -0.266 A  
BRANCH  18  22
HETATM   22  O   UNL     1      -9.606  18.073  65.947  1.00  0.00    -0.520 OA 
HETATM   23  C   UNL     1     -10.505  19.180  66.047  1.00  0.00    -0.467 C  
ENDBRANCH  18  22
BRANCH  20  24
HETATM   24  O   UNL     1      -9.381  16.539  68.494  1.00  0.00    -0.213 OA 
HETATM   25  C   UNL     1      -8.304  15.786  69.022  1.00  0.00    -0.236 C  
ENDBRANCH  20  24
ENDBRANCH  11  12
ENDBRANCH   7  11
ENDBRANCH   2   3
TORSDOF 6
ENDMDL
MODEL       61
REMARK 921   NORMALIZED FREE ENERGY PREDICTED BY IDOCK:   -5.45 KCAL/MOL
REMARK 922        TOTAL FREE ENERGY PREDICTED BY IDOCK:   -8.17 KCAL/MOL
REMARK 923 INTER-LIGAND FREE ENERGY PREDICTED BY IDOCK:   -7.17 KCAL/MOL
REMARK 924 INTRA-LIGAND FREE ENERGY PREDICTED BY IDOCK:   -1.00 KCAL/MOL
REMARK 927      BINDING AFFINITY PREDICTED BY RF-SCORE:    0.00 PKD
ROOT
HETATM    1  C   UNL     1      -6.638  10.714  65.743  1.00  0.00    -0.105 C  
HETATM    2  O   UNL     1      -7.869   9.995  65.781  1.00  0.00    -0.117 OA 
ENDROOT
BRANCH   2   3
HETATM    3  C   UNL     1      -8.916  10.631  66.398  1.00  0.00    -0.162 A  
HETATM    4  C   UNL     1     -10.030  10.946  65.600  1.00  0.00    -0.251 A  
HETATM    5  C   UNL     1      -8.890  11.047  67.731  1.00  0.00    -0.133 A  
HETATM    6  C   UNL     1     -11.101  11.653  66.166  1.00  0.00    -0.335 A  
HETATM    7  C   UNL     1     -11.045  12.128  67.489  1.00  0.00    -0.328 A  
HETATM    8  C   UNL     1      -9.940  11.788  68.275  1.00  0.00    -0.200 A  
BRANCH   4   9
HETATM    9  O   UNL     1      -9.978  10.540  64.289  1.00  0.00    -0.321 OA 
HETATM   10  C   UNL     1      -9.948  11.557  63.291  1.00  0.00    -0.409 C  
ENDBRANCH   4   9
BRANCH   7  11
HETATM   11  C   UNL     1     -12.145  12.986  68.073  1.00  0.00    -0.220 C  
BRANCH  11  12
HETATM   12  C   UNL     1     -11.645  14.174  68.873  1.00  0.00    -0.310 A  
HETATM   13  N   UNL     1     -11.790  14.043  70.222  1.00  0.00    -0.309 NA 
HETATM   14  C   UNL     1     -11.491  15.105  70.991  1.00  0.00    -0.330 A  
HETATM   15  C   UNL     1     -11.039  16.306  70.486  1.00  0.00    -0.293 A  
HETATM   16  C   UNL     1     -10.894  16.443  69.101  1.00  0.00    -0.329 A  
HETATM   17  C   UNL     1     -10.477  17.666  68.556  1.00  0.00    -0.337 A  
HETATM   18  C   UNL     1     -10.389  17.878  67.169  1.00  0.00    -0.367 A  
HETATM   19  C   UNL     1     -11.191  15.366  68.253  1.00  0.00    -0.325 A  
HETATM   20  C   UNL     1     -10.651  16.811  66.308  1.00  0.00    -0.190 A  
HETATM   21  C   UNL     1     -11.042  15.576  66.859  1.00  0.00    -0.221 A  
BRANCH  18  22
HETATM   22  O   UNL     1     -10.039  19.110  66.670  1.00  0.00    -0.338 OA 
HETATM   23  C   UNL     1      -8.647  19.298  66.401  1.00  0.00    -0.343 C  
ENDBRANCH  18  22
BRANCH  20  24
HETATM   24  O   UNL     1     -10.653  16.759  64.941  1.00  0.00    -0.702 OA 
HETATM   25  C   UNL     1     -11.499  15.880  64.222  1.00  0.00    -0.191 C  
ENDBRANCH  20  24
ENDBRANCH  11  12
ENDBRANCH   7  11
ENDBRANCH   2   3
TORSDOF 6
ENDMDL
MODEL       62
REMARK 921   NORMALIZED FREE ENERGY PREDICTED BY IDOCK:   -5.45 KCAL/MOL
REMARK 922        TOTAL FREE ENERGY PREDICTED BY IDOCK:   -8.17 KCAL/MOL
REMARK 923 INTER-LIGAND FREE ENERGY PREDICTED BY IDOCK:   -7.31 KCAL/MOL
REMARK 924 INTRA-LIGAND FREE ENERGY PREDICTED BY IDOCK:   -0.85 KCAL/MOL
REMARK 927      BINDING AFFINITY PREDICTED BY RF-SCORE:    0.00 PKD
ROOT
HETATM    1  C   UNL     1     -13.161  10.905  71.820  1.00  0.00    -0.459 C  
HETATM    2  O   UNL     1     -12.310  10.067  71.040  1.00  0.00    -0.311 OA 
ENDROOT
BRANCH   2   3
HETATM    3  C   UNL     1     -11.647  10.681  70.008  1.00  0.00    -0.325 A  
HETATM    4  C   UNL     1     -10.316  10.288  69.782  1.00  0.00    -0.246 A  
HETATM    5  C   UNL     1     -12.194  11.715  69.245  1.00  0.00    -0.228 A  
HETATM    6  C   UNL     1      -9.572  10.929  68.781  1.00  0.00    -0.195 A  
HETATM    7  C   UNL     1     -10.103  12.013  68.058  1.00  0.00    -0.199 A  
HETATM    8  C   UNL     1     -11.434  12.377  68.280  1.00  0.00    -0.360 A  
BRANCH   4   9
HETATM    9  O   UNL     1      -9.827   9.290  70.590  1.00  0.00    -0.229 OA 
HETATM   10  C   UNL     1      -8.411   9.135  70.652  1.00  0.00    -0.209 C  
ENDBRANCH   4   9
BRANCH   7  11
HETATM   11  C   UNL     1      -9.272  12.782  67.055  1.00  0.00    -0.221 C  
BRANCH  11  12
HETATM   12  C   UNL     1      -8.802  14.137  67.549  1.00  0.00    -0.201 A  
HETATM   13  N   UNL     1      -8.017  14.086  68.663  1.00  0.00    -0.138 NA 
HETATM   14  C   UNL     1      -7.668  15.250  69.238  1.00  0.00    -0.214 A  
HETATM   15  C   UNL     1      -8.053  16.482  68.755  1.00  0.00    -0.244 A  
HETATM   16  C   UNL     1      -8.862  16.536  67.615  1.00  0.00    -0.195 A  
HETATM   17  C   UNL     1      -9.303  17.774  67.124  1.00  0.00    -0.264 A  
HETATM   18  C   UNL     1     -10.178  17.878  66.029  1.00  0.00    -0.295 A  
HETATM   19  C   UNL     1      -9.254  15.352  66.974  1.00  0.00    -0.242 A  
HETATM   20  C   UNL     1     -10.558  16.713  65.358  1.00  0.00    -0.237 A  
HETATM   21  C   UNL     1     -10.090  15.474  65.836  1.00  0.00    -0.374 A  
BRANCH  18  22
HETATM   22  O   UNL     1     -10.641  19.105  65.617  1.00  0.00    -0.523 OA 
HETATM   23  C   UNL     1     -10.362  20.200  66.493  1.00  0.00    -0.383 C  
ENDBRANCH  18  22
BRANCH  20  24
HETATM   24  O   UNL     1     -11.399  16.542  64.293  1.00  0.00    -1.020 OA 
HETATM   25  C   UNL     1     -11.981  15.288  63.988  1.00  0.00     0.000 C  
ENDBRANCH  20  24
ENDBRANCH  11  12
ENDBRANCH   7  11
ENDBRANCH   2   3
TORSDOF 6
ENDMDL
MODEL       63
REMARK 921   NORMALIZED FREE ENERGY PREDICTED BY IDOCK:   -5.43 KCAL/MOL
REMARK 922        TOTAL FREE ENERGY PREDICTED BY IDOCK:   -8.14 KCAL/MOL
REMARK 923 INTER-LIGAND FREE ENERGY PREDICTED BY IDOCK:   -7.30 KCAL/MOL
REMARK 924 INTRA-LIGAND FREE ENERGY PREDICTED BY IDOCK:   -0.85 KCAL/MOL
REMARK 927      BINDING AFFINITY PREDICTED BY RF-SCORE:    0.00 PKD
ROOT
HETATM    1  C   UNL     1     -14.302   8.697  72.500  1.00  0.00    -0.259 C  
HETATM    2  O   UNL     1     -12.948   8.828  72.929  1.00  0.00    -0.314 OA 
ENDROOT
BRANCH   2   3
HETATM    3  C   UNL     1     -12.036   9.134  71.951  1.00  0.00    -0.373 A  
HETATM    4  C   UNL     1     -10.739   8.612  72.103  1.00  0.00    -0.347 A  
HETATM    5  C   UNL     1     -12.308   9.990  70.881  1.00  0.00    -0.438 A  
HETATM    6  C   UNL     1      -9.751   8.946  71.165  1.00  0.00    -0.344 A  
HETATM    7  C   UNL     1     -10.009   9.859  70.127  1.00  0.00    -0.291 A  
HETATM    8  C   UNL     1     -11.308  10.352  69.977  1.00  0.00    -0.384 A  
BRANCH   4   9
HETATM    9  O   UNL     1     -10.528   7.805  73.195  1.00  0.00    -0.339 OA 
HETATM   10  C   UNL     1      -9.180   7.622  73.620  1.00  0.00    -0.283 C  
ENDBRANCH   4   9
BRANCH   7  11
HETATM   11  C   UNL     1      -8.922  10.311  69.177  1.00  0.00    -0.187 C  
BRANCH  11  12
HETATM   12  C   UNL     1      -9.321  10.267  67.714  1.00  0.00    -0.144 A  
HETATM   13  N   UNL     1      -9.123   9.058  67.115  1.00  0.00    -0.135 NA 
HETATM   14  C   UNL     1      -9.329   8.975  65.789  1.00  0.00    -0.236 A  
HETATM   15  C   UNL     1      -9.737  10.040  65.014  1.00  0.00    -0.386 A  
HETATM   16  C   UNL     1      -9.935  11.282  65.627  1.00  0.00    -0.292 A  
HETATM   17  C   UNL     1     -10.310  12.393  64.857  1.00  0.00    -0.319 A  
HETATM   18  C   UNL     1     -10.447  13.677  65.412  1.00  0.00    -0.324 A  
HETATM   19  C   UNL     1      -9.736  11.425  67.007  1.00  0.00    -0.210 A  
HETATM   20  C   UNL     1     -10.282  13.837  66.789  1.00  0.00    -0.268 A  
HETATM   21  C   UNL     1      -9.935  12.713  67.563  1.00  0.00    -0.205 A  
BRANCH  18  22
HETATM   22  O   UNL     1     -10.752  14.755  64.614  1.00  0.00    -0.379 OA 
HETATM   23  C   UNL     1     -12.132  14.904  64.272  1.00  0.00    -0.353 C  
ENDBRANCH  18  22
BRANCH  20  24
HETATM   24  O   UNL     1     -10.343  14.964  67.561  1.00  0.00    -0.237 OA 
HETATM   25  C   UNL     1     -10.288  14.912  68.975  1.00  0.00    -0.245 C  
ENDBRANCH  20  24
ENDBRANCH  11  12
ENDBRANCH   7  11
ENDBRANCH   2   3
TORSDOF 6
ENDMDL
MODEL       64
REMARK 921   NORMALIZED FREE ENERGY PREDICTED BY IDOCK:   -5.41 KCAL/MOL
REMARK 922        TOTAL FREE ENERGY PREDICTED BY IDOCK:   -8.12 KCAL/MOL
REMARK 923 INTER-LIGAND FREE ENERGY PREDICTED BY IDOCK:   -7.22 KCAL/MOL
REMARK 924 INTRA-LIGAND FREE ENERGY PREDICTED BY IDOCK:   -0.90 KCAL/MOL
REMARK 927      BINDING AFFINITY PREDICTED BY RF-SCORE:    0.00 PKD
ROOT
HETATM    1  C   UNL     1      -8.808   9.544  62.483  1.00  0.00    -0.244 C  
HETATM    2  O   UNL     1      -9.909  10.215  63.094  1.00  0.00    -0.183 OA 
ENDROOT
BRANCH   2   3
HETATM    3  C   UNL     1      -9.643  10.840  64.285  1.00  0.00    -0.283 A  
HETATM    4  C   UNL     1     -10.319  12.047  64.535  1.00  0.00    -0.296 A  
HETATM    5  C   UNL     1      -8.690  10.387  65.200  1.00  0.00    -0.194 A  
HETATM    6  C   UNL     1     -10.038  12.760  65.709  1.00  0.00    -0.296 A  
HETATM    7  C   UNL     1      -9.032  12.337  66.597  1.00  0.00    -0.189 A  
HETATM    8  C   UNL     1      -8.384  11.125  66.344  1.00  0.00    -0.167 A  
BRANCH   4   9
HETATM    9  O   UNL     1     -11.218  12.455  63.579  1.00  0.00    -0.437 OA 
HETATM   10  C   UNL     1     -12.043  13.575  63.894  1.00  0.00    -0.438 C  
ENDBRANCH   4   9
BRANCH   7  11
HETATM   11  C   UNL     1      -8.644  13.157  67.808  1.00  0.00    -0.188 C  
BRANCH  11  12
HETATM   12  C   UNL     1      -9.697  14.158  68.241  1.00  0.00    -0.227 A  
HETATM   13  N   UNL     1     -10.695  13.629  69.005  1.00  0.00    -0.209 NA 
HETATM   14  C   UNL     1     -11.733  14.423  69.319  1.00  0.00    -0.317 A  
HETATM   15  C   UNL     1     -11.832  15.739  68.919  1.00  0.00    -0.354 A  
HETATM   16  C   UNL     1     -10.811  16.282  68.132  1.00  0.00    -0.342 A  
HETATM   17  C   UNL     1     -10.905  17.605  67.675  1.00  0.00    -0.227 A  
HETATM   18  C   UNL     1      -9.944  18.173  66.820  1.00  0.00    -0.351 A  
HETATM   19  C   UNL     1      -9.704  15.499  67.775  1.00  0.00    -0.211 A  
HETATM   20  C   UNL     1      -8.820  17.420  66.477  1.00  0.00    -0.263 A  
HETATM   21  C   UNL     1      -8.715  16.102  66.961  1.00  0.00    -0.228 A  
BRANCH  18  22
HETATM   22  O   UNL     1     -10.103  19.451  66.340  1.00  0.00    -0.374 OA 
HETATM   23  C   UNL     1      -9.450  20.481  67.087  1.00  0.00    -0.404 C  
ENDBRANCH  18  22
BRANCH  20  24
HETATM   24  O   UNL     1      -7.766  17.728  65.660  1.00  0.00    -0.545 OA 
HETATM   25  C   UNL     1      -6.480  18.028  66.172  1.00  0.00    -0.248 C  
ENDBRANCH  20  24
ENDBRANCH  11  12
ENDBRANCH   7  11
ENDBRANCH   2   3
TORSDOF 6
ENDMDL
MODEL       65
REMARK 921   NORMALIZED FREE ENERGY PREDICTED BY IDOCK:   -5.38 KCAL/MOL
REMARK 922        TOTAL FREE ENERGY PREDICTED BY IDOCK:   -8.07 KCAL/MOL
REMARK 923 INTER-LIGAND FREE ENERGY PREDICTED BY IDOCK:   -7.19 KCAL/MOL
REMARK 924 INTRA-LIGAND FREE ENERGY PREDICTED BY IDOCK:   -0.88 KCAL/MOL
REMARK 927      BINDING AFFINITY PREDICTED BY RF-SCORE:    0.00 PKD
ROOT
HETATM    1  C   UNL     1     -13.201  11.957  72.016  1.00  0.00    -0.356 C  
HETATM    2  O   UNL     1     -13.392  13.239  71.419  1.00  0.00    -0.277 OA 
ENDROOT
BRANCH   2   3
HETATM    3  C   UNL     1     -12.505  13.576  70.427  1.00  0.00    -0.275 A  
HETATM    4  C   UNL     1     -12.210  14.942  70.274  1.00  0.00    -0.335 A  
HETATM    5  C   UNL     1     -11.963  12.653  69.530  1.00  0.00    -0.332 A  
HETATM    6  C   UNL     1     -11.360  15.347  69.235  1.00  0.00    -0.323 A  
HETATM    7  C   UNL     1     -10.867  14.426  68.293  1.00  0.00    -0.250 A  
HETATM    8  C   UNL     1     -11.153  13.069  68.472  1.00  0.00    -0.298 A  
BRANCH   4   9
HETATM    9  O   UNL     1     -12.804  15.801  71.167  1.00  0.00    -0.486 OA 
HETATM   10  C   UNL     1     -12.029  16.209  72.292  1.00  0.00    -0.546 C  
ENDBRANCH   4   9
BRANCH   7  11
HETATM   11  C   UNL     1     -10.041  14.867  67.105  1.00  0.00    -0.240 C  
BRANCH  11  12
HETATM   12  C   UNL     1      -8.589  15.159  67.436  1.00  0.00    -0.184 A  
HETATM   13  N   UNL     1      -7.774  14.066  67.397  1.00  0.00    -0.178 NA 
HETATM   14  C   UNL     1      -6.502  14.219  67.803  1.00  0.00    -0.166 A  
HETATM   15  C   UNL     1      -5.983  15.417  68.244  1.00  0.00    -0.122 A  
HETATM   16  C   UNL     1      -6.819  16.538  68.289  1.00  0.00    -0.143 A  
HETATM   17  C   UNL     1      -6.330  17.761  68.772  1.00  0.00    -0.212 A  
HETATM   18  C   UNL     1      -7.149  18.895  68.909  1.00  0.00    -0.321 A  
HETATM   19  C   UNL     1      -8.155  16.436  67.875  1.00  0.00    -0.164 A  
HETATM   20  C   UNL     1      -8.475  18.823  68.475  1.00  0.00    -0.345 A  
HETATM   21  C   UNL     1      -8.954  17.603  67.964  1.00  0.00    -0.264 A  
BRANCH  18  22
HETATM   22  O   UNL     1      -6.651  20.057  69.447  1.00  0.00    -0.332 OA 
HETATM   23  C   UNL     1      -5.932  19.915  70.675  1.00  0.00    -0.296 C  
ENDBRANCH  18  22
BRANCH  20  24
HETATM   24  O   UNL     1      -9.468  19.763  68.513  1.00  0.00    -0.348 OA 
HETATM   25  C   UNL     1     -10.453  19.858  67.500  1.00  0.00    -0.395 C  
ENDBRANCH  20  24
ENDBRANCH  11  12
ENDBRANCH   7  11
ENDBRANCH   2   3
TORSDOF 6
ENDMDL
MODEL       66
REMARK 921   NORMALIZED FREE ENERGY PREDICTED BY IDOCK:   -5.36 KCAL/MOL
REMARK 922        TOTAL FREE ENERGY PREDICTED BY IDOCK:   -8.04 KCAL/MOL
REMARK 923 INTER-LIGAND FREE ENERGY PREDICTED BY IDOCK:   -7.36 KCAL/MOL
REMARK 924 INTRA-LIGAND FREE ENERGY PREDICTED BY IDOCK:   -0.68 KCAL/MOL
REMARK 927      BINDING AFFINITY PREDICTED BY RF-SCORE:    0.00 PKD
ROOT
HETATM    1  C   UNL     1      -8.353   6.011  66.211  1.00  0.00    -0.122 C  
HETATM    2  O   UNL     1      -8.313   7.220  65.454  1.00  0.00    -0.139 OA 
ENDROOT
BRANCH   2   3
HETATM    3  C   UNL     1      -9.112   8.238  65.908  1.00  0.00    -0.149 A  
HETATM    4  C   UNL     1      -9.066   9.450  65.196  1.00  0.00    -0.225 A  
HETATM    5  C   UNL     1      -9.885   8.155  67.069  1.00  0.00    -0.299 A  
HETATM    6  C   UNL     1      -9.814  10.543  65.655  1.00  0.00    -0.311 A  
HETATM    7  C   UNL     1     -10.540  10.478  66.859  1.00  0.00    -0.303 A  
HETATM    8  C   UNL     1     -10.591   9.261  67.543  1.00  0.00    -0.329 A  
BRANCH   4   9
HETATM    9  O   UNL     1      -8.260   9.476  64.084  1.00  0.00    -0.138 OA 
HETATM   10  C   UNL     1      -8.712  10.240  62.968  1.00  0.00    -0.208 C  
ENDBRANCH   4   9
BRANCH   7  11
HETATM   11  C   UNL     1     -11.260  11.685  67.420  1.00  0.00    -0.358 C  
BRANCH  11  12
HETATM   12  C   UNL     1     -11.647  12.715  66.376  1.00  0.00    -0.384 A  
HETATM   13  N   UNL     1     -12.469  12.241  65.397  1.00  0.00    -0.533 NA 
HETATM   14  C   UNL     1     -12.751  13.056  64.366  1.00  0.00    -0.201 A  
HETATM   15  C   UNL     1     -12.262  14.341  64.256  1.00  0.00    -0.451 A  
HETATM   16  C   UNL     1     -11.415  14.827  65.257  1.00  0.00    -0.352 A  
HETATM   17  C   UNL     1     -10.869  16.115  65.152  1.00  0.00    -0.376 A  
HETATM   18  C   UNL     1      -9.953  16.621  66.091  1.00  0.00    -0.337 A  
HETATM   19  C   UNL     1     -11.088  14.020  66.357  1.00  0.00    -0.316 A  
HETATM   20  C   UNL     1      -9.637  15.845  67.208  1.00  0.00    -0.217 A  
HETATM   21  C   UNL     1     -10.209  14.564  67.326  1.00  0.00    -0.255 A  
BRANCH  18  22
HETATM   22  O   UNL     1      -9.389  17.862  65.919  1.00  0.00    -0.520 OA 
HETATM   23  C   UNL     1     -10.286  18.971  66.015  1.00  0.00    -0.446 C  
ENDBRANCH  18  22
BRANCH  20  24
HETATM   24  O   UNL     1      -8.776  16.094  68.241  1.00  0.00    -0.173 OA 
HETATM   25  C   UNL     1      -8.693  15.246  69.372  1.00  0.00    -0.216 C  
ENDBRANCH  20  24
ENDBRANCH  11  12
ENDBRANCH   7  11
ENDBRANCH   2   3
TORSDOF 6
ENDMDL
MODEL       67
REMARK 921   NORMALIZED FREE ENERGY PREDICTED BY IDOCK:   -5.35 KCAL/MOL
REMARK 922        TOTAL FREE ENERGY PREDICTED BY IDOCK:   -8.03 KCAL/MOL
REMARK 923 INTER-LIGAND FREE ENERGY PREDICTED BY IDOCK:   -7.20 KCAL/MOL
REMARK 924 INTRA-LIGAND FREE ENERGY PREDICTED BY IDOCK:   -0.83 KCAL/MOL
REMARK 927      BINDING AFFINITY PREDICTED BY RF-SCORE:    0.00 PKD
ROOT
HETATM    1  C   UNL     1     -10.329  17.158  68.934  1.00  0.00    -0.348 C  
HETATM    2  O   UNL     1     -11.004  16.398  69.935  1.00  0.00    -0.349 OA 
ENDROOT
BRANCH   2   3
HETATM    3  C   UNL     1     -11.311  15.104  69.601  1.00  0.00    -0.283 A  
HETATM    4  C   UNL     1     -11.963  14.331  70.578  1.00  0.00    -0.331 A  
HETATM    5  C   UNL     1     -10.937  14.508  68.394  1.00  0.00    -0.255 A  
HETATM    6  C   UNL     1     -12.243  12.983  70.312  1.00  0.00    -0.368 A  
HETATM    7  C   UNL     1     -11.808  12.368  69.124  1.00  0.00    -0.352 A  
HETATM    8  C   UNL     1     -11.180  13.155  68.155  1.00  0.00    -0.304 A  
BRANCH   4   9
HETATM    9  O   UNL     1     -12.272  14.967  71.756  1.00  0.00    -0.311 OA 
HETATM   10  C   UNL     1     -13.204  14.323  72.621  1.00  0.00    -0.510 C  
ENDBRANCH   4   9
BRANCH   7  11
HETATM   11  C   UNL     1     -12.007  10.889  68.875  1.00  0.00    -0.277 C  
BRANCH  11  12
HETATM   12  C   UNL     1     -12.046  10.049  70.137  1.00  0.00    -0.091 A  
HETATM   13  N   UNL     1     -13.274   9.978  70.726  1.00  0.00    -0.301 NA 
HETATM   14  C   UNL     1     -13.363   9.361  71.917  1.00  0.00    -0.434 A  
HETATM   15  C   UNL     1     -12.285   8.793  72.562  1.00  0.00    -0.347 A  
HETATM   16  C   UNL     1     -11.024   8.869  71.961  1.00  0.00    -0.412 A  
HETATM   17  C   UNL     1      -9.901   8.336  72.612  1.00  0.00    -0.357 A  
HETATM   18  C   UNL     1      -8.603   8.454  72.087  1.00  0.00    -0.192 A  
HETATM   19  C   UNL     1     -10.874   9.500  70.717  1.00  0.00    -0.386 A  
HETATM   20  C   UNL     1      -8.435   9.053  70.837  1.00  0.00    -0.208 A  
HETATM   21  C   UNL     1      -9.567   9.560  70.172  1.00  0.00    -0.290 A  
BRANCH  18  22
HETATM   22  O   UNL     1      -7.519   7.977  72.785  1.00  0.00    -0.100 OA 
HETATM   23  C   UNL     1      -7.609   8.068  74.209  1.00  0.00    -0.201 C  
ENDBRANCH  18  22
BRANCH  20  24
HETATM   24  O   UNL     1      -7.295   9.303  70.123  1.00  0.00    -0.070 OA 
HETATM   25  C   UNL     1      -6.483  10.435  70.373  1.00  0.00    -0.125 C  
ENDBRANCH  20  24
ENDBRANCH  11  12
ENDBRANCH   7  11
ENDBRANCH   2   3
TORSDOF 6
ENDMDL
MODEL       68
REMARK 921   NORMALIZED FREE ENERGY PREDICTED BY IDOCK:   -5.35 KCAL/MOL
REMARK 922        TOTAL FREE ENERGY PREDICTED BY IDOCK:   -8.03 KCAL/MOL
REMARK 923 INTER-LIGAND FREE ENERGY PREDICTED BY IDOCK:   -7.27 KCAL/MOL
REMARK 924 INTRA-LIGAND FREE ENERGY PREDICTED BY IDOCK:   -0.76 KCAL/MOL
REMARK 927      BINDING AFFINITY PREDICTED BY RF-SCORE:    0.00 PKD
ROOT
HETATM    1  C   UNL     1     -10.522  14.078  65.904  1.00  0.00    -0.309 C  
HETATM    2  O   UNL     1     -10.995  12.747  66.102  1.00  0.00    -0.274 OA 
ENDROOT
BRANCH   2   3
HETATM    3  C   UNL     1     -11.272  12.396  67.399  1.00  0.00    -0.297 A  
HETATM    4  C   UNL     1     -11.119  11.040  67.738  1.00  0.00    -0.295 A  
HETATM    5  C   UNL     1     -11.770  13.288  68.352  1.00  0.00    -0.389 A  
HETATM    6  C   UNL     1     -11.449  10.616  69.033  1.00  0.00    -0.342 A  
HETATM    7  C   UNL     1     -12.011  11.501  69.971  1.00  0.00    -0.435 A  
HETATM    8  C   UNL     1     -12.138  12.849  69.624  1.00  0.00    -0.290 A  
BRANCH   4   9
HETATM    9  O   UNL     1     -10.659  10.209  66.745  1.00  0.00    -0.223 OA 
HETATM   10  C   UNL     1     -10.050   8.985  67.149  1.00  0.00    -0.243 C  
ENDBRANCH   4   9
BRANCH   7  11
HETATM   11  C   UNL     1     -12.474  11.030  71.332  1.00  0.00    -0.436 C  
BRANCH  11  12
HETATM   12  C   UNL     1     -12.701   9.533  71.425  1.00  0.00    -0.358 A  
HETATM   13  N   UNL     1     -14.002   9.153  71.279  1.00  0.00    -0.216 NA 
HETATM   14  C   UNL     1     -14.302   7.858  71.478  1.00  0.00    -0.445 A  
HETATM   15  C   UNL     1     -13.365   6.902  71.810  1.00  0.00    -0.260 A  
HETATM   16  C   UNL     1     -12.031   7.292  71.964  1.00  0.00    -0.333 A  
HETATM   17  C   UNL     1     -11.062   6.350  72.342  1.00  0.00    -0.303 A  
HETATM   18  C   UNL     1      -9.724   6.705  72.584  1.00  0.00    -0.160 A  
HETATM   19  C   UNL     1     -11.661   8.630  71.767  1.00  0.00    -0.400 A  
HETATM   20  C   UNL     1      -9.329   8.026  72.365  1.00  0.00    -0.208 A  
HETATM   21  C   UNL     1     -10.297   8.964  71.958  1.00  0.00    -0.378 A  
BRANCH  18  22
HETATM   22  O   UNL     1      -8.818   5.767  73.016  1.00  0.00    -0.124 OA 
HETATM   23  C   UNL     1      -9.013   4.440  72.519  1.00  0.00    -0.115 C  
ENDBRANCH  18  22
BRANCH  20  24
HETATM   24  O   UNL     1      -8.111   8.625  72.540  1.00  0.00    -0.347 OA 
HETATM   25  C   UNL     1      -7.094   8.563  71.557  1.00  0.00    -0.092 C  
ENDBRANCH  20  24
ENDBRANCH  11  12
ENDBRANCH   7  11
ENDBRANCH   2   3
TORSDOF 6
ENDMDL
MODEL       69
REMARK 921   NORMALIZED FREE ENERGY PREDICTED BY IDOCK:   -5.34 KCAL/MOL
REMARK 922        TOTAL FREE ENERGY PREDICTED BY IDOCK:   -8.02 KCAL/MOL
REMARK 923 INTER-LIGAND FREE ENERGY PREDICTED BY IDOCK:   -7.42 KCAL/MOL
REMARK 924 INTRA-LIGAND FREE ENERGY PREDICTED BY IDOCK:   -0.60 KCAL/MOL
REMARK 927      BINDING AFFINITY PREDICTED BY RF-SCORE:    0.00 PKD
ROOT
HETATM    1  C   UNL     1      -9.051   4.585  67.466  1.00  0.00    -0.121 C  
HETATM    2  O   UNL     1      -8.230   5.726  67.713  1.00  0.00    -0.102 OA 
ENDROOT
BRANCH   2   3
HETATM    3  C   UNL     1      -8.887   6.927  67.811  1.00  0.00    -0.119 A  
HETATM    4  C   UNL     1      -8.386   7.852  68.743  1.00  0.00    -0.128 A  
HETATM    5  C   UNL     1     -10.053   7.229  67.104  1.00  0.00    -0.306 A  
HETATM    6  C   UNL     1      -9.056   9.070  68.928  1.00  0.00    -0.140 A  
HETATM    7  C   UNL     1     -10.265   9.346  68.264  1.00  0.00    -0.229 A  
HETATM    8  C   UNL     1     -10.739   8.424  67.326  1.00  0.00    -0.230 A  
BRANCH   4   9
HETATM    9  O   UNL     1      -7.255   7.479  69.430  1.00  0.00    -0.078 OA 
HETATM   10  C   UNL     1      -7.266   7.650  70.845  1.00  0.00    -0.062 C  
ENDBRANCH   4   9
BRANCH   7  11
HETATM   11  C   UNL     1     -11.054  10.607  68.540  1.00  0.00    -0.318 C  
BRANCH  11  12
HETATM   12  C   UNL     1     -11.754  10.618  69.885  1.00  0.00    -0.317 A  
HETATM   13  N   UNL     1     -11.991   9.379  70.404  1.00  0.00    -0.109 NA 
HETATM   14  C   UNL     1     -12.722   9.301  71.530  1.00  0.00    -0.350 A  
HETATM   15  C   UNL     1     -13.231  10.402  72.184  1.00  0.00    -0.418 A  
HETATM   16  C   UNL     1     -12.993  11.673  71.651  1.00  0.00    -0.483 A  
HETATM   17  C   UNL     1     -13.533  12.809  72.272  1.00  0.00    -0.591 A  
HETATM   18  C   UNL     1     -13.386  14.099  71.734  1.00  0.00    -0.380 A  
HETATM   19  C   UNL     1     -12.235  11.813  70.479  1.00  0.00    -0.438 A  
HETATM   20  C   UNL     1     -12.611  14.265  70.585  1.00  0.00    -0.355 A  
HETATM   21  C   UNL     1     -12.046  13.126  69.980  1.00  0.00    -0.375 A  
BRANCH  18  22
HETATM   22  O   UNL     1     -13.985  15.180  72.336  1.00  0.00    -0.467 OA 
HETATM   23  C   UNL     1     -13.183  15.884  73.288  1.00  0.00    -0.595 C  
ENDBRANCH  18  22
BRANCH  20  24
HETATM   24  O   UNL     1     -12.331  15.392  69.863  1.00  0.00    -0.341 OA 
HETATM   25  C   UNL     1     -11.174  16.172  70.103  1.00  0.00    -0.370 C  
ENDBRANCH  20  24
ENDBRANCH  11  12
ENDBRANCH   7  11
ENDBRANCH   2   3
TORSDOF 6
ENDMDL
MODEL       70
REMARK 921   NORMALIZED FREE ENERGY PREDICTED BY IDOCK:   -5.31 KCAL/MOL
REMARK 922        TOTAL FREE ENERGY PREDICTED BY IDOCK:   -7.98 KCAL/MOL
REMARK 923 INTER-LIGAND FREE ENERGY PREDICTED BY IDOCK:   -7.16 KCAL/MOL
REMARK 924 INTRA-LIGAND FREE ENERGY PREDICTED BY IDOCK:   -0.82 KCAL/MOL
REMARK 927      BINDING AFFINITY PREDICTED BY RF-SCORE:    0.00 PKD
ROOT
HETATM    1  C   UNL     1      -6.723   7.190  71.064  1.00  0.00    -0.049 C  
HETATM    2  O   UNL     1      -7.838   7.866  71.643  1.00  0.00    -0.083 OA 
ENDROOT
BRANCH   2   3
HETATM    3  C   UNL     1      -8.612   8.596  70.777  1.00  0.00    -0.171 A  
HETATM    4  C   UNL     1      -9.885   8.083  70.474  1.00  0.00    -0.182 A  
HETATM    5  C   UNL     1      -8.169   9.753  70.131  1.00  0.00    -0.202 A  
HETATM    6  C   UNL     1     -10.692   8.755  69.545  1.00  0.00    -0.196 A  
HETATM    7  C   UNL     1     -10.220   9.882  68.848  1.00  0.00    -0.209 A  
HETATM    8  C   UNL     1      -8.960  10.392  69.176  1.00  0.00    -0.188 A  
BRANCH   4   9
HETATM    9  O   UNL     1     -10.247   6.923  71.116  1.00  0.00    -0.196 OA 
HETATM   10  C   UNL     1     -11.560   6.425  70.874  1.00  0.00    -0.331 C  
ENDBRANCH   4   9
BRANCH   7  11
HETATM   11  C   UNL     1     -11.039  10.549  67.765  1.00  0.00    -0.382 C  
BRANCH  11  12
HETATM   12  C   UNL     1     -11.254  12.035  67.979  1.00  0.00    -0.258 A  
HETATM   13  N   UNL     1     -10.718  12.825  67.005  1.00  0.00    -0.250 NA 
HETATM   14  C   UNL     1     -10.754  14.157  67.188  1.00  0.00    -0.280 A  
HETATM   15  C   UNL     1     -11.309  14.757  68.298  1.00  0.00    -0.319 A  
HETATM   16  C   UNL     1     -11.855  13.948  69.300  1.00  0.00    -0.394 A  
HETATM   17  C   UNL     1     -12.390  14.529  70.459  1.00  0.00    -0.403 A  
HETATM   18  C   UNL     1     -12.881  13.758  71.527  1.00  0.00    -0.362 A  
HETATM   19  C   UNL     1     -11.847  12.553  69.160  1.00  0.00    -0.348 A  
HETATM   20  C   UNL     1     -12.909  12.368  71.395  1.00  0.00    -0.260 A  
HETATM   21  C   UNL     1     -12.398  11.789  70.218  1.00  0.00    -0.320 A  
BRANCH  18  22
HETATM   22  O   UNL     1     -13.338  14.361  72.674  1.00  0.00    -0.440 OA 
HETATM   23  C   UNL     1     -12.385  15.165  73.374  1.00  0.00    -0.484 C  
ENDBRANCH  18  22
BRANCH  20  24
HETATM   24  O   UNL     1     -13.314  11.405  72.279  1.00  0.00    -0.410 OA 
HETATM   25  C   UNL     1     -13.196  10.023  71.993  1.00  0.00    -0.443 C  
ENDBRANCH  20  24
ENDBRANCH  11  12
ENDBRANCH   7  11
ENDBRANCH   2   3
TORSDOF 6
ENDMDL
MODEL       71
REMARK 921   NORMALIZED FREE ENERGY PREDICTED BY IDOCK:   -5.31 KCAL/MOL
REMARK 922        TOTAL FREE ENERGY PREDICTED BY IDOCK:   -7.98 KCAL/MOL
REMARK 923 INTER-LIGAND FREE ENERGY PREDICTED BY IDOCK:   -7.11 KCAL/MOL
REMARK 924 INTRA-LIGAND FREE ENERGY PREDICTED BY IDOCK:   -0.86 KCAL/MOL
REMARK 927      BINDING AFFINITY PREDICTED BY RF-SCORE:    0.00 PKD
ROOT
HETATM    1  C   UNL     1      -7.122   7.112  70.478  1.00  0.00    -0.063 C  
HETATM    2  O   UNL     1      -8.114   7.457  71.443  1.00  0.00    -0.096 OA 
ENDROOT
BRANCH   2   3
HETATM    3  C   UNL     1      -9.068   8.352  71.028  1.00  0.00    -0.165 A  
HETATM    4  C   UNL     1     -10.402   8.061  71.362  1.00  0.00    -0.200 A  
HETATM    5  C   UNL     1      -8.788   9.467  70.235  1.00  0.00    -0.281 A  
HETATM    6  C   UNL     1     -11.423   8.909  70.908  1.00  0.00    -0.339 A  
HETATM    7  C   UNL     1     -11.147   9.993  70.056  1.00  0.00    -0.350 A  
HETATM    8  C   UNL     1      -9.813  10.280  69.751  1.00  0.00    -0.201 A  
BRANCH   4   9
HETATM    9  O   UNL     1     -10.613   6.931  72.115  1.00  0.00    -0.209 OA 
HETATM   10  C   UNL     1     -10.742   7.100  73.524  1.00  0.00    -0.333 C  
ENDBRANCH   4   9
BRANCH   7  11
HETATM   11  C   UNL     1     -12.250  10.847  69.471  1.00  0.00    -0.331 C  
BRANCH  11  12
HETATM   12  C   UNL     1     -11.964  12.336  69.504  1.00  0.00    -0.270 A  
HETATM   13  N   UNL     1     -12.290  12.944  70.681  1.00  0.00    -0.346 NA 
HETATM   14  C   UNL     1     -12.188  14.283  70.744  1.00  0.00    -0.353 A  
HETATM   15  C   UNL     1     -11.765  15.063  69.689  1.00  0.00    -0.353 A  
HETATM   16  C   UNL     1     -11.435  14.442  68.480  1.00  0.00    -0.326 A  
HETATM   17  C   UNL     1     -11.041  15.214  67.377  1.00  0.00    -0.325 A  
HETATM   18  C   UNL     1     -10.773  14.645  66.120  1.00  0.00    -0.314 A  
HETATM   19  C   UNL     1     -11.522  13.047  68.359  1.00  0.00    -0.345 A  
HETATM   20  C   UNL     1     -10.825  13.256  65.986  1.00  0.00    -0.273 A  
HETATM   21  C   UNL     1     -11.193  12.481  67.102  1.00  0.00    -0.352 A  
BRANCH  18  22
HETATM   22  O   UNL     1     -10.454  15.440  65.045  1.00  0.00    -0.406 OA 
HETATM   23  C   UNL     1     -11.561  15.930  64.284  1.00  0.00    -0.178 C  
ENDBRANCH  18  22
BRANCH  20  24
HETATM   24  O   UNL     1     -10.629  12.467  64.886  1.00  0.00    -0.276 OA 
HETATM   25  C   UNL     1     -11.692  12.092  64.028  1.00  0.00    -0.430 C  
ENDBRANCH  20  24
ENDBRANCH  11  12
ENDBRANCH   7  11
ENDBRANCH   2   3
TORSDOF 6
ENDMDL
MODEL       72
REMARK 921   NORMALIZED FREE ENERGY PREDICTED BY IDOCK:   -5.28 KCAL/MOL
REMARK 922        TOTAL FREE ENERGY PREDICTED BY IDOCK:   -7.94 KCAL/MOL
REMARK 923 INTER-LIGAND FREE ENERGY PREDICTED BY IDOCK:   -7.48 KCAL/MOL
REMARK 924 INTRA-LIGAND FREE ENERGY PREDICTED BY IDOCK:   -0.46 KCAL/MOL
REMARK 927      BINDING AFFINITY PREDICTED BY RF-SCORE:    0.00 PKD
ROOT
HETATM    1  C   UNL     1     -11.029   5.311  73.385  1.00  0.00    -0.316 C  
HETATM    2  O   UNL     1     -10.279   6.524  73.412  1.00  0.00    -0.198 OA 
ENDROOT
BRANCH   2   3
HETATM    3  C   UNL     1     -10.776   7.552  72.651  1.00  0.00    -0.303 A  
HETATM    4  C   UNL     1      -9.846   8.479  72.148  1.00  0.00    -0.318 A  
HETATM    5  C   UNL     1     -12.139   7.763  72.432  1.00  0.00    -0.297 A  
HETATM    6  C   UNL     1     -10.306   9.584  71.417  1.00  0.00    -0.216 A  
HETATM    7  C   UNL     1     -11.681   9.830  71.253  1.00  0.00    -0.472 A  
HETATM    8  C   UNL     1     -12.591   8.888  71.742  1.00  0.00    -0.420 A  
BRANCH   4   9
HETATM    9  O   UNL     1      -8.523   8.233  72.428  1.00  0.00    -0.162 OA 
HETATM   10  C   UNL     1      -7.651   8.016  71.322  1.00  0.00    -0.081 C  
ENDBRANCH   4   9
BRANCH   7  11
HETATM   11  C   UNL     1     -12.190  11.076  70.563  1.00  0.00    -0.472 C  
BRANCH  11  12
HETATM   12  C   UNL     1     -11.757  11.203  69.115  1.00  0.00    -0.338 A  
HETATM   13  N   UNL     1     -11.386  10.025  68.535  1.00  0.00    -0.123 NA 
HETATM   14  C   UNL     1     -10.867  10.073  67.296  1.00  0.00    -0.217 A  
HETATM   15  C   UNL     1     -10.702  11.242  66.585  1.00  0.00    -0.321 A  
HETATM   16  C   UNL     1     -11.078  12.451  67.180  1.00  0.00    -0.328 A  
HETATM   17  C   UNL     1     -10.883  13.661  66.498  1.00  0.00    -0.283 A  
HETATM   18  C   UNL     1     -11.173  14.907  67.081  1.00  0.00    -0.343 A  
HETATM   19  C   UNL     1     -11.626  12.460  68.471  1.00  0.00    -0.358 A  
HETATM   20  C   UNL     1     -11.747  14.937  68.353  1.00  0.00    -0.309 A  
HETATM   21  C   UNL     1     -11.968  13.719  69.025  1.00  0.00    -0.399 A  
BRANCH  18  22
HETATM   22  O   UNL     1     -10.908  16.074  66.406  1.00  0.00    -0.269 OA 
HETATM   23  C   UNL     1     -10.639  15.936  65.008  1.00  0.00    -0.346 C  
ENDBRANCH  18  22
BRANCH  20  24
HETATM   24  O   UNL     1     -12.101  16.000  69.138  1.00  0.00    -0.293 OA 
HETATM   25  C   UNL     1     -12.560  15.835  70.467  1.00  0.00    -0.295 C  
ENDBRANCH  20  24
ENDBRANCH  11  12
ENDBRANCH   7  11
ENDBRANCH   2   3
TORSDOF 6
ENDMDL
MODEL       73
REMARK 921   NORMALIZED FREE ENERGY PREDICTED BY IDOCK:   -5.28 KCAL/MOL
REMARK 922        TOTAL FREE ENERGY PREDICTED BY IDOCK:   -7.94 KCAL/MOL
REMARK 923 INTER-LIGAND FREE ENERGY PREDICTED BY IDOCK:   -7.26 KCAL/MOL
REMARK 924 INTRA-LIGAND FREE ENERGY PREDICTED BY IDOCK:   -0.68 KCAL/MOL
REMARK 927      BINDING AFFINITY PREDICTED BY RF-SCORE:    0.00 PKD
ROOT
HETATM    1  C   UNL     1     -11.310   7.820  70.758  1.00  0.00    -0.279 C  
HETATM    2  O   UNL     1     -10.818   7.336  69.509  1.00  0.00    -0.240 OA 
ENDROOT
BRANCH   2   3
HETATM    3  C   UNL     1     -10.545   8.291  68.562  1.00  0.00    -0.100 A  
HETATM    4  C   UNL     1      -9.952   7.850  67.366  1.00  0.00    -0.198 A  
HETATM    5  C   UNL     1     -10.747   9.658  68.763  1.00  0.00    -0.234 A  
HETATM    6  C   UNL     1      -9.595   8.792  66.390  1.00  0.00    -0.316 A  
HETATM    7  C   UNL     1      -9.738  10.172  66.621  1.00  0.00    -0.242 A  
HETATM    8  C   UNL     1     -10.348  10.592  67.806  1.00  0.00    -0.239 A  
BRANCH   4   9
HETATM    9  O   UNL     1      -9.750   6.496  67.245  1.00  0.00    -0.123 OA 
HETATM   10  C   UNL     1      -9.072   6.040  66.078  1.00  0.00    -0.129 C  
ENDBRANCH   4   9
BRANCH   7  11
HETATM   11  C   UNL     1      -9.254  11.200  65.622  1.00  0.00    -0.238 C  
BRANCH  11  12
HETATM   12  C   UNL     1     -10.346  12.108  65.090  1.00  0.00    -0.279 A  
HETATM   13  N   UNL     1     -11.247  11.486  64.276  1.00  0.00    -0.319 NA 
HETATM   14  C   UNL     1     -12.167  12.249  63.661  1.00  0.00    -0.567 A  
HETATM   15  C   UNL     1     -12.251  13.616  63.820  1.00  0.00    -0.413 A  
HETATM   16  C   UNL     1     -11.326  14.256  64.650  1.00  0.00    -0.375 A  
HETATM   17  C   UNL     1     -11.360  15.650  64.798  1.00  0.00    -0.348 A  
HETATM   18  C   UNL     1     -10.407  16.348  65.560  1.00  0.00    -0.313 A  
HETATM   19  C   UNL     1     -10.344  13.509  65.318  1.00  0.00    -0.344 A  
HETATM   20  C   UNL     1      -9.440  15.621  66.256  1.00  0.00    -0.319 A  
HETATM   21  C   UNL     1      -9.425  14.219  66.129  1.00  0.00    -0.250 A  
BRANCH  18  22
HETATM   22  O   UNL     1     -10.435  17.721  65.629  1.00  0.00    -0.613 OA 
HETATM   23  C   UNL     1     -10.660  18.273  66.928  1.00  0.00    -0.329 C  
ENDBRANCH  18  22
BRANCH  20  24
HETATM   24  O   UNL     1      -8.405  16.053  67.040  1.00  0.00    -0.180 OA 
HETATM   25  C   UNL     1      -7.309  16.775  66.510  1.00  0.00    -0.271 C  
ENDBRANCH  20  24
ENDBRANCH  11  12
ENDBRANCH   7  11
ENDBRANCH   2   3
TORSDOF 6
ENDMDL
MODEL       74
REMARK 921   NORMALIZED FREE ENERGY PREDICTED BY IDOCK:   -5.22 KCAL/MOL
REMARK 922        TOTAL FREE ENERGY PREDICTED BY IDOCK:   -7.86 KCAL/MOL
REMARK 923 INTER-LIGAND FREE ENERGY PREDICTED BY IDOCK:   -6.95 KCAL/MOL
REMARK 924 INTRA-LIGAND FREE ENERGY PREDICTED BY IDOCK:   -0.91 KCAL/MOL
REMARK 927      BINDING AFFINITY PREDICTED BY RF-SCORE:    0.00 PKD
ROOT
HETATM    1  C   UNL     1     -12.595  12.220  63.294  1.00  0.00    -0.318 C  
HETATM    2  O   UNL     1     -11.453  11.486  63.734  1.00  0.00    -0.402 OA 
ENDROOT
BRANCH   2   3
HETATM    3  C   UNL     1     -11.121  11.630  65.057  1.00  0.00    -0.249 A  
HETATM    4  C   UNL     1     -10.115  10.785  65.557  1.00  0.00    -0.274 A  
HETATM    5  C   UNL     1     -11.782  12.497  65.929  1.00  0.00    -0.480 A  
HETATM    6  C   UNL     1      -9.781  10.846  66.917  1.00  0.00    -0.210 A  
HETATM    7  C   UNL     1     -10.492  11.673  67.807  1.00  0.00    -0.213 A  
HETATM    8  C   UNL     1     -11.475  12.521  67.290  1.00  0.00    -0.416 A  
BRANCH   4   9
HETATM    9  O   UNL     1      -9.529   9.930  64.654  1.00  0.00    -0.276 OA 
HETATM   10  C   UNL     1      -8.106   9.842  64.668  1.00  0.00    -0.152 C  
ENDBRANCH   4   9
BRANCH   7  11
HETATM   11  C   UNL     1     -10.215  11.664  69.294  1.00  0.00     0.098 C  
BRANCH  11  12
HETATM   12  C   UNL     1     -11.292  10.989  70.120  1.00  0.00    -0.251 A  
HETATM   13  N   UNL     1     -12.209  11.845  70.656  1.00  0.00    -0.374 NA 
HETATM   14  C   UNL     1     -13.118  11.338  71.506  1.00  0.00    -0.355 A  
HETATM   15  C   UNL     1     -13.175  10.005  71.853  1.00  0.00    -0.557 A  
HETATM   16  C   UNL     1     -12.233   9.126  71.308  1.00  0.00    -0.395 A  
HETATM   17  C   UNL     1     -12.240   7.772  71.674  1.00  0.00    -0.341 A  
HETATM   18  C   UNL     1     -11.269   6.865  71.215  1.00  0.00    -0.268 A  
HETATM   19  C   UNL     1     -11.262   9.601  70.414  1.00  0.00    -0.342 A  
HETATM   20  C   UNL     1     -10.312   7.310  70.302  1.00  0.00    -0.210 A  
HETATM   21  C   UNL     1     -10.325   8.664  69.913  1.00  0.00    -0.213 A  
BRANCH  18  22
HETATM   22  O   UNL     1     -11.270   5.560  71.647  1.00  0.00    -0.190 OA 
HETATM   23  C   UNL     1     -11.032   5.369  73.044  1.00  0.00    -0.297 C  
ENDBRANCH  18  22
BRANCH  20  24
HETATM   24  O   UNL     1      -9.265   6.645  69.725  1.00  0.00    -0.146 OA 
HETATM   25  C   UNL     1      -9.115   6.551  68.320  1.00  0.00    -0.119 C  
ENDBRANCH  20  24
ENDBRANCH  11  12
ENDBRANCH   7  11
ENDBRANCH   2   3
TORSDOF 6
ENDMDL
MODEL       75
REMARK 921   NORMALIZED FREE ENERGY PREDICTED BY IDOCK:   -5.19 KCAL/MOL
REMARK 922        TOTAL FREE ENERGY PREDICTED BY IDOCK:   -7.82 KCAL/MOL
REMARK 923 INTER-LIGAND FREE ENERGY PREDICTED BY IDOCK:   -6.97 KCAL/MOL
REMARK 924 INTRA-LIGAND FREE ENERGY PREDICTED BY IDOCK:   -0.85 KCAL/MOL
REMARK 927      BINDING AFFINITY PREDICTED BY RF-SCORE:    0.00 PKD
ROOT
HETATM    1  C   UNL     1     -10.501   6.736  73.650  1.00  0.00    -0.347 C  
HETATM    2  O   UNL     1     -11.183   6.750  72.397  1.00  0.00    -0.247 OA 
ENDROOT
BRANCH   2   3
HETATM    3  C   UNL     1     -10.675   7.600  71.447  1.00  0.00    -0.222 A  
HETATM    4  C   UNL     1      -9.740   7.062  70.546  1.00  0.00    -0.176 A  
HETATM    5  C   UNL     1     -10.974   8.963  71.391  1.00  0.00    -0.380 A  
HETATM    6  C   UNL     1      -9.142   7.901  69.595  1.00  0.00    -0.153 A  
HETATM    7  C   UNL     1      -9.394   9.285  69.582  1.00  0.00    -0.187 A  
HETATM    8  C   UNL     1     -10.342   9.801  70.471  1.00  0.00    -0.348 A  
BRANCH   4   9
HETATM    9  O   UNL     1      -9.465   5.722  70.676  1.00  0.00    -0.159 OA 
HETATM   10  C   UNL     1      -9.710   4.892  69.544  1.00  0.00    -0.195 C  
ENDBRANCH   4   9
BRANCH   7  11
HETATM   11  C   UNL     1      -8.671  10.217  68.634  1.00  0.00    -0.128 C  
BRANCH  11  12
HETATM   12  C   UNL     1      -9.248  10.242  67.232  1.00  0.00    -0.141 A  
HETATM   13  N   UNL     1      -8.636   9.393  66.358  1.00  0.00    -0.132 NA 
HETATM   14  C   UNL     1      -9.003   9.451  65.066  1.00  0.00    -0.211 A  
HETATM   15  C   UNL     1      -9.966  10.314  64.587  1.00  0.00    -0.377 A  
HETATM   16  C   UNL     1     -10.591  11.189  65.481  1.00  0.00    -0.289 A  
HETATM   17  C   UNL     1     -11.545  12.106  65.017  1.00  0.00    -0.365 A  
HETATM   18  C   UNL     1     -12.146  13.057  65.860  1.00  0.00    -0.444 A  
HETATM   19  C   UNL     1     -10.248  11.170  66.841  1.00  0.00    -0.260 A  
HETATM   20  C   UNL     1     -11.840  13.036  67.222  1.00  0.00    -0.363 A  
HETATM   21  C   UNL     1     -10.904  12.095  67.691  1.00  0.00    -0.272 A  
BRANCH  18  22
HETATM   22  O   UNL     1     -13.027  13.983  65.355  1.00  0.00    -0.726 OA 
HETATM   23  C   UNL     1     -12.477  14.926  64.432  1.00  0.00    -0.207 C  
ENDBRANCH  18  22
BRANCH  20  24
HETATM   24  O   UNL     1     -12.267  13.849  68.236  1.00  0.00    -0.332 OA 
HETATM   25  C   UNL     1     -12.140  13.484  69.598  1.00  0.00    -0.306 C  
ENDBRANCH  20  24
ENDBRANCH  11  12
ENDBRANCH   7  11
ENDBRANCH   2   3
TORSDOF 6
ENDMDL
MODEL       76
REMARK 921   NORMALIZED FREE ENERGY PREDICTED BY IDOCK:   -5.16 KCAL/MOL
REMARK 922        TOTAL FREE ENERGY PREDICTED BY IDOCK:   -7.78 KCAL/MOL
REMARK 923 INTER-LIGAND FREE ENERGY PREDICTED BY IDOCK:   -6.83 KCAL/MOL
REMARK 924 INTRA-LIGAND FREE ENERGY PREDICTED BY IDOCK:   -0.95 KCAL/MOL
REMARK 927      BINDING AFFINITY PREDICTED BY RF-SCORE:    0.00 PKD
ROOT
HETATM    1  C   UNL     1     -13.214  10.975  71.885  1.00  0.00    -0.398 C  
HETATM    2  O   UNL     1     -12.409   9.851  71.533  1.00  0.00    -0.359 OA 
ENDROOT
BRANCH   2   3
HETATM    3  C   UNL     1     -11.567  10.029  70.464  1.00  0.00    -0.323 A  
HETATM    4  C   UNL     1     -10.253   9.546  70.601  1.00  0.00    -0.297 A  
HETATM    5  C   UNL     1     -11.922  10.727  69.308  1.00  0.00    -0.334 A  
HETATM    6  C   UNL     1      -9.334   9.757  69.564  1.00  0.00    -0.226 A  
HETATM    7  C   UNL     1      -9.674  10.517  68.430  1.00  0.00    -0.166 A  
HETATM    8  C   UNL     1     -10.989  10.972  68.300  1.00  0.00    -0.287 A  
BRANCH   4   9
HETATM    9  O   UNL     1      -9.958   8.899  71.777  1.00  0.00    -0.300 OA 
HETATM   10  C   UNL     1      -8.592   8.567  72.015  1.00  0.00    -0.183 C  
ENDBRANCH   4   9
BRANCH   7  11
HETATM   11  C   UNL     1      -8.658  10.845  67.358  1.00  0.00    -0.127 C  
BRANCH  11  12
HETATM   12  C   UNL     1      -8.051  12.230  67.484  1.00  0.00    -0.170 A  
HETATM   13  N   UNL     1      -6.987  12.301  68.334  1.00  0.00    -0.076 NA 
HETATM   14  C   UNL     1      -6.478  13.517  68.599  1.00  0.00    -0.094 A  
HETATM   15  C   UNL     1      -6.967  14.683  68.050  1.00  0.00    -0.147 A  
HETATM   16  C   UNL     1      -8.061  14.611  67.181  1.00  0.00    -0.213 A  
HETATM   17  C   UNL     1      -8.607  15.785  66.640  1.00  0.00    -0.322 A  
HETATM   18  C   UNL     1      -9.751  15.773  65.824  1.00  0.00    -0.337 A  
HETATM   19  C   UNL     1      -8.632  13.369  66.869  1.00  0.00    -0.114 A  
HETATM   20  C   UNL     1     -10.317  14.545  65.477  1.00  0.00    -0.359 A  
HETATM   21  C   UNL     1      -9.750  13.366  65.998  1.00  0.00    -0.228 A  
BRANCH  18  22
HETATM   22  O   UNL     1     -10.296  16.949  65.365  1.00  0.00    -0.609 OA 
HETATM   23  C   UNL     1     -10.426  17.993  66.334  1.00  0.00    -0.339 C  
ENDBRANCH  18  22
BRANCH  20  24
HETATM   24  O   UNL     1     -11.424  14.263  64.724  1.00  0.00    -0.359 OA 
HETATM   25  C   UNL     1     -12.544  13.580  65.257  1.00  0.00    -0.468 C  
ENDBRANCH  20  24
ENDBRANCH  11  12
ENDBRANCH   7  11
ENDBRANCH   2   3
TORSDOF 6
ENDMDL
MODEL       77
REMARK 921   NORMALIZED FREE ENERGY PREDICTED BY IDOCK:   -5.13 KCAL/MOL
REMARK 922        TOTAL FREE ENERGY PREDICTED BY IDOCK:   -7.74 KCAL/MOL
REMARK 923 INTER-LIGAND FREE ENERGY PREDICTED BY IDOCK:   -6.88 KCAL/MOL
REMARK 924 INTRA-LIGAND FREE ENERGY PREDICTED BY IDOCK:   -0.86 KCAL/MOL
REMARK 927      BINDING AFFINITY PREDICTED BY RF-SCORE:    0.00 PKD
ROOT
HETATM    1  C   UNL     1     -12.398   9.741  71.765  1.00  0.00    -0.386 C  
HETATM    2  O   UNL     1     -11.780   9.065  70.672  1.00  0.00    -0.272 OA 
ENDROOT
BRANCH   2   3
HETATM    3  C   UNL     1     -11.251   9.867  69.692  1.00  0.00    -0.208 A  
HETATM    4  C   UNL     1     -10.411   9.250  68.749  1.00  0.00    -0.210 A  
HETATM    5  C   UNL     1     -11.437  11.250  69.642  1.00  0.00    -0.380 A  
HETATM    6  C   UNL     1      -9.795  10.034  67.763  1.00  0.00    -0.185 A  
HETATM    7  C   UNL     1      -9.931  11.435  67.754  1.00  0.00    -0.192 A  
HETATM    8  C   UNL     1     -10.785  12.029  68.686  1.00  0.00    -0.266 A  
BRANCH   4   9
HETATM    9  O   UNL     1     -10.242   7.892  68.874  1.00  0.00    -0.197 OA 
HETATM   10  C   UNL     1     -10.635   7.081  67.770  1.00  0.00    -0.233 C  
ENDBRANCH   4   9
BRANCH   7  11
HETATM   11  C   UNL     1      -9.181  12.300  66.765  1.00  0.00    -0.210 C  
BRANCH  11  12
HETATM   12  C   UNL     1     -10.014  13.418  66.167  1.00  0.00    -0.294 A  
HETATM   13  N   UNL     1     -10.805  13.034  65.125  1.00  0.00    -0.292 NA 
HETATM   14  C   UNL     1     -11.473  13.991  64.458  1.00  0.00    -0.370 A  
HETATM   15  C   UNL     1     -11.406  15.330  64.780  1.00  0.00    -0.396 A  
HETATM   16  C   UNL     1     -10.591  15.727  65.846  1.00  0.00    -0.350 A  
HETATM   17  C   UNL     1     -10.470  17.086  66.170  1.00  0.00    -0.274 A  
HETATM   18  C   UNL     1      -9.607  17.542  67.181  1.00  0.00    -0.262 A  
HETATM   19  C   UNL     1      -9.872  14.769  66.577  1.00  0.00    -0.287 A  
HETATM   20  C   UNL     1      -8.905  16.604  67.940  1.00  0.00    -0.205 A  
HETATM   21  C   UNL     1      -9.050  15.238  67.631  1.00  0.00    -0.184 A  
BRANCH  18  22
HETATM   22  O   UNL     1      -9.466  18.887  67.427  1.00  0.00    -0.293 OA 
HETATM   23  C   UNL     1     -10.313  19.750  66.664  1.00  0.00    -0.496 C  
ENDBRANCH  18  22
BRANCH  20  24
HETATM   24  O   UNL     1      -8.003  16.784  68.953  1.00  0.00    -0.242 OA 
HETATM   25  C   UNL     1      -6.692  17.264  68.717  1.00  0.00    -0.203 C  
ENDBRANCH  20  24
ENDBRANCH  11  12
ENDBRANCH   7  11
ENDBRANCH   2   3
TORSDOF 6
ENDMDL
MODEL       78
REMARK 921   NORMALIZED FREE ENERGY PREDICTED BY IDOCK:   -5.11 KCAL/MOL
REMARK 922        TOTAL FREE ENERGY PREDICTED BY IDOCK:   -7.70 KCAL/MOL
REMARK 923 INTER-LIGAND FREE ENERGY PREDICTED BY IDOCK:   -6.73 KCAL/MOL
REMARK 924 INTRA-LIGAND FREE ENERGY PREDICTED BY IDOCK:   -0.97 KCAL/MOL
REMARK 927      BINDING AFFINITY PREDICTED BY RF-SCORE:    0.00 PKD
ROOT
HETATM    1  C   UNL     1     -12.390  14.506  71.221  1.00  0.00    -0.351 C  
HETATM    2  O   UNL     1     -12.121  13.525  70.220  1.00  0.00    -0.335 OA 
ENDROOT
BRANCH   2   3
HETATM    3  C   UNL     1     -12.254  12.217  70.613  1.00  0.00    -0.300 A  
HETATM    4  C   UNL     1     -11.576  11.251  69.850  1.00  0.00    -0.334 A  
HETATM    5  C   UNL     1     -13.084  11.805  71.658  1.00  0.00    -0.443 A  
HETATM    6  C   UNL     1     -11.729   9.894  70.168  1.00  0.00    -0.239 A  
HETATM    7  C   UNL     1     -12.614   9.476  71.179  1.00  0.00    -0.383 A  
HETATM    8  C   UNL     1     -13.265  10.451  71.941  1.00  0.00    -0.535 A  
BRANCH   4   9
HETATM    9  O   UNL     1     -10.804  11.720  68.814  1.00  0.00    -0.211 OA 
HETATM   10  C   UNL     1      -9.535  11.103  68.614  1.00  0.00    -0.193 C  
ENDBRANCH   4   9
BRANCH   7  11
HETATM   11  C   UNL     1     -12.871   8.012  71.456  1.00  0.00    -0.331 C  
BRANCH  11  12
HETATM   12  C   UNL     1     -11.663   7.260  71.982  1.00  0.00    -0.292 A  
HETATM   13  N   UNL     1     -11.357   7.530  73.283  1.00  0.00    -0.228 NA 
HETATM   14  C   UNL     1     -10.225   7.004  73.783  1.00  0.00    -0.363 A  
HETATM   15  C   UNL     1      -9.371   6.205  73.053  1.00  0.00    -0.139 A  
HETATM   16  C   UNL     1      -9.681   5.931  71.717  1.00  0.00    -0.178 A  
HETATM   17  C   UNL     1      -8.810   5.155  70.938  1.00  0.00    -0.154 A  
HETATM   18  C   UNL     1      -9.038   4.915  69.571  1.00  0.00    -0.104 A  
HETATM   19  C   UNL     1     -10.850   6.453  71.145  1.00  0.00    -0.308 A  
HETATM   20  C   UNL     1     -10.210   5.400  68.989  1.00  0.00    -0.221 A  
HETATM   21  C   UNL     1     -11.097   6.155  69.782  1.00  0.00    -0.486 A  
BRANCH  18  22
HETATM   22  O   UNL     1      -8.128   4.205  68.825  1.00  0.00    -0.071 OA 
HETATM   23  C   UNL     1      -7.932   2.843  69.216  1.00  0.00    -0.045 C  
ENDBRANCH  18  22
BRANCH  20  24
HETATM   24  O   UNL     1     -10.654   5.321  67.698  1.00  0.00    -0.156 OA 
HETATM   25  C   UNL     1     -11.084   6.462  66.978  1.00  0.00    -0.329 C  
ENDBRANCH  20  24
ENDBRANCH  11  12
ENDBRANCH   7  11
ENDBRANCH   2   3
TORSDOF 6
ENDMDL
MODEL       79
REMARK 921   NORMALIZED FREE ENERGY PREDICTED BY IDOCK:   -5.10 KCAL/MOL
REMARK 922        TOTAL FREE ENERGY PREDICTED BY IDOCK:   -7.69 KCAL/MOL
REMARK 923 INTER-LIGAND FREE ENERGY PREDICTED BY IDOCK:   -6.68 KCAL/MOL
REMARK 924 INTRA-LIGAND FREE ENERGY PREDICTED BY IDOCK:   -1.01 KCAL/MOL
REMARK 927      BINDING AFFINITY PREDICTED BY RF-SCORE:    0.00 PKD
ROOT
HETATM    1  C   UNL     1      -8.201   6.533  68.161  1.00  0.00    -0.117 C  
HETATM    2  O   UNL     1      -7.788   7.795  67.639  1.00  0.00    -0.118 OA 
ENDROOT
BRANCH   2   3
HETATM    3  C   UNL     1      -8.740   8.783  67.635  1.00  0.00    -0.135 A  
HETATM    4  C   UNL     1      -8.279  10.111  67.658  1.00  0.00    -0.110 A  
HETATM    5  C   UNL     1     -10.112   8.533  67.694  1.00  0.00    -0.271 A  
HETATM    6  C   UNL     1      -9.210  11.158  67.718  1.00  0.00    -0.153 A  
HETATM    7  C   UNL     1     -10.588  10.904  67.844  1.00  0.00    -0.246 A  
HETATM    8  C   UNL     1     -11.030   9.579  67.799  1.00  0.00    -0.165 A  
BRANCH   4   9
HETATM    9  O   UNL     1      -6.916  10.287  67.633  1.00  0.00    -0.082 OA 
HETATM   10  C   UNL     1      -6.414  11.376  66.863  1.00  0.00    -0.138 C  
ENDBRANCH   4   9
BRANCH   7  11
HETATM   11  C   UNL     1     -11.590  12.023  68.022  1.00  0.00    -0.407 C  
BRANCH  11  12
HETATM   12  C   UNL     1     -11.716  12.938  66.818  1.00  0.00    -0.383 A  
HETATM   13  N   UNL     1     -12.350  12.375  65.750  1.00  0.00    -0.603 NA 
HETATM   14  C   UNL     1     -12.386  13.075  64.603  1.00  0.00    -0.422 A  
HETATM   15  C   UNL     1     -11.828  14.327  64.458  1.00  0.00    -0.456 A  
HETATM   16  C   UNL     1     -11.174  14.904  65.551  1.00  0.00    -0.348 A  
HETATM   17  C   UNL     1     -10.560  16.158  65.422  1.00  0.00    -0.399 A  
HETATM   18  C   UNL     1      -9.826  16.746  66.467  1.00  0.00    -0.290 A  
HETATM   19  C   UNL     1     -11.107  14.218  66.773  1.00  0.00    -0.316 A  
HETATM   20  C   UNL     1      -9.772  16.095  67.700  1.00  0.00    -0.233 A  
HETATM   21  C   UNL     1     -10.414  14.848  67.836  1.00  0.00    -0.250 A  
BRANCH  18  22
HETATM   22  O   UNL     1      -9.184  17.947  66.281  1.00  0.00    -0.395 OA 
HETATM   23  C   UNL     1      -7.774  17.869  66.057  1.00  0.00    -0.181 C  
ENDBRANCH  18  22
BRANCH  20  24
HETATM   24  O   UNL     1      -9.122  16.439  68.853  1.00  0.00    -0.239 OA 
HETATM   25  C   UNL     1      -7.849  15.916  69.185  1.00  0.00    -0.227 C  
ENDBRANCH  20  24
ENDBRANCH  11  12
ENDBRANCH   7  11
ENDBRANCH   2   3
TORSDOF 6
ENDMDL
MODEL       80
REMARK 921   NORMALIZED FREE ENERGY PREDICTED BY IDOCK:   -5.09 KCAL/MOL
REMARK 922        TOTAL FREE ENERGY PREDICTED BY IDOCK:   -7.68 KCAL/MOL
REMARK 923 INTER-LIGAND FREE ENERGY PREDICTED BY IDOCK:   -7.06 KCAL/MOL
REMARK 924 INTRA-LIGAND FREE ENERGY PREDICTED BY IDOCK:   -0.62 KCAL/MOL
REMARK 927      BINDING AFFINITY PREDICTED BY RF-SCORE:    0.00 PKD
ROOT
HETATM    1  C   UNL     1      -7.037   5.684  70.759  1.00  0.00    -0.069 C  
HETATM    2  O   UNL     1      -8.029   5.709  71.784  1.00  0.00    -0.110 OA 
ENDROOT
BRANCH   2   3
HETATM    3  C   UNL     1      -8.903   6.766  71.747  1.00  0.00    -0.128 A  
HETATM    4  C   UNL     1     -10.274   6.459  71.786  1.00  0.00    -0.197 A  
HETATM    5  C   UNL     1      -8.503   8.094  71.588  1.00  0.00    -0.173 A  
HETATM    6  C   UNL     1     -11.212   7.497  71.687  1.00  0.00    -0.275 A  
HETATM    7  C   UNL     1     -10.809   8.826  71.462  1.00  0.00    -0.374 A  
HETATM    8  C   UNL     1      -9.442   9.116  71.446  1.00  0.00    -0.279 A  
BRANCH   4   9
HETATM    9  O   UNL     1     -10.602   5.130  71.908  1.00  0.00    -0.220 OA 
HETATM   10  C   UNL     1     -11.307   4.737  73.082  1.00  0.00    -0.295 C  
ENDBRANCH   4   9
BRANCH   7  11
HETATM   11  C   UNL     1     -11.814   9.935  71.243  1.00  0.00    -0.479 C  
BRANCH  11  12
HETATM   12  C   UNL     1     -11.725  10.590  69.877  1.00  0.00    -0.294 A  
HETATM   13  N   UNL     1     -11.342   9.748  68.875  1.00  0.00    -0.024 NA 
HETATM   14  C   UNL     1     -11.115  10.280  67.662  1.00  0.00    -0.251 A  
HETATM   15  C   UNL     1     -11.257  11.623  67.382  1.00  0.00    -0.358 A  
HETATM   16  C   UNL     1     -11.644  12.488  68.410  1.00  0.00    -0.368 A  
HETATM   17  C   UNL     1     -11.757  13.865  68.165  1.00  0.00    -0.388 A  
HETATM   18  C   UNL     1     -12.068  14.785  69.180  1.00  0.00    -0.243 A  
HETATM   19  C   UNL     1     -11.896  11.987  69.695  1.00  0.00    -0.401 A  
HETATM   20  C   UNL     1     -12.352  14.304  70.460  1.00  0.00    -0.360 A  
HETATM   21  C   UNL     1     -12.266  12.918  70.696  1.00  0.00    -0.386 A  
BRANCH  18  22
HETATM   22  O   UNL     1     -12.105  16.133  68.916  1.00  0.00    -0.219 OA 
HETATM   23  C   UNL     1     -10.881  16.710  68.456  1.00  0.00    -0.356 C  
ENDBRANCH  18  22
BRANCH  20  24
HETATM   24  O   UNL     1     -12.659  14.978  71.609  1.00  0.00    -0.303 OA 
HETATM   25  C   UNL     1     -13.964  14.970  72.161  1.00  0.00    -0.507 C  
ENDBRANCH  20  24
ENDBRANCH  11  12
ENDBRANCH   7  11
ENDBRANCH   2   3
TORSDOF 6
ENDMDL
MODEL       81
REMARK 921   NORMALIZED FREE ENERGY PREDICTED BY IDOCK:   -5.08 KCAL/MOL
REMARK 922        TOTAL FREE ENERGY PREDICTED BY IDOCK:   -7.67 KCAL/MOL
REMARK 923 INTER-LIGAND FREE ENERGY PREDICTED BY IDOCK:   -6.77 KCAL/MOL
REMARK 924 INTRA-LIGAND FREE ENERGY PREDICTED BY IDOCK:   -0.90 KCAL/MOL
REMARK 927      BINDING AFFINITY PREDICTED BY RF-SCORE:    0.00 PKD
ROOT
HETATM    1  C   UNL     1     -11.597  15.237  68.577  1.00  0.00    -0.352 C  
HETATM    2  O   UNL     1     -11.678  14.356  67.457  1.00  0.00    -0.353 OA 
ENDROOT
BRANCH   2   3
HETATM    3  C   UNL     1     -10.820  13.285  67.474  1.00  0.00    -0.263 A  
HETATM    4  C   UNL     1     -11.189  12.161  66.715  1.00  0.00    -0.322 A  
HETATM    5  C   UNL     1      -9.667  13.232  68.261  1.00  0.00    -0.225 A  
HETATM    6  C   UNL     1     -10.380  11.016  66.748  1.00  0.00    -0.284 A  
HETATM    7  C   UNL     1      -9.256  10.940  67.590  1.00  0.00    -0.155 A  
HETATM    8  C   UNL     1      -8.891  12.073  68.322  1.00  0.00    -0.182 A  
BRANCH   4   9
HETATM    9  O   UNL     1     -12.353  12.266  65.991  1.00  0.00    -0.609 OA 
HETATM   10  C   UNL     1     -12.230  12.489  64.589  1.00  0.00    -0.453 C  
ENDBRANCH   4   9
BRANCH   7  11
HETATM   11  C   UNL     1      -8.441   9.672  67.716  1.00  0.00    -0.125 C  
BRANCH  11  12
HETATM   12  C   UNL     1      -9.270   8.401  67.720  1.00  0.00    -0.131 A  
HETATM   13  N   UNL     1      -9.510   7.884  66.481  1.00  0.00    -0.208 NA 
HETATM   14  C   UNL     1     -10.344   6.834  66.391  1.00  0.00     0.084 A  
HETATM   15  C   UNL     1     -10.957   6.254  67.481  1.00  0.00    -0.444 A  
HETATM   16  C   UNL     1     -10.716   6.786  68.752  1.00  0.00    -0.280 A  
HETATM   17  C   UNL     1     -11.358   6.243  69.875  1.00  0.00    -0.504 A  
HETATM   18  C   UNL     1     -11.209   6.789  71.161  1.00  0.00    -0.283 A  
HETATM   19  C   UNL     1      -9.853   7.880  68.904  1.00  0.00    -0.174 A  
HETATM   20  C   UNL     1     -10.331   7.860  71.340  1.00  0.00    -0.198 A  
HETATM   21  C   UNL     1      -9.666   8.385  70.215  1.00  0.00    -0.178 A  
BRANCH  18  22
HETATM   22  O   UNL     1     -11.905   6.270  72.227  1.00  0.00    -0.311 OA 
HETATM   23  C   UNL     1     -11.246   5.228  72.951  1.00  0.00    -0.312 C  
ENDBRANCH  18  22
BRANCH  20  24
HETATM   24  O   UNL     1     -10.025   8.573  72.467  1.00  0.00    -0.293 OA 
HETATM   25  C   UNL     1      -8.871   8.299  73.240  1.00  0.00    -0.213 C  
ENDBRANCH  20  24
ENDBRANCH  11  12
ENDBRANCH   7  11
ENDBRANCH   2   3
TORSDOF 6
ENDMDL
MODEL       82
REMARK 921   NORMALIZED FREE ENERGY PREDICTED BY IDOCK:   -5.07 KCAL/MOL
REMARK 922        TOTAL FREE ENERGY PREDICTED BY IDOCK:   -7.66 KCAL/MOL
REMARK 923 INTER-LIGAND FREE ENERGY PREDICTED BY IDOCK:   -6.73 KCAL/MOL
REMARK 924 INTRA-LIGAND FREE ENERGY PREDICTED BY IDOCK:   -0.92 KCAL/MOL
REMARK 927      BINDING AFFINITY PREDICTED BY RF-SCORE:    0.00 PKD
ROOT
HETATM    1  C   UNL     1     -12.083  12.750  63.392  1.00  0.00    -0.534 C  
HETATM    2  O   UNL     1     -11.495  13.516  64.442  1.00  0.00    -0.368 OA 
ENDROOT
BRANCH   2   3
HETATM    3  C   UNL     1     -10.859  12.799  65.424  1.00  0.00    -0.286 A  
HETATM    4  C   UNL     1     -10.274  13.532  66.471  1.00  0.00    -0.283 A  
HETATM    5  C   UNL     1     -10.696  11.412  65.385  1.00  0.00    -0.313 A  
HETATM    6  C   UNL     1      -9.558  12.853  67.467  1.00  0.00    -0.200 A  
HETATM    7  C   UNL     1      -9.339  11.465  67.391  1.00  0.00    -0.171 A  
HETATM    8  C   UNL     1      -9.945  10.748  66.355  1.00  0.00    -0.264 A  
BRANCH   4   9
HETATM    9  O   UNL     1     -10.442  14.895  66.432  1.00  0.00    -0.284 OA 
HETATM   10  C   UNL     1      -9.286  15.687  66.170  1.00  0.00    -0.343 C  
ENDBRANCH   4   9
BRANCH   7  11
HETATM   11  C   UNL     1      -8.475  10.740  68.399  1.00  0.00    -0.137 C  
BRANCH  11  12
HETATM   12  C   UNL     1      -9.071   9.439  68.903  1.00  0.00    -0.140 A  
HETATM   13  N   UNL     1      -8.504   8.319  68.372  1.00  0.00    -0.128 NA 
HETATM   14  C   UNL     1      -9.062   7.132  68.669  1.00  0.00    -0.133 A  
HETATM   15  C   UNL     1     -10.165   6.994  69.486  1.00  0.00    -0.208 A  
HETATM   16  C   UNL     1     -10.750   8.143  70.028  1.00  0.00    -0.243 A  
HETATM   17  C   UNL     1     -11.897   8.037  70.828  1.00  0.00    -0.171 A  
HETATM   18  C   UNL     1     -12.567   9.164  71.333  1.00  0.00    -0.323 A  
HETATM   19  C   UNL     1     -10.208   9.406  69.752  1.00  0.00    -0.238 A  
HETATM   20  C   UNL     1     -12.027  10.430  71.095  1.00  0.00    -0.362 A  
HETATM   21  C   UNL     1     -10.859  10.531  70.315  1.00  0.00    -0.241 A  
BRANCH  18  22
HETATM   22  O   UNL     1     -13.725   9.023  72.059  1.00  0.00    -0.407 OA 
HETATM   23  C   UNL     1     -14.322   7.724  72.032  1.00  0.00    -0.352 C  
ENDBRANCH  18  22
BRANCH  20  24
HETATM   24  O   UNL     1     -12.486  11.667  71.454  1.00  0.00    -0.304 OA 
HETATM   25  C   UNL     1     -12.329  12.800  70.618  1.00  0.00    -0.297 C  
ENDBRANCH  20  24
ENDBRANCH  11  12
ENDBRANCH   7  11
ENDBRANCH   2   3
TORSDOF 6
ENDMDL
MODEL       83
REMARK 921   NORMALIZED FREE ENERGY PREDICTED BY IDOCK:   -5.07 KCAL/MOL
REMARK 922        TOTAL FREE ENERGY PREDICTED BY IDOCK:   -7.65 KCAL/MOL
REMARK 923 INTER-LIGAND FREE ENERGY PREDICTED BY IDOCK:   -6.77 KCAL/MOL
REMARK 924 INTRA-LIGAND FREE ENERGY PREDICTED BY IDOCK:   -0.88 KCAL/MOL
REMARK 927      BINDING AFFINITY PREDICTED BY RF-SCORE:    0.00 PKD
ROOT
HETATM    1  C   UNL     1      -9.984   4.675  65.935  1.00  0.00    -0.239 C  
HETATM    2  O   UNL     1      -9.203   5.569  66.727  1.00  0.00    -0.124 OA 
ENDROOT
BRANCH   2   3
HETATM    3  C   UNL     1      -9.068   6.843  66.236  1.00  0.00    -0.141 A  
HETATM    4  C   UNL     1      -9.916   7.826  66.775  1.00  0.00    -0.261 A  
HETATM    5  C   UNL     1      -8.207   7.181  65.190  1.00  0.00    -0.114 A  
HETATM    6  C   UNL     1      -9.864   9.131  66.265  1.00  0.00    -0.359 A  
HETATM    7  C   UNL     1      -9.044   9.454  65.168  1.00  0.00    -0.280 A  
HETATM    8  C   UNL     1      -8.192   8.470  64.658  1.00  0.00    -0.162 A  
BRANCH   4   9
HETATM    9  O   UNL     1     -10.764   7.421  67.778  1.00  0.00    -0.223 OA 
HETATM   10  C   UNL     1     -10.476   7.872  69.099  1.00  0.00    -0.209 C  
ENDBRANCH   4   9
BRANCH   7  11
HETATM   11  C   UNL     1      -9.062  10.830  64.539  1.00  0.00    -0.220 C  
BRANCH  11  12
HETATM   12  C   UNL     1     -10.392  11.549  64.663  1.00  0.00    -0.297 A  
HETATM   13  N   UNL     1     -11.258  11.308  63.638  1.00  0.00    -0.278 NA 
HETATM   14  C   UNL     1     -12.405  12.010  63.609  1.00  0.00    -0.539 A  
HETATM   15  C   UNL     1     -12.749  12.945  64.561  1.00  0.00    -0.359 A  
HETATM   16  C   UNL     1     -11.859  13.197  65.611  1.00  0.00    -0.430 A  
HETATM   17  C   UNL     1     -12.163  14.172  66.572  1.00  0.00    -0.463 A  
HETATM   18  C   UNL     1     -11.270  14.516  67.601  1.00  0.00    -0.322 A  
HETATM   19  C   UNL     1     -10.649  12.493  65.692  1.00  0.00    -0.298 A  
HETATM   20  C   UNL     1     -10.073  13.807  67.717  1.00  0.00    -0.245 A  
HETATM   21  C   UNL     1      -9.783  12.808  66.768  1.00  0.00    -0.243 A  
BRANCH  18  22
HETATM   22  O   UNL     1     -11.575  15.523  68.486  1.00  0.00    -0.348 OA 
HETATM   23  C   UNL     1     -12.123  15.104  69.738  1.00  0.00    -0.319 C  
ENDBRANCH  18  22
BRANCH  20  24
HETATM   24  O   UNL     1      -9.041  13.954  68.604  1.00  0.00    -0.172 OA 
HETATM   25  C   UNL     1      -7.824  14.582  68.245  1.00  0.00    -0.131 C  
ENDBRANCH  20  24
ENDBRANCH  11  12
ENDBRANCH   7  11
ENDBRANCH   2   3
TORSDOF 6
ENDMDL
MODEL       84
REMARK 921   NORMALIZED FREE ENERGY PREDICTED BY IDOCK:   -5.06 KCAL/MOL
REMARK 922        TOTAL FREE ENERGY PREDICTED BY IDOCK:   -7.64 KCAL/MOL
REMARK 923 INTER-LIGAND FREE ENERGY PREDICTED BY IDOCK:   -7.23 KCAL/MOL
REMARK 924 INTRA-LIGAND FREE ENERGY PREDICTED BY IDOCK:   -0.42 KCAL/MOL
REMARK 927      BINDING AFFINITY PREDICTED BY RF-SCORE:    0.00 PKD
ROOT
HETATM    1  C   UNL     1     -10.341  19.317  65.976  1.00  0.00    -0.475 C  
HETATM    2  O   UNL     1      -9.445  18.208  65.931  1.00  0.00    -0.518 OA 
ENDROOT
BRANCH   2   3
HETATM    3  C   UNL     1     -10.017  16.985  65.685  1.00  0.00    -0.053 A  
HETATM    4  C   UNL     1      -9.237  15.850  65.967  1.00  0.00    -0.337 A  
HETATM    5  C   UNL     1     -11.275  16.824  65.102  1.00  0.00     0.076 A  
HETATM    6  C   UNL     1      -9.749  14.577  65.675  1.00  0.00    -0.282 A  
HETATM    7  C   UNL     1     -10.988  14.420  65.028  1.00  0.00    -0.398 A  
HETATM    8  C   UNL     1     -11.759  15.558  64.774  1.00  0.00    -0.187 A  
BRANCH   4   9
HETATM    9  O   UNL     1      -7.995  16.078  66.508  1.00  0.00    -0.266 OA 
HETATM   10  C   UNL     1      -7.461  15.071  67.364  1.00  0.00    -0.205 C  
ENDBRANCH   4   9
BRANCH   7  11
HETATM   11  C   UNL     1     -11.499  13.059  64.608  1.00  0.00    -0.374 C  
BRANCH  11  12
HETATM   12  C   UNL     1     -10.882  11.903  65.372  1.00  0.00    -0.294 A  
HETATM   13  N   UNL     1     -10.270  10.973  64.585  1.00  0.00    -0.307 NA 
HETATM   14  C   UNL     1      -9.813   9.855  65.176  1.00  0.00    -0.278 A  
HETATM   15  C   UNL     1      -9.922   9.610  66.528  1.00  0.00    -0.313 A  
HETATM   16  C   UNL     1     -10.554  10.561  67.336  1.00  0.00    -0.313 A  
HETATM   17  C   UNL     1     -10.717  10.321  68.709  1.00  0.00    -0.247 A  
HETATM   18  C   UNL     1     -11.411  11.209  69.549  1.00  0.00    -0.290 A  
HETATM   19  C   UNL     1     -11.048  11.747  66.773  1.00  0.00    -0.360 A  
HETATM   20  C   UNL     1     -11.885  12.408  69.014  1.00  0.00    -0.300 A  
HETATM   21  C   UNL     1     -11.695  12.660  67.642  1.00  0.00    -0.420 A  
BRANCH  18  22
HETATM   22  O   UNL     1     -11.607  10.908  70.875  1.00  0.00    -0.271 OA 
HETATM   23  C   UNL     1     -12.830  10.235  71.185  1.00  0.00    -0.408 C  
ENDBRANCH  18  22
BRANCH  20  24
HETATM   24  O   UNL     1     -12.595  13.418  69.603  1.00  0.00    -0.102 OA 
HETATM   25  C   UNL     1     -12.107  14.746  69.665  1.00  0.00    -0.304 C  
ENDBRANCH  20  24
ENDBRANCH  11  12
ENDBRANCH   7  11
ENDBRANCH   2   3
TORSDOF 6
ENDMDL
MODEL       85
REMARK 921   NORMALIZED FREE ENERGY PREDICTED BY IDOCK:   -5.05 KCAL/MOL
REMARK 922        TOTAL FREE ENERGY PREDICTED BY IDOCK:   -7.63 KCAL/MOL
REMARK 923 INTER-LIGAND FREE ENERGY PREDICTED BY IDOCK:   -6.70 KCAL/MOL
REMARK 924 INTRA-LIGAND FREE ENERGY PREDICTED BY IDOCK:   -0.93 KCAL/MOL
REMARK 927      BINDING AFFINITY PREDICTED BY RF-SCORE:    0.00 PKD
ROOT
HETATM    1  C   UNL     1     -10.206   6.903  73.815  1.00  0.00    -0.363 C  
HETATM    2  O   UNL     1     -11.000   7.921  73.208  1.00  0.00    -0.334 OA 
ENDROOT
BRANCH   2   3
HETATM    3  C   UNL     1     -10.474   8.498  72.080  1.00  0.00    -0.336 A  
HETATM    4  C   UNL     1     -11.253   9.482  71.445  1.00  0.00    -0.382 A  
HETATM    5  C   UNL     1      -9.267   8.102  71.499  1.00  0.00    -0.209 A  
HETATM    6  C   UNL     1     -10.792  10.059  70.254  1.00  0.00    -0.370 A  
HETATM    7  C   UNL     1      -9.609   9.613  69.636  1.00  0.00    -0.225 A  
HETATM    8  C   UNL     1      -8.836   8.649  70.291  1.00  0.00    -0.158 A  
BRANCH   4   9
HETATM    9  O   UNL     1     -12.446   9.801  72.049  1.00  0.00    -0.367 OA 
HETATM   10  C   UNL     1     -13.121  10.967  71.582  1.00  0.00    -0.438 C  
ENDBRANCH   4   9
BRANCH   7  11
HETATM   11  C   UNL     1      -9.160  10.150  68.296  1.00  0.00    -0.122 C  
BRANCH  11  12
HETATM   12  C   UNL     1      -8.435  11.480  68.373  1.00  0.00    -0.159 A  
HETATM   13  N   UNL     1      -7.173  11.402  68.885  1.00  0.00    -0.107 NA 
HETATM   14  C   UNL     1      -6.515  12.553  69.107  1.00  0.00    -0.099 A  
HETATM   15  C   UNL     1      -7.045  13.797  68.835  1.00  0.00    -0.107 A  
HETATM   16  C   UNL     1      -8.341  13.878  68.315  1.00  0.00    -0.163 A  
HETATM   17  C   UNL     1      -8.921  15.131  68.068  1.00  0.00    -0.172 A  
HETATM   18  C   UNL     1     -10.246  15.268  67.617  1.00  0.00    -0.242 A  
HETATM   19  C   UNL     1      -9.072  12.709  68.062  1.00  0.00    -0.207 A  
HETATM   20  C   UNL     1     -10.982  14.117  67.332  1.00  0.00    -0.299 A  
HETATM   21  C   UNL     1     -10.386  12.860  67.553  1.00  0.00    -0.223 A  
BRANCH  18  22
HETATM   22  O   UNL     1     -10.802  16.514  67.449  1.00  0.00    -0.294 OA 
HETATM   23  C   UNL     1     -10.531  17.461  68.485  1.00  0.00    -0.370 C  
ENDBRANCH  18  22
BRANCH  20  24
HETATM   24  O   UNL     1     -12.274  13.978  66.905  1.00  0.00    -0.436 OA 
HETATM   25  C   UNL     1     -12.630  14.075  65.538  1.00  0.00    -0.516 C  
ENDBRANCH  20  24
ENDBRANCH  11  12
ENDBRANCH   7  11
ENDBRANCH   2   3
TORSDOF 6
ENDMDL
MODEL       86
REMARK 921   NORMALIZED FREE ENERGY PREDICTED BY IDOCK:   -5.05 KCAL/MOL
REMARK 922        TOTAL FREE ENERGY PREDICTED BY IDOCK:   -7.63 KCAL/MOL
REMARK 923 INTER-LIGAND FREE ENERGY PREDICTED BY IDOCK:   -6.96 KCAL/MOL
REMARK 924 INTRA-LIGAND FREE ENERGY PREDICTED BY IDOCK:   -0.66 KCAL/MOL
REMARK 927      BINDING AFFINITY PREDICTED BY RF-SCORE:    0.00 PKD
ROOT
HETATM    1  C   UNL     1      -5.398  16.459  69.574  1.00  0.00    -0.133 C  
HETATM    2  O   UNL     1      -6.177  16.891  68.459  1.00  0.00    -0.140 OA 
ENDROOT
BRANCH   2   3
HETATM    3  C   UNL     1      -7.423  16.329  68.345  1.00  0.00    -0.163 A  
HETATM    4  C   UNL     1      -8.094  16.509  67.123  1.00  0.00    -0.183 A  
HETATM    5  C   UNL     1      -8.075  15.675  69.393  1.00  0.00    -0.227 A  
HETATM    6  C   UNL     1      -9.395  16.009  66.975  1.00  0.00    -0.233 A  
HETATM    7  C   UNL     1     -10.074  15.409  68.051  1.00  0.00    -0.226 A  
HETATM    8  C   UNL     1      -9.386  15.219  69.253  1.00  0.00    -0.239 A  
BRANCH   4   9
HETATM    9  O   UNL     1      -7.411  17.191  66.144  1.00  0.00    -0.296 OA 
HETATM   10  C   UNL     1      -7.556  18.609  66.115  1.00  0.00    -0.246 C  
ENDBRANCH   4   9
BRANCH   7  11
HETATM   11  C   UNL     1     -11.516  14.967  67.935  1.00  0.00    -0.357 C  
BRANCH  11  12
HETATM   12  C   UNL     1     -12.099  14.412  69.221  1.00  0.00    -0.299 A  
HETATM   13  N   UNL     1     -12.596  15.360  70.066  1.00  0.00    -0.298 NA 
HETATM   14  C   UNL     1     -13.010  14.960  71.281  1.00  0.00    -0.363 A  
HETATM   15  C   UNL     1     -12.967  13.649  71.706  1.00  0.00    -0.441 A  
HETATM   16  C   UNL     1     -12.453  12.677  70.842  1.00  0.00    -0.368 A  
HETATM   17  C   UNL     1     -12.359  11.342  71.262  1.00  0.00    -0.375 A  
HETATM   18  C   UNL     1     -11.780  10.342  70.461  1.00  0.00    -0.344 A  
HETATM   19  C   UNL     1     -12.008  13.038  69.562  1.00  0.00    -0.350 A  
HETATM   20  C   UNL     1     -11.358  10.674  69.172  1.00  0.00    -0.273 A  
HETATM   21  C   UNL     1     -11.481  12.009  68.742  1.00  0.00    -0.355 A  
BRANCH  18  22
HETATM   22  O   UNL     1     -11.646   9.058  70.932  1.00  0.00    -0.279 OA 
HETATM   23  C   UNL     1     -10.416   8.769  71.602  1.00  0.00    -0.317 C  
ENDBRANCH  18  22
BRANCH  20  24
HETATM   24  O   UNL     1     -10.756   9.905  68.214  1.00  0.00    -0.217 OA 
HETATM   25  C   UNL     1     -10.521  10.383  66.903  1.00  0.00    -0.240 C  
ENDBRANCH  20  24
ENDBRANCH  11  12
ENDBRANCH   7  11
ENDBRANCH   2   3
TORSDOF 6
ENDMDL
MODEL       87
REMARK 921   NORMALIZED FREE ENERGY PREDICTED BY IDOCK:   -5.05 KCAL/MOL
REMARK 922        TOTAL FREE ENERGY PREDICTED BY IDOCK:   -7.62 KCAL/MOL
REMARK 923 INTER-LIGAND FREE ENERGY PREDICTED BY IDOCK:   -7.07 KCAL/MOL
REMARK 924 INTRA-LIGAND FREE ENERGY PREDICTED BY IDOCK:   -0.55 KCAL/MOL
REMARK 927      BINDING AFFINITY PREDICTED BY RF-SCORE:    0.00 PKD
ROOT
HETATM    1  C   UNL     1     -13.099  11.060  71.940  1.00  0.00    -0.419 C  
HETATM    2  O   UNL     1     -12.502  10.812  70.668  1.00  0.00    -0.317 OA 
ENDROOT
BRANCH   2   3
HETATM    3  C   UNL     1     -12.102  11.921  69.967  1.00  0.00    -0.291 A  
HETATM    4  C   UNL     1     -11.461  11.699  68.735  1.00  0.00    -0.285 A  
HETATM    5  C   UNL     1     -12.223  13.226  70.451  1.00  0.00    -0.404 A  
HETATM    6  C   UNL     1     -10.976  12.796  68.008  1.00  0.00    -0.266 A  
HETATM    7  C   UNL     1     -11.040  14.102  68.526  1.00  0.00    -0.276 A  
HETATM    8  C   UNL     1     -11.698  14.307  69.742  1.00  0.00    -0.367 A  
BRANCH   4   9
HETATM    9  O   UNL     1     -11.343  10.391  68.333  1.00  0.00    -0.276 OA 
HETATM   10  C   UNL     1     -10.643  10.143  67.117  1.00  0.00    -0.246 C  
ENDBRANCH   4   9
BRANCH   7  11
HETATM   11  C   UNL     1     -10.421  15.277  67.802  1.00  0.00    -0.253 C  
BRANCH  11  12
HETATM   12  C   UNL     1      -9.027  15.636  68.282  1.00  0.00    -0.181 A  
HETATM   13  N   UNL     1      -8.357  14.608  68.877  1.00  0.00    -0.161 NA 
HETATM   14  C   UNL     1      -7.169  14.880  69.445  1.00  0.00    -0.182 A  
HETATM   15  C   UNL     1      -6.596  16.134  69.447  1.00  0.00    -0.197 A  
HETATM   16  C   UNL     1      -7.285  17.190  68.841  1.00  0.00    -0.242 A  
HETATM   17  C   UNL     1      -6.747  18.485  68.864  1.00  0.00    -0.284 A  
HETATM   18  C   UNL     1      -7.434  19.593  68.338  1.00  0.00    -0.324 A  
HETATM   19  C   UNL     1      -8.528  16.963  68.232  1.00  0.00    -0.229 A  
HETATM   20  C   UNL     1      -8.659  19.384  67.701  1.00  0.00    -0.305 A  
HETATM   21  C   UNL     1      -9.183  18.078  67.654  1.00  0.00    -0.259 A  
BRANCH  18  22
HETATM   22  O   UNL     1      -6.904  20.857  68.437  1.00  0.00    -0.158 OA 
HETATM   23  C   UNL     1      -6.199  21.327  67.285  1.00  0.00    -0.351 C  
ENDBRANCH  18  22
BRANCH  20  24
HETATM   24  O   UNL     1      -9.522  20.279  67.131  1.00  0.00    -0.376 OA 
HETATM   25  C   UNL     1     -10.642  19.865  66.371  1.00  0.00    -0.420 C  
ENDBRANCH  20  24
ENDBRANCH  11  12
ENDBRANCH   7  11
ENDBRANCH   2   3
TORSDOF 6
ENDMDL
MODEL       88
REMARK 921   NORMALIZED FREE ENERGY PREDICTED BY IDOCK:   -4.99 KCAL/MOL
REMARK 922        TOTAL FREE ENERGY PREDICTED BY IDOCK:   -7.55 KCAL/MOL
REMARK 923 INTER-LIGAND FREE ENERGY PREDICTED BY IDOCK:   -6.77 KCAL/MOL
REMARK 924 INTRA-LIGAND FREE ENERGY PREDICTED BY IDOCK:   -0.78 KCAL/MOL
REMARK 927      BINDING AFFINITY PREDICTED BY RF-SCORE:    0.00 PKD
ROOT
HETATM    1  C   UNL     1     -12.739  11.866  63.262  1.00  0.00    -0.271 C  
HETATM    2  O   UNL     1     -11.336  11.638  63.385  1.00  0.00    -0.395 OA 
ENDROOT
BRANCH   2   3
HETATM    3  C   UNL     1     -10.700  12.333  64.382  1.00  0.00    -0.331 A  
HETATM    4  C   UNL     1      -9.969  11.580  65.317  1.00  0.00    -0.260 A  
HETATM    5  C   UNL     1     -10.815  13.714  64.555  1.00  0.00    -0.416 A  
HETATM    6  C   UNL     1      -9.352  12.235  66.393  1.00  0.00    -0.219 A  
HETATM    7  C   UNL     1      -9.522  13.616  66.602  1.00  0.00    -0.285 A  
HETATM    8  C   UNL     1     -10.235  14.353  65.651  1.00  0.00    -0.371 A  
BRANCH   4   9
HETATM    9  O   UNL     1      -9.924  10.222  65.110  1.00  0.00    -0.299 OA 
HETATM   10  C   UNL     1      -9.963   9.385  66.263  1.00  0.00    -0.283 C  
ENDBRANCH   4   9
BRANCH   7  11
HETATM   11  C   UNL     1      -8.954  14.312  67.819  1.00  0.00    -0.188 C  
BRANCH  11  12
HETATM   12  C   UNL     1      -7.641  15.028  67.565  1.00  0.00    -0.192 A  
HETATM   13  N   UNL     1      -6.535  14.310  67.912  1.00  0.00    -0.152 NA 
HETATM   14  C   UNL     1      -5.341  14.924  67.840  1.00  0.00    -0.089 A  
HETATM   15  C   UNL     1      -5.182  16.230  67.426  1.00  0.00    -0.128 A  
HETATM   16  C   UNL     1      -6.316  16.969  67.074  1.00  0.00    -0.231 A  
HETATM   17  C   UNL     1      -6.188  18.312  66.689  1.00  0.00    -0.205 A  
HETATM   18  C   UNL     1      -7.303  19.118  66.400  1.00  0.00    -0.248 A  
HETATM   19  C   UNL     1      -7.586  16.377  67.130  1.00  0.00    -0.224 A  
HETATM   20  C   UNL     1      -8.574  18.541  66.420  1.00  0.00    -0.256 A  
HETATM   21  C   UNL     1      -8.696  17.185  66.779  1.00  0.00    -0.270 A  
BRANCH  18  22
HETATM   22  O   UNL     1      -7.143  20.447  66.089  1.00  0.00    -0.266 OA 
HETATM   23  C   UNL     1      -6.523  21.251  67.097  1.00  0.00    -0.341 C  
ENDBRANCH  18  22
BRANCH  20  24
HETATM   24  O   UNL     1      -9.802  19.102  66.198  1.00  0.00    -0.364 OA 
HETATM   25  C   UNL     1     -10.730  19.319  67.245  1.00  0.00    -0.488 C  
ENDBRANCH  20  24
ENDBRANCH  11  12
ENDBRANCH   7  11
ENDBRANCH   2   3
TORSDOF 6
ENDMDL
MODEL       89
REMARK 921   NORMALIZED FREE ENERGY PREDICTED BY IDOCK:   -4.99 KCAL/MOL
REMARK 922        TOTAL FREE ENERGY PREDICTED BY IDOCK:   -7.54 KCAL/MOL
REMARK 923 INTER-LIGAND FREE ENERGY PREDICTED BY IDOCK:   -6.69 KCAL/MOL
REMARK 924 INTRA-LIGAND FREE ENERGY PREDICTED BY IDOCK:   -0.86 KCAL/MOL
REMARK 927      BINDING AFFINITY PREDICTED BY RF-SCORE:    0.00 PKD
ROOT
HETATM    1  C   UNL     1      -8.291   7.641  66.396  1.00  0.00    -0.129 C  
HETATM    2  O   UNL     1      -7.787   8.918  66.786  1.00  0.00    -0.096 OA 
ENDROOT
BRANCH   2   3
HETATM    3  C   UNL     1      -8.730   9.878  67.053  1.00  0.00    -0.131 A  
HETATM    4  C   UNL     1      -9.176   9.979  68.382  1.00  0.00    -0.131 A  
HETATM    5  C   UNL     1      -9.314  10.681  66.072  1.00  0.00    -0.219 A  
HETATM    6  C   UNL     1     -10.184  10.901  68.698  1.00  0.00    -0.201 A  
HETATM    7  C   UNL     1     -10.817  11.662  67.699  1.00  0.00    -0.273 A  
HETATM    8  C   UNL     1     -10.347  11.564  66.386  1.00  0.00    -0.277 A  
BRANCH   4   9
HETATM    9  O   UNL     1      -8.585   9.137  69.293  1.00  0.00    -0.130 OA 
HETATM   10  C   UNL     1      -9.424   8.567  70.295  1.00  0.00    -0.166 C  
ENDBRANCH   4   9
BRANCH   7  11
HETATM   11  C   UNL     1     -11.981  12.577  68.013  1.00  0.00    -0.281 C  
BRANCH  11  12
HETATM   12  C   UNL     1     -11.648  13.688  68.991  1.00  0.00    -0.312 A  
HETATM   13  N   UNL     1     -12.045  13.444  70.273  1.00  0.00    -0.358 NA 
HETATM   14  C   UNL     1     -11.903  14.434  71.171  1.00  0.00    -0.251 A  
HETATM   15  C   UNL     1     -11.373  15.669  70.865  1.00  0.00    -0.417 A  
HETATM   16  C   UNL     1     -10.970  15.922  69.550  1.00  0.00    -0.311 A  
HETATM   17  C   UNL     1     -10.465  17.183  69.199  1.00  0.00    -0.296 A  
HETATM   18  C   UNL     1     -10.118  17.512  67.878  1.00  0.00    -0.330 A  
HETATM   19  C   UNL     1     -11.093  14.925  68.572  1.00  0.00    -0.275 A  
HETATM   20  C   UNL     1     -10.206  16.525  66.894  1.00  0.00    -0.296 A  
HETATM   21  C   UNL     1     -10.686  15.251  67.254  1.00  0.00    -0.311 A  
BRANCH  18  22
HETATM   22  O   UNL     1      -9.689  18.778  67.561  1.00  0.00    -0.295 OA 
HETATM   23  C   UNL     1     -10.706  19.693  67.144  1.00  0.00    -0.464 C  
ENDBRANCH  18  22
BRANCH  20  24
HETATM   24  O   UNL     1      -9.950  16.590  65.552  1.00  0.00    -0.541 OA 
HETATM   25  C   UNL     1     -10.928  16.261  64.582  1.00  0.00    -0.194 C  
ENDBRANCH  20  24
ENDBRANCH  11  12
ENDBRANCH   7  11
ENDBRANCH   2   3
TORSDOF 6
ENDMDL
MODEL       90
REMARK 921   NORMALIZED FREE ENERGY PREDICTED BY IDOCK:   -4.98 KCAL/MOL
REMARK 922        TOTAL FREE ENERGY PREDICTED BY IDOCK:   -7.53 KCAL/MOL
REMARK 923 INTER-LIGAND FREE ENERGY PREDICTED BY IDOCK:   -6.97 KCAL/MOL
REMARK 924 INTRA-LIGAND FREE ENERGY PREDICTED BY IDOCK:   -0.56 KCAL/MOL
REMARK 927      BINDING AFFINITY PREDICTED BY RF-SCORE:    0.00 PKD
ROOT
HETATM    1  C   UNL     1      -9.608  11.031  62.769  1.00  0.00    -0.306 C  
HETATM    2  O   UNL     1     -10.838  11.426  63.375  1.00  0.00    -0.385 OA 
ENDROOT
BRANCH   2   3
HETATM    3  C   UNL     1     -10.866  11.402  64.746  1.00  0.00    -0.273 A  
HETATM    4  C   UNL     1     -11.798  12.242  65.379  1.00  0.00    -0.360 A  
HETATM    5  C   UNL     1      -9.971  10.663  65.524  1.00  0.00    -0.333 A  
HETATM    6  C   UNL     1     -11.826  12.304  66.780  1.00  0.00    -0.349 A  
HETATM    7  C   UNL     1     -10.883  11.610  67.560  1.00  0.00    -0.287 A  
HETATM    8  C   UNL     1      -9.976  10.764  66.916  1.00  0.00    -0.240 A  
BRANCH   4   9
HETATM    9  O   UNL     1     -12.626  12.968  64.557  1.00  0.00    -0.598 OA 
HETATM   10  C   UNL     1     -13.124  14.206  65.060  1.00  0.00     0.079 C  
ENDBRANCH   4   9
BRANCH   7  11
HETATM   11  C   UNL     1     -10.832  11.757  69.065  1.00  0.00    -0.239 C  
BRANCH  11  12
HETATM   12  C   UNL     1     -11.289  13.113  69.570  1.00  0.00    -0.160 A  
HETATM   13  N   UNL     1     -12.384  13.069  70.382  1.00  0.00    -0.315 NA 
HETATM   14  C   UNL     1     -12.927  14.238  70.764  1.00  0.00    -0.304 A  
HETATM   15  C   UNL     1     -12.430  15.467  70.387  1.00  0.00    -0.443 A  
HETATM   16  C   UNL     1     -11.310  15.514  69.550  1.00  0.00    -0.317 A  
HETATM   17  C   UNL     1     -10.807  16.749  69.116  1.00  0.00    -0.287 A  
HETATM   18  C   UNL     1      -9.733  16.847  68.215  1.00  0.00    -0.256 A  
HETATM   19  C   UNL     1     -10.702  14.325  69.122  1.00  0.00    -0.239 A  
HETATM   20  C   UNL     1      -9.094  15.677  67.800  1.00  0.00    -0.181 A  
HETATM   21  C   UNL     1      -9.583  14.439  68.260  1.00  0.00    -0.211 A  
BRANCH  18  22
HETATM   22  O   UNL     1      -9.309  18.073  67.762  1.00  0.00    -0.257 OA 
HETATM   23  C   UNL     1      -8.210  18.652  68.470  1.00  0.00    -0.341 C  
ENDBRANCH  18  22
BRANCH  20  24
HETATM   24  O   UNL     1      -8.054  15.499  66.929  1.00  0.00    -0.223 OA 
HETATM   25  C   UNL     1      -6.711  15.411  67.368  1.00  0.00    -0.144 C  
ENDBRANCH  20  24
ENDBRANCH  11  12
ENDBRANCH   7  11
ENDBRANCH   2   3
TORSDOF 6
ENDMDL
MODEL       91
REMARK 921   NORMALIZED FREE ENERGY PREDICTED BY IDOCK:   -4.98 KCAL/MOL
REMARK 922        TOTAL FREE ENERGY PREDICTED BY IDOCK:   -7.53 KCAL/MOL
REMARK 923 INTER-LIGAND FREE ENERGY PREDICTED BY IDOCK:   -6.58 KCAL/MOL
REMARK 924 INTRA-LIGAND FREE ENERGY PREDICTED BY IDOCK:   -0.95 KCAL/MOL
REMARK 927      BINDING AFFINITY PREDICTED BY RF-SCORE:    0.00 PKD
ROOT
HETATM    1  C   UNL     1      -8.098  16.821  68.866  1.00  0.00    -0.230 C  
HETATM    2  O   UNL     1      -9.292  17.099  68.135  1.00  0.00    -0.250 OA 
ENDROOT
BRANCH   2   3
HETATM    3  C   UNL     1      -9.867  16.030  67.497  1.00  0.00    -0.235 A  
HETATM    4  C   UNL     1     -11.152  15.650  67.921  1.00  0.00    -0.324 A  
HETATM    5  C   UNL     1      -9.213  15.266  66.527  1.00  0.00    -0.321 A  
HETATM    6  C   UNL     1     -11.759  14.525  67.346  1.00  0.00    -0.425 A  
HETATM    7  C   UNL     1     -11.075  13.720  66.417  1.00  0.00    -0.309 A  
HETATM    8  C   UNL     1      -9.806  14.123  65.991  1.00  0.00    -0.329 A  
BRANCH   4   9
HETATM    9  O   UNL     1     -11.725  16.422  68.903  1.00  0.00    -0.261 OA 
HETATM   10  C   UNL     1     -12.068  15.773  70.125  1.00  0.00    -0.333 C  
ENDBRANCH   4   9
BRANCH   7  11
HETATM   11  C   UNL     1     -11.677  12.443  65.875  1.00  0.00    -0.476 C  
BRANCH  11  12
HETATM   12  C   UNL     1     -11.157  11.182  66.539  1.00  0.00    -0.167 A  
HETATM   13  N   UNL     1     -11.513  11.050  67.848  1.00  0.00    -0.477 NA 
HETATM   14  C   UNL     1     -10.984  10.027  68.541  1.00  0.00    -0.209 A  
HETATM   15  C   UNL     1     -10.115   9.107  67.995  1.00  0.00    -0.238 A  
HETATM   16  C   UNL     1      -9.745   9.244  66.653  1.00  0.00    -0.281 A  
HETATM   17  C   UNL     1      -8.830   8.347  66.080  1.00  0.00    -0.198 A  
HETATM   18  C   UNL     1      -8.369   8.487  64.760  1.00  0.00    -0.153 A  
HETATM   19  C   UNL     1     -10.268  10.292  65.882  1.00  0.00    -0.293 A  
HETATM   20  C   UNL     1      -8.899   9.506  63.967  1.00  0.00    -0.212 A  
HETATM   21  C   UNL     1      -9.839  10.387  64.535  1.00  0.00    -0.405 A  
BRANCH  18  22
HETATM   22  O   UNL     1      -7.423   7.627  64.255  1.00  0.00    -0.086 OA 
HETATM   23  C   UNL     1      -7.929   6.495  63.543  1.00  0.00    -0.075 C  
ENDBRANCH  18  22
BRANCH  20  24
HETATM   24  O   UNL     1      -8.611   9.862  62.677  1.00  0.00    -0.151 OA 
HETATM   25  C   UNL     1      -7.421  10.547  62.334  1.00  0.00    -0.142 C  
ENDBRANCH  20  24
ENDBRANCH  11  12
ENDBRANCH   7  11
ENDBRANCH   2   3
TORSDOF 6
ENDMDL
MODEL       92
REMARK 921   NORMALIZED FREE ENERGY PREDICTED BY IDOCK:   -4.96 KCAL/MOL
REMARK 922        TOTAL FREE ENERGY PREDICTED BY IDOCK:   -7.51 KCAL/MOL
REMARK 923 INTER-LIGAND FREE ENERGY PREDICTED BY IDOCK:   -6.81 KCAL/MOL
REMARK 924 INTRA-LIGAND FREE ENERGY PREDICTED BY IDOCK:   -0.69 KCAL/MOL
REMARK 927      BINDING AFFINITY PREDICTED BY RF-SCORE:    0.00 PKD
ROOT
HETATM    1  C   UNL     1     -10.500   3.884  72.972  1.00  0.00    -0.175 C  
HETATM    2  O   UNL     1      -9.441   4.695  72.468  1.00  0.00    -0.133 OA 
ENDROOT
BRANCH   2   3
HETATM    3  C   UNL     1      -9.812   5.704  71.615  1.00  0.00    -0.170 A  
HETATM    4  C   UNL     1      -9.241   6.969  71.838  1.00  0.00    -0.140 A  
HETATM    5  C   UNL     1     -10.774   5.554  70.613  1.00  0.00    -0.303 A  
HETATM    6  C   UNL     1      -9.634   8.049  71.035  1.00  0.00    -0.184 A  
HETATM    7  C   UNL     1     -10.649   7.912  70.071  1.00  0.00    -0.242 A  
HETATM    8  C   UNL     1     -11.192   6.643  69.848  1.00  0.00    -0.421 A  
BRANCH   4   9
HETATM    9  O   UNL     1      -8.328   7.057  72.861  1.00  0.00    -0.107 OA 
HETATM   10  C   UNL     1      -8.711   7.801  74.015  1.00  0.00    -0.260 C  
ENDBRANCH   4   9
BRANCH   7  11
HETATM   11  C   UNL     1     -11.159   9.095  69.278  1.00  0.00     0.001 C  
BRANCH  11  12
HETATM   12  C   UNL     1     -11.702  10.225  70.131  1.00  0.00    -0.284 A  
HETATM   13  N   UNL     1     -12.461   9.815  71.188  1.00  0.00    -0.331 NA 
HETATM   14  C   UNL     1     -13.084  10.759  71.915  1.00  0.00    -0.451 A  
HETATM   15  C   UNL     1     -12.987  12.109  71.652  1.00  0.00    -0.427 A  
HETATM   16  C   UNL     1     -12.213  12.530  70.566  1.00  0.00    -0.382 A  
HETATM   17  C   UNL     1     -12.129  13.894  70.250  1.00  0.00    -0.423 A  
HETATM   18  C   UNL     1     -11.428  14.362  69.125  1.00  0.00    -0.294 A  
HETATM   19  C   UNL     1     -11.539  11.589  69.775  1.00  0.00    -0.401 A  
HETATM   20  C   UNL     1     -10.726  13.445  68.341  1.00  0.00    -0.256 A  
HETATM   21  C   UNL     1     -10.788  12.079  68.678  1.00  0.00    -0.273 A  
BRANCH  18  22
HETATM   22  O   UNL     1     -11.422  15.700  68.810  1.00  0.00    -0.334 OA 
HETATM   23  C   UNL     1     -10.627  16.534  69.656  1.00  0.00    -0.302 C  
ENDBRANCH  18  22
BRANCH  20  24
HETATM   24  O   UNL     1      -9.992  13.635  67.203  1.00  0.00    -0.239 OA 
HETATM   25  C   UNL     1     -10.570  13.563  65.913  1.00  0.00    -0.284 C  
ENDBRANCH  20  24
ENDBRANCH  11  12
ENDBRANCH   7  11
ENDBRANCH   2   3
TORSDOF 6
ENDMDL
MODEL       93
REMARK 921   NORMALIZED FREE ENERGY PREDICTED BY IDOCK:   -4.95 KCAL/MOL
REMARK 922        TOTAL FREE ENERGY PREDICTED BY IDOCK:   -7.49 KCAL/MOL
REMARK 923 INTER-LIGAND FREE ENERGY PREDICTED BY IDOCK:   -6.66 KCAL/MOL
REMARK 924 INTRA-LIGAND FREE ENERGY PREDICTED BY IDOCK:   -0.83 KCAL/MOL
REMARK 927      BINDING AFFINITY PREDICTED BY RF-SCORE:    0.00 PKD
ROOT
HETATM    1  C   UNL     1      -8.461   7.803  66.035  1.00  0.00    -0.139 C  
HETATM    2  O   UNL     1      -7.770   9.048  65.955  1.00  0.00    -0.093 OA 
ENDROOT
BRANCH   2   3
HETATM    3  C   UNL     1      -8.557  10.160  65.788  1.00  0.00    -0.149 A  
HETATM    4  C   UNL     1      -8.235  11.290  66.560  1.00  0.00    -0.165 A  
HETATM    5  C   UNL     1      -9.687  10.190  64.968  1.00  0.00    -0.384 A  
HETATM    6  C   UNL     1      -9.044  12.432  66.474  1.00  0.00    -0.181 A  
HETATM    7  C   UNL     1     -10.218  12.439  65.699  1.00  0.00    -0.285 A  
HETATM    8  C   UNL     1     -10.512  11.315  64.922  1.00  0.00    -0.375 A  
BRANCH   4   9
HETATM    9  O   UNL     1      -7.131  11.183  67.372  1.00  0.00    -0.091 OA 
HETATM   10  C   UNL     1      -7.303  11.497  68.751  1.00  0.00    -0.115 C  
ENDBRANCH   4   9
BRANCH   7  11
HETATM   11  C   UNL     1     -11.157  13.625  65.687  1.00  0.00    -0.300 C  
BRANCH  11  12
HETATM   12  C   UNL     1     -11.244  14.358  67.012  1.00  0.00    -0.328 A  
HETATM   13  N   UNL     1     -12.157  13.839  67.881  1.00  0.00    -0.344 NA 
HETATM   14  C   UNL     1     -12.387  14.510  69.024  1.00  0.00    -0.086 A  
HETATM   15  C   UNL     1     -11.742  15.681  69.361  1.00  0.00    -0.395 A  
HETATM   16  C   UNL     1     -10.808  16.217  68.468  1.00  0.00    -0.313 A  
HETATM   17  C   UNL     1     -10.167  17.429  68.765  1.00  0.00    -0.361 A  
HETATM   18  C   UNL     1      -9.279  18.047  67.868  1.00  0.00    -0.268 A  
HETATM   19  C   UNL     1     -10.529  15.558  67.262  1.00  0.00    -0.279 A  
HETATM   20  C   UNL     1      -8.965  17.394  66.674  1.00  0.00    -0.252 A  
HETATM   21  C   UNL     1      -9.588  16.163  66.392  1.00  0.00    -0.312 A  
BRANCH  18  22
HETATM   22  O   UNL     1      -8.720  19.267  68.165  1.00  0.00    -0.308 OA 
HETATM   23  C   UNL     1      -9.398  20.407  67.632  1.00  0.00    -0.320 C  
ENDBRANCH  18  22
BRANCH  20  24
HETATM   24  O   UNL     1      -8.157  17.782  65.641  1.00  0.00    -0.518 OA 
HETATM   25  C   UNL     1      -6.794  18.113  65.834  1.00  0.00    -0.298 C  
ENDBRANCH  20  24
ENDBRANCH  11  12
ENDBRANCH   7  11
ENDBRANCH   2   3
TORSDOF 6
ENDMDL
MODEL       94
REMARK 921   NORMALIZED FREE ENERGY PREDICTED BY IDOCK:   -4.94 KCAL/MOL
REMARK 922        TOTAL FREE ENERGY PREDICTED BY IDOCK:   -7.48 KCAL/MOL
REMARK 923 INTER-LIGAND FREE ENERGY PREDICTED BY IDOCK:   -6.62 KCAL/MOL
REMARK 924 INTRA-LIGAND FREE ENERGY PREDICTED BY IDOCK:   -0.87 KCAL/MOL
REMARK 927      BINDING AFFINITY PREDICTED BY RF-SCORE:    0.00 PKD
ROOT
HETATM    1  C   UNL     1      -9.483   9.051  66.263  1.00  0.00    -0.242 C  
HETATM    2  O   UNL     1     -10.454  10.004  65.833  1.00  0.00    -0.174 OA 
ENDROOT
BRANCH   2   3
HETATM    3  C   UNL     1     -10.529  11.158  66.571  1.00  0.00    -0.255 A  
HETATM    4  C   UNL     1     -10.325  12.367  65.884  1.00  0.00    -0.257 A  
HETATM    5  C   UNL     1     -10.708  11.179  67.956  1.00  0.00    -0.254 A  
HETATM    6  C   UNL     1     -10.328  13.572  66.602  1.00  0.00    -0.271 A  
HETATM    7  C   UNL     1     -10.444  13.587  68.004  1.00  0.00    -0.245 A  
HETATM    8  C   UNL     1     -10.666  12.378  68.669  1.00  0.00    -0.260 A  
BRANCH   4   9
HETATM    9  O   UNL     1     -10.119  12.275  64.529  1.00  0.00    -0.286 OA 
HETATM   10  C   UNL     1     -11.191  12.674  63.677  1.00  0.00    -0.466 C  
ENDBRANCH   4   9
BRANCH   7  11
HETATM   11  C   UNL     1     -10.337  14.870  68.797  1.00  0.00    -0.245 C  
BRANCH  11  12
HETATM   12  C   UNL     1      -8.947  15.479  68.805  1.00  0.00    -0.204 A  
HETATM   13  N   UNL     1      -7.989  14.681  69.357  1.00  0.00    -0.064 NA 
HETATM   14  C   UNL     1      -6.759  15.200  69.519  1.00  0.00    -0.171 A  
HETATM   15  C   UNL     1      -6.421  16.484  69.149  1.00  0.00    -0.193 A  
HETATM   16  C   UNL     1      -7.404  17.305  68.588  1.00  0.00    -0.238 A  
HETATM   17  C   UNL     1      -7.101  18.630  68.240  1.00  0.00    -0.271 A  
HETATM   18  C   UNL     1      -8.071  19.517  67.745  1.00  0.00    -0.296 A  
HETATM   19  C   UNL     1      -8.704  16.815  68.394  1.00  0.00    -0.236 A  
HETATM   20  C   UNL     1      -9.364  19.041  67.517  1.00  0.00    -0.298 A  
HETATM   21  C   UNL     1      -9.659  17.703  67.840  1.00  0.00    -0.282 A  
BRANCH  18  22
HETATM   22  O   UNL     1      -7.751  20.827  67.477  1.00  0.00    -0.315 OA 
HETATM   23  C   UNL     1      -6.356  21.139  67.485  1.00  0.00    -0.368 C  
ENDBRANCH  18  22
BRANCH  20  24
HETATM   24  O   UNL     1     -10.478  19.693  67.065  1.00  0.00    -0.423 OA 
HETATM   25  C   UNL     1     -10.892  19.627  65.712  1.00  0.00    -0.303 C  
ENDBRANCH  20  24
ENDBRANCH  11  12
ENDBRANCH   7  11
ENDBRANCH   2   3
TORSDOF 6
ENDMDL
MODEL       95
REMARK 921   NORMALIZED FREE ENERGY PREDICTED BY IDOCK:   -4.94 KCAL/MOL
REMARK 922        TOTAL FREE ENERGY PREDICTED BY IDOCK:   -7.48 KCAL/MOL
REMARK 923 INTER-LIGAND FREE ENERGY PREDICTED BY IDOCK:   -6.96 KCAL/MOL
REMARK 924 INTRA-LIGAND FREE ENERGY PREDICTED BY IDOCK:   -0.52 KCAL/MOL
REMARK 927      BINDING AFFINITY PREDICTED BY RF-SCORE:    0.00 PKD
ROOT
HETATM    1  C   UNL     1     -10.969  16.062  67.168  1.00  0.00    -0.183 C  
HETATM    2  O   UNL     1     -11.079  14.966  66.260  1.00  0.00    -0.335 OA 
ENDROOT
BRANCH   2   3
HETATM    3  C   UNL     1     -10.765  13.732  66.770  1.00  0.00    -0.276 A  
HETATM    4  C   UNL     1     -11.587  12.657  66.388  1.00  0.00    -0.384 A  
HETATM    5  C   UNL     1      -9.744  13.516  67.698  1.00  0.00    -0.229 A  
HETATM    6  C   UNL     1     -11.350  11.386  66.929  1.00  0.00    -0.284 A  
HETATM    7  C   UNL     1     -10.363  11.183  67.911  1.00  0.00    -0.211 A  
HETATM    8  C   UNL     1      -9.542  12.257  68.265  1.00  0.00    -0.212 A  
BRANCH   4   9
HETATM    9  O   UNL     1     -12.596  12.944  65.499  1.00  0.00    -0.559 OA 
HETATM   10  C   UNL     1     -12.593  12.240  64.260  1.00  0.00    -0.372 C  
ENDBRANCH   4   9
BRANCH   7  11
HETATM   11  C   UNL     1     -10.173   9.841  68.583  1.00  0.00    -0.210 C  
BRANCH  11  12
HETATM   12  C   UNL     1     -11.073   9.617  69.784  1.00  0.00    -0.217 A  
HETATM   13  N   UNL     1     -12.095  10.513  69.894  1.00  0.00    -0.271 NA 
HETATM   14  C   UNL     1     -12.857  10.461  71.000  1.00  0.00    -0.401 A  
HETATM   15  C   UNL     1     -12.663   9.548  72.015  1.00  0.00    -0.479 A  
HETATM   16  C   UNL     1     -11.612   8.631  71.905  1.00  0.00    -0.420 A  
HETATM   17  C   UNL     1     -11.365   7.717  72.941  1.00  0.00    -0.406 A  
HETATM   18  C   UNL     1     -10.277   6.829  72.913  1.00  0.00    -0.201 A  
HETATM   19  C   UNL     1     -10.787   8.639  70.772  1.00  0.00    -0.272 A  
HETATM   20  C   UNL     1      -9.460   6.800  71.781  1.00  0.00    -0.150 A  
HETATM   21  C   UNL     1      -9.728   7.699  70.731  1.00  0.00    -0.173 A  
BRANCH  18  22
HETATM   22  O   UNL     1     -10.029   5.993  73.976  1.00  0.00    -0.189 OA 
HETATM   23  C   UNL     1     -10.698   4.730  73.943  1.00  0.00    -0.298 C  
ENDBRANCH  18  22
BRANCH  20  24
HETATM   24  O   UNL     1      -8.345   6.054  71.515  1.00  0.00    -0.124 OA 
HETATM   25  C   UNL     1      -8.413   4.814  70.835  1.00  0.00    -0.106 C  
ENDBRANCH  20  24
ENDBRANCH  11  12
ENDBRANCH   7  11
ENDBRANCH   2   3
TORSDOF 6
ENDMDL
MODEL       96
REMARK 921   NORMALIZED FREE ENERGY PREDICTED BY IDOCK:   -4.93 KCAL/MOL
REMARK 922        TOTAL FREE ENERGY PREDICTED BY IDOCK:   -7.46 KCAL/MOL
REMARK 923 INTER-LIGAND FREE ENERGY PREDICTED BY IDOCK:   -7.07 KCAL/MOL
REMARK 924 INTRA-LIGAND FREE ENERGY PREDICTED BY IDOCK:   -0.40 KCAL/MOL
REMARK 927      BINDING AFFINITY PREDICTED BY RF-SCORE:    0.00 PKD
ROOT
HETATM    1  C   UNL     1     -11.063   3.990  73.744  1.00  0.00    -0.213 C  
HETATM    2  O   UNL     1      -9.961   4.834  73.414  1.00  0.00    -0.147 OA 
ENDROOT
BRANCH   2   3
HETATM    3  C   UNL     1     -10.275   6.004  72.769  1.00  0.00    -0.188 A  
HETATM    4  C   UNL     1      -9.337   7.048  72.853  1.00  0.00    -0.140 A  
HETATM    5  C   UNL     1     -11.492   6.227  72.121  1.00  0.00    -0.354 A  
HETATM    6  C   UNL     1      -9.636   8.286  72.266  1.00  0.00    -0.355 A  
HETATM    7  C   UNL     1     -10.887   8.529  71.671  1.00  0.00    -0.356 A  
HETATM    8  C   UNL     1     -11.800   7.474  71.578  1.00  0.00    -0.324 A  
BRANCH   4   9
HETATM    9  O   UNL     1      -8.175   6.775  73.534  1.00  0.00    -0.111 OA 
HETATM   10  C   UNL     1      -6.975   6.692  72.769  1.00  0.00    -0.076 C  
ENDBRANCH   4   9
BRANCH   7  11
HETATM   11  C   UNL     1     -11.261   9.893  71.134  1.00  0.00    -0.404 C  
BRANCH  11  12
HETATM   12  C   UNL     1     -11.093  10.035  69.634  1.00  0.00    -0.259 A  
HETATM   13  N   UNL     1     -10.611   8.919  69.015  1.00  0.00    -0.214 NA 
HETATM   14  C   UNL     1     -10.312   9.007  67.708  1.00  0.00    -0.246 A  
HETATM   15  C   UNL     1     -10.475  10.158  66.966  1.00  0.00    -0.302 A  
HETATM   16  C   UNL     1     -10.965  11.304  67.600  1.00  0.00    -0.312 A  
HETATM   17  C   UNL     1     -11.103  12.501  66.880  1.00  0.00    -0.323 A  
HETATM   18  C   UNL     1     -11.518  13.698  67.488  1.00  0.00    -0.329 A  
HETATM   19  C   UNL     1     -11.295  11.269  68.962  1.00  0.00    -0.344 A  
HETATM   20  C   UNL     1     -11.879  13.678  68.837  1.00  0.00    -0.364 A  
HETATM   21  C   UNL     1     -11.767  12.469  69.549  1.00  0.00    -0.375 A  
BRANCH  18  22
HETATM   22  O   UNL     1     -11.579  14.866  66.766  1.00  0.00    -0.344 OA 
HETATM   23  C   UNL     1     -10.676  14.960  65.661  1.00  0.00    -0.342 C  
ENDBRANCH  18  22
BRANCH  20  24
HETATM   24  O   UNL     1     -12.293  14.692  69.656  1.00  0.00    -0.298 OA 
HETATM   25  C   UNL     1     -11.408  15.701  70.110  1.00  0.00    -0.344 C  
ENDBRANCH  20  24
ENDBRANCH  11  12
ENDBRANCH   7  11
ENDBRANCH   2   3
TORSDOF 6
ENDMDL
MODEL       97
REMARK 921   NORMALIZED FREE ENERGY PREDICTED BY IDOCK:   -4.93 KCAL/MOL
REMARK 922        TOTAL FREE ENERGY PREDICTED BY IDOCK:   -7.46 KCAL/MOL
REMARK 923 INTER-LIGAND FREE ENERGY PREDICTED BY IDOCK:   -6.96 KCAL/MOL
REMARK 924 INTRA-LIGAND FREE ENERGY PREDICTED BY IDOCK:   -0.50 KCAL/MOL
REMARK 927      BINDING AFFINITY PREDICTED BY RF-SCORE:    0.00 PKD
ROOT
HETATM    1  C   UNL     1      -9.503   3.416  68.209  1.00  0.00    -0.148 C  
HETATM    2  O   UNL     1      -8.886   4.399  69.038  1.00  0.00    -0.086 OA 
ENDROOT
BRANCH   2   3
HETATM    3  C   UNL     1      -9.316   5.690  68.860  1.00  0.00    -0.120 A  
HETATM    4  C   UNL     1      -8.713   6.678  69.657  1.00  0.00    -0.140 A  
HETATM    5  C   UNL     1     -10.361   6.045  68.004  1.00  0.00    -0.250 A  
HETATM    6  C   UNL     1      -9.159   8.004  69.560  1.00  0.00    -0.152 A  
HETATM    7  C   UNL     1     -10.254   8.348  68.747  1.00  0.00    -0.223 A  
HETATM    8  C   UNL     1     -10.829   7.358  67.946  1.00  0.00    -0.151 A  
BRANCH   4   9
HETATM    9  O   UNL     1      -7.715   6.258  70.503  1.00  0.00    -0.097 OA 
HETATM   10  C   UNL     1      -7.985   6.300  71.902  1.00  0.00    -0.102 C  
ENDBRANCH   4   9
BRANCH   7  11
HETATM   11  C   UNL     1     -10.814   9.753  68.720  1.00  0.00    -0.219 C  
BRANCH  11  12
HETATM   12  C   UNL     1     -11.594  10.133  69.964  1.00  0.00    -0.253 A  
HETATM   13  N   UNL     1     -12.018   9.071  70.706  1.00  0.00    -0.225 NA 
HETATM   14  C   UNL     1     -12.825   9.319  71.752  1.00  0.00    -0.382 A  
HETATM   15  C   UNL     1     -13.233  10.586  72.114  1.00  0.00    -0.398 A  
HETATM   16  C   UNL     1     -12.802  11.676  71.351  1.00  0.00    -0.461 A  
HETATM   17  C   UNL     1     -13.234  12.972  71.670  1.00  0.00    -0.426 A  
HETATM   18  C   UNL     1     -12.892  14.090  70.890  1.00  0.00    -0.318 A  
HETATM   19  C   UNL     1     -11.958  11.474  70.249  1.00  0.00    -0.455 A  
HETATM   20  C   UNL     1     -12.029  13.916  69.807  1.00  0.00    -0.338 A  
HETATM   21  C   UNL     1     -11.573  12.618  69.506  1.00  0.00    -0.348 A  
BRANCH  18  22
HETATM   22  O   UNL     1     -13.388  15.335  71.196  1.00  0.00    -0.448 OA 
HETATM   23  C   UNL     1     -13.588  15.599  72.587  1.00  0.00    -0.579 C  
ENDBRANCH  18  22
BRANCH  20  24
HETATM   24  O   UNL     1     -11.562  14.822  68.894  1.00  0.00    -0.283 OA 
HETATM   25  C   UNL     1     -11.424  14.504  67.521  1.00  0.00    -0.356 C  
ENDBRANCH  20  24
ENDBRANCH  11  12
ENDBRANCH   7  11
ENDBRANCH   2   3
TORSDOF 6
ENDMDL
MODEL       98
REMARK 921   NORMALIZED FREE ENERGY PREDICTED BY IDOCK:   -4.91 KCAL/MOL
REMARK 922        TOTAL FREE ENERGY PREDICTED BY IDOCK:   -7.44 KCAL/MOL
REMARK 923 INTER-LIGAND FREE ENERGY PREDICTED BY IDOCK:   -6.72 KCAL/MOL
REMARK 924 INTRA-LIGAND FREE ENERGY PREDICTED BY IDOCK:   -0.72 KCAL/MOL
REMARK 927      BINDING AFFINITY PREDICTED BY RF-SCORE:    0.00 PKD
ROOT
HETATM    1  C   UNL     1      -9.223   2.851  66.042  1.00  0.00    -0.095 C  
HETATM    2  O   UNL     1      -9.603   3.760  67.074  1.00  0.00    -0.206 OA 
ENDROOT
BRANCH   2   3
HETATM    3  C   UNL     1      -9.138   5.044  66.942  1.00  0.00    -0.117 A  
HETATM    4  C   UNL     1      -9.866   6.055  67.593  1.00  0.00    -0.123 A  
HETATM    5  C   UNL     1      -8.050   5.394  66.140  1.00  0.00    -0.106 A  
HETATM    6  C   UNL     1      -9.471   7.392  67.440  1.00  0.00    -0.170 A  
HETATM    7  C   UNL     1      -8.416   7.748  66.580  1.00  0.00    -0.129 A  
HETATM    8  C   UNL     1      -7.690   6.729  65.957  1.00  0.00    -0.093 A  
BRANCH   4   9
HETATM    9  O   UNL     1     -10.947   5.648  68.339  1.00  0.00    -0.176 OA 
HETATM   10  C   UNL     1     -11.225   6.373  69.534  1.00  0.00    -0.412 C  
ENDBRANCH   4   9
BRANCH   7  11
HETATM   11  C   UNL     1      -8.054   9.193  66.322  1.00  0.00    -0.111 C  
BRANCH  11  12
HETATM   12  C   UNL     1      -8.661   9.767  65.056  1.00  0.00    -0.174 A  
HETATM   13  N   UNL     1      -7.993   9.437  63.913  1.00  0.00    -0.133 NA 
HETATM   14  C   UNL     1      -8.393  10.012  62.766  1.00  0.00    -0.163 A  
HETATM   15  C   UNL     1      -9.442  10.903  62.686  1.00  0.00    -0.324 A  
HETATM   16  C   UNL     1     -10.125  11.245  63.858  1.00  0.00    -0.392 A  
HETATM   17  C   UNL     1     -11.170  12.180  63.814  1.00  0.00    -0.509 A  
HETATM   18  C   UNL     1     -11.837  12.615  64.973  1.00  0.00    -0.395 A  
HETATM   19  C   UNL     1      -9.752  10.674  65.083  1.00  0.00    -0.327 A  
HETATM   20  C   UNL     1     -11.501  12.037  66.199  1.00  0.00    -0.339 A  
HETATM   21  C   UNL     1     -10.471  11.078  66.235  1.00  0.00    -0.310 A  
BRANCH  18  22
HETATM   22  O   UNL     1     -12.812  13.581  64.899  1.00  0.00    -0.684 OA 
HETATM   23  C   UNL     1     -12.399  14.839  64.360  1.00  0.00    -0.368 C  
ENDBRANCH  18  22
BRANCH  20  24
HETATM   24  O   UNL     1     -11.978  12.291  67.455  1.00  0.00    -0.513 OA 
HETATM   25  C   UNL     1     -11.977  13.593  68.012  1.00  0.00    -0.350 C  
ENDBRANCH  20  24
ENDBRANCH  11  12
ENDBRANCH   7  11
ENDBRANCH   2   3
TORSDOF 6
ENDMDL
MODEL       99
REMARK 921   NORMALIZED FREE ENERGY PREDICTED BY IDOCK:   -4.91 KCAL/MOL
REMARK 922        TOTAL FREE ENERGY PREDICTED BY IDOCK:   -7.44 KCAL/MOL
REMARK 923 INTER-LIGAND FREE ENERGY PREDICTED BY IDOCK:   -6.63 KCAL/MOL
REMARK 924 INTRA-LIGAND FREE ENERGY PREDICTED BY IDOCK:   -0.80 KCAL/MOL
REMARK 927      BINDING AFFINITY PREDICTED BY RF-SCORE:    0.00 PKD
ROOT
HETATM    1  C   UNL     1      -5.736  10.782  66.032  1.00  0.00    -0.140 C  
HETATM    2  O   UNL     1      -6.432   9.654  66.560  1.00  0.00    -0.068 OA 
ENDROOT
BRANCH   2   3
HETATM    3  C   UNL     1      -7.704   9.894  67.014  1.00  0.00    -0.095 A  
HETATM    4  C   UNL     1      -8.764   9.473  66.192  1.00  0.00    -0.145 A  
HETATM    5  C   UNL     1      -7.986  10.599  68.187  1.00  0.00    -0.113 A  
HETATM    6  C   UNL     1     -10.083   9.750  66.579  1.00  0.00    -0.307 A  
HETATM    7  C   UNL     1     -10.363  10.516  67.726  1.00  0.00    -0.248 A  
HETATM    8  C   UNL     1      -9.299  10.909  68.542  1.00  0.00    -0.181 A  
BRANCH   4   9
HETATM    9  O   UNL     1      -8.419   8.817  65.036  1.00  0.00    -0.161 OA 
HETATM   10  C   UNL     1      -8.731   9.460  63.802  1.00  0.00    -0.201 C  
ENDBRANCH   4   9
BRANCH   7  11
HETATM   11  C   UNL     1     -11.776  10.915  68.091  1.00  0.00    -0.231 C  
BRANCH  11  12
HETATM   12  C   UNL     1     -11.858  12.055  69.088  1.00  0.00    -0.311 A  
HETATM   13  N   UNL     1     -12.349  11.697  70.309  1.00  0.00    -0.285 NA 
HETATM   14  C   UNL     1     -12.575  12.675  71.204  1.00  0.00    -0.258 A  
HETATM   15  C   UNL     1     -12.327  14.008  70.953  1.00  0.00    -0.443 A  
HETATM   16  C   UNL     1     -11.828  14.376  69.700  1.00  0.00    -0.372 A  
HETATM   17  C   UNL     1     -11.606  15.729  69.401  1.00  0.00    -0.371 A  
HETATM   18  C   UNL     1     -11.178  16.157  68.133  1.00  0.00    -0.311 A  
HETATM   19  C   UNL     1     -11.573  13.397  68.729  1.00  0.00    -0.363 A  
HETATM   20  C   UNL     1     -10.890  15.196  67.161  1.00  0.00    -0.320 A  
HETATM   21  C   UNL     1     -11.086  13.838  67.473  1.00  0.00    -0.295 A  
BRANCH  18  22
HETATM   22  O   UNL     1     -11.033  17.495  67.858  1.00  0.00    -0.323 OA 
HETATM   23  C   UNL     1     -10.073  18.193  68.655  1.00  0.00    -0.392 C  
ENDBRANCH  18  22
BRANCH  20  24
HETATM   24  O   UNL     1     -10.482  15.347  65.864  1.00  0.00    -0.302 OA 
HETATM   25  C   UNL     1     -11.361  15.154  64.771  1.00  0.00    -0.395 C  
ENDBRANCH  20  24
ENDBRANCH  11  12
ENDBRANCH   7  11
ENDBRANCH   2   3
TORSDOF 6
ENDMDL
MODEL      100
REMARK 921   NORMALIZED FREE ENERGY PREDICTED BY IDOCK:   -4.90 KCAL/MOL
REMARK 922        TOTAL FREE ENERGY PREDICTED BY IDOCK:   -7.43 KCAL/MOL
REMARK 923 INTER-LIGAND FREE ENERGY PREDICTED BY IDOCK:   -6.60 KCAL/MOL
REMARK 924 INTRA-LIGAND FREE ENERGY PREDICTED BY IDOCK:   -0.83 KCAL/MOL
REMARK 927      BINDING AFFINITY PREDICTED BY RF-SCORE:    0.00 PKD
ROOT
HETATM    1  C   UNL     1     -12.149  13.494  63.838  1.00  0.00    -0.438 C  
HETATM    2  O   UNL     1     -12.387  13.866  65.194  1.00  0.00    -0.408 OA 
ENDROOT
BRANCH   2   3
HETATM    3  C   UNL     1     -11.819  13.056  66.146  1.00  0.00    -0.409 A  
HETATM    4  C   UNL     1     -11.603  13.620  67.415  1.00  0.00    -0.356 A  
HETATM    5  C   UNL     1     -11.378  11.756  65.891  1.00  0.00    -0.324 A  
HETATM    6  C   UNL     1     -10.969  12.857  68.406  1.00  0.00    -0.285 A  
HETATM    7  C   UNL     1     -10.468  11.572  68.128  1.00  0.00    -0.216 A  
HETATM    8  C   UNL     1     -10.709  11.019  66.868  1.00  0.00    -0.325 A  
BRANCH   4   9
HETATM    9  O   UNL     1     -12.029  14.915  67.591  1.00  0.00    -0.317 OA 
HETATM   10  C   UNL     1     -11.040  15.889  67.917  1.00  0.00    -0.317 C  
ENDBRANCH   4   9
BRANCH   7  11
HETATM   11  C   UNL     1      -9.684  10.785  69.155  1.00  0.00    -0.181 C  
BRANCH  11  12
HETATM   12  C   UNL     1     -10.443   9.612  69.746  1.00  0.00    -0.238 A  
HETATM   13  N   UNL     1     -11.099   9.896  70.908  1.00  0.00    -0.340 NA 
HETATM   14  C   UNL     1     -11.686   8.878  71.561  1.00  0.00    -0.324 A  
HETATM   15  C   UNL     1     -11.666   7.574  71.112  1.00  0.00    -0.315 A  
HETATM   16  C   UNL     1     -10.989   7.281  69.924  1.00  0.00    -0.262 A  
HETATM   17  C   UNL     1     -10.916   5.957  69.465  1.00  0.00    -0.438 A  
HETATM   18  C   UNL     1     -10.185   5.600  68.319  1.00  0.00    -0.186 A  
HETATM   19  C   UNL     1     -10.360   8.305  69.201  1.00  0.00    -0.225 A  
HETATM   20  C   UNL     1      -9.576   6.607  67.568  1.00  0.00    -0.126 A  
HETATM   21  C   UNL     1      -9.675   7.939  68.016  1.00  0.00    -0.182 A  
BRANCH  18  22
HETATM   22  O   UNL     1     -10.082   4.284  67.937  1.00  0.00    -0.046 OA 
HETATM   23  C   UNL     1      -8.995   3.553  68.511  1.00  0.00    -0.131 C  
ENDBRANCH  18  22
BRANCH  20  24
HETATM   24  O   UNL     1      -8.805   6.526  66.442  1.00  0.00    -0.133 OA 
HETATM   25  C   UNL     1      -7.400   6.359  66.501  1.00  0.00    -0.078 C  
ENDBRANCH  20  24
ENDBRANCH  11  12
ENDBRANCH   7  11
ENDBRANCH   2   3
TORSDOF 6
ENDMDL
MODEL      101
REMARK 921   NORMALIZED FREE ENERGY PREDICTED BY IDOCK:   -4.90 KCAL/MOL
REMARK 922        TOTAL FREE ENERGY PREDICTED BY IDOCK:   -7.43 KCAL/MOL
REMARK 923 INTER-LIGAND FREE ENERGY PREDICTED BY IDOCK:   -6.81 KCAL/MOL
REMARK 924 INTRA-LIGAND FREE ENERGY PREDICTED BY IDOCK:   -0.62 KCAL/MOL
REMARK 927      BINDING AFFINITY PREDICTED BY RF-SCORE:    0.00 PKD
ROOT
HETATM    1  C   UNL     1      -7.599   7.813  64.121  1.00  0.00    -0.113 C  
HETATM    2  O   UNL     1      -8.456   7.477  65.211  1.00  0.00    -0.132 OA 
ENDROOT
BRANCH   2   3
HETATM    3  C   UNL     1      -9.125   8.525  65.791  1.00  0.00    -0.167 A  
HETATM    4  C   UNL     1      -9.793   8.262  67.000  1.00  0.00    -0.232 A  
HETATM    5  C   UNL     1      -9.242   9.787  65.205  1.00  0.00    -0.294 A  
HETATM    6  C   UNL     1     -10.546   9.280  67.603  1.00  0.00    -0.324 A  
HETATM    7  C   UNL     1     -10.716  10.529  66.980  1.00  0.00    -0.310 A  
HETATM    8  C   UNL     1     -10.028  10.781  65.789  1.00  0.00    -0.306 A  
BRANCH   4   9
HETATM    9  O   UNL     1      -9.667   6.990  67.506  1.00  0.00    -0.129 OA 
HETATM   10  C   UNL     1      -9.859   6.823  68.908  1.00  0.00    -0.145 C  
ENDBRANCH   4   9
BRANCH   7  11
HETATM   11  C   UNL     1     -11.615  11.595  67.566  1.00  0.00    -0.345 C  
BRANCH  11  12
HETATM   12  C   UNL     1     -11.727  12.847  66.716  1.00  0.00    -0.383 A  
HETATM   13  N   UNL     1     -12.456  12.687  65.575  1.00  0.00    -0.648 NA 
HETATM   14  C   UNL     1     -12.493  13.711  64.706  1.00  0.00    -0.350 A  
HETATM   15  C   UNL     1     -11.843  14.909  64.915  1.00  0.00    -0.337 A  
HETATM   16  C   UNL     1     -11.091  15.073  66.082  1.00  0.00    -0.329 A  
HETATM   17  C   UNL     1     -10.385  16.265  66.302  1.00  0.00    -0.335 A  
HETATM   18  C   UNL     1      -9.554  16.450  67.421  1.00  0.00    -0.231 A  
HETATM   19  C   UNL     1     -11.019  14.037  67.025  1.00  0.00    -0.302 A  
HETATM   20  C   UNL     1      -9.492  15.443  68.386  1.00  0.00    -0.200 A  
HETATM   21  C   UNL     1     -10.224  14.259  68.176  1.00  0.00    -0.231 A  
BRANCH  18  22
HETATM   22  O   UNL     1      -8.827  17.607  67.569  1.00  0.00    -0.228 OA 
HETATM   23  C   UNL     1      -9.566  18.825  67.449  1.00  0.00    -0.306 C  
ENDBRANCH  18  22
BRANCH  20  24
HETATM   24  O   UNL     1      -8.759  15.368  69.538  1.00  0.00    -0.255 OA 
HETATM   25  C   UNL     1      -7.402  14.964  69.543  1.00  0.00    -0.178 C  
ENDBRANCH  20  24
ENDBRANCH  11  12
ENDBRANCH   7  11
ENDBRANCH   2   3
TORSDOF 6
ENDMDL
MODEL      102
REMARK 921   NORMALIZED FREE ENERGY PREDICTED BY IDOCK:   -4.89 KCAL/MOL
REMARK 922        TOTAL FREE ENERGY PREDICTED BY IDOCK:   -7.41 KCAL/MOL
REMARK 923 INTER-LIGAND FREE ENERGY PREDICTED BY IDOCK:   -6.53 KCAL/MOL
REMARK 924 INTRA-LIGAND FREE ENERGY PREDICTED BY IDOCK:   -0.88 KCAL/MOL
REMARK 927      BINDING AFFINITY PREDICTED BY RF-SCORE:    0.00 PKD
ROOT
HETATM    1  C   UNL     1     -11.511  16.125  69.682  1.00  0.00    -0.290 C  
HETATM    2  O   UNL     1     -11.788  15.478  68.442  1.00  0.00    -0.351 OA 
ENDROOT
BRANCH   2   3
HETATM    3  C   UNL     1     -11.573  14.124  68.411  1.00  0.00    -0.318 A  
HETATM    4  C   UNL     1     -11.115  13.579  67.198  1.00  0.00    -0.293 A  
HETATM    5  C   UNL     1     -11.863  13.271  69.478  1.00  0.00    -0.388 A  
HETATM    6  C   UNL     1     -10.939  12.192  67.093  1.00  0.00    -0.316 A  
HETATM    7  C   UNL     1     -11.294  11.329  68.146  1.00  0.00    -0.372 A  
HETATM    8  C   UNL     1     -11.728  11.888  69.351  1.00  0.00    -0.401 A  
BRANCH   4   9
HETATM    9  O   UNL     1     -10.881  14.468  66.177  1.00  0.00    -0.305 OA 
HETATM   10  C   UNL     1     -10.742  13.932  64.864  1.00  0.00    -0.410 C  
ENDBRANCH   4   9
BRANCH   7  11
HETATM   11  C   UNL     1     -11.213   9.825  68.003  1.00  0.00    -0.059 C  
BRANCH  11  12
HETATM   12  C   UNL     1     -10.075   9.190  68.780  1.00  0.00    -0.197 A  
HETATM   13  N   UNL     1      -8.884   9.171  68.117  1.00  0.00    -0.129 NA 
HETATM   14  C   UNL     1      -7.861   8.510  68.685  1.00  0.00    -0.108 A  
HETATM   15  C   UNL     1      -7.953   7.864  69.899  1.00  0.00    -0.109 A  
HETATM   16  C   UNL     1      -9.176   7.878  70.578  1.00  0.00    -0.158 A  
HETATM   17  C   UNL     1      -9.312   7.194  71.795  1.00  0.00    -0.155 A  
HETATM   18  C   UNL     1     -10.538   7.114  72.478  1.00  0.00    -0.240 A  
HETATM   19  C   UNL     1     -10.277   8.554  70.032  1.00  0.00    -0.201 A  
HETATM   20  C   UNL     1     -11.638   7.804  71.967  1.00  0.00    -0.300 A  
HETATM   21  C   UNL     1     -11.491   8.514  70.760  1.00  0.00    -0.281 A  
BRANCH  18  22
HETATM   22  O   UNL     1     -10.648   6.380  73.635  1.00  0.00    -0.266 OA 
HETATM   23  C   UNL     1     -10.965   4.996  73.465  1.00  0.00    -0.328 C  
ENDBRANCH  18  22
BRANCH  20  24
HETATM   24  O   UNL     1     -12.926   7.874  72.423  1.00  0.00    -0.154 OA 
HETATM   25  C   UNL     1     -13.969   8.440  71.649  1.00  0.00    -0.399 C  
ENDBRANCH  20  24
ENDBRANCH  11  12
ENDBRANCH   7  11
ENDBRANCH   2   3
TORSDOF 6
ENDMDL
MODEL      103
REMARK 921   NORMALIZED FREE ENERGY PREDICTED BY IDOCK:   -4.89 KCAL/MOL
REMARK 922        TOTAL FREE ENERGY PREDICTED BY IDOCK:   -7.41 KCAL/MOL
REMARK 923 INTER-LIGAND FREE ENERGY PREDICTED BY IDOCK:   -6.44 KCAL/MOL
REMARK 924 INTRA-LIGAND FREE ENERGY PREDICTED BY IDOCK:   -0.97 KCAL/MOL
REMARK 927      BINDING AFFINITY PREDICTED BY RF-SCORE:    0.00 PKD
ROOT
HETATM    1  C   UNL     1     -13.242   9.070  72.509  1.00  0.00    -0.406 C  
HETATM    2  O   UNL     1     -11.891   9.046  72.052  1.00  0.00    -0.358 OA 
ENDROOT
BRANCH   2   3
HETATM    3  C   UNL     1     -11.670   9.576  70.806  1.00  0.00    -0.298 A  
HETATM    4  C   UNL     1     -10.958   8.779  69.892  1.00  0.00    -0.179 A  
HETATM    5  C   UNL     1     -12.038  10.873  70.441  1.00  0.00    -0.453 A  
HETATM    6  C   UNL     1     -10.650   9.297  68.626  1.00  0.00    -0.219 A  
HETATM    7  C   UNL     1     -10.964  10.625  68.284  1.00  0.00    -0.314 A  
HETATM    8  C   UNL     1     -11.690  11.396  69.196  1.00  0.00    -0.410 A  
BRANCH   4   9
HETATM    9  O   UNL     1     -10.595   7.527  70.325  1.00  0.00    -0.219 OA 
HETATM   10  C   UNL     1     -11.226   6.412  69.700  1.00  0.00    -0.418 C  
ENDBRANCH   4   9
BRANCH   7  11
HETATM   11  C   UNL     1     -10.538  11.228  66.963  1.00  0.00    -0.287 C  
BRANCH  11  12
HETATM   12  C   UNL     1      -9.184  11.911  67.002  1.00  0.00    -0.191 A  
HETATM   13  N   UNL     1      -8.126  11.068  66.834  1.00  0.00    -0.136 NA 
HETATM   14  C   UNL     1      -6.890  11.576  66.986  1.00  0.00    -0.147 A  
HETATM   15  C   UNL     1      -6.643  12.897  67.291  1.00  0.00    -0.047 A  
HETATM   16  C   UNL     1      -7.728  13.762  67.468  1.00  0.00    -0.187 A  
HETATM   17  C   UNL     1      -7.509  15.102  67.819  1.00  0.00    -0.179 A  
HETATM   18  C   UNL     1      -8.565  15.991  68.083  1.00  0.00    -0.171 A  
HETATM   19  C   UNL     1      -9.039  13.286  67.320  1.00  0.00    -0.221 A  
HETATM   20  C   UNL     1      -9.877  15.546  67.913  1.00  0.00    -0.216 A  
HETATM   21  C   UNL     1     -10.094  14.208  67.532  1.00  0.00    -0.236 A  
BRANCH  18  22
HETATM   22  O   UNL     1      -8.311  17.280  68.488  1.00  0.00    -0.252 OA 
HETATM   23  C   UNL     1      -8.297  18.265  67.453  1.00  0.00    -0.244 C  
ENDBRANCH  18  22
BRANCH  20  24
HETATM   24  O   UNL     1     -11.064  16.195  68.118  1.00  0.00    -0.334 OA 
HETATM   25  C   UNL     1     -11.878  15.938  69.248  1.00  0.00    -0.318 C  
ENDBRANCH  20  24
ENDBRANCH  11  12
ENDBRANCH   7  11
ENDBRANCH   2   3
TORSDOF 6
ENDMDL
MODEL      104
REMARK 921   NORMALIZED FREE ENERGY PREDICTED BY IDOCK:   -4.88 KCAL/MOL
REMARK 922        TOTAL FREE ENERGY PREDICTED BY IDOCK:   -7.40 KCAL/MOL
REMARK 923 INTER-LIGAND FREE ENERGY PREDICTED BY IDOCK:   -6.72 KCAL/MOL
REMARK 924 INTRA-LIGAND FREE ENERGY PREDICTED BY IDOCK:   -0.68 KCAL/MOL
REMARK 927      BINDING AFFINITY PREDICTED BY RF-SCORE:    0.00 PKD
ROOT
HETATM    1  C   UNL     1      -8.156   7.291  64.705  1.00  0.00    -0.081 C  
HETATM    2  O   UNL     1      -7.630   8.603  64.513  1.00  0.00    -0.102 OA 
ENDROOT
BRANCH   2   3
HETATM    3  C   UNL     1      -8.429   9.636  64.933  1.00  0.00    -0.151 A  
HETATM    4  C   UNL     1      -8.047  10.297  66.114  1.00  0.00    -0.133 A  
HETATM    5  C   UNL     1      -9.623   9.996  64.304  1.00  0.00    -0.301 A  
HETATM    6  C   UNL     1      -8.861  11.319  66.622  1.00  0.00    -0.175 A  
HETATM    7  C   UNL     1     -10.095  11.635  66.024  1.00  0.00    -0.259 A  
HETATM    8  C   UNL     1     -10.450  10.983  64.840  1.00  0.00    -0.371 A  
BRANCH   4   9
HETATM    9  O   UNL     1      -6.880   9.873  66.703  1.00  0.00    -0.081 OA 
HETATM   10  C   UNL     1      -6.996   9.059  67.867  1.00  0.00    -0.078 C  
ENDBRANCH   4   9
BRANCH   7  11
HETATM   11  C   UNL     1     -11.033  12.657  66.628  1.00  0.00    -0.292 C  
BRANCH  11  12
HETATM   12  C   UNL     1     -11.465  12.339  68.046  1.00  0.00    -0.321 A  
HETATM   13  N   UNL     1     -11.776  11.028  68.258  1.00  0.00    -0.529 NA 
HETATM   14  C   UNL     1     -12.292  10.691  69.453  1.00  0.00    -0.000 A  
HETATM   15  C   UNL     1     -12.510  11.596  70.469  1.00  0.00    -0.344 A  
HETATM   16  C   UNL     1     -12.196  12.942  70.253  1.00  0.00    -0.362 A  
HETATM   17  C   UNL     1     -12.445  13.892  71.254  1.00  0.00    -0.440 A  
HETATM   18  C   UNL     1     -12.218  15.265  71.058  1.00  0.00    -0.350 A  
HETATM   19  C   UNL     1     -11.654  13.349  69.025  1.00  0.00    -0.358 A  
HETATM   20  C   UNL     1     -11.652  15.689  69.854  1.00  0.00    -0.347 A  
HETATM   21  C   UNL     1     -11.375  14.729  68.862  1.00  0.00    -0.302 A  
BRANCH  18  22
HETATM   22  O   UNL     1     -12.536  16.174  72.039  1.00  0.00    -0.446 OA 
HETATM   23  C   UNL     1     -13.236  15.648  73.170  1.00  0.00    -0.569 C  
ENDBRANCH  18  22
BRANCH  20  24
HETATM   24  O   UNL     1     -11.352  16.948  69.414  1.00  0.00     0.009 OA 
HETATM   25  C   UNL     1     -10.102  17.264  68.828  1.00  0.00    -0.337 C  
ENDBRANCH  20  24
ENDBRANCH  11  12
ENDBRANCH   7  11
ENDBRANCH   2   3
TORSDOF 6
ENDMDL
MODEL      105
REMARK 921   NORMALIZED FREE ENERGY PREDICTED BY IDOCK:   -4.83 KCAL/MOL
REMARK 922        TOTAL FREE ENERGY PREDICTED BY IDOCK:   -7.33 KCAL/MOL
REMARK 923 INTER-LIGAND FREE ENERGY PREDICTED BY IDOCK:   -6.61 KCAL/MOL
REMARK 924 INTRA-LIGAND FREE ENERGY PREDICTED BY IDOCK:   -0.72 KCAL/MOL
REMARK 927      BINDING AFFINITY PREDICTED BY RF-SCORE:    0.00 PKD
ROOT
HETATM    1  C   UNL     1      -6.380  17.965  67.890  1.00  0.00    -0.178 C  
HETATM    2  O   UNL     1      -7.326  17.911  66.824  1.00  0.00    -0.182 OA 
ENDROOT
BRANCH   2   3
HETATM    3  C   UNL     1      -8.030  16.739  66.706  1.00  0.00    -0.240 A  
HETATM    4  C   UNL     1      -9.318  16.824  66.150  1.00  0.00    -0.255 A  
HETATM    5  C   UNL     1      -7.569  15.510  67.182  1.00  0.00    -0.253 A  
HETATM    6  C   UNL     1     -10.105  15.666  66.065  1.00  0.00    -0.355 A  
HETATM    7  C   UNL     1      -9.666  14.443  66.603  1.00  0.00    -0.289 A  
HETATM    8  C   UNL     1      -8.375  14.372  67.134  1.00  0.00    -0.214 A  
BRANCH   4   9
HETATM    9  O   UNL     1      -9.725  18.068  65.733  1.00  0.00    -0.521 OA 
HETATM   10  C   UNL     1     -10.857  18.637  66.387  1.00  0.00    -0.061 C  
ENDBRANCH   4   9
BRANCH   7  11
HETATM   11  C   UNL     1     -10.551  13.216  66.616  1.00  0.00    -0.284 C  
BRANCH  11  12
HETATM   12  C   UNL     1     -11.293  13.003  67.922  1.00  0.00    -0.288 A  
HETATM   13  N   UNL     1     -11.924  14.115  68.397  1.00  0.00    -0.349 NA 
HETATM   14  C   UNL     1     -12.494  14.041  69.612  1.00  0.00    -0.157 A  
HETATM   15  C   UNL     1     -12.480  12.903  70.390  1.00  0.00    -0.247 A  
HETATM   16  C   UNL     1     -11.830  11.763  69.906  1.00  0.00    -0.423 A  
HETATM   17  C   UNL     1     -11.765  10.604  70.693  1.00  0.00    -0.454 A  
HETATM   18  C   UNL     1     -11.059   9.459  70.285  1.00  0.00    -0.257 A  
HETATM   19  C   UNL     1     -11.220  11.784  68.644  1.00  0.00    -0.312 A  
HETATM   20  C   UNL     1     -10.469   9.448  69.019  1.00  0.00    -0.217 A  
HETATM   21  C   UNL     1     -10.562  10.603  68.220  1.00  0.00    -0.227 A  
BRANCH  18  22
HETATM   22  O   UNL     1     -10.962   8.365  71.111  1.00  0.00    -0.231 OA 
HETATM   23  C   UNL     1     -12.140   8.042  71.855  1.00  0.00    -0.317 C  
ENDBRANCH  18  22
BRANCH  20  24
HETATM   24  O   UNL     1      -9.724   8.482  68.401  1.00  0.00    -0.150 OA 
HETATM   25  C   UNL     1      -9.248   8.632  67.076  1.00  0.00    -0.151 C  
ENDBRANCH  20  24
ENDBRANCH  11  12
ENDBRANCH   7  11
ENDBRANCH   2   3
TORSDOF 6
ENDMDL
MODEL      106
REMARK 921   NORMALIZED FREE ENERGY PREDICTED BY IDOCK:   -4.82 KCAL/MOL
REMARK 922        TOTAL FREE ENERGY PREDICTED BY IDOCK:   -7.32 KCAL/MOL
REMARK 923 INTER-LIGAND FREE ENERGY PREDICTED BY IDOCK:   -6.59 KCAL/MOL
REMARK 924 INTRA-LIGAND FREE ENERGY PREDICTED BY IDOCK:   -0.73 KCAL/MOL
REMARK 927      BINDING AFFINITY PREDICTED BY RF-SCORE:    0.00 PKD
ROOT
HETATM    1  C   UNL     1     -12.836  15.492  73.464  1.00  0.00    -0.560 C  
HETATM    2  O   UNL     1     -12.988  14.438  72.515  1.00  0.00    -0.372 OA 
ENDROOT
BRANCH   2   3
HETATM    3  C   UNL     1     -12.520  14.698  71.251  1.00  0.00    -0.339 A  
HETATM    4  C   UNL     1     -12.405  13.603  70.377  1.00  0.00    -0.345 A  
HETATM    5  C   UNL     1     -12.083  15.957  70.833  1.00  0.00    -0.414 A  
HETATM    6  C   UNL     1     -11.873  13.802  69.095  1.00  0.00    -0.398 A  
HETATM    7  C   UNL     1     -11.373  15.055  68.699  1.00  0.00    -0.311 A  
HETATM    8  C   UNL     1     -11.514  16.138  69.572  1.00  0.00    -0.292 A  
BRANCH   4   9
HETATM    9  O   UNL     1     -12.820  12.386  70.862  1.00  0.00    -0.218 OA 
HETATM   10  C   UNL     1     -12.050  11.242  70.500  1.00  0.00    -0.387 C  
ENDBRANCH   4   9
BRANCH   7  11
HETATM   11  C   UNL     1     -10.697  15.255  67.361  1.00  0.00    -0.293 C  
BRANCH  11  12
HETATM   12  C   UNL     1     -10.659  14.010  66.495  1.00  0.00    -0.279 A  
HETATM   13  N   UNL     1     -11.834  13.731  65.861  1.00  0.00    -0.363 NA 
HETATM   14  C   UNL     1     -11.919  12.575  65.180  1.00  0.00    -0.434 A  
HETATM   15  C   UNL     1     -10.883  11.671  65.084  1.00  0.00    -0.346 A  
HETATM   16  C   UNL     1      -9.679  11.954  65.736  1.00  0.00    -0.258 A  
HETATM   17  C   UNL     1      -8.621  11.033  65.690  1.00  0.00    -0.131 A  
HETATM   18  C   UNL     1      -7.419  11.235  66.391  1.00  0.00    -0.064 A  
HETATM   19  C   UNL     1      -9.534  13.146  66.460  1.00  0.00    -0.246 A  
HETATM   20  C   UNL     1      -7.243  12.429  67.094  1.00  0.00    -0.080 A  
HETATM   21  C   UNL     1      -8.296  13.364  67.115  1.00  0.00    -0.149 A  
BRANCH  18  22
HETATM   22  O   UNL     1      -6.431  10.281  66.375  1.00  0.00    -0.076 OA 
HETATM   23  C   UNL     1      -6.196   9.608  67.615  1.00  0.00    -0.053 C  
ENDBRANCH  18  22
BRANCH  20  24
HETATM   24  O   UNL     1      -6.193  12.856  67.860  1.00  0.00    -0.093 OA 
HETATM   25  C   UNL     1      -6.224  14.087  68.559  1.00  0.00    -0.093 C  
ENDBRANCH  20  24
ENDBRANCH  11  12
ENDBRANCH   7  11
ENDBRANCH   2   3
TORSDOF 6
ENDMDL
MODEL      107
REMARK 921   NORMALIZED FREE ENERGY PREDICTED BY IDOCK:   -4.81 KCAL/MOL
REMARK 922        TOTAL FREE ENERGY PREDICTED BY IDOCK:   -7.31 KCAL/MOL
REMARK 923 INTER-LIGAND FREE ENERGY PREDICTED BY IDOCK:   -6.31 KCAL/MOL
REMARK 924 INTRA-LIGAND FREE ENERGY PREDICTED BY IDOCK:   -1.00 KCAL/MOL
REMARK 927      BINDING AFFINITY PREDICTED BY RF-SCORE:    0.00 PKD
ROOT
HETATM    1  C   UNL     1     -13.925  14.084  72.451  1.00  0.00    -0.521 C  
HETATM    2  O   UNL     1     -13.079  12.954  72.245  1.00  0.00    -0.402 OA 
ENDROOT
BRANCH   2   3
HETATM    3  C   UNL     1     -12.642  12.759  70.960  1.00  0.00    -0.271 A  
HETATM    4  C   UNL     1     -12.355  11.437  70.578  1.00  0.00    -0.349 A  
HETATM    5  C   UNL     1     -12.391  13.800  70.063  1.00  0.00    -0.364 A  
HETATM    6  C   UNL     1     -11.845  11.189  69.296  1.00  0.00    -0.422 A  
HETATM    7  C   UNL     1     -11.532  12.243  68.418  1.00  0.00    -0.356 A  
HETATM    8  C   UNL     1     -11.842  13.550  68.805  1.00  0.00    -0.390 A  
BRANCH   4   9
HETATM    9  O   UNL     1     -12.591  10.463  71.518  1.00  0.00    -0.381 OA 
HETATM   10  C   UNL     1     -11.673   9.374  71.574  1.00  0.00    -0.394 C  
ENDBRANCH   4   9
BRANCH   7  11
HETATM   11  C   UNL     1     -10.878  11.994  67.077  1.00  0.00    -0.297 C  
BRANCH  11  12
HETATM   12  C   UNL     1      -9.426  11.563  67.167  1.00  0.00    -0.177 A  
HETATM   13  N   UNL     1      -8.541  12.593  67.279  1.00  0.00    -0.188 NA 
HETATM   14  C   UNL     1      -7.229  12.301  67.234  1.00  0.00    -0.138 A  
HETATM   15  C   UNL     1      -6.741  11.020  67.090  1.00  0.00    -0.096 A  
HETATM   16  C   UNL     1      -7.648   9.962  66.970  1.00  0.00    -0.092 A  
HETATM   17  C   UNL     1      -7.181   8.653  66.781  1.00  0.00    -0.078 A  
HETATM   18  C   UNL     1      -8.050   7.567  66.579  1.00  0.00    -0.120 A  
HETATM   19  C   UNL     1      -9.027  10.210  67.013  1.00  0.00    -0.148 A  
HETATM   20  C   UNL     1      -9.427   7.787  66.647  1.00  0.00    -0.205 A  
HETATM   21  C   UNL     1      -9.893   9.098  66.866  1.00  0.00    -0.280 A  
BRANCH  18  22
HETATM   22  O   UNL     1      -7.554   6.309  66.332  1.00  0.00    -0.091 OA 
HETATM   23  C   UNL     1      -7.214   5.538  67.487  1.00  0.00    -0.075 C  
ENDBRANCH  18  22
BRANCH  20  24
HETATM   24  O   UNL     1     -10.470   6.919  66.472  1.00  0.00    -0.163 OA 
HETATM   25  C   UNL     1     -11.009   6.164  67.542  1.00  0.00    -0.307 C  
ENDBRANCH  20  24
ENDBRANCH  11  12
ENDBRANCH   7  11
ENDBRANCH   2   3
TORSDOF 6
ENDMDL
MODEL      108
REMARK 921   NORMALIZED FREE ENERGY PREDICTED BY IDOCK:   -4.79 KCAL/MOL
REMARK 922        TOTAL FREE ENERGY PREDICTED BY IDOCK:   -7.28 KCAL/MOL
REMARK 923 INTER-LIGAND FREE ENERGY PREDICTED BY IDOCK:   -6.35 KCAL/MOL
REMARK 924 INTRA-LIGAND FREE ENERGY PREDICTED BY IDOCK:   -0.92 KCAL/MOL
REMARK 927      BINDING AFFINITY PREDICTED BY RF-SCORE:    0.00 PKD
ROOT
HETATM    1  C   UNL     1      -9.185  18.450  68.382  1.00  0.00    -0.322 C  
HETATM    2  O   UNL     1     -10.315  17.901  69.058  1.00  0.00    -0.361 OA 
ENDROOT
BRANCH   2   3
HETATM    3  C   UNL     1     -10.762  16.690  68.592  1.00  0.00    -0.349 A  
HETATM    4  C   UNL     1     -11.448  15.871  69.506  1.00  0.00    -0.342 A  
HETATM    5  C   UNL     1     -10.497  16.211  67.307  1.00  0.00    -0.309 A  
HETATM    6  C   UNL     1     -11.871  14.597  69.100  1.00  0.00    -0.347 A  
HETATM    7  C   UNL     1     -11.547  14.091  67.828  1.00  0.00    -0.378 A  
HETATM    8  C   UNL     1     -10.883  14.926  66.925  1.00  0.00    -0.319 A  
BRANCH   4   9
HETATM    9  O   UNL     1     -11.645  16.387  70.764  1.00  0.00    -0.334 OA 
HETATM   10  C   UNL     1     -12.394  15.596  71.684  1.00  0.00    -0.428 C  
ENDBRANCH   4   9
BRANCH   7  11
HETATM   11  C   UNL     1     -11.901  12.678  67.420  1.00  0.00    -0.393 C  
BRANCH  11  12
HETATM   12  C   UNL     1     -11.460  11.618  68.412  1.00  0.00    -0.297 A  
HETATM   13  N   UNL     1     -12.402  11.294  69.343  1.00  0.00    -0.302 NA 
HETATM   14  C   UNL     1     -12.043  10.459  70.334  1.00  0.00    -0.315 A  
HETATM   15  C   UNL     1     -10.783   9.913  70.448  1.00  0.00    -0.379 A  
HETATM   16  C   UNL     1      -9.814  10.248  69.497  1.00  0.00    -0.244 A  
HETATM   17  C   UNL     1      -8.511   9.741  69.611  1.00  0.00    -0.194 A  
HETATM   18  C   UNL     1      -7.483  10.107  68.726  1.00  0.00    -0.086 A  
HETATM   19  C   UNL     1     -10.134  11.113  68.441  1.00  0.00    -0.193 A  
HETATM   20  C   UNL     1      -7.787  10.944  67.651  1.00  0.00    -0.113 A  
HETATM   21  C   UNL     1      -9.103  11.429  67.522  1.00  0.00    -0.157 A  
BRANCH  18  22
HETATM   22  O   UNL     1      -6.203   9.640  68.908  1.00  0.00    -0.042 OA 
HETATM   23  C   UNL     1      -5.895   8.403  68.261  1.00  0.00    -0.042 C  
ENDBRANCH  18  22
BRANCH  20  24
HETATM   24  O   UNL     1      -6.979  11.456  66.673  1.00  0.00    -0.138 OA 
HETATM   25  C   UNL     1      -5.930  12.362  66.962  1.00  0.00     0.031 C  
ENDBRANCH  20  24
ENDBRANCH  11  12
ENDBRANCH   7  11
ENDBRANCH   2   3
TORSDOF 6
ENDMDL
MODEL      109
REMARK 921   NORMALIZED FREE ENERGY PREDICTED BY IDOCK:   -4.78 KCAL/MOL
REMARK 922        TOTAL FREE ENERGY PREDICTED BY IDOCK:   -7.26 KCAL/MOL
REMARK 923 INTER-LIGAND FREE ENERGY PREDICTED BY IDOCK:   -6.48 KCAL/MOL
REMARK 924 INTRA-LIGAND FREE ENERGY PREDICTED BY IDOCK:   -0.78 KCAL/MOL
REMARK 927      BINDING AFFINITY PREDICTED BY RF-SCORE:    0.00 PKD
ROOT
HETATM    1  C   UNL     1     -10.370   4.402  65.500  1.00  0.00    -0.224 C  
HETATM    2  O   UNL     1      -9.509   5.486  65.845  1.00  0.00    -0.157 OA 
ENDROOT
BRANCH   2   3
HETATM    3  C   UNL     1      -9.698   6.027  67.092  1.00  0.00    -0.131 A  
HETATM    4  C   UNL     1      -8.549   6.451  67.782  1.00  0.00    -0.116 A  
HETATM    5  C   UNL     1     -10.940   6.094  67.725  1.00  0.00    -0.400 A  
HETATM    6  C   UNL     1      -8.678   6.953  69.085  1.00  0.00    -0.135 A  
HETATM    7  C   UNL     1      -9.920   6.959  69.745  1.00  0.00    -0.187 A  
HETATM    8  C   UNL     1     -11.055   6.553  69.038  1.00  0.00    -0.375 A  
BRANCH   4   9
HETATM    9  O   UNL     1      -7.353   6.326  67.116  1.00  0.00    -0.080 OA 
HETATM   10  C   UNL     1      -6.527   7.485  67.035  1.00  0.00    -0.060 C  
ENDBRANCH   4   9
BRANCH   7  11
HETATM   11  C   UNL     1     -10.052   7.394  71.188  1.00  0.00    -0.189 C  
BRANCH  11  12
HETATM   12  C   UNL     1     -11.121   8.445  71.422  1.00  0.00    -0.255 A  
HETATM   13  N   UNL     1     -12.111   8.057  72.276  1.00  0.00    -0.342 NA 
HETATM   14  C   UNL     1     -13.161   8.882  72.433  1.00  0.00    -0.430 A  
HETATM   15  C   UNL     1     -13.280  10.094  71.787  1.00  0.00    -0.542 A  
HETATM   16  C   UNL     1     -12.267  10.491  70.908  1.00  0.00    -0.490 A  
HETATM   17  C   UNL     1     -12.379  11.700  70.206  1.00  0.00    -0.339 A  
HETATM   18  C   UNL     1     -11.427  12.107  69.255  1.00  0.00    -0.302 A  
HETATM   19  C   UNL     1     -11.147   9.670  70.707  1.00  0.00    -0.403 A  
HETATM   20  C   UNL     1     -10.291  11.319  69.061  1.00  0.00    -0.166 A  
HETATM   21  C   UNL     1     -10.166  10.120  69.789  1.00  0.00    -0.286 A  
BRANCH  18  22
HETATM   22  O   UNL     1     -11.605  13.266  68.539  1.00  0.00    -0.287 OA 
HETATM   23  C   UNL     1     -12.138  14.373  69.270  1.00  0.00    -0.299 C  
ENDBRANCH  18  22
BRANCH  20  24
HETATM   24  O   UNL     1      -9.242  11.479  68.199  1.00  0.00    -0.168 OA 
HETATM   25  C   UNL     1      -8.124  10.610  68.203  1.00  0.00    -0.114 C  
ENDBRANCH  20  24
ENDBRANCH  11  12
ENDBRANCH   7  11
ENDBRANCH   2   3
TORSDOF 6
ENDMDL
MODEL      110
REMARK 921   NORMALIZED FREE ENERGY PREDICTED BY IDOCK:   -4.76 KCAL/MOL
REMARK 922        TOTAL FREE ENERGY PREDICTED BY IDOCK:   -7.24 KCAL/MOL
REMARK 923 INTER-LIGAND FREE ENERGY PREDICTED BY IDOCK:   -6.25 KCAL/MOL
REMARK 924 INTRA-LIGAND FREE ENERGY PREDICTED BY IDOCK:   -0.99 KCAL/MOL
REMARK 927      BINDING AFFINITY PREDICTED BY RF-SCORE:    0.00 PKD
ROOT
HETATM    1  C   UNL     1     -12.281  12.983  63.255  1.00  0.00    -0.382 C  
HETATM    2  O   UNL     1     -10.939  13.076  63.729  1.00  0.00    -0.392 OA 
ENDROOT
BRANCH   2   3
HETATM    3  C   UNL     1     -10.418  11.933  64.281  1.00  0.00    -0.326 A  
HETATM    4  C   UNL     1     -10.291  11.902  65.681  1.00  0.00    -0.247 A  
HETATM    5  C   UNL     1      -9.939  10.859  63.527  1.00  0.00    -0.419 A  
HETATM    6  C   UNL     1      -9.707  10.784  66.292  1.00  0.00    -0.248 A  
HETATM    7  C   UNL     1      -9.166   9.733  65.528  1.00  0.00    -0.270 A  
HETATM    8  C   UNL     1      -9.318   9.770  64.139  1.00  0.00    -0.237 A  
BRANCH   4   9
HETATM    9  O   UNL     1     -10.750  13.004  66.362  1.00  0.00    -0.278 OA 
HETATM   10  C   UNL     1     -11.440  12.773  67.588  1.00  0.00    -0.334 C  
ENDBRANCH   4   9
BRANCH   7  11
HETATM   11  C   UNL     1      -8.435   8.576  66.171  1.00  0.00    -0.139 C  
BRANCH  11  12
HETATM   12  C   UNL     1      -9.250   7.828  67.209  1.00  0.00    -0.139 A  
HETATM   13  N   UNL     1     -10.219   7.022  66.687  1.00  0.00    -0.187 NA 
HETATM   14  C   UNL     1     -11.068   6.427  67.543  1.00  0.00    -0.306 A  
HETATM   15  C   UNL     1     -11.001   6.583  68.911  1.00  0.00    -0.376 A  
HETATM   16  C   UNL     1     -10.011   7.413  69.448  1.00  0.00    -0.176 A  
HETATM   17  C   UNL     1      -9.944   7.623  70.833  1.00  0.00    -0.183 A  
HETATM   18  C   UNL     1      -9.018   8.506  71.415  1.00  0.00    -0.204 A  
HETATM   19  C   UNL     1      -9.098   8.057  68.601  1.00  0.00    -0.140 A  
HETATM   20  C   UNL     1      -8.081   9.135  70.593  1.00  0.00    -0.172 A  
HETATM   21  C   UNL     1      -8.132   8.899  69.205  1.00  0.00    -0.109 A  
BRANCH  18  22
HETATM   22  O   UNL     1      -9.026   8.736  72.770  1.00  0.00    -0.361 OA 
HETATM   23  C   UNL     1      -8.238   7.838  73.557  1.00  0.00    -0.183 C  
ENDBRANCH  18  22
BRANCH  20  24
HETATM   24  O   UNL     1      -7.101  10.037  70.901  1.00  0.00    -0.337 OA 
HETATM   25  C   UNL     1      -6.337  10.690  69.902  1.00  0.00    -0.110 C  
ENDBRANCH  20  24
ENDBRANCH  11  12
ENDBRANCH   7  11
ENDBRANCH   2   3
TORSDOF 6
ENDMDL
MODEL      111
REMARK 921   NORMALIZED FREE ENERGY PREDICTED BY IDOCK:   -4.75 KCAL/MOL
REMARK 922        TOTAL FREE ENERGY PREDICTED BY IDOCK:   -7.22 KCAL/MOL
REMARK 923 INTER-LIGAND FREE ENERGY PREDICTED BY IDOCK:   -6.29 KCAL/MOL
REMARK 924 INTRA-LIGAND FREE ENERGY PREDICTED BY IDOCK:   -0.93 KCAL/MOL
REMARK 927      BINDING AFFINITY PREDICTED BY RF-SCORE:    0.00 PKD
ROOT
HETATM    1  C   UNL     1      -5.133  10.562  64.706  1.00  0.00    -0.145 C  
HETATM    2  O   UNL     1      -5.568   9.272  65.135  1.00  0.00    -0.051 OA 
ENDROOT
BRANCH   2   3
HETATM    3  C   UNL     1      -6.741   9.241  65.845  1.00  0.00    -0.080 A  
HETATM    4  C   UNL     1      -7.830   8.583  65.247  1.00  0.00    -0.106 A  
HETATM    5  C   UNL     1      -6.922   9.892  67.067  1.00  0.00    -0.088 A  
HETATM    6  C   UNL     1      -9.070   8.576  65.901  1.00  0.00    -0.237 A  
HETATM    7  C   UNL     1      -9.268   9.286  67.099  1.00  0.00    -0.157 A  
HETATM    8  C   UNL     1      -8.170   9.918  67.690  1.00  0.00    -0.114 A  
BRANCH   4   9
HETATM    9  O   UNL     1      -7.595   7.993  64.028  1.00  0.00    -0.108 OA 
HETATM   10  C   UNL     1      -8.376   8.442  62.924  1.00  0.00    -0.117 C  
ENDBRANCH   4   9
BRANCH   7  11
HETATM   11  C   UNL     1     -10.628   9.378  67.754  1.00  0.00    -0.317 C  
BRANCH  11  12
HETATM   12  C   UNL     1     -11.042  10.789  68.127  1.00  0.00    -0.280 A  
HETATM   13  N   UNL     1     -11.205  10.990  69.466  1.00  0.00    -0.258 NA 
HETATM   14  C   UNL     1     -11.697  12.176  69.866  1.00  0.00    -0.287 A  
HETATM   15  C   UNL     1     -12.031  13.193  68.997  1.00  0.00    -0.329 A  
HETATM   16  C   UNL     1     -11.868  12.986  67.623  1.00  0.00    -0.401 A  
HETATM   17  C   UNL     1     -12.238  13.987  66.713  1.00  0.00    -0.439 A  
HETATM   18  C   UNL     1     -12.166  13.800  65.322  1.00  0.00    -0.439 A  
HETATM   19  C   UNL     1     -11.358  11.768  67.150  1.00  0.00    -0.387 A  
HETATM   20  C   UNL     1     -11.634  12.606  64.830  1.00  0.00    -0.334 A  
HETATM   21  C   UNL     1     -11.236  11.614  65.747  1.00  0.00    -0.290 A  
BRANCH  18  22
HETATM   22  O   UNL     1     -12.599  14.779  64.460  1.00  0.00    -0.574 OA 
HETATM   23  C   UNL     1     -11.700  15.872  64.260  1.00  0.00    -0.132 C  
ENDBRANCH  18  22
BRANCH  20  24
HETATM   24  O   UNL     1     -11.473  12.175  63.542  1.00  0.00    -0.426 OA 
HETATM   25  C   UNL     1     -10.616  11.097  63.210  1.00  0.00    -0.196 C  
ENDBRANCH  20  24
ENDBRANCH  11  12
ENDBRANCH   7  11
ENDBRANCH   2   3
TORSDOF 6
ENDMDL
MODEL      112
REMARK 921   NORMALIZED FREE ENERGY PREDICTED BY IDOCK:   -4.74 KCAL/MOL
REMARK 922        TOTAL FREE ENERGY PREDICTED BY IDOCK:   -7.21 KCAL/MOL
REMARK 923 INTER-LIGAND FREE ENERGY PREDICTED BY IDOCK:   -6.32 KCAL/MOL
REMARK 924 INTRA-LIGAND FREE ENERGY PREDICTED BY IDOCK:   -0.89 KCAL/MOL
REMARK 927      BINDING AFFINITY PREDICTED BY RF-SCORE:    0.00 PKD
ROOT
HETATM    1  C   UNL     1      -6.307  11.040  66.225  1.00  0.00    -0.119 C  
HETATM    2  O   UNL     1      -7.676  11.235  66.577  1.00  0.00    -0.152 OA 
ENDROOT
BRANCH   2   3
HETATM    3  C   UNL     1      -8.456  10.106  66.599  1.00  0.00    -0.126 A  
HETATM    4  C   UNL     1      -9.785  10.259  67.030  1.00  0.00    -0.176 A  
HETATM    5  C   UNL     1      -7.975   8.829  66.301  1.00  0.00    -0.106 A  
HETATM    6  C   UNL     1     -10.607   9.128  67.132  1.00  0.00    -0.286 A  
HETATM    7  C   UNL     1     -10.104   7.836  66.894  1.00  0.00    -0.356 A  
HETATM    8  C   UNL     1      -8.786   7.704  66.447  1.00  0.00    -0.179 A  
BRANCH   4   9
HETATM    9  O   UNL     1     -10.185  11.537  67.342  1.00  0.00    -0.198 OA 
HETATM   10  C   UNL     1     -11.546  11.720  67.722  1.00  0.00    -0.304 C  
ENDBRANCH   4   9
BRANCH   7  11
HETATM   11  C   UNL     1     -10.950   6.601  67.108  1.00  0.00    -0.478 C  
BRANCH  11  12
HETATM   12  C   UNL     1     -10.321   5.570  68.027  1.00  0.00    -0.177 A  
HETATM   13  N   UNL     1      -9.719   4.533  67.378  1.00  0.00    -0.181 NA 
HETATM   14  C   UNL     1      -9.253   3.515  68.121  1.00  0.00    -0.176 A  
HETATM   15  C   UNL     1      -9.344   3.473  69.496  1.00  0.00    -0.243 A  
HETATM   16  C   UNL     1      -9.965   4.534  70.163  1.00  0.00    -0.278 A  
HETATM   17  C   UNL     1     -10.109   4.500  71.558  1.00  0.00    -0.239 A  
HETATM   18  C   UNL     1     -10.791   5.504  72.267  1.00  0.00    -0.241 A  
HETATM   19  C   UNL     1     -10.468   5.623  69.437  1.00  0.00    -0.367 A  
HETATM   20  C   UNL     1     -11.275   6.611  71.567  1.00  0.00    -0.270 A  
HETATM   21  C   UNL     1     -11.103   6.656  70.170  1.00  0.00    -0.384 A  
BRANCH  18  22
HETATM   22  O   UNL     1     -10.969   5.403  73.626  1.00  0.00    -0.289 OA 
HETATM   23  C   UNL     1     -10.137   6.248  74.425  1.00  0.00    -0.340 C  
ENDBRANCH  18  22
BRANCH  20  24
HETATM   24  O   UNL     1     -11.977   7.698  72.010  1.00  0.00    -0.285 OA 
HETATM   25  C   UNL     1     -11.520   9.023  71.809  1.00  0.00    -0.372 C  
ENDBRANCH  20  24
ENDBRANCH  11  12
ENDBRANCH   7  11
ENDBRANCH   2   3
TORSDOF 6
ENDMDL
MODEL      113
REMARK 921   NORMALIZED FREE ENERGY PREDICTED BY IDOCK:   -4.69 KCAL/MOL
REMARK 922        TOTAL FREE ENERGY PREDICTED BY IDOCK:   -7.15 KCAL/MOL
REMARK 923 INTER-LIGAND FREE ENERGY PREDICTED BY IDOCK:   -6.40 KCAL/MOL
REMARK 924 INTRA-LIGAND FREE ENERGY PREDICTED BY IDOCK:   -0.75 KCAL/MOL
REMARK 927      BINDING AFFINITY PREDICTED BY RF-SCORE:    0.00 PKD
ROOT
HETATM    1  C   UNL     1     -10.058  19.128  68.398  1.00  0.00    -0.418 C  
HETATM    2  O   UNL     1      -9.238  18.012  68.740  1.00  0.00    -0.286 OA 
ENDROOT
BRANCH   2   3
HETATM    3  C   UNL     1      -9.851  16.786  68.712  1.00  0.00    -0.264 A  
HETATM    4  C   UNL     1      -9.077  15.696  68.275  1.00  0.00    -0.187 A  
HETATM    5  C   UNL     1     -11.202  16.590  69.008  1.00  0.00    -0.238 A  
HETATM    6  C   UNL     1      -9.672  14.432  68.167  1.00  0.00    -0.223 A  
HETATM    7  C   UNL     1     -11.047  14.249  68.402  1.00  0.00    -0.274 A  
HETATM    8  C   UNL     1     -11.798  15.338  68.855  1.00  0.00    -0.344 A  
BRANCH   4   9
HETATM    9  O   UNL     1      -7.764  15.963  67.966  1.00  0.00    -0.128 OA 
HETATM   10  C   UNL     1      -7.436  16.110  66.587  1.00  0.00    -0.165 C  
ENDBRANCH   4   9
BRANCH   7  11
HETATM   11  C   UNL     1     -11.722  12.914  68.180  1.00  0.00    -0.395 C  
BRANCH  11  12
HETATM   12  C   UNL     1     -11.175  12.132  67.001  1.00  0.00    -0.314 A  
HETATM   13  N   UNL     1     -11.322  12.755  65.798  1.00  0.00    -0.307 NA 
HETATM   14  C   UNL     1     -10.981  12.072  64.692  1.00  0.00    -0.317 A  
HETATM   15  C   UNL     1     -10.484  10.786  64.716  1.00  0.00    -0.335 A  
HETATM   16  C   UNL     1     -10.337  10.143  65.949  1.00  0.00    -0.221 A  
HETATM   17  C   UNL     1      -9.873   8.820  66.002  1.00  0.00    -0.234 A  
HETATM   18  C   UNL     1      -9.780   8.105  67.209  1.00  0.00    -0.178 A  
HETATM   19  C   UNL     1     -10.676  10.810  67.135  1.00  0.00    -0.324 A  
HETATM   20  C   UNL     1     -10.084   8.760  68.404  1.00  0.00    -0.190 A  
HETATM   21  C   UNL     1     -10.522  10.097  68.350  1.00  0.00    -0.237 A  
BRANCH  18  22
HETATM   22  O   UNL     1      -9.383   6.790  67.214  1.00  0.00    -0.129 OA 
HETATM   23  C   UNL     1     -10.377   5.840  66.822  1.00  0.00    -0.256 C  
ENDBRANCH  18  22
BRANCH  20  24
HETATM   24  O   UNL     1     -10.092   8.294  69.690  1.00  0.00    -0.190 OA 
HETATM   25  C   UNL     1     -11.106   7.431  70.172  1.00  0.00    -0.246 C  
ENDBRANCH  20  24
ENDBRANCH  11  12
ENDBRANCH   7  11
ENDBRANCH   2   3
TORSDOF 6
ENDMDL
MODEL      114
REMARK 921   NORMALIZED FREE ENERGY PREDICTED BY IDOCK:   -4.69 KCAL/MOL
REMARK 922        TOTAL FREE ENERGY PREDICTED BY IDOCK:   -7.14 KCAL/MOL
REMARK 923 INTER-LIGAND FREE ENERGY PREDICTED BY IDOCK:   -6.14 KCAL/MOL
REMARK 924 INTRA-LIGAND FREE ENERGY PREDICTED BY IDOCK:   -1.00 KCAL/MOL
REMARK 927      BINDING AFFINITY PREDICTED BY RF-SCORE:    0.00 PKD
ROOT
HETATM    1  C   UNL     1      -9.847   4.527  69.857  1.00  0.00    -0.227 C  
HETATM    2  O   UNL     1     -10.844   5.546  69.906  1.00  0.00    -0.326 OA 
ENDROOT
BRANCH   2   3
HETATM    3  C   UNL     1     -10.662   6.604  69.051  1.00  0.00    -0.259 A  
HETATM    4  C   UNL     1     -10.623   7.887  69.624  1.00  0.00    -0.234 A  
HETATM    5  C   UNL     1     -10.602   6.473  67.662  1.00  0.00    -0.332 A  
HETATM    6  C   UNL     1     -10.503   9.007  68.790  1.00  0.00    -0.230 A  
HETATM    7  C   UNL     1     -10.508   8.878  67.389  1.00  0.00    -0.347 A  
HETATM    8  C   UNL     1     -10.527   7.595  66.836  1.00  0.00    -0.388 A  
BRANCH   4   9
HETATM    9  O   UNL     1     -10.723   7.949  70.994  1.00  0.00    -0.217 OA 
HETATM   10  C   UNL     1     -11.143   9.187  71.562  1.00  0.00    -0.365 C  
ENDBRANCH   4   9
BRANCH   7  11
HETATM   11  C   UNL     1     -10.491  10.086  66.479  1.00  0.00    -0.223 C  
BRANCH  11  12
HETATM   12  C   UNL     1      -9.310  11.011  66.700  1.00  0.00    -0.177 A  
HETATM   13  N   UNL     1      -8.106  10.479  66.344  1.00  0.00    -0.129 NA 
HETATM   14  C   UNL     1      -6.999  11.186  66.630  1.00  0.00    -0.142 A  
HETATM   15  C   UNL     1      -7.022  12.416  67.252  1.00  0.00    -0.129 A  
HETATM   16  C   UNL     1      -8.255  12.962  67.622  1.00  0.00    -0.177 A  
HETATM   17  C   UNL     1      -8.307  14.193  68.293  1.00  0.00    -0.157 A  
HETATM   18  C   UNL     1      -9.514  14.746  68.753  1.00  0.00    -0.206 A  
HETATM   19  C   UNL     1      -9.443  12.268  67.346  1.00  0.00    -0.181 A  
HETATM   20  C   UNL     1     -10.710  14.086  68.463  1.00  0.00    -0.256 A  
HETATM   21  C   UNL     1     -10.657  12.865  67.764  1.00  0.00    -0.231 A  
BRANCH  18  22
HETATM   22  O   UNL     1      -9.519  15.922  69.464  1.00  0.00    -0.260 OA 
HETATM   23  C   UNL     1      -9.776  17.106  68.704  1.00  0.00    -0.293 C  
ENDBRANCH  18  22
BRANCH  20  24
HETATM   24  O   UNL     1     -11.997  14.399  68.806  1.00  0.00    -0.319 OA 
HETATM   25  C   UNL     1     -12.491  14.221  70.121  1.00  0.00    -0.335 C  
ENDBRANCH  20  24
ENDBRANCH  11  12
ENDBRANCH   7  11
ENDBRANCH   2   3
TORSDOF 6
ENDMDL
MODEL      115
REMARK 921   NORMALIZED FREE ENERGY PREDICTED BY IDOCK:   -4.67 KCAL/MOL
REMARK 922        TOTAL FREE ENERGY PREDICTED BY IDOCK:   -7.11 KCAL/MOL
REMARK 923 INTER-LIGAND FREE ENERGY PREDICTED BY IDOCK:   -6.62 KCAL/MOL
REMARK 924 INTRA-LIGAND FREE ENERGY PREDICTED BY IDOCK:   -0.49 KCAL/MOL
REMARK 927      BINDING AFFINITY PREDICTED BY RF-SCORE:    0.00 PKD
ROOT
HETATM    1  C   UNL     1     -14.026  15.894  73.079  1.00  0.00    -0.282 C  
HETATM    2  O   UNL     1     -13.455  15.720  71.783  1.00  0.00    -0.471 OA 
ENDROOT
BRANCH   2   3
HETATM    3  C   UNL     1     -13.082  14.441  71.460  1.00  0.00    -0.340 A  
HETATM    4  C   UNL     1     -12.453  14.256  70.216  1.00  0.00    -0.361 A  
HETATM    5  C   UNL     1     -13.369  13.328  72.253  1.00  0.00    -0.630 A  
HETATM    6  C   UNL     1     -12.107  12.960  69.808  1.00  0.00    -0.312 A  
HETATM    7  C   UNL     1     -12.455  11.835  70.578  1.00  0.00    -0.317 A  
HETATM    8  C   UNL     1     -13.062  12.037  71.821  1.00  0.00    -0.460 A  
BRANCH   4   9
HETATM    9  O   UNL     1     -12.230  15.387  69.468  1.00  0.00    -0.313 OA 
HETATM   10  C   UNL     1     -11.387  15.259  68.326  1.00  0.00    -0.336 C  
ENDBRANCH   4   9
BRANCH   7  11
HETATM   11  C   UNL     1     -12.187  10.426  70.095  1.00  0.00    -0.305 C  
BRANCH  11  12
HETATM   12  C   UNL     1     -11.091  10.328  69.052  1.00  0.00    -0.230 A  
HETATM   13  N   UNL     1     -11.451  10.778  67.816  1.00  0.00    -0.513 NA 
HETATM   14  C   UNL     1     -10.579  10.604  66.807  1.00  0.00    -0.237 A  
HETATM   15  C   UNL     1      -9.346  10.008  66.962  1.00  0.00    -0.180 A  
HETATM   16  C   UNL     1      -8.977   9.542  68.228  1.00  0.00    -0.124 A  
HETATM   17  C   UNL     1      -7.746   8.894  68.408  1.00  0.00    -0.099 A  
HETATM   18  C   UNL     1      -7.362   8.341  69.642  1.00  0.00    -0.073 A  
HETATM   19  C   UNL     1      -9.847   9.698  69.317  1.00  0.00    -0.195 A  
HETATM   20  C   UNL     1      -8.201   8.511  70.745  1.00  0.00    -0.130 A  
HETATM   21  C   UNL     1      -9.423   9.187  70.568  1.00  0.00    -0.291 A  
BRANCH  18  22
HETATM   22  O   UNL     1      -6.177   7.656  69.763  1.00  0.00    -0.030 OA 
HETATM   23  C   UNL     1      -6.214   6.277  69.384  1.00  0.00    -0.033 C  
ENDBRANCH  18  22
BRANCH  20  24
HETATM   24  O   UNL     1      -8.070   8.063  72.031  1.00  0.00    -0.110 OA 
HETATM   25  C   UNL     1      -9.155   8.061  72.941  1.00  0.00    -0.248 C  
ENDBRANCH  20  24
ENDBRANCH  11  12
ENDBRANCH   7  11
ENDBRANCH   2   3
TORSDOF 6
ENDMDL
MODEL      116
REMARK 921   NORMALIZED FREE ENERGY PREDICTED BY IDOCK:   -4.67 KCAL/MOL
REMARK 922        TOTAL FREE ENERGY PREDICTED BY IDOCK:   -7.11 KCAL/MOL
REMARK 923 INTER-LIGAND FREE ENERGY PREDICTED BY IDOCK:   -6.28 KCAL/MOL
REMARK 924 INTRA-LIGAND FREE ENERGY PREDICTED BY IDOCK:   -0.83 KCAL/MOL
REMARK 927      BINDING AFFINITY PREDICTED BY RF-SCORE:    0.00 PKD
ROOT
HETATM    1  C   UNL     1     -12.136  15.313  65.088  1.00  0.00     0.130 C  
HETATM    2  O   UNL     1     -12.623  14.030  65.479  1.00  0.00    -0.489 OA 
ENDROOT
BRANCH   2   3
HETATM    3  C   UNL     1     -11.828  13.326  66.347  1.00  0.00    -0.396 A  
HETATM    4  C   UNL     1     -11.382  12.062  65.921  1.00  0.00    -0.337 A  
HETATM    5  C   UNL     1     -11.521  13.760  67.639  1.00  0.00    -0.354 A  
HETATM    6  C   UNL     1     -10.619  11.274  66.794  1.00  0.00    -0.305 A  
HETATM    7  C   UNL     1     -10.366  11.684  68.116  1.00  0.00    -0.208 A  
HETATM    8  C   UNL     1     -10.799  12.951  68.517  1.00  0.00    -0.283 A  
BRANCH   4   9
HETATM    9  O   UNL     1     -11.748  11.680  64.653  1.00  0.00    -0.213 OA 
HETATM   10  C   UNL     1     -10.701  11.442  63.715  1.00  0.00    -0.403 C  
ENDBRANCH   4   9
BRANCH   7  11
HETATM   11  C   UNL     1      -9.641  10.793  69.100  1.00  0.00    -0.169 C  
BRANCH  11  12
HETATM   12  C   UNL     1     -10.542   9.818  69.833  1.00  0.00    -0.265 A  
HETATM   13  N   UNL     1     -11.381  10.401  70.737  1.00  0.00    -0.331 NA 
HETATM   14  C   UNL     1     -12.118   9.594  71.519  1.00  0.00    -0.401 A  
HETATM   15  C   UNL     1     -12.074   8.218  71.447  1.00  0.00    -0.331 A  
HETATM   16  C   UNL     1     -11.211   7.618  70.523  1.00  0.00    -0.275 A  
HETATM   17  C   UNL     1     -11.116   6.220  70.455  1.00  0.00    -0.416 A  
HETATM   18  C   UNL     1     -10.209   5.571  69.599  1.00  0.00    -0.266 A  
HETATM   19  C   UNL     1     -10.421   8.413  69.681  1.00  0.00    -0.221 A  
HETATM   20  C   UNL     1      -9.434   6.343  68.731  1.00  0.00    -0.127 A  
HETATM   21  C   UNL     1      -9.553   7.745  68.781  1.00  0.00    -0.154 A  
BRANCH  18  22
HETATM   22  O   UNL     1     -10.097   4.202  69.606  1.00  0.00    -0.121 OA 
HETATM   23  C   UNL     1      -9.076   3.667  70.452  1.00  0.00    -0.128 C  
ENDBRANCH  18  22
BRANCH  20  24
HETATM   24  O   UNL     1      -8.480   5.965  67.827  1.00  0.00    -0.108 OA 
HETATM   25  C   UNL     1      -8.806   5.288  66.626  1.00  0.00    -0.113 C  
ENDBRANCH  20  24
ENDBRANCH  11  12
ENDBRANCH   7  11
ENDBRANCH   2   3
TORSDOF 6
ENDMDL
MODEL      117
REMARK 921   NORMALIZED FREE ENERGY PREDICTED BY IDOCK:   -4.66 KCAL/MOL
REMARK 922        TOTAL FREE ENERGY PREDICTED BY IDOCK:   -7.10 KCAL/MOL
REMARK 923 INTER-LIGAND FREE ENERGY PREDICTED BY IDOCK:   -6.37 KCAL/MOL
REMARK 924 INTRA-LIGAND FREE ENERGY PREDICTED BY IDOCK:   -0.72 KCAL/MOL
REMARK 927      BINDING AFFINITY PREDICTED BY RF-SCORE:    0.00 PKD
ROOT
HETATM    1  C   UNL     1      -9.826   4.503  73.807  1.00  0.00    -0.143 C  
HETATM    2  O   UNL     1      -9.241   5.636  73.167  1.00  0.00    -0.133 OA 
ENDROOT
BRANCH   2   3
HETATM    3  C   UNL     1     -10.118   6.508  72.572  1.00  0.00    -0.172 A  
HETATM    4  C   UNL     1      -9.838   7.879  72.701  1.00  0.00    -0.252 A  
HETATM    5  C   UNL     1     -11.294   6.106  71.934  1.00  0.00    -0.350 A  
HETATM    6  C   UNL     1     -10.736   8.815  72.167  1.00  0.00    -0.383 A  
HETATM    7  C   UNL     1     -11.950   8.412  71.583  1.00  0.00    -0.357 A  
HETATM    8  C   UNL     1     -12.203   7.044  71.444  1.00  0.00    -0.407 A  
BRANCH   4   9
HETATM    9  O   UNL     1      -8.684   8.209  73.370  1.00  0.00    -0.233 OA 
HETATM   10  C   UNL     1      -7.519   8.445  72.584  1.00  0.00    -0.074 C  
ENDBRANCH   4   9
BRANCH   7  11
HETATM   11  C   UNL     1     -12.975   9.416  71.104  1.00  0.00    -0.307 C  
BRANCH  11  12
HETATM   12  C   UNL     1     -12.376  10.681  70.519  1.00  0.00    -0.359 A  
HETATM   13  N   UNL     1     -12.754  11.827  71.155  1.00  0.00    -0.358 NA 
HETATM   14  C   UNL     1     -12.370  12.997  70.617  1.00  0.00    -0.310 A  
HETATM   15  C   UNL     1     -11.611  13.095  69.470  1.00  0.00    -0.347 A  
HETATM   16  C   UNL     1     -11.227  11.921  68.814  1.00  0.00    -0.314 A  
HETATM   17  C   UNL     1     -10.490  11.990  67.623  1.00  0.00    -0.226 A  
HETATM   18  C   UNL     1     -10.145  10.843  66.886  1.00  0.00    -0.212 A  
HETATM   19  C   UNL     1     -11.598  10.671  69.332  1.00  0.00    -0.352 A  
HETATM   20  C   UNL     1     -10.479   9.589  67.399  1.00  0.00    -0.272 A  
HETATM   21  C   UNL     1     -11.194   9.521  68.610  1.00  0.00     0.060 A  
BRANCH  18  22
HETATM   22  O   UNL     1      -9.479  10.955  65.689  1.00  0.00    -0.195 OA 
HETATM   23  C   UNL     1      -8.065  10.749  65.744  1.00  0.00    -0.135 C  
ENDBRANCH  18  22
BRANCH  20  24
HETATM   24  O   UNL     1     -10.278   8.339  66.879  1.00  0.00    -0.268 OA 
HETATM   25  C   UNL     1     -10.907   7.190  67.416  1.00  0.00    -0.276 C  
ENDBRANCH  20  24
ENDBRANCH  11  12
ENDBRANCH   7  11
ENDBRANCH   2   3
TORSDOF 6
ENDMDL
MODEL      118
REMARK 921   NORMALIZED FREE ENERGY PREDICTED BY IDOCK:   -4.66 KCAL/MOL
REMARK 922        TOTAL FREE ENERGY PREDICTED BY IDOCK:   -7.10 KCAL/MOL
REMARK 923 INTER-LIGAND FREE ENERGY PREDICTED BY IDOCK:   -6.12 KCAL/MOL
REMARK 924 INTRA-LIGAND FREE ENERGY PREDICTED BY IDOCK:   -0.97 KCAL/MOL
REMARK 927      BINDING AFFINITY PREDICTED BY RF-SCORE:    0.00 PKD
ROOT
HETATM    1  C   UNL     1     -12.448  12.590  63.370  1.00  0.00    -0.408 C  
HETATM    2  O   UNL     1     -11.580  11.504  63.690  1.00  0.00    -0.394 OA 
ENDROOT
BRANCH   2   3
HETATM    3  C   UNL     1     -10.793  11.672  64.801  1.00  0.00    -0.308 A  
HETATM    4  C   UNL     1      -9.704  10.796  64.948  1.00  0.00    -0.276 A  
HETATM    5  C   UNL     1     -11.070  12.595  65.811  1.00  0.00    -0.332 A  
HETATM    6  C   UNL     1      -8.904  10.883  66.097  1.00  0.00    -0.195 A  
HETATM    7  C   UNL     1      -9.223  11.768  67.143  1.00  0.00    -0.179 A  
HETATM    8  C   UNL     1     -10.297  12.646  66.972  1.00  0.00    -0.241 A  
BRANCH   4   9
HETATM    9  O   UNL     1      -9.506   9.888  63.935  1.00  0.00    -0.273 OA 
HETATM   10  C   UNL     1      -8.347  10.057  63.124  1.00  0.00    -0.169 C  
ENDBRANCH   4   9
BRANCH   7  11
HETATM   11  C   UNL     1      -8.434  11.792  68.433  1.00  0.00    -0.155 C  
BRANCH  11  12
HETATM   12  C   UNL     1      -8.304  10.437  69.104  1.00  0.00    -0.158 A  
HETATM   13  N   UNL     1      -7.110   9.815  68.886  1.00  0.00    -0.065 NA 
HETATM   14  C   UNL     1      -6.968   8.557  69.338  1.00  0.00    -0.049 A  
HETATM   15  C   UNL     1      -7.957   7.875  70.014  1.00  0.00    -0.111 A  
HETATM   16  C   UNL     1      -9.183   8.510  70.234  1.00  0.00    -0.164 A  
HETATM   17  C   UNL     1     -10.223   7.827  70.882  1.00  0.00    -0.207 A  
HETATM   18  C   UNL     1     -11.497   8.393  71.060  1.00  0.00    -0.268 A  
HETATM   19  C   UNL     1      -9.387   9.823  69.785  1.00  0.00    -0.249 A  
HETATM   20  C   UNL     1     -11.712   9.709  70.647  1.00  0.00    -0.280 A  
HETATM   21  C   UNL     1     -10.657  10.403  70.023  1.00  0.00    -0.282 A  
BRANCH  18  22
HETATM   22  O   UNL     1     -12.510   7.668  71.641  1.00  0.00    -0.312 OA 
HETATM   23  C   UNL     1     -12.167   6.343  72.056  1.00  0.00    -0.269 C  
ENDBRANCH  18  22
BRANCH  20  24
HETATM   24  O   UNL     1     -12.845  10.474  70.688  1.00  0.00    -0.358 OA 
HETATM   25  C   UNL     1     -13.136  11.330  71.778  1.00  0.00    -0.422 C  
ENDBRANCH  20  24
ENDBRANCH  11  12
ENDBRANCH   7  11
ENDBRANCH   2   3
TORSDOF 6
ENDMDL
MODEL      119
REMARK 921   NORMALIZED FREE ENERGY PREDICTED BY IDOCK:   -4.63 KCAL/MOL
REMARK 922        TOTAL FREE ENERGY PREDICTED BY IDOCK:   -7.06 KCAL/MOL
REMARK 923 INTER-LIGAND FREE ENERGY PREDICTED BY IDOCK:   -6.70 KCAL/MOL
REMARK 924 INTRA-LIGAND FREE ENERGY PREDICTED BY IDOCK:   -0.36 KCAL/MOL
REMARK 927      BINDING AFFINITY PREDICTED BY RF-SCORE:    0.00 PKD
ROOT
HETATM    1  C   UNL     1      -8.325   8.355  64.822  1.00  0.00    -0.141 C  
HETATM    2  O   UNL     1      -9.010   8.480  66.067  1.00  0.00    -0.163 OA 
ENDROOT
BRANCH   2   3
HETATM    3  C   UNL     1      -9.732   9.634  66.241  1.00  0.00    -0.240 A  
HETATM    4  C   UNL     1     -10.238   9.880  67.529  1.00  0.00    -0.216 A  
HETATM    5  C   UNL     1     -10.051  10.509  65.200  1.00  0.00    -0.383 A  
HETATM    6  C   UNL     1     -11.036  11.013  67.746  1.00  0.00    -0.323 A  
HETATM    7  C   UNL     1     -11.410  11.858  66.686  1.00  0.00    -0.400 A  
HETATM    8  C   UNL     1     -10.882  11.610  65.416  1.00  0.00    -0.336 A  
BRANCH   4   9
HETATM    9  O   UNL     1      -9.917   8.962  68.499  1.00  0.00    -0.167 OA 
HETATM   10  C   UNL     1      -9.104   9.413  69.580  1.00  0.00    -0.181 C  
ENDBRANCH   4   9
BRANCH   7  11
HETATM   11  C   UNL     1     -12.360  13.017  66.889  1.00  0.00    -0.068 C  
BRANCH  11  12
HETATM   12  C   UNL     1     -11.906  14.310  66.239  1.00  0.00    -0.406 A  
HETATM   13  N   UNL     1     -11.874  14.273  64.876  1.00  0.00    -0.389 NA 
HETATM   14  C   UNL     1     -11.360  15.335  64.232  1.00  0.00    -0.103 A  
HETATM   15  C   UNL     1     -10.875  16.453  64.876  1.00  0.00    -0.268 A  
HETATM   16  C   UNL     1     -10.902  16.491  66.274  1.00  0.00    -0.037 A  
HETATM   17  C   UNL     1     -10.378  17.599  66.957  1.00  0.00    -0.330 A  
HETATM   18  C   UNL     1     -10.313  17.652  68.360  1.00  0.00    -0.375 A  
HETATM   19  C   UNL     1     -11.430  15.412  66.997  1.00  0.00    -0.103 A  
HETATM   20  C   UNL     1     -10.859  16.601  69.100  1.00  0.00    -0.315 A  
HETATM   21  C   UNL     1     -11.410  15.504  68.411  1.00  0.00    -0.357 A  
BRANCH  18  22
HETATM   22  O   UNL     1      -9.733  18.725  68.993  1.00  0.00    -0.350 OA 
HETATM   23  C   UNL     1      -8.376  18.999  68.635  1.00  0.00    -0.361 C  
ENDBRANCH  18  22
BRANCH  20  24
HETATM   24  O   UNL     1     -10.907  16.404  70.452  1.00  0.00    -0.275 OA 
HETATM   25  C   UNL     1     -12.064  15.909  71.100  1.00  0.00    -0.418 C  
ENDBRANCH  20  24
ENDBRANCH  11  12
ENDBRANCH   7  11
ENDBRANCH   2   3
TORSDOF 6
ENDMDL
MODEL      120
REMARK 921   NORMALIZED FREE ENERGY PREDICTED BY IDOCK:   -4.62 KCAL/MOL
REMARK 922        TOTAL FREE ENERGY PREDICTED BY IDOCK:   -7.05 KCAL/MOL
REMARK 923 INTER-LIGAND FREE ENERGY PREDICTED BY IDOCK:   -6.48 KCAL/MOL
REMARK 924 INTRA-LIGAND FREE ENERGY PREDICTED BY IDOCK:   -0.57 KCAL/MOL
REMARK 927      BINDING AFFINITY PREDICTED BY RF-SCORE:    0.00 PKD
ROOT
HETATM    1  C   UNL     1      -9.104   8.509  65.357  1.00  0.00    -0.043 C  
HETATM    2  O   UNL     1      -8.700   9.501  66.299  1.00  0.00    -0.137 OA 
ENDROOT
BRANCH   2   3
HETATM    3  C   UNL     1      -9.201  10.762  66.093  1.00  0.00    -0.180 A  
HETATM    4  C   UNL     1      -8.579  11.815  66.786  1.00  0.00    -0.185 A  
HETATM    5  C   UNL     1     -10.328  11.027  65.312  1.00  0.00    -0.338 A  
HETATM    6  C   UNL     1      -9.091  13.114  66.661  1.00  0.00    -0.180 A  
HETATM    7  C   UNL     1     -10.263  13.370  65.928  1.00  0.00    -0.302 A  
HETATM    8  C   UNL     1     -10.857  12.315  65.228  1.00  0.00    -0.332 A  
BRANCH   4   9
HETATM    9  O   UNL     1      -7.497  11.481  67.565  1.00  0.00    -0.103 OA 
HETATM   10  C   UNL     1      -6.212  11.517  66.947  1.00  0.00    -0.143 C  
ENDBRANCH   4   9
BRANCH   7  11
HETATM   11  C   UNL     1     -10.886  14.747  65.878  1.00  0.00    -0.331 C  
BRANCH  11  12
HETATM   12  C   UNL     1     -10.726  15.546  67.158  1.00  0.00    -0.315 A  
HETATM   13  N   UNL     1     -11.639  15.245  68.125  1.00  0.00    -0.345 NA 
HETATM   14  C   UNL     1     -11.644  15.999  69.238  1.00  0.00    -0.331 A  
HETATM   15  C   UNL     1     -10.773  17.046  69.451  1.00  0.00    -0.184 A  
HETATM   16  C   UNL     1      -9.840  17.359  68.458  1.00  0.00    -0.320 A  
HETATM   17  C   UNL     1      -8.969  18.445  68.629  1.00  0.00    -0.308 A  
HETATM   18  C   UNL     1      -8.065  18.847  67.630  1.00  0.00    -0.255 A  
HETATM   19  C   UNL     1      -9.788  16.604  67.277  1.00  0.00    -0.255 A  
HETATM   20  C   UNL     1      -7.978  18.092  66.459  1.00  0.00    -0.263 A  
HETATM   21  C   UNL     1      -8.833  16.985  66.302  1.00  0.00    -0.289 A  
BRANCH  18  22
HETATM   22  O   UNL     1      -7.273  19.956  67.807  1.00  0.00    -0.261 OA 
HETATM   23  C   UNL     1      -6.652  20.077  69.090  1.00  0.00    -0.309 C  
ENDBRANCH  18  22
BRANCH  20  24
HETATM   24  O   UNL     1      -7.206  18.277  65.344  1.00  0.00    -0.541 OA 
HETATM   25  C   UNL     1      -5.854  18.688  65.424  1.00  0.00    -0.231 C  
ENDBRANCH  20  24
ENDBRANCH  11  12
ENDBRANCH   7  11
ENDBRANCH   2   3
TORSDOF 6
ENDMDL
MODEL      121
REMARK 921   NORMALIZED FREE ENERGY PREDICTED BY IDOCK:   -4.60 KCAL/MOL
REMARK 922        TOTAL FREE ENERGY PREDICTED BY IDOCK:   -7.02 KCAL/MOL
REMARK 923 INTER-LIGAND FREE ENERGY PREDICTED BY IDOCK:   -6.15 KCAL/MOL
REMARK 924 INTRA-LIGAND FREE ENERGY PREDICTED BY IDOCK:   -0.87 KCAL/MOL
REMARK 927      BINDING AFFINITY PREDICTED BY RF-SCORE:    0.00 PKD
ROOT
HETATM    1  C   UNL     1      -6.796   6.677  70.805  1.00  0.00    -0.063 C  
HETATM    2  O   UNL     1      -7.908   7.095  71.595  1.00  0.00    -0.095 OA 
ENDROOT
BRANCH   2   3
HETATM    3  C   UNL     1      -8.804   7.929  70.975  1.00  0.00    -0.141 A  
HETATM    4  C   UNL     1     -10.098   7.424  70.758  1.00  0.00    -0.189 A  
HETATM    5  C   UNL     1      -8.471   9.194  70.485  1.00  0.00    -0.236 A  
HETATM    6  C   UNL     1     -11.034   8.211  70.072  1.00  0.00    -0.199 A  
HETATM    7  C   UNL     1     -10.679   9.456  69.523  1.00  0.00    -0.238 A  
HETATM    8  C   UNL     1      -9.395   9.952  69.766  1.00  0.00    -0.248 A  
BRANCH   4   9
HETATM    9  O   UNL     1     -10.350   6.160  71.234  1.00  0.00    -0.205 OA 
HETATM   10  C   UNL     1     -11.221   6.047  72.356  1.00  0.00    -0.292 C  
ENDBRANCH   4   9
BRANCH   7  11
HETATM   11  C   UNL     1     -11.648  10.263  68.686  1.00  0.00    -0.096 C  
BRANCH  11  12
HETATM   12  C   UNL     1     -11.059  10.788  67.391  1.00  0.00    -0.296 A  
HETATM   13  N   UNL     1     -10.535   9.824  66.581  1.00  0.00    -0.196 NA 
HETATM   14  C   UNL     1      -9.879  10.222  65.477  1.00  0.00    -0.282 A  
HETATM   15  C   UNL     1      -9.721  11.545  65.122  1.00  0.00    -0.268 A  
HETATM   16  C   UNL     1     -10.254  12.535  65.954  1.00  0.00    -0.280 A  
HETATM   17  C   UNL     1     -10.072  13.890  65.640  1.00  0.00    -0.332 A  
HETATM   18  C   UNL     1     -10.522  14.922  66.482  1.00  0.00    -0.297 A  
HETATM   19  C   UNL     1     -10.949  12.176  67.118  1.00  0.00    -0.316 A  
HETATM   20  C   UNL     1     -11.241  14.587  67.631  1.00  0.00    -0.322 A  
HETATM   21  C   UNL     1     -11.447  13.227  67.928  1.00  0.00    -0.341 A  
BRANCH  18  22
HETATM   22  O   UNL     1     -10.268  16.237  66.174  1.00  0.00    -0.311 OA 
HETATM   23  C   UNL     1      -9.089  16.796  66.759  1.00  0.00    -0.241 C  
ENDBRANCH  18  22
BRANCH  20  24
HETATM   24  O   UNL     1     -11.765  15.387  68.609  1.00  0.00    -0.353 OA 
HETATM   25  C   UNL     1     -11.017  15.772  69.748  1.00  0.00    -0.316 C  
ENDBRANCH  20  24
ENDBRANCH  11  12
ENDBRANCH   7  11
ENDBRANCH   2   3
TORSDOF 6
ENDMDL
MODEL      122
REMARK 921   NORMALIZED FREE ENERGY PREDICTED BY IDOCK:   -4.59 KCAL/MOL
REMARK 922        TOTAL FREE ENERGY PREDICTED BY IDOCK:   -7.00 KCAL/MOL
REMARK 923 INTER-LIGAND FREE ENERGY PREDICTED BY IDOCK:   -6.18 KCAL/MOL
REMARK 924 INTRA-LIGAND FREE ENERGY PREDICTED BY IDOCK:   -0.82 KCAL/MOL
REMARK 927      BINDING AFFINITY PREDICTED BY RF-SCORE:    0.00 PKD
ROOT
HETATM    1  C   UNL     1      -8.954   3.092  66.178  1.00  0.00    -0.148 C  
HETATM    2  O   UNL     1      -8.804   4.299  65.433  1.00  0.00    -0.122 OA 
ENDROOT
BRANCH   2   3
HETATM    3  C   UNL     1      -9.349   5.424  65.999  1.00  0.00    -0.156 A  
HETATM    4  C   UNL     1      -8.640   6.627  65.835  1.00  0.00    -0.148 A  
HETATM    5  C   UNL     1     -10.504   5.412  66.784  1.00  0.00    -0.347 A  
HETATM    6  C   UNL     1      -9.120   7.794  66.446  1.00  0.00    -0.216 A  
HETATM    7  C   UNL     1     -10.246   7.767  67.289  1.00  0.00    -0.343 A  
HETATM    8  C   UNL     1     -10.950   6.568  67.425  1.00  0.00    -0.458 A  
BRANCH   4   9
HETATM    9  O   UNL     1      -7.493   6.564  65.080  1.00  0.00    -0.074 OA 
HETATM   10  C   UNL     1      -7.541   7.129  63.772  1.00  0.00    -0.109 C  
ENDBRANCH   4   9
BRANCH   7  11
HETATM   11  C   UNL     1     -10.706   8.996  68.041  1.00  0.00    -0.184 C  
BRANCH  11  12
HETATM   12  C   UNL     1      -9.746  10.168  67.960  1.00  0.00    -0.142 A  
HETATM   13  N   UNL     1      -8.689  10.088  68.818  1.00  0.00    -0.129 NA 
HETATM   14  C   UNL     1      -7.865  11.147  68.899  1.00  0.00    -0.131 A  
HETATM   15  C   UNL     1      -8.030  12.296  68.155  1.00  0.00    -0.155 A  
HETATM   16  C   UNL     1      -9.115  12.381  67.277  1.00  0.00    -0.187 A  
HETATM   17  C   UNL     1      -9.331  13.554  66.537  1.00  0.00    -0.227 A  
HETATM   18  C   UNL     1     -10.448  13.718  65.700  1.00  0.00    -0.305 A  
HETATM   19  C   UNL     1     -10.005  11.305  67.152  1.00  0.00    -0.219 A  
HETATM   20  C   UNL     1     -11.331  12.648  65.539  1.00  0.00    -0.321 A  
HETATM   21  C   UNL     1     -11.095  11.462  66.261  1.00  0.00    -0.281 A  
BRANCH  18  22
HETATM   22  O   UNL     1     -10.661  14.905  65.042  1.00  0.00    -0.380 OA 
HETATM   23  C   UNL     1     -10.435  16.090  65.810  1.00  0.00    -0.374 C  
ENDBRANCH  18  22
BRANCH  20  24
HETATM   24  O   UNL     1     -12.484  12.556  64.809  1.00  0.00    -0.476 OA 
HETATM   25  C   UNL     1     -12.507  12.008  63.504  1.00  0.00    -0.540 C  
ENDBRANCH  20  24
ENDBRANCH  11  12
ENDBRANCH   7  11
ENDBRANCH   2   3
TORSDOF 6
ENDMDL
MODEL      123
REMARK 921   NORMALIZED FREE ENERGY PREDICTED BY IDOCK:   -4.58 KCAL/MOL
REMARK 922        TOTAL FREE ENERGY PREDICTED BY IDOCK:   -6.99 KCAL/MOL
REMARK 923 INTER-LIGAND FREE ENERGY PREDICTED BY IDOCK:   -7.11 KCAL/MOL
REMARK 924 INTRA-LIGAND FREE ENERGY PREDICTED BY IDOCK:    0.12 KCAL/MOL
REMARK 927      BINDING AFFINITY PREDICTED BY RF-SCORE:    0.00 PKD
ROOT
HETATM    1  C   UNL     1      -6.722  16.879  66.586  1.00  0.00    -0.229 C  
HETATM    2  O   UNL     1      -6.834  15.901  67.618  1.00  0.00    -0.135 OA 
ENDROOT
BRANCH   2   3
HETATM    3  C   UNL     1      -7.747  14.901  67.400  1.00  0.00    -0.204 A  
HETATM    4  C   UNL     1      -9.072  15.293  67.139  1.00  0.00    -0.210 A  
HETATM    5  C   UNL     1      -7.444  13.541  67.507  1.00  0.00    -0.177 A  
HETATM    6  C   UNL     1     -10.057  14.310  66.971  1.00  0.00    -0.260 A  
HETATM    7  C   UNL     1      -9.764  12.945  67.144  1.00  0.00    -0.221 A  
HETATM    8  C   UNL     1      -8.439  12.571  67.383  1.00  0.00    -0.181 A  
BRANCH   4   9
HETATM    9  O   UNL     1      -9.310  16.645  67.080  1.00  0.00    -0.222 OA 
HETATM   10  C   UNL     1     -10.304  17.093  66.163  1.00  0.00    -0.322 C  
ENDBRANCH   4   9
BRANCH   7  11
HETATM   11  C   UNL     1     -10.842  11.885  67.076  1.00  0.00    -0.303 C  
BRANCH  11  12
HETATM   12  C   UNL     1     -11.158  11.237  68.410  1.00  0.00    -0.240 A  
HETATM   13  N   UNL     1     -10.964   9.887  68.438  1.00  0.00    -0.217 NA 
HETATM   14  C   UNL     1     -11.345   9.222  69.543  1.00  0.00     0.103 A  
HETATM   15  C   UNL     1     -11.908   9.834  70.642  1.00  0.00    -0.360 A  
HETATM   16  C   UNL     1     -12.112  11.218  70.613  1.00  0.00    -0.480 A  
HETATM   17  C   UNL     1     -12.721  11.862  71.701  1.00  0.00    -0.340 A  
HETATM   18  C   UNL     1     -13.016  13.236  71.689  1.00  0.00    -0.349 A  
HETATM   19  C   UNL     1     -11.732  11.961  69.487  1.00  0.00    -0.410 A  
HETATM   20  C   UNL     1     -12.620  14.000  70.590  1.00  0.00    -0.344 A  
HETATM   21  C   UNL     1     -11.983  13.355  69.512  1.00  0.00    -0.377 A  
BRANCH  18  22
HETATM   22  O   UNL     1     -13.673  13.819  72.746  1.00  0.00    -0.699 OA 
HETATM   23  C   UNL     1     -12.907  14.750  73.515  1.00  0.00    -0.404 C  
ENDBRANCH  18  22
BRANCH  20  24
HETATM   24  O   UNL     1     -12.800  15.330  70.328  1.00  0.00    -0.341 OA 
HETATM   25  C   UNL     1     -11.729  16.173  69.942  1.00  0.00    -0.184 C  
ENDBRANCH  20  24
ENDBRANCH  11  12
ENDBRANCH   7  11
ENDBRANCH   2   3
TORSDOF 6
ENDMDL
MODEL      124
REMARK 921   NORMALIZED FREE ENERGY PREDICTED BY IDOCK:   -4.57 KCAL/MOL
REMARK 922        TOTAL FREE ENERGY PREDICTED BY IDOCK:   -6.98 KCAL/MOL
REMARK 923 INTER-LIGAND FREE ENERGY PREDICTED BY IDOCK:   -6.49 KCAL/MOL
REMARK 924 INTRA-LIGAND FREE ENERGY PREDICTED BY IDOCK:   -0.49 KCAL/MOL
REMARK 927      BINDING AFFINITY PREDICTED BY RF-SCORE:    0.00 PKD
ROOT
HETATM    1  C   UNL     1     -10.428   8.715  67.513  1.00  0.00    -0.266 C  
HETATM    2  O   UNL     1     -11.207   9.857  67.159  1.00  0.00    -0.076 OA 
ENDROOT
BRANCH   2   3
HETATM    3  C   UNL     1     -10.709  11.070  67.561  1.00  0.00    -0.244 A  
HETATM    4  C   UNL     1     -11.471  11.794  68.495  1.00  0.00    -0.296 A  
HETATM    5  C   UNL     1      -9.551  11.644  67.032  1.00  0.00    -0.196 A  
HETATM    6  C   UNL     1     -11.040  13.068  68.892  1.00  0.00    -0.307 A  
HETATM    7  C   UNL     1      -9.910  13.670  68.310  1.00  0.00    -0.232 A  
HETATM    8  C   UNL     1      -9.152  12.930  67.399  1.00  0.00    -0.197 A  
BRANCH   4   9
HETATM    9  O   UNL     1     -12.618  11.189  68.950  1.00  0.00    -0.358 OA 
HETATM   10  C   UNL     1     -12.646  10.789  70.318  1.00  0.00    -0.276 C  
ENDBRANCH   4   9
BRANCH   7  11
HETATM   11  C   UNL     1      -9.500  15.087  68.649  1.00  0.00    -0.212 C  
BRANCH  11  12
HETATM   12  C   UNL     1      -9.879  16.109  67.595  1.00  0.00    -0.236 A  
HETATM   13  N   UNL     1     -10.664  15.619  66.594  1.00  0.00    -0.308 NA 
HETATM   14  C   UNL     1     -10.934  16.429  65.555  1.00  0.00    -0.119 A  
HETATM   15  C   UNL     1     -10.468  17.723  65.459  1.00  0.00    -0.023 A  
HETATM   16  C   UNL     1      -9.659  18.226  66.483  1.00  0.00    -0.320 A  
HETATM   17  C   UNL     1      -9.136  19.524  66.392  1.00  0.00    -0.417 A  
HETATM   18  C   UNL     1      -8.258  20.049  67.356  1.00  0.00    -0.332 A  
HETATM   19  C   UNL     1      -9.347  17.425  67.591  1.00  0.00    -0.245 A  
HETATM   20  C   UNL     1      -7.957  19.279  68.481  1.00  0.00    -0.361 A  
HETATM   21  C   UNL     1      -8.506  17.986  68.584  1.00  0.00    -0.277 A  
BRANCH  18  22
HETATM   22  O   UNL     1      -7.714  21.301  67.200  1.00  0.00    -0.329 OA 
HETATM   23  C   UNL     1      -6.382  21.340  66.681  1.00  0.00    -0.282 C  
ENDBRANCH  18  22
BRANCH  20  24
HETATM   24  O   UNL     1      -7.130  19.545  69.538  1.00  0.00    -0.323 OA 
HETATM   25  C   UNL     1      -5.992  18.752  69.821  1.00  0.00    -0.256 C  
ENDBRANCH  20  24
ENDBRANCH  11  12
ENDBRANCH   7  11
ENDBRANCH   2   3
TORSDOF 6
ENDMDL
MODEL      125
REMARK 921   NORMALIZED FREE ENERGY PREDICTED BY IDOCK:   -4.54 KCAL/MOL
REMARK 922        TOTAL FREE ENERGY PREDICTED BY IDOCK:   -6.93 KCAL/MOL
REMARK 923 INTER-LIGAND FREE ENERGY PREDICTED BY IDOCK:   -6.50 KCAL/MOL
REMARK 924 INTRA-LIGAND FREE ENERGY PREDICTED BY IDOCK:   -0.43 KCAL/MOL
REMARK 927      BINDING AFFINITY PREDICTED BY RF-SCORE:    0.00 PKD
ROOT
HETATM    1  C   UNL     1      -9.315   3.102  68.079  1.00  0.00    -0.194 C  
HETATM    2  O   UNL     1      -8.797   3.832  66.969  1.00  0.00    -0.112 OA 
ENDROOT
BRANCH   2   3
HETATM    3  C   UNL     1      -9.180   5.147  66.885  1.00  0.00    -0.118 A  
HETATM    4  C   UNL     1      -8.174   6.115  67.046  1.00  0.00    -0.106 A  
HETATM    5  C   UNL     1     -10.507   5.557  66.736  1.00  0.00    -0.355 A  
HETATM    6  C   UNL     1      -8.521   7.474  67.032  1.00  0.00    -0.122 A  
HETATM    7  C   UNL     1      -9.864   7.884  66.948  1.00  0.00    -0.309 A  
HETATM    8  C   UNL     1     -10.850   6.909  66.768  1.00  0.00    -0.270 A  
BRANCH   4   9
HETATM    9  O   UNL     1      -6.895   5.645  67.223  1.00  0.00    -0.060 OA 
HETATM   10  C   UNL     1      -5.879   6.182  66.379  1.00  0.00    -0.024 C  
ENDBRANCH   4   9
BRANCH   7  11
HETATM   11  C   UNL     1     -10.259   9.341  67.045  1.00  0.00    -0.331 C  
BRANCH  11  12
HETATM   12  C   UNL     1     -10.717   9.768  68.426  1.00  0.00    -0.221 A  
HETATM   13  N   UNL     1     -10.773   8.754  69.337  1.00  0.00    -0.206 NA 
HETATM   14  C   UNL     1     -11.293   9.027  70.546  1.00  0.00    -0.243 A  
HETATM   15  C   UNL     1     -11.759  10.272  70.911  1.00  0.00    -0.472 A  
HETATM   16  C   UNL     1     -11.706  11.311  69.977  1.00  0.00    -0.428 A  
HETATM   17  C   UNL     1     -12.211  12.578  70.305  1.00  0.00    -0.345 A  
HETATM   18  C   UNL     1     -12.250  13.634  69.377  1.00  0.00    -0.259 A  
HETATM   19  C   UNL     1     -11.172  11.084  68.700  1.00  0.00    -0.322 A  
HETATM   20  C   UNL     1     -11.697  13.437  68.111  1.00  0.00    -0.362 A  
HETATM   21  C   UNL     1     -11.165  12.172  67.794  1.00  0.00    -0.333 A  
BRANCH  18  22
HETATM   22  O   UNL     1     -12.812  14.842  69.715  1.00  0.00    -0.109 OA 
HETATM   23  C   UNL     1     -12.227  15.507  70.838  1.00  0.00    -0.400 C  
ENDBRANCH  18  22
BRANCH  20  24
HETATM   24  O   UNL     1     -11.626  14.282  67.037  1.00  0.00    -0.349 OA 
HETATM   25  C   UNL     1     -12.458  14.129  65.902  1.00  0.00    -0.453 C  
ENDBRANCH  20  24
ENDBRANCH  11  12
ENDBRANCH   7  11
ENDBRANCH   2   3
TORSDOF 6
ENDMDL
MODEL      126
REMARK 921   NORMALIZED FREE ENERGY PREDICTED BY IDOCK:   -4.53 KCAL/MOL
REMARK 922        TOTAL FREE ENERGY PREDICTED BY IDOCK:   -6.92 KCAL/MOL
REMARK 923 INTER-LIGAND FREE ENERGY PREDICTED BY IDOCK:   -6.03 KCAL/MOL
REMARK 924 INTRA-LIGAND FREE ENERGY PREDICTED BY IDOCK:   -0.90 KCAL/MOL
REMARK 927      BINDING AFFINITY PREDICTED BY RF-SCORE:    0.00 PKD
ROOT
HETATM    1  C   UNL     1     -11.380  15.214  66.447  1.00  0.00    -0.225 C  
HETATM    2  O   UNL     1     -12.249  14.220  66.988  1.00  0.00    -0.424 OA 
ENDROOT
BRANCH   2   3
HETATM    3  C   UNL     1     -11.638  13.099  67.490  1.00  0.00    -0.352 A  
HETATM    4  C   UNL     1     -11.732  12.891  68.877  1.00  0.00    -0.327 A  
HETATM    5  C   UNL     1     -10.873  12.224  66.717  1.00  0.00    -0.291 A  
HETATM    6  C   UNL     1     -11.073  11.795  69.452  1.00  0.00    -0.245 A  
HETATM    7  C   UNL     1     -10.250  10.952  68.682  1.00  0.00    -0.201 A  
HETATM    8  C   UNL     1     -10.184  11.161  67.302  1.00  0.00    -0.227 A  
BRANCH   4   9
HETATM    9  O   UNL     1     -12.470  13.808  69.586  1.00  0.00    -0.281 OA 
HETATM   10  C   UNL     1     -11.809  14.503  70.641  1.00  0.00    -0.303 C  
ENDBRANCH   4   9
BRANCH   7  11
HETATM   11  C   UNL     1      -9.446   9.835  69.310  1.00  0.00    -0.201 C  
BRANCH  11  12
HETATM   12  C   UNL     1     -10.126   8.480  69.260  1.00  0.00    -0.202 A  
HETATM   13  N   UNL     1     -10.863   8.181  70.368  1.00  0.00    -0.234 NA 
HETATM   14  C   UNL     1     -11.389   6.947  70.456  1.00  0.00    -0.327 A  
HETATM   15  C   UNL     1     -11.230   5.981  69.485  1.00  0.00    -0.416 A  
HETATM   16  C   UNL     1     -10.470   6.285  68.351  1.00  0.00    -0.273 A  
HETATM   17  C   UNL     1     -10.256   5.309  67.366  1.00  0.00    -0.240 A  
HETATM   18  C   UNL     1      -9.439   5.540  66.246  1.00  0.00    -0.157 A  
HETATM   19  C   UNL     1      -9.899   7.557  68.206  1.00  0.00    -0.177 A  
HETATM   20  C   UNL     1      -8.885   6.809  66.068  1.00  0.00    -0.135 A  
HETATM   21  C   UNL     1      -9.125   7.795  67.044  1.00  0.00    -0.162 A  
BRANCH  18  22
HETATM   22  O   UNL     1      -9.200   4.538  65.336  1.00  0.00    -0.141 OA 
HETATM   23  C   UNL     1     -10.353   4.008  64.678  1.00  0.00    -0.205 C  
ENDBRANCH  18  22
BRANCH  20  24
HETATM   24  O   UNL     1      -8.053   7.280  65.089  1.00  0.00    -0.123 OA 
HETATM   25  C   UNL     1      -8.248   8.544  64.480  1.00  0.00    -0.156 C  
ENDBRANCH  20  24
ENDBRANCH  11  12
ENDBRANCH   7  11
ENDBRANCH   2   3
TORSDOF 6
ENDMDL
MODEL      127
REMARK 921   NORMALIZED FREE ENERGY PREDICTED BY IDOCK:   -4.53 KCAL/MOL
REMARK 922        TOTAL FREE ENERGY PREDICTED BY IDOCK:   -6.92 KCAL/MOL
REMARK 923 INTER-LIGAND FREE ENERGY PREDICTED BY IDOCK:   -5.95 KCAL/MOL
REMARK 924 INTRA-LIGAND FREE ENERGY PREDICTED BY IDOCK:   -0.97 KCAL/MOL
REMARK 927      BINDING AFFINITY PREDICTED BY RF-SCORE:    0.00 PKD
ROOT
HETATM    1  C   UNL     1     -12.738   9.111  71.330  1.00  0.00    -0.318 C  
HETATM    2  O   UNL     1     -11.417   9.626  71.172  1.00  0.00    -0.323 OA 
ENDROOT
BRANCH   2   3
HETATM    3  C   UNL     1     -11.105  10.103  69.924  1.00  0.00    -0.293 A  
HETATM    4  C   UNL     1      -9.868   9.710  69.384  1.00  0.00    -0.193 A  
HETATM    5  C   UNL     1     -11.903  11.008  69.221  1.00  0.00    -0.411 A  
HETATM    6  C   UNL     1      -9.472  10.219  68.139  1.00  0.00    -0.155 A  
HETATM    7  C   UNL     1     -10.245  11.180  67.463  1.00  0.00    -0.216 A  
HETATM    8  C   UNL     1     -11.481  11.544  68.004  1.00  0.00    -0.381 A  
BRANCH   4   9
HETATM    9  O   UNL     1      -9.115   8.845  70.141  1.00  0.00    -0.155 OA 
HETATM   10  C   UNL     1      -7.902   9.349  70.694  1.00  0.00    -0.151 C  
ENDBRANCH   4   9
BRANCH   7  11
HETATM   11  C   UNL     1      -9.774  11.818  66.175  1.00  0.00    -0.250 C  
BRANCH  11  12
HETATM   12  C   UNL     1      -9.880  13.331  66.158  1.00  0.00    -0.280 A  
HETATM   13  N   UNL     1     -10.754  13.822  65.234  1.00  0.00    -0.321 NA 
HETATM   14  C   UNL     1     -10.808  15.155  65.068  1.00  0.00    -0.440 A  
HETATM   15  C   UNL     1     -10.037  16.042  65.788  1.00  0.00    -0.393 A  
HETATM   16  C   UNL     1      -9.137  15.540  66.734  1.00  0.00    -0.282 A  
HETATM   17  C   UNL     1      -8.309  16.416  67.452  1.00  0.00    -0.183 A  
HETATM   18  C   UNL     1      -7.337  15.957  68.357  1.00  0.00    -0.125 A  
HETATM   19  C   UNL     1      -9.040  14.157  66.949  1.00  0.00    -0.260 A  
HETATM   20  C   UNL     1      -7.244  14.587  68.607  1.00  0.00    -0.124 A  
HETATM   21  C   UNL     1      -8.096  13.712  67.906  1.00  0.00    -0.164 A  
BRANCH  18  22
HETATM   22  O   UNL     1      -6.500  16.842  68.994  1.00  0.00    -0.177 OA 
HETATM   23  C   UNL     1      -5.424  17.357  68.205  1.00  0.00    -0.144 C  
ENDBRANCH  18  22
BRANCH  20  24
HETATM   24  O   UNL     1      -6.386  13.892  69.415  1.00  0.00    -0.099 OA 
HETATM   25  C   UNL     1      -6.358  12.477  69.444  1.00  0.00    -0.114 C  
ENDBRANCH  20  24
ENDBRANCH  11  12
ENDBRANCH   7  11
ENDBRANCH   2   3
TORSDOF 6
ENDMDL
MODEL      128
REMARK 921   NORMALIZED FREE ENERGY PREDICTED BY IDOCK:   -4.53 KCAL/MOL
REMARK 922        TOTAL FREE ENERGY PREDICTED BY IDOCK:   -6.92 KCAL/MOL
REMARK 923 INTER-LIGAND FREE ENERGY PREDICTED BY IDOCK:   -6.23 KCAL/MOL
REMARK 924 INTRA-LIGAND FREE ENERGY PREDICTED BY IDOCK:   -0.69 KCAL/MOL
REMARK 927      BINDING AFFINITY PREDICTED BY RF-SCORE:    0.00 PKD
ROOT
HETATM    1  C   UNL     1      -9.879   5.170  67.272  1.00  0.00    -0.168 C  
HETATM    2  O   UNL     1     -10.704   6.248  67.709  1.00  0.00    -0.240 OA 
ENDROOT
BRANCH   2   3
HETATM    3  C   UNL     1     -10.181   7.506  67.547  1.00  0.00    -0.223 A  
HETATM    4  C   UNL     1     -10.305   8.392  68.632  1.00  0.00    -0.197 A  
HETATM    5  C   UNL     1      -9.621   7.963  66.351  1.00  0.00    -0.251 A  
HETATM    6  C   UNL     1      -9.844   9.710  68.497  1.00  0.00    -0.170 A  
HETATM    7  C   UNL     1      -9.341  10.186  67.273  1.00  0.00    -0.173 A  
HETATM    8  C   UNL     1      -9.205   9.287  66.211  1.00  0.00    -0.236 A  
BRANCH   4   9
HETATM    9  O   UNL     1     -10.896   7.892  69.767  1.00  0.00    -0.249 OA 
HETATM   10  C   UNL     1     -11.267   8.827  70.776  1.00  0.00    -0.266 C  
ENDBRANCH   4   9
BRANCH   7  11
HETATM   11  C   UNL     1      -8.945  11.634  67.084  1.00  0.00    -0.173 C  
BRANCH  11  12
HETATM   12  C   UNL     1     -10.116  12.598  67.070  1.00  0.00    -0.224 A  
HETATM   13  N   UNL     1     -11.194  12.162  66.358  1.00  0.00    -0.315 NA 
HETATM   14  C   UNL     1     -12.220  13.014  66.189  1.00  0.00    -0.360 A  
HETATM   15  C   UNL     1     -12.239  14.293  66.705  1.00  0.00    -0.411 A  
HETATM   16  C   UNL     1     -11.132  14.743  67.432  1.00  0.00    -0.327 A  
HETATM   17  C   UNL     1     -11.106  16.053  67.933  1.00  0.00    -0.307 A  
HETATM   18  C   UNL     1      -9.988  16.578  68.603  1.00  0.00    -0.248 A  
HETATM   19  C   UNL     1     -10.035  13.895  67.640  1.00  0.00    -0.237 A  
HETATM   20  C   UNL     1      -8.896  15.742  68.846  1.00  0.00    -0.220 A  
HETATM   21  C   UNL     1      -8.937  14.419  68.367  1.00  0.00    -0.188 A  
BRANCH  18  22
HETATM   22  O   UNL     1      -9.973  17.886  69.023  1.00  0.00    -0.341 OA 
HETATM   23  C   UNL     1      -9.215  18.790  68.214  1.00  0.00    -0.331 C  
ENDBRANCH  18  22
BRANCH  20  24
HETATM   24  O   UNL     1      -7.698  16.007  69.451  1.00  0.00    -0.231 OA 
HETATM   25  C   UNL     1      -6.620  15.089  69.421  1.00  0.00    -0.143 C  
ENDBRANCH  20  24
ENDBRANCH  11  12
ENDBRANCH   7  11
ENDBRANCH   2   3
TORSDOF 6
ENDMDL
MODEL      129
REMARK 921   NORMALIZED FREE ENERGY PREDICTED BY IDOCK:   -4.50 KCAL/MOL
REMARK 922        TOTAL FREE ENERGY PREDICTED BY IDOCK:   -6.88 KCAL/MOL
REMARK 923 INTER-LIGAND FREE ENERGY PREDICTED BY IDOCK:   -5.92 KCAL/MOL
REMARK 924 INTRA-LIGAND FREE ENERGY PREDICTED BY IDOCK:   -0.97 KCAL/MOL
REMARK 927      BINDING AFFINITY PREDICTED BY RF-SCORE:    0.00 PKD
ROOT
HETATM    1  C   UNL     1      -5.267  10.770  65.260  1.00  0.00    -0.144 C  
HETATM    2  O   UNL     1      -5.769   9.510  64.817  1.00  0.00    -0.065 OA 
ENDROOT
BRANCH   2   3
HETATM    3  C   UNL     1      -6.899   9.059  65.450  1.00  0.00    -0.073 A  
HETATM    4  C   UNL     1      -8.108   9.152  64.738  1.00  0.00    -0.140 A  
HETATM    5  C   UNL     1      -6.916   8.602  66.770  1.00  0.00    -0.077 A  
HETATM    6  C   UNL     1      -9.302   8.764  65.361  1.00  0.00    -0.095 A  
HETATM    7  C   UNL     1      -9.327   8.367  66.710  1.00  0.00    -0.235 A  
HETATM    8  C   UNL     1      -8.114   8.260  67.397  1.00  0.00    -0.121 A  
BRANCH   4   9
HETATM    9  O   UNL     1      -8.028   9.642  63.456  1.00  0.00    -0.125 OA 
HETATM   10  C   UNL     1      -9.208  10.217  62.902  1.00  0.00    -0.297 C  
ENDBRANCH   4   9
BRANCH   7  11
HETATM   11  C   UNL     1     -10.623   8.053  67.424  1.00  0.00    -0.337 C  
BRANCH  11  12
HETATM   12  C   UNL     1     -10.773   8.744  68.766  1.00  0.00    -0.077 A  
HETATM   13  N   UNL     1     -10.681   7.909  69.840  1.00  0.00    -0.247 NA 
HETATM   14  C   UNL     1     -10.932   8.422  71.057  1.00  0.00    -0.246 A  
HETATM   15  C   UNL     1     -11.266   9.743  71.271  1.00  0.00    -0.417 A  
HETATM   16  C   UNL     1     -11.365  10.600  70.170  1.00  0.00    -0.402 A  
HETATM   17  C   UNL     1     -11.743  11.938  70.352  1.00  0.00    -0.213 A  
HETATM   18  C   UNL     1     -11.930  12.819  69.273  1.00  0.00    -0.246 A  
HETATM   19  C   UNL     1     -11.112  10.117  68.878  1.00  0.00    -0.251 A  
HETATM   20  C   UNL     1     -11.655  12.367  67.981  1.00  0.00    -0.347 A  
HETATM   21  C   UNL     1     -11.248  11.031  67.803  1.00  0.00    -0.374 A  
BRANCH  18  22
HETATM   22  O   UNL     1     -12.364  14.105  69.487  1.00  0.00    -0.328 OA 
HETATM   23  C   UNL     1     -12.700  14.431  70.838  1.00  0.00    -0.355 C  
ENDBRANCH  18  22
BRANCH  20  24
HETATM   24  O   UNL     1     -11.771  13.008  66.778  1.00  0.00    -0.344 OA 
HETATM   25  C   UNL     1     -11.507  12.355  65.549  1.00  0.00    -0.361 C  
ENDBRANCH  20  24
ENDBRANCH  11  12
ENDBRANCH   7  11
ENDBRANCH   2   3
TORSDOF 6
ENDMDL
MODEL      130
REMARK 921   NORMALIZED FREE ENERGY PREDICTED BY IDOCK:   -4.50 KCAL/MOL
REMARK 922        TOTAL FREE ENERGY PREDICTED BY IDOCK:   -6.88 KCAL/MOL
REMARK 923 INTER-LIGAND FREE ENERGY PREDICTED BY IDOCK:   -6.53 KCAL/MOL
REMARK 924 INTRA-LIGAND FREE ENERGY PREDICTED BY IDOCK:   -0.35 KCAL/MOL
REMARK 927      BINDING AFFINITY PREDICTED BY RF-SCORE:    0.00 PKD
ROOT
HETATM    1  C   UNL     1     -10.029  18.344  68.660  1.00  0.00    -0.387 C  
HETATM    2  O   UNL     1      -9.458  17.140  69.169  1.00  0.00    -0.204 OA 
ENDROOT
BRANCH   2   3
HETATM    3  C   UNL     1     -10.118  15.981  68.847  1.00  0.00    -0.229 A  
HETATM    4  C   UNL     1      -9.328  14.881  68.471  1.00  0.00    -0.196 A  
HETATM    5  C   UNL     1     -11.510  15.873  68.795  1.00  0.00    -0.393 A  
HETATM    6  C   UNL     1      -9.953  13.692  68.071  1.00  0.00    -0.247 A  
HETATM    7  C   UNL     1     -11.353  13.605  67.957  1.00  0.00    -0.316 A  
HETATM    8  C   UNL     1     -12.125  14.701  68.354  1.00  0.00    -0.223 A  
BRANCH   4   9
HETATM    9  O   UNL     1      -7.966  15.064  68.511  1.00  0.00    -0.131 OA 
HETATM   10  C   UNL     1      -7.260  14.975  67.276  1.00  0.00    -0.140 C  
ENDBRANCH   4   9
BRANCH   7  11
HETATM   11  C   UNL     1     -12.032  12.365  67.421  1.00  0.00    -0.246 C  
BRANCH  11  12
HETATM   12  C   UNL     1     -11.082  11.222  67.114  1.00  0.00    -0.301 A  
HETATM   13  N   UNL     1     -10.633  11.197  65.827  1.00  0.00    -0.251 NA 
HETATM   14  C   UNL     1      -9.891  10.143  65.443  1.00  0.00    -0.307 A  
HETATM   15  C   UNL     1      -9.558   9.101  66.282  1.00  0.00    -0.321 A  
HETATM   16  C   UNL     1     -10.022   9.124  67.601  1.00  0.00    -0.245 A  
HETATM   17  C   UNL     1      -9.734   8.058  68.467  1.00  0.00    -0.166 A  
HETATM   18  C   UNL     1     -10.240   7.997  69.776  1.00  0.00    -0.206 A  
HETATM   19  C   UNL     1     -10.798  10.200  68.056  1.00  0.00    -0.320 A  
HETATM   20  C   UNL     1     -10.990   9.071  70.258  1.00  0.00    -0.244 A  
HETATM   21  C   UNL     1     -11.254  10.153  69.397  1.00  0.00    -0.265 A  
BRANCH  18  22
HETATM   22  O   UNL     1      -9.990   6.905  70.573  1.00  0.00    -0.183 OA 
HETATM   23  C   UNL     1     -10.522   5.662  70.108  1.00  0.00    -0.296 C  
ENDBRANCH  18  22
BRANCH  20  24
HETATM   24  O   UNL     1     -11.602   9.249  71.469  1.00  0.00    -0.329 OA 
HETATM   25  C   UNL     1     -11.620   8.237  72.459  1.00  0.00    -0.385 C  
ENDBRANCH  20  24
ENDBRANCH  11  12
ENDBRANCH   7  11
ENDBRANCH   2   3
TORSDOF 6
ENDMDL
MODEL      131
REMARK 921   NORMALIZED FREE ENERGY PREDICTED BY IDOCK:   -4.49 KCAL/MOL
REMARK 922        TOTAL FREE ENERGY PREDICTED BY IDOCK:   -6.87 KCAL/MOL
REMARK 923 INTER-LIGAND FREE ENERGY PREDICTED BY IDOCK:   -5.92 KCAL/MOL
REMARK 924 INTRA-LIGAND FREE ENERGY PREDICTED BY IDOCK:   -0.95 KCAL/MOL
REMARK 927      BINDING AFFINITY PREDICTED BY RF-SCORE:    0.00 PKD
ROOT
HETATM    1  C   UNL     1     -10.299   5.059  69.933  1.00  0.00    -0.228 C  
HETATM    2  O   UNL     1     -10.098   4.708  68.565  1.00  0.00    -0.110 OA 
ENDROOT
BRANCH   2   3
HETATM    3  C   UNL     1      -9.917   5.756  67.698  1.00  0.00    -0.140 A  
HETATM    4  C   UNL     1      -8.836   5.663  66.804  1.00  0.00    -0.115 A  
HETATM    5  C   UNL     1     -10.688   6.920  67.722  1.00  0.00    -0.321 A  
HETATM    6  C   UNL     1      -8.568   6.734  65.940  1.00  0.00    -0.153 A  
HETATM    7  C   UNL     1      -9.304   7.931  66.009  1.00  0.00    -0.129 A  
HETATM    8  C   UNL     1     -10.388   7.999  66.889  1.00  0.00    -0.408 A  
BRANCH   4   9
HETATM    9  O   UNL     1      -8.096   4.507  66.856  1.00  0.00    -0.101 OA 
HETATM   10  C   UNL     1      -6.706   4.634  67.149  1.00  0.00    -0.051 C  
ENDBRANCH   4   9
BRANCH   7  11
HETATM   11  C   UNL     1      -8.953   9.132  65.160  1.00  0.00    -0.238 C  
BRANCH  11  12
HETATM   12  C   UNL     1      -8.575  10.366  65.957  1.00  0.00    -0.151 A  
HETATM   13  N   UNL     1      -7.361  10.286  66.573  1.00  0.00    -0.108 NA 
HETATM   14  C   UNL     1      -7.013  11.284  67.404  1.00  0.00    -0.101 A  
HETATM   15  C   UNL     1      -7.812  12.380  67.653  1.00  0.00    -0.163 A  
HETATM   16  C   UNL     1      -9.060  12.461  67.026  1.00  0.00    -0.207 A  
HETATM   17  C   UNL     1      -9.912  13.543  67.292  1.00  0.00    -0.236 A  
HETATM   18  C   UNL     1     -11.204  13.632  66.747  1.00  0.00    -0.314 A  
HETATM   19  C   UNL     1      -9.473  11.448  66.148  1.00  0.00    -0.237 A  
HETATM   20  C   UNL     1     -11.624  12.650  65.848  1.00  0.00    -0.396 A  
HETATM   21  C   UNL     1     -10.755  11.580  65.560  1.00  0.00    -0.328 A  
BRANCH  18  22
HETATM   22  O   UNL     1     -12.035  14.674  67.082  1.00  0.00    -0.391 OA 
HETATM   23  C   UNL     1     -11.732  15.339  68.311  1.00  0.00    -0.301 C  
ENDBRANCH  18  22
BRANCH  20  24
HETATM   24  O   UNL     1     -12.820  12.497  65.201  1.00  0.00    -0.685 OA 
HETATM   25  C   UNL     1     -12.896  12.150  63.831  1.00  0.00    -0.306 C  
ENDBRANCH  20  24
ENDBRANCH  11  12
ENDBRANCH   7  11
ENDBRANCH   2   3
TORSDOF 6
ENDMDL
MODEL      132
REMARK 921   NORMALIZED FREE ENERGY PREDICTED BY IDOCK:   -4.47 KCAL/MOL
REMARK 922        TOTAL FREE ENERGY PREDICTED BY IDOCK:   -6.85 KCAL/MOL
REMARK 923 INTER-LIGAND FREE ENERGY PREDICTED BY IDOCK:   -6.30 KCAL/MOL
REMARK 924 INTRA-LIGAND FREE ENERGY PREDICTED BY IDOCK:   -0.55 KCAL/MOL
REMARK 927      BINDING AFFINITY PREDICTED BY RF-SCORE:    0.00 PKD
ROOT
HETATM    1  C   UNL     1     -12.763  11.868  63.116  1.00  0.00    -0.127 C  
HETATM    2  O   UNL     1     -11.353  12.058  63.213  1.00  0.00    -0.381 OA 
ENDROOT
BRANCH   2   3
HETATM    3  C   UNL     1     -10.831  12.032  64.482  1.00  0.00    -0.314 A  
HETATM    4  C   UNL     1      -9.869  11.044  64.755  1.00  0.00    -0.276 A  
HETATM    5  C   UNL     1     -11.265  12.868  65.513  1.00  0.00    -0.319 A  
HETATM    6  C   UNL     1      -9.350  10.932  66.052  1.00  0.00    -0.215 A  
HETATM    7  C   UNL     1      -9.835  11.731  67.104  1.00  0.00    -0.207 A  
HETATM    8  C   UNL     1     -10.776  12.722  66.811  1.00  0.00    -0.278 A  
BRANCH   4   9
HETATM    9  O   UNL     1      -9.512  10.231  63.706  1.00  0.00    -0.272 OA 
HETATM   10  C   UNL     1      -8.134   9.885  63.589  1.00  0.00    -0.153 C  
ENDBRANCH   4   9
BRANCH   7  11
HETATM   11  C   UNL     1      -9.362  11.543  68.529  1.00  0.00    -0.171 C  
BRANCH  11  12
HETATM   12  C   UNL     1     -10.470  11.210  69.510  1.00  0.00    -0.037 A  
HETATM   13  N   UNL     1     -10.654   9.874  69.715  1.00  0.00    -0.245 NA 
HETATM   14  C   UNL     1     -11.700   9.495  70.470  1.00  0.00    -0.222 A  
HETATM   15  C   UNL     1     -12.582  10.382  71.048  1.00  0.00    -0.491 A  
HETATM   16  C   UNL     1     -12.398  11.752  70.834  1.00  0.00    -0.420 A  
HETATM   17  C   UNL     1     -13.303  12.677  71.375  1.00  0.00    -0.087 A  
HETATM   18  C   UNL     1     -13.205  14.057  71.127  1.00  0.00    -0.267 A  
HETATM   19  C   UNL     1     -11.321  12.204  70.057  1.00  0.00    -0.028 A  
HETATM   20  C   UNL     1     -12.125  14.531  70.380  1.00  0.00    -0.322 A  
HETATM   21  C   UNL     1     -11.201  13.603  69.862  1.00  0.00    -0.023 A  
BRANCH  18  22
HETATM   22  O   UNL     1     -14.149  14.926  71.620  1.00  0.00    -0.417 OA 
HETATM   23  C   UNL     1     -13.908  15.420  72.940  1.00  0.00    -0.402 C  
ENDBRANCH  18  22
BRANCH  20  24
HETATM   24  O   UNL     1     -11.813  15.803  69.987  1.00  0.00    -0.344 OA 
HETATM   25  C   UNL     1     -10.611  16.107  69.302  1.00  0.00    -0.280 C  
ENDBRANCH  20  24
ENDBRANCH  11  12
ENDBRANCH   7  11
ENDBRANCH   2   3
TORSDOF 6
ENDMDL
MODEL      133
REMARK 921   NORMALIZED FREE ENERGY PREDICTED BY IDOCK:   -4.47 KCAL/MOL
REMARK 922        TOTAL FREE ENERGY PREDICTED BY IDOCK:   -6.84 KCAL/MOL
REMARK 923 INTER-LIGAND FREE ENERGY PREDICTED BY IDOCK:   -5.91 KCAL/MOL
REMARK 924 INTRA-LIGAND FREE ENERGY PREDICTED BY IDOCK:   -0.92 KCAL/MOL
REMARK 927      BINDING AFFINITY PREDICTED BY RF-SCORE:    0.00 PKD
ROOT
HETATM    1  C   UNL     1      -6.312  19.659  69.432  1.00  0.00    -0.330 C  
HETATM    2  O   UNL     1      -7.657  19.383  69.046  1.00  0.00    -0.360 OA 
ENDROOT
BRANCH   2   3
HETATM    3  C   UNL     1      -7.862  18.192  68.395  1.00  0.00    -0.297 A  
HETATM    4  C   UNL     1      -8.663  18.228  67.241  1.00  0.00    -0.255 A  
HETATM    5  C   UNL     1      -7.392  16.964  68.866  1.00  0.00    -0.236 A  
HETATM    6  C   UNL     1      -8.956  17.030  66.573  1.00  0.00    -0.298 A  
HETATM    7  C   UNL     1      -8.538  15.788  67.084  1.00  0.00    -0.226 A  
HETATM    8  C   UNL     1      -7.725  15.772  68.221  1.00  0.00    -0.132 A  
BRANCH   4   9
HETATM    9  O   UNL     1      -9.122  19.463  66.851  1.00  0.00    -0.296 OA 
HETATM   10  C   UNL     1     -10.386  19.512  66.194  1.00  0.00    -0.520 C  
ENDBRANCH   4   9
BRANCH   7  11
HETATM   11  C   UNL     1      -8.942  14.483  66.434  1.00  0.00    -0.153 C  
BRANCH  11  12
HETATM   12  C   UNL     1      -9.972  13.693  67.220  1.00  0.00    -0.240 A  
HETATM   13  N   UNL     1     -11.202  14.279  67.281  1.00  0.00    -0.306 NA 
HETATM   14  C   UNL     1     -12.130  13.706  68.067  1.00  0.00    -0.274 A  
HETATM   15  C   UNL     1     -11.905  12.560  68.799  1.00  0.00    -0.347 A  
HETATM   16  C   UNL     1     -10.643  11.960  68.741  1.00  0.00    -0.234 A  
HETATM   17  C   UNL     1     -10.371  10.817  69.507  1.00  0.00    -0.178 A  
HETATM   18  C   UNL     1      -9.098  10.222  69.542  1.00  0.00    -0.167 A  
HETATM   19  C   UNL     1      -9.637  12.515  67.936  1.00  0.00    -0.206 A  
HETATM   20  C   UNL     1      -8.091  10.741  68.726  1.00  0.00    -0.143 A  
HETATM   21  C   UNL     1      -8.374  11.871  67.936  1.00  0.00    -0.152 A  
BRANCH  18  22
HETATM   22  O   UNL     1      -8.853   9.142  70.355  1.00  0.00    -0.179 OA 
HETATM   23  C   UNL     1      -9.663   9.052  71.530  1.00  0.00    -0.295 C  
ENDBRANCH  18  22
BRANCH  20  24
HETATM   24  O   UNL     1      -6.783  10.363  68.590  1.00  0.00    -0.052 OA 
HETATM   25  C   UNL     1      -5.773  10.813  69.475  1.00  0.00    -0.040 C  
ENDBRANCH  20  24
ENDBRANCH  11  12
ENDBRANCH   7  11
ENDBRANCH   2   3
TORSDOF 6
ENDMDL
MODEL      134
REMARK 921   NORMALIZED FREE ENERGY PREDICTED BY IDOCK:   -4.46 KCAL/MOL
REMARK 922        TOTAL FREE ENERGY PREDICTED BY IDOCK:   -6.83 KCAL/MOL
REMARK 923 INTER-LIGAND FREE ENERGY PREDICTED BY IDOCK:   -6.09 KCAL/MOL
REMARK 924 INTRA-LIGAND FREE ENERGY PREDICTED BY IDOCK:   -0.74 KCAL/MOL
REMARK 927      BINDING AFFINITY PREDICTED BY RF-SCORE:    0.00 PKD
ROOT
HETATM    1  C   UNL     1     -13.050  15.886  74.003  1.00  0.00    -0.171 C  
HETATM    2  O   UNL     1     -13.510  15.227  72.825  1.00  0.00    -0.446 OA 
ENDROOT
BRANCH   2   3
HETATM    3  C   UNL     1     -12.610  15.150  71.791  1.00  0.00    -0.347 A  
HETATM    4  C   UNL     1     -12.495  13.911  71.137  1.00  0.00    -0.372 A  
HETATM    5  C   UNL     1     -11.762  16.199  71.426  1.00  0.00    -0.506 A  
HETATM    6  C   UNL     1     -11.546  13.761  70.116  1.00  0.00    -0.230 A  
HETATM    7  C   UNL     1     -10.649  14.796  69.794  1.00  0.00    -0.134 A  
HETATM    8  C   UNL     1     -10.791  16.027  70.440  1.00  0.00    -0.295 A  
BRANCH   4   9
HETATM    9  O   UNL     1     -13.333  12.911  71.568  1.00  0.00    -0.314 OA 
HETATM   10  C   UNL     1     -12.810  11.585  71.590  1.00  0.00    -0.370 C  
ENDBRANCH   4   9
BRANCH   7  11
HETATM   11  C   UNL     1      -9.550  14.607  68.773  1.00  0.00    -0.210 C  
BRANCH  11  12
HETATM   12  C   UNL     1      -9.506  13.220  68.160  1.00  0.00    -0.222 A  
HETATM   13  N   UNL     1      -8.732  12.328  68.843  1.00  0.00     0.164 NA 
HETATM   14  C   UNL     1      -8.538  11.117  68.294  1.00  0.00    -0.146 A  
HETATM   15  C   UNL     1      -9.086  10.731  67.089  1.00  0.00    -0.153 A  
HETATM   16  C   UNL     1      -9.876  11.646  66.385  1.00  0.00    -0.233 A  
HETATM   17  C   UNL     1     -10.413  11.297  65.137  1.00  0.00    -0.351 A  
HETATM   18  C   UNL     1     -11.149  12.204  64.356  1.00  0.00    -0.333 A  
HETATM   19  C   UNL     1     -10.113  12.924  66.912  1.00  0.00    -0.241 A  
HETATM   20  C   UNL     1     -11.421  13.472  64.875  1.00  0.00    -0.334 A  
HETATM   21  C   UNL     1     -10.905  13.810  66.141  1.00  0.00    -0.279 A  
BRANCH  18  22
HETATM   22  O   UNL     1     -11.603  11.847  63.109  1.00  0.00    -0.312 OA 
HETATM   23  C   UNL     1     -13.024  11.769  62.964  1.00  0.00     0.417 C  
ENDBRANCH  18  22
BRANCH  20  24
HETATM   24  O   UNL     1     -12.088  14.529  64.320  1.00  0.00    -0.471 OA 
HETATM   25  C   UNL     1     -11.514  15.821  64.235  1.00  0.00    -0.198 C  
ENDBRANCH  20  24
ENDBRANCH  11  12
ENDBRANCH   7  11
ENDBRANCH   2   3
TORSDOF 6
ENDMDL
MODEL      135
REMARK 921   NORMALIZED FREE ENERGY PREDICTED BY IDOCK:   -4.44 KCAL/MOL
REMARK 922        TOTAL FREE ENERGY PREDICTED BY IDOCK:   -6.80 KCAL/MOL
REMARK 923 INTER-LIGAND FREE ENERGY PREDICTED BY IDOCK:   -5.88 KCAL/MOL
REMARK 924 INTRA-LIGAND FREE ENERGY PREDICTED BY IDOCK:   -0.93 KCAL/MOL
REMARK 927      BINDING AFFINITY PREDICTED BY RF-SCORE:    0.00 PKD
ROOT
HETATM    1  C   UNL     1      -9.572   3.933  64.299  1.00  0.00    -0.168 C  
HETATM    2  O   UNL     1      -8.978   3.996  65.595  1.00  0.00    -0.122 OA 
ENDROOT
BRANCH   2   3
HETATM    3  C   UNL     1      -8.684   5.253  66.058  1.00  0.00    -0.137 A  
HETATM    4  C   UNL     1      -8.945   5.509  67.416  1.00  0.00    -0.107 A  
HETATM    5  C   UNL     1      -8.228   6.291  65.242  1.00  0.00    -0.138 A  
HETATM    6  C   UNL     1      -8.722   6.795  67.927  1.00  0.00    -0.120 A  
HETATM    7  C   UNL     1      -8.326   7.855  67.090  1.00  0.00    -0.117 A  
HETATM    8  C   UNL     1      -8.051   7.579  65.748  1.00  0.00    -0.127 A  
BRANCH   4   9
HETATM    9  O   UNL     1      -9.424   4.455  68.156  1.00  0.00    -0.138 OA 
HETATM   10  C   UNL     1      -9.859   4.735  69.485  1.00  0.00    -0.222 C  
ENDBRANCH   4   9
BRANCH   7  11
HETATM   11  C   UNL     1      -8.190   9.269  67.608  1.00  0.00    -0.115 C  
BRANCH  11  12
HETATM   12  C   UNL     1      -9.472  10.077  67.545  1.00  0.00    -0.148 A  
HETATM   13  N   UNL     1      -9.634  10.784  66.390  1.00  0.00    -0.184 NA 
HETATM   14  C   UNL     1     -10.680  11.625  66.311  1.00  0.00    -0.272 A  
HETATM   15  C   UNL     1     -11.594  11.799  67.328  1.00  0.00    -0.344 A  
HETATM   16  C   UNL     1     -11.427  11.079  68.515  1.00  0.00    -0.379 A  
HETATM   17  C   UNL     1     -12.317  11.266  69.583  1.00  0.00    -0.262 A  
HETATM   18  C   UNL     1     -12.149  10.624  70.822  1.00  0.00    -0.374 A  
HETATM   19  C   UNL     1     -10.354  10.186  68.651  1.00  0.00    -0.208 A  
HETATM   20  C   UNL     1     -11.105   9.709  70.969  1.00  0.00    -0.368 A  
HETATM   21  C   UNL     1     -10.230   9.501  69.886  1.00  0.00    -0.261 A  
BRANCH  18  22
HETATM   22  O   UNL     1     -13.004  10.883  71.866  1.00  0.00    -0.458 OA 
HETATM   23  C   UNL     1     -13.362  12.255  72.051  1.00  0.00    -0.386 C  
ENDBRANCH  18  22
BRANCH  20  24
HETATM   24  O   UNL     1     -10.719   8.977  72.058  1.00  0.00    -0.349 OA 
HETATM   25  C   UNL     1     -11.422   7.821  72.475  1.00  0.00    -0.373 C  
ENDBRANCH  20  24
ENDBRANCH  11  12
ENDBRANCH   7  11
ENDBRANCH   2   3
TORSDOF 6
ENDMDL
MODEL      136
REMARK 921   NORMALIZED FREE ENERGY PREDICTED BY IDOCK:   -4.43 KCAL/MOL
REMARK 922        TOTAL FREE ENERGY PREDICTED BY IDOCK:   -6.79 KCAL/MOL
REMARK 923 INTER-LIGAND FREE ENERGY PREDICTED BY IDOCK:   -6.07 KCAL/MOL
REMARK 924 INTRA-LIGAND FREE ENERGY PREDICTED BY IDOCK:   -0.72 KCAL/MOL
REMARK 927      BINDING AFFINITY PREDICTED BY RF-SCORE:    0.00 PKD
ROOT
HETATM    1  C   UNL     1      -7.606  16.501  68.844  1.00  0.00    -0.238 C  
HETATM    2  O   UNL     1      -9.017  16.643  68.691  1.00  0.00    -0.228 OA 
ENDROOT
BRANCH   2   3
HETATM    3  C   UNL     1      -9.713  15.486  68.450  1.00  0.00    -0.203 A  
HETATM    4  C   UNL     1     -10.507  14.991  69.499  1.00  0.00    -0.235 A  
HETATM    5  C   UNL     1      -9.603  14.749  67.268  1.00  0.00    -0.223 A  
HETATM    6  C   UNL     1     -11.190  13.778  69.328  1.00  0.00    -0.291 A  
HETATM    7  C   UNL     1     -11.027  13.005  68.164  1.00  0.00    -0.269 A  
HETATM    8  C   UNL     1     -10.250  13.522  67.123  1.00  0.00    -0.247 A  
BRANCH   4   9
HETATM    9  O   UNL     1     -10.545  15.745  70.647  1.00  0.00    -0.257 OA 
HETATM   10  C   UNL     1     -11.770  15.761  71.377  1.00  0.00    -0.445 C  
ENDBRANCH   4   9
BRANCH   7  11
HETATM   11  C   UNL     1     -11.670  11.644  68.016  1.00  0.00    -0.351 C  
BRANCH  11  12
HETATM   12  C   UNL     1     -11.750  10.854  69.308  1.00  0.00    -0.324 A  
HETATM   13  N   UNL     1     -12.774  11.224  70.129  1.00  0.00    -0.111 NA 
HETATM   14  C   UNL     1     -12.834  10.661  71.349  1.00  0.00    -0.451 A  
HETATM   15  C   UNL     1     -11.926   9.728  71.801  1.00  0.00    -0.388 A  
HETATM   16  C   UNL     1     -10.873   9.350  70.961  1.00  0.00    -0.406 A  
HETATM   17  C   UNL     1      -9.910   8.434  71.410  1.00  0.00    -0.259 A  
HETATM   18  C   UNL     1      -8.792   8.080  70.634  1.00  0.00    -0.143 A  
HETATM   19  C   UNL     1     -10.762   9.905  69.678  1.00  0.00    -0.277 A  
HETATM   20  C   UNL     1      -8.679   8.598  69.343  1.00  0.00    -0.139 A  
HETATM   21  C   UNL     1      -9.662   9.495  68.884  1.00  0.00    -0.166 A  
BRANCH  18  22
HETATM   22  O   UNL     1      -7.835   7.229  71.133  1.00  0.00    -0.091 OA 
HETATM   23  C   UNL     1      -7.933   5.867  70.709  1.00  0.00    -0.114 C  
ENDBRANCH  18  22
BRANCH  20  24
HETATM   24  O   UNL     1      -7.696   8.428  68.406  1.00  0.00    -0.101 OA 
HETATM   25  C   UNL     1      -7.817   7.493  67.350  1.00  0.00    -0.118 C  
ENDBRANCH  20  24
ENDBRANCH  11  12
ENDBRANCH   7  11
ENDBRANCH   2   3
TORSDOF 6
ENDMDL
MODEL      137
REMARK 921   NORMALIZED FREE ENERGY PREDICTED BY IDOCK:   -4.43 KCAL/MOL
REMARK 922        TOTAL FREE ENERGY PREDICTED BY IDOCK:   -6.79 KCAL/MOL
REMARK 923 INTER-LIGAND FREE ENERGY PREDICTED BY IDOCK:   -5.90 KCAL/MOL
REMARK 924 INTRA-LIGAND FREE ENERGY PREDICTED BY IDOCK:   -0.89 KCAL/MOL
REMARK 927      BINDING AFFINITY PREDICTED BY RF-SCORE:    0.00 PKD
ROOT
HETATM    1  C   UNL     1     -10.105   3.413  73.039  1.00  0.00    -0.150 C  
HETATM    2  O   UNL     1      -9.987   4.812  72.789  1.00  0.00    -0.153 OA 
ENDROOT
BRANCH   2   3
HETATM    3  C   UNL     1     -10.093   5.197  71.476  1.00  0.00    -0.193 A  
HETATM    4  C   UNL     1     -10.481   6.526  71.232  1.00  0.00    -0.215 A  
HETATM    5  C   UNL     1      -9.922   4.325  70.399  1.00  0.00    -0.213 A  
HETATM    6  C   UNL     1     -10.666   6.954  69.909  1.00  0.00    -0.278 A  
HETATM    7  C   UNL     1     -10.557   6.058  68.830  1.00  0.00    -0.345 A  
HETATM    8  C   UNL     1     -10.151   4.746  69.089  1.00  0.00    -0.196 A  
BRANCH   4   9
HETATM    9  O   UNL     1     -10.667   7.323  72.336  1.00  0.00    -0.222 OA 
HETATM   10  C   UNL     1     -11.789   8.202  72.324  1.00  0.00    -0.382 C  
ENDBRANCH   4   9
BRANCH   7  11
HETATM   11  C   UNL     1     -10.863   6.482  67.410  1.00  0.00    -0.449 C  
BRANCH  11  12
HETATM   12  C   UNL     1      -9.852   7.447  66.821  1.00  0.00    -0.220 A  
HETATM   13  N   UNL     1      -8.777   6.846  66.236  1.00  0.00    -0.138 NA 
HETATM   14  C   UNL     1      -7.775   7.633  65.806  1.00  0.00    -0.100 A  
HETATM   15  C   UNL     1      -7.786   9.007  65.919  1.00  0.00    -0.094 A  
HETATM   16  C   UNL     1      -8.886   9.625  66.523  1.00  0.00    -0.158 A  
HETATM   17  C   UNL     1      -8.906  11.018  66.689  1.00  0.00    -0.168 A  
HETATM   18  C   UNL     1      -9.951  11.679  67.357  1.00  0.00    -0.183 A  
HETATM   19  C   UNL     1      -9.960   8.852  66.988  1.00  0.00    -0.300 A  
HETATM   20  C   UNL     1     -11.044  10.932  67.801  1.00  0.00    -0.309 A  
HETATM   21  C   UNL     1     -11.034   9.537  67.607  1.00  0.00    -0.150 A  
BRANCH  18  22
HETATM   22  O   UNL     1      -9.905  13.037  67.557  1.00  0.00    -0.203 OA 
HETATM   23  C   UNL     1      -8.627  13.650  67.366  1.00  0.00    -0.209 C  
ENDBRANCH  18  22
BRANCH  20  24
HETATM   24  O   UNL     1     -12.163  11.323  68.483  1.00  0.00    -0.588 OA 
HETATM   25  C   UNL     1     -12.259  11.226  69.892  1.00  0.00    -0.288 C  
ENDBRANCH  20  24
ENDBRANCH  11  12
ENDBRANCH   7  11
ENDBRANCH   2   3
TORSDOF 6
ENDMDL
MODEL      138
REMARK 921   NORMALIZED FREE ENERGY PREDICTED BY IDOCK:   -4.39 KCAL/MOL
REMARK 922        TOTAL FREE ENERGY PREDICTED BY IDOCK:   -6.74 KCAL/MOL
REMARK 923 INTER-LIGAND FREE ENERGY PREDICTED BY IDOCK:   -6.09 KCAL/MOL
REMARK 924 INTRA-LIGAND FREE ENERGY PREDICTED BY IDOCK:   -0.65 KCAL/MOL
REMARK 927      BINDING AFFINITY PREDICTED BY RF-SCORE:    0.00 PKD
ROOT
HETATM    1  C   UNL     1      -9.227   4.103  68.992  1.00  0.00    -0.150 C  
HETATM    2  O   UNL     1      -8.339   5.142  68.584  1.00  0.00    -0.089 OA 
ENDROOT
BRANCH   2   3
HETATM    3  C   UNL     1      -8.931   6.308  68.167  1.00  0.00    -0.115 A  
HETATM    4  C   UNL     1      -8.408   7.507  68.681  1.00  0.00    -0.129 A  
HETATM    5  C   UNL     1     -10.057   6.350  67.342  1.00  0.00    -0.198 A  
HETATM    6  C   UNL     1      -9.016   8.723  68.338  1.00  0.00    -0.141 A  
HETATM    7  C   UNL     1     -10.188   8.760  67.561  1.00  0.00    -0.309 A  
HETATM    8  C   UNL     1     -10.683   7.560  67.041  1.00  0.00    -0.367 A  
BRANCH   4   9
HETATM    9  O   UNL     1      -7.321   7.394  69.515  1.00  0.00    -0.080 OA 
HETATM   10  C   UNL     1      -7.533   7.648  70.901  1.00  0.00    -0.071 C  
ENDBRANCH   4   9
BRANCH   7  11
HETATM   11  C   UNL     1     -10.914  10.056  67.277  1.00  0.00    -0.225 C  
BRANCH  11  12
HETATM   12  C   UNL     1     -11.308  10.830  68.521  1.00  0.00    -0.295 A  
HETATM   13  N   UNL     1     -11.738  10.050  69.554  1.00  0.00    -0.069 NA 
HETATM   14  C   UNL     1     -12.227  10.667  70.643  1.00  0.00    -0.365 A  
HETATM   15  C   UNL     1     -12.306  12.038  70.770  1.00  0.00    -0.403 A  
HETATM   16  C   UNL     1     -11.870  12.839  69.709  1.00  0.00    -0.380 A  
HETATM   17  C   UNL     1     -11.976  14.235  69.793  1.00  0.00    -0.394 A  
HETATM   18  C   UNL     1     -11.622  15.079  68.726  1.00  0.00    -0.335 A  
HETATM   19  C   UNL     1     -11.348  12.248  68.549  1.00  0.00    -0.332 A  
HETATM   20  C   UNL     1     -11.074  14.514  67.573  1.00  0.00    -0.307 A  
HETATM   21  C   UNL     1     -10.942  13.113  67.504  1.00  0.00    -0.282 A  
BRANCH  18  22
HETATM   22  O   UNL     1     -11.802  16.439  68.820  1.00  0.00    -0.201 OA 
HETATM   23  C   UNL     1     -10.646  17.193  69.194  1.00  0.00    -0.259 C  
ENDBRANCH  18  22
BRANCH  20  24
HETATM   24  O   UNL     1     -10.672  15.102  66.406  1.00  0.00    -0.305 OA 
HETATM   25  C   UNL     1      -9.312  15.142  66.013  1.00  0.00    -0.291 C  
ENDBRANCH  20  24
ENDBRANCH  11  12
ENDBRANCH   7  11
ENDBRANCH   2   3
TORSDOF 6
ENDMDL
MODEL      139
REMARK 921   NORMALIZED FREE ENERGY PREDICTED BY IDOCK:   -4.38 KCAL/MOL
REMARK 922        TOTAL FREE ENERGY PREDICTED BY IDOCK:   -6.72 KCAL/MOL
REMARK 923 INTER-LIGAND FREE ENERGY PREDICTED BY IDOCK:   -5.72 KCAL/MOL
REMARK 924 INTRA-LIGAND FREE ENERGY PREDICTED BY IDOCK:   -1.00 KCAL/MOL
REMARK 927      BINDING AFFINITY PREDICTED BY RF-SCORE:    0.00 PKD
ROOT
HETATM    1  C   UNL     1     -12.109  12.524  63.456  1.00  0.00    -0.562 C  
HETATM    2  O   UNL     1     -11.755  12.373  64.830  1.00  0.00    -0.341 OA 
ENDROOT
BRANCH   2   3
HETATM    3  C   UNL     1     -10.977  11.284  65.132  1.00  0.00    -0.146 A  
HETATM    4  C   UNL     1     -10.977  10.853  66.470  1.00  0.00    -0.121 A  
HETATM    5  C   UNL     1     -10.138  10.654  64.210  1.00  0.00    -0.411 A  
HETATM    6  C   UNL     1     -10.150   9.785  66.846  1.00  0.00    -0.287 A  
HETATM    7  C   UNL     1      -9.259   9.194  65.932  1.00  0.00    -0.286 A  
HETATM    8  C   UNL     1      -9.286   9.621  64.601  1.00  0.00    -0.271 A  
BRANCH   4   9
HETATM    9  O   UNL     1     -11.797  11.538  67.334  1.00  0.00    -0.607 OA 
HETATM   10  C   UNL     1     -11.602  11.320  68.729  1.00  0.00    -0.316 C  
ENDBRANCH   4   9
BRANCH   7  11
HETATM   11  C   UNL     1      -8.284   8.117  66.354  1.00  0.00    -0.108 C  
BRANCH  11  12
HETATM   12  C   UNL     1      -8.942   6.815  66.767  1.00  0.00    -0.134 A  
HETATM   13  N   UNL     1      -9.375   6.049  65.726  1.00  0.00    -0.033 NA 
HETATM   14  C   UNL     1     -10.084   4.943  66.013  1.00  0.00    -0.239 A  
HETATM   15  C   UNL     1     -10.383   4.544  67.298  1.00  0.00     0.032 A  
HETATM   16  C   UNL     1      -9.943   5.331  68.368  1.00  0.00    -0.220 A  
HETATM   17  C   UNL     1     -10.268   4.972  69.684  1.00  0.00    -0.306 A  
HETATM   18  C   UNL     1      -9.916   5.768  70.787  1.00  0.00    -0.193 A  
HETATM   19  C   UNL     1      -9.199   6.494  68.126  1.00  0.00    -0.112 A  
HETATM   20  C   UNL     1      -9.149   6.915  70.572  1.00  0.00    -0.156 A  
HETATM   21  C   UNL     1      -8.800   7.257  69.251  1.00  0.00    -0.136 A  
BRANCH  18  22
HETATM   22  O   UNL     1     -10.308   5.418  72.057  1.00  0.00    -0.199 OA 
HETATM   23  C   UNL     1     -11.457   6.103  72.564  1.00  0.00    -0.276 C  
ENDBRANCH  18  22
BRANCH  20  24
HETATM   24  O   UNL     1      -8.697   7.855  71.457  1.00  0.00    -0.116 OA 
HETATM   25  C   UNL     1      -9.445   9.017  71.768  1.00  0.00    -0.175 C  
ENDBRANCH  20  24
ENDBRANCH  11  12
ENDBRANCH   7  11
ENDBRANCH   2   3
TORSDOF 6
ENDMDL
MODEL      140
REMARK 921   NORMALIZED FREE ENERGY PREDICTED BY IDOCK:   -4.37 KCAL/MOL
REMARK 922        TOTAL FREE ENERGY PREDICTED BY IDOCK:   -6.71 KCAL/MOL
REMARK 923 INTER-LIGAND FREE ENERGY PREDICTED BY IDOCK:   -5.84 KCAL/MOL
REMARK 924 INTRA-LIGAND FREE ENERGY PREDICTED BY IDOCK:   -0.87 KCAL/MOL
REMARK 927      BINDING AFFINITY PREDICTED BY RF-SCORE:    0.00 PKD
ROOT
HETATM    1  C   UNL     1      -9.736  12.095  65.216  1.00  0.00    -0.141 C  
HETATM    2  O   UNL     1      -8.911  11.368  66.125  1.00  0.00    -0.193 OA 
ENDROOT
BRANCH   2   3
HETATM    3  C   UNL     1      -9.363  10.123  66.480  1.00  0.00    -0.164 A  
HETATM    4  C   UNL     1      -8.779   9.023  65.827  1.00  0.00    -0.169 A  
HETATM    5  C   UNL     1     -10.411   9.908  67.378  1.00  0.00    -0.325 A  
HETATM    6  C   UNL     1      -9.248   7.732  66.106  1.00  0.00    -0.182 A  
HETATM    7  C   UNL     1     -10.347   7.522  66.960  1.00  0.00    -0.395 A  
HETATM    8  C   UNL     1     -10.902   8.624  67.617  1.00  0.00    -0.081 A  
BRANCH   4   9
HETATM    9  O   UNL     1      -7.777   9.305  64.930  1.00  0.00    -0.104 OA 
HETATM   10  C   UNL     1      -6.666   8.412  64.891  1.00  0.00    -0.067 C  
ENDBRANCH   4   9
BRANCH   7  11
HETATM   11  C   UNL     1     -10.931   6.145  67.182  1.00  0.00    -0.420 C  
BRANCH  11  12
HETATM   12  C   UNL     1     -10.149   5.291  68.162  1.00  0.00    -0.151 A  
HETATM   13  N   UNL     1      -9.301   4.398  67.576  1.00  0.00    -0.144 NA 
HETATM   14  C   UNL     1      -8.671   3.517  68.372  1.00  0.00    -0.105 A  
HETATM   15  C   UNL     1      -8.830   3.480  69.741  1.00  0.00    -0.151 A  
HETATM   16  C   UNL     1      -9.703   4.393  70.343  1.00  0.00    -0.284 A  
HETATM   17  C   UNL     1      -9.917   4.352  71.729  1.00  0.00    -0.257 A  
HETATM   18  C   UNL     1     -10.839   5.196  72.371  1.00  0.00    -0.203 A  
HETATM   19  C   UNL     1     -10.386   5.335  69.560  1.00  0.00    -0.333 A  
HETATM   20  C   UNL     1     -11.508   6.160  71.614  1.00  0.00    -0.272 A  
HETATM   21  C   UNL     1     -11.269   6.218  70.228  1.00  0.00    -0.455 A  
BRANCH  18  22
HETATM   22  O   UNL     1     -11.070   5.082  73.721  1.00  0.00    -0.308 OA 
HETATM   23  C   UNL     1      -9.933   5.282  74.564  1.00  0.00    -0.238 C  
ENDBRANCH  18  22
BRANCH  20  24
HETATM   24  O   UNL     1     -12.453   7.077  71.988  1.00  0.00    -0.304 OA 
HETATM   25  C   UNL     1     -12.122   8.421  72.283  1.00  0.00    -0.392 C  
ENDBRANCH  20  24
ENDBRANCH  11  12
ENDBRANCH   7  11
ENDBRANCH   2   3
TORSDOF 6
ENDMDL
MODEL      141
REMARK 921   NORMALIZED FREE ENERGY PREDICTED BY IDOCK:   -4.36 KCAL/MOL
REMARK 922        TOTAL FREE ENERGY PREDICTED BY IDOCK:   -6.70 KCAL/MOL
REMARK 923 INTER-LIGAND FREE ENERGY PREDICTED BY IDOCK:   -6.03 KCAL/MOL
REMARK 924 INTRA-LIGAND FREE ENERGY PREDICTED BY IDOCK:   -0.67 KCAL/MOL
REMARK 927      BINDING AFFINITY PREDICTED BY RF-SCORE:    0.00 PKD
ROOT
HETATM    1  C   UNL     1      -6.000  19.935  68.052  1.00  0.00    -0.222 C  
HETATM    2  O   UNL     1      -6.993  20.015  67.032  1.00  0.00    -0.206 OA 
ENDROOT
BRANCH   2   3
HETATM    3  C   UNL     1      -7.814  18.923  66.907  1.00  0.00    -0.246 A  
HETATM    4  C   UNL     1      -9.035  18.962  67.604  1.00  0.00    -0.287 A  
HETATM    5  C   UNL     1      -7.462  17.768  66.207  1.00  0.00    -0.328 A  
HETATM    6  C   UNL     1      -9.883  17.847  67.562  1.00  0.00    -0.309 A  
HETATM    7  C   UNL     1      -9.499  16.660  66.911  1.00  0.00    -0.248 A  
HETATM    8  C   UNL     1      -8.292  16.646  66.206  1.00  0.00    -0.360 A  
BRANCH   4   9
HETATM    9  O   UNL     1      -9.305  20.114  68.302  1.00  0.00    -0.254 OA 
HETATM   10  C   UNL     1     -10.149  20.002  69.446  1.00  0.00    -0.043 C  
ENDBRANCH   4   9
BRANCH   7  11
HETATM   11  C   UNL     1     -10.357  15.415  66.954  1.00  0.00    -0.277 C  
BRANCH  11  12
HETATM   12  C   UNL     1      -9.591  14.147  67.280  1.00  0.00    -0.234 A  
HETATM   13  N   UNL     1      -8.812  14.233  68.396  1.00  0.00    -0.184 NA 
HETATM   14  C   UNL     1      -8.004  13.197  68.678  1.00  0.00    -0.033 A  
HETATM   15  C   UNL     1      -7.932  12.057  67.906  1.00  0.00    -0.147 A  
HETATM   16  C   UNL     1      -8.727  11.969  66.758  1.00  0.00    -0.192 A  
HETATM   17  C   UNL     1      -8.645  10.839  65.931  1.00  0.00    -0.182 A  
HETATM   18  C   UNL     1      -9.365  10.736  64.728  1.00  0.00    -0.226 A  
HETATM   19  C   UNL     1      -9.590  13.020  66.418  1.00  0.00    -0.258 A  
HETATM   20  C   UNL     1     -10.252  11.758  64.386  1.00  0.00    -0.289 A  
HETATM   21  C   UNL     1     -10.354  12.878  65.233  1.00  0.00    -0.315 A  
BRANCH  18  22
HETATM   22  O   UNL     1      -9.210   9.642  63.911  1.00  0.00    -0.249 OA 
HETATM   23  C   UNL     1      -8.504   8.536  64.480  1.00  0.00    -0.090 C  
ENDBRANCH  18  22
BRANCH  20  24
HETATM   24  O   UNL     1     -11.045  11.906  63.281  1.00  0.00    -0.371 OA 
HETATM   25  C   UNL     1     -12.286  12.586  63.330  1.00  0.00    -0.477 C  
ENDBRANCH  20  24
ENDBRANCH  11  12
ENDBRANCH   7  11
ENDBRANCH   2   3
TORSDOF 6
ENDMDL
MODEL      142
REMARK 921   NORMALIZED FREE ENERGY PREDICTED BY IDOCK:   -4.36 KCAL/MOL
REMARK 922        TOTAL FREE ENERGY PREDICTED BY IDOCK:   -6.69 KCAL/MOL
REMARK 923 INTER-LIGAND FREE ENERGY PREDICTED BY IDOCK:   -5.83 KCAL/MOL
REMARK 924 INTRA-LIGAND FREE ENERGY PREDICTED BY IDOCK:   -0.86 KCAL/MOL
REMARK 927      BINDING AFFINITY PREDICTED BY RF-SCORE:    0.00 PKD
ROOT
HETATM    1  C   UNL     1     -10.349   7.883  72.614  1.00  0.00    -0.308 C  
HETATM    2  O   UNL     1     -10.979   7.549  71.378  1.00  0.00    -0.230 OA 
ENDROOT
BRANCH   2   3
HETATM    3  C   UNL     1     -10.860   8.477  70.375  1.00  0.00    -0.234 A  
HETATM    4  C   UNL     1     -10.595   7.989  69.083  1.00  0.00    -0.169 A  
HETATM    5  C   UNL     1     -10.904   9.857  70.589  1.00  0.00    -0.400 A  
HETATM    6  C   UNL     1     -10.402   8.898  68.033  1.00  0.00    -0.271 A  
HETATM    7  C   UNL     1     -10.382  10.286  68.262  1.00  0.00    -0.209 A  
HETATM    8  C   UNL     1     -10.667  10.755  69.548  1.00  0.00    -0.268 A  
BRANCH   4   9
HETATM    9  O   UNL     1     -10.530   6.623  68.946  1.00  0.00    -0.183 OA 
HETATM   10  C   UNL     1     -10.876   6.078  67.676  1.00  0.00    -0.295 C  
ENDBRANCH   4   9
BRANCH   7  11
HETATM   11  C   UNL     1     -10.064  11.270  67.158  1.00  0.00    -0.223 C  
BRANCH  11  12
HETATM   12  C   UNL     1     -10.547  12.682  67.430  1.00  0.00    -0.224 A  
HETATM   13  N   UNL     1     -11.823  12.928  67.015  1.00  0.00    -0.382 NA 
HETATM   14  C   UNL     1     -12.277  14.190  67.102  1.00  0.00    -0.313 A  
HETATM   15  C   UNL     1     -11.527  15.236  67.595  1.00  0.00    -0.287 A  
HETATM   16  C   UNL     1     -10.217  14.986  68.017  1.00  0.00    -0.228 A  
HETATM   17  C   UNL     1      -9.416  16.039  68.485  1.00  0.00    -0.216 A  
HETATM   18  C   UNL     1      -8.071  15.854  68.848  1.00  0.00    -0.214 A  
HETATM   19  C   UNL     1      -9.692  13.688  67.950  1.00  0.00    -0.234 A  
HETATM   20  C   UNL     1      -7.537  14.564  68.817  1.00  0.00    -0.131 A  
HETATM   21  C   UNL     1      -8.353  13.505  68.374  1.00  0.00    -0.140 A  
BRANCH  18  22
HETATM   22  O   UNL     1      -7.299  16.921  69.240  1.00  0.00    -0.238 OA 
HETATM   23  C   UNL     1      -6.569  17.574  68.198  1.00  0.00    -0.186 C  
ENDBRANCH  18  22
BRANCH  20  24
HETATM   24  O   UNL     1      -6.273  14.124  69.099  1.00  0.00    -0.091 OA 
HETATM   25  C   UNL     1      -5.841  13.876  70.424  1.00  0.00    -0.161 C  
ENDBRANCH  20  24
ENDBRANCH  11  12
ENDBRANCH   7  11
ENDBRANCH   2   3
TORSDOF 6
ENDMDL
MODEL      143
REMARK 921   NORMALIZED FREE ENERGY PREDICTED BY IDOCK:   -4.29 KCAL/MOL
REMARK 922        TOTAL FREE ENERGY PREDICTED BY IDOCK:   -6.60 KCAL/MOL
REMARK 923 INTER-LIGAND FREE ENERGY PREDICTED BY IDOCK:   -6.68 KCAL/MOL
REMARK 924 INTRA-LIGAND FREE ENERGY PREDICTED BY IDOCK:    0.08 KCAL/MOL
REMARK 927      BINDING AFFINITY PREDICTED BY RF-SCORE:    0.00 PKD
ROOT
HETATM    1  C   UNL     1      -9.135   2.960  68.374  1.00  0.00    -0.164 C  
HETATM    2  O   UNL     1      -9.041   3.533  69.678  1.00  0.00    -0.105 OA 
ENDROOT
BRANCH   2   3
HETATM    3  C   UNL     1      -9.557   4.797  69.816  1.00  0.00    -0.179 A  
HETATM    4  C   UNL     1      -9.110   5.550  70.915  1.00  0.00    -0.143 A  
HETATM    5  C   UNL     1     -10.547   5.322  68.982  1.00  0.00    -0.150 A  
HETATM    6  C   UNL     1      -9.653   6.824  71.139  1.00  0.00    -0.177 A  
HETATM    7  C   UNL     1     -10.695   7.325  70.338  1.00  0.00    -0.253 A  
HETATM    8  C   UNL     1     -11.113   6.571  69.237  1.00  0.00    -0.393 A  
BRANCH   4   9
HETATM    9  O   UNL     1      -8.161   4.962  71.716  1.00  0.00    -0.109 OA 
HETATM   10  C   UNL     1      -8.461   4.845  73.105  1.00  0.00    -0.104 C  
ENDBRANCH   4   9
BRANCH   7  11
HETATM   11  C   UNL     1     -11.363   8.648  70.638  1.00  0.00    -0.277 C  
BRANCH  11  12
HETATM   12  C   UNL     1     -11.032   9.748  69.646  1.00  0.00    -0.241 A  
HETATM   13  N   UNL     1     -10.170   9.372  68.659  1.00  0.00    -0.194 NA 
HETATM   14  C   UNL     1      -9.726  10.323  67.819  1.00  0.00    -0.156 A  
HETATM   15  C   UNL     1     -10.105  11.646  67.900  1.00  0.00    -0.198 A  
HETATM   16  C   UNL     1     -10.986  12.034  68.915  1.00  0.00    -0.277 A  
HETATM   17  C   UNL     1     -11.356  13.380  69.047  1.00  0.00    -0.335 A  
HETATM   18  C   UNL     1     -12.177  13.833  70.095  1.00  0.00    -0.356 A  
HETATM   19  C   UNL     1     -11.481  11.083  69.818  1.00  0.00    -0.387 A  
HETATM   20  C   UNL     1     -12.704  12.898  70.988  1.00  0.00    -0.251 A  
HETATM   21  C   UNL     1     -12.354  11.543  70.835  1.00  0.00    -0.460 A  
BRANCH  18  22
HETATM   22  O   UNL     1     -12.465  15.170  70.230  1.00  0.00    -0.338 OA 
HETATM   23  C   UNL     1     -11.468  15.957  70.887  1.00  0.00    -0.409 C  
ENDBRANCH  18  22
BRANCH  20  24
HETATM   24  O   UNL     1     -13.501  13.077  72.085  1.00  0.00    -0.509 OA 
HETATM   25  C   UNL     1     -14.391  14.173  72.199  1.00  0.00    -0.518 C  
ENDBRANCH  20  24
ENDBRANCH  11  12
ENDBRANCH   7  11
ENDBRANCH   2   3
TORSDOF 6
ENDMDL
MODEL      144
REMARK 921   NORMALIZED FREE ENERGY PREDICTED BY IDOCK:   -4.29 KCAL/MOL
REMARK 922        TOTAL FREE ENERGY PREDICTED BY IDOCK:   -6.60 KCAL/MOL
REMARK 923 INTER-LIGAND FREE ENERGY PREDICTED BY IDOCK:   -5.67 KCAL/MOL
REMARK 924 INTRA-LIGAND FREE ENERGY PREDICTED BY IDOCK:   -0.92 KCAL/MOL
REMARK 927      BINDING AFFINITY PREDICTED BY RF-SCORE:    0.00 PKD
ROOT
HETATM    1  C   UNL     1     -10.669   6.247  72.359  1.00  0.00    -0.225 C  
HETATM    2  O   UNL     1     -11.634   7.162  71.843  1.00  0.00    -0.261 OA 
ENDROOT
BRANCH   2   3
HETATM    3  C   UNL     1     -11.264   7.851  70.716  1.00  0.00    -0.266 A  
HETATM    4  C   UNL     1     -11.483   9.240  70.719  1.00  0.00    -0.292 A  
HETATM    5  C   UNL     1     -10.770   7.238  69.563  1.00  0.00    -0.244 A  
HETATM    6  C   UNL     1     -11.182   9.984  69.569  1.00  0.00    -0.254 A  
HETATM    7  C   UNL     1     -10.747   9.357  68.387  1.00  0.00    -0.213 A  
HETATM    8  C   UNL     1     -10.514   7.979  68.408  1.00  0.00    -0.205 A  
BRANCH   4   9
HETATM    9  O   UNL     1     -12.004   9.776  71.872  1.00  0.00    -0.365 OA 
HETATM   10  C   UNL     1     -13.062  10.721  71.733  1.00  0.00    -0.468 C  
ENDBRANCH   4   9
BRANCH   7  11
HETATM   11  C   UNL     1     -10.525  10.135  67.109  1.00  0.00    -0.305 C  
BRANCH  11  12
HETATM   12  C   UNL     1      -9.182  10.835  67.035  1.00  0.00    -0.152 A  
HETATM   13  N   UNL     1      -8.168  10.055  66.561  1.00  0.00    -0.118 NA 
HETATM   14  C   UNL     1      -6.923  10.562  66.589  1.00  0.00    -0.113 A  
HETATM   15  C   UNL     1      -6.625  11.823  67.059  1.00  0.00    -0.140 A  
HETATM   16  C   UNL     1      -7.663  12.622  67.550  1.00  0.00    -0.161 A  
HETATM   17  C   UNL     1      -7.384  13.893  68.073  1.00  0.00    -0.141 A  
HETATM   18  C   UNL     1      -8.379  14.703  68.647  1.00  0.00    -0.165 A  
HETATM   19  C   UNL     1      -8.981  12.145  67.544  1.00  0.00    -0.177 A  
HETATM   20  C   UNL     1      -9.703  14.259  68.625  1.00  0.00    -0.213 A  
HETATM   21  C   UNL     1      -9.984  12.995  68.073  1.00  0.00    -0.233 A  
BRANCH  18  22
HETATM   22  O   UNL     1      -8.058  15.915  69.209  1.00  0.00    -0.224 OA 
HETATM   23  C   UNL     1      -6.662  16.161  69.399  1.00  0.00    -0.205 C  
ENDBRANCH  18  22
BRANCH  20  24
HETATM   24  O   UNL     1     -10.837  14.838  69.124  1.00  0.00    -0.244 OA 
HETATM   25  C   UNL     1     -11.667  15.672  68.335  1.00  0.00    -0.290 C  
ENDBRANCH  20  24
ENDBRANCH  11  12
ENDBRANCH   7  11
ENDBRANCH   2   3
TORSDOF 6
ENDMDL
MODEL      145
REMARK 921   NORMALIZED FREE ENERGY PREDICTED BY IDOCK:   -4.28 KCAL/MOL
REMARK 922        TOTAL FREE ENERGY PREDICTED BY IDOCK:   -6.58 KCAL/MOL
REMARK 923 INTER-LIGAND FREE ENERGY PREDICTED BY IDOCK:   -5.77 KCAL/MOL
REMARK 924 INTRA-LIGAND FREE ENERGY PREDICTED BY IDOCK:   -0.82 KCAL/MOL
REMARK 927      BINDING AFFINITY PREDICTED BY RF-SCORE:    0.00 PKD
ROOT
HETATM    1  C   UNL     1     -12.375  14.252  64.160  1.00  0.00    -0.327 C  
HETATM    2  O   UNL     1     -12.621  14.243  65.565  1.00  0.00    -0.458 OA 
ENDROOT
BRANCH   2   3
HETATM    3  C   UNL     1     -11.713  13.555  66.329  1.00  0.00    -0.367 A  
HETATM    4  C   UNL     1     -10.666  14.299  66.899  1.00  0.00    -0.290 A  
HETATM    5  C   UNL     1     -11.732  12.167  66.489  1.00  0.00    -0.392 A  
HETATM    6  C   UNL     1      -9.675  13.635  67.636  1.00  0.00    -0.228 A  
HETATM    7  C   UNL     1      -9.660  12.232  67.742  1.00  0.00    -0.200 A  
HETATM    8  C   UNL     1     -10.719  11.509  67.186  1.00  0.00    -0.294 A  
BRANCH   4   9
HETATM    9  O   UNL     1     -10.685  15.655  66.675  1.00  0.00    -0.308 OA 
HETATM   10  C   UNL     1      -9.569  16.219  65.990  1.00  0.00    -0.337 C  
ENDBRANCH   4   9
BRANCH   7  11
HETATM   11  C   UNL     1      -8.536  11.499  68.440  1.00  0.00    -0.159 C  
BRANCH  11  12
HETATM   12  C   UNL     1      -8.311  10.086  67.934  1.00  0.00    -0.117 A  
HETATM   13  N   UNL     1      -7.631  10.014  66.754  1.00  0.00    -0.102 NA 
HETATM   14  C   UNL     1      -7.506   8.807  66.176  1.00  0.00    -0.090 A  
HETATM   15  C   UNL     1      -8.018   7.647  66.718  1.00  0.00    -0.111 A  
HETATM   16  C   UNL     1      -8.720   7.720  67.926  1.00  0.00    -0.124 A  
HETATM   17  C   UNL     1      -9.288   6.564  68.481  1.00  0.00    -0.123 A  
HETATM   18  C   UNL     1     -10.065   6.597  69.651  1.00  0.00    -0.181 A  
HETATM   19  C   UNL     1      -8.879   8.954  68.574  1.00  0.00    -0.134 A  
HETATM   20  C   UNL     1     -10.212   7.810  70.327  1.00  0.00    -0.199 A  
HETATM   21  C   UNL     1      -9.616   8.964  69.784  1.00  0.00    -0.175 A  
BRANCH  18  22
HETATM   22  O   UNL     1     -10.660   5.454  70.128  1.00  0.00    -0.296 OA 
HETATM   23  C   UNL     1      -9.768   4.422  70.558  1.00  0.00    -0.217 C  
ENDBRANCH  18  22
BRANCH  20  24
HETATM   24  O   UNL     1     -10.920   8.110  71.458  1.00  0.00    -0.231 OA 
HETATM   25  C   UNL     1     -12.331   8.224  71.456  1.00  0.00    -0.306 C  
ENDBRANCH  20  24
ENDBRANCH  11  12
ENDBRANCH   7  11
ENDBRANCH   2   3
TORSDOF 6
ENDMDL
MODEL      146
REMARK 921   NORMALIZED FREE ENERGY PREDICTED BY IDOCK:   -4.27 KCAL/MOL
REMARK 922        TOTAL FREE ENERGY PREDICTED BY IDOCK:   -6.58 KCAL/MOL
REMARK 923 INTER-LIGAND FREE ENERGY PREDICTED BY IDOCK:   -6.55 KCAL/MOL
REMARK 924 INTRA-LIGAND FREE ENERGY PREDICTED BY IDOCK:   -0.03 KCAL/MOL
REMARK 927      BINDING AFFINITY PREDICTED BY RF-SCORE:    0.00 PKD
ROOT
HETATM    1  C   UNL     1      -8.164   8.803  64.998  1.00  0.00    -0.155 C  
HETATM    2  O   UNL     1      -8.390   9.663  66.113  1.00  0.00    -0.117 OA 
ENDROOT
BRANCH   2   3
HETATM    3  C   UNL     1      -8.941  10.886  65.825  1.00  0.00    -0.193 A  
HETATM    4  C   UNL     1      -8.603  11.953  66.675  1.00  0.00    -0.163 A  
HETATM    5  C   UNL     1      -9.868  11.093  64.801  1.00  0.00    -0.326 A  
HETATM    6  C   UNL     1      -9.188  13.210  66.463  1.00  0.00    -0.185 A  
HETATM    7  C   UNL     1     -10.170  13.401  65.474  1.00  0.00    -0.300 A  
HETATM    8  C   UNL     1     -10.479  12.335  64.624  1.00  0.00    -0.334 A  
BRANCH   4   9
HETATM    9  O   UNL     1      -7.713  11.674  67.684  1.00  0.00    -0.119 OA 
HETATM   10  C   UNL     1      -6.442  12.317  67.628  1.00  0.00    -0.120 C  
ENDBRANCH   4   9
BRANCH   7  11
HETATM   11  C   UNL     1     -10.887  14.723  65.310  1.00  0.00    -0.395 C  
BRANCH  11  12
HETATM   12  C   UNL     1     -10.386  15.818  66.233  1.00  0.00    -0.310 A  
HETATM   13  N   UNL     1      -9.467  16.651  65.667  1.00  0.00    -0.497 NA 
HETATM   14  C   UNL     1      -8.879  17.565  66.459  1.00  0.00    -0.266 A  
HETATM   15  C   UNL     1      -9.165  17.706  67.800  1.00  0.00    -0.251 A  
HETATM   16  C   UNL     1     -10.105  16.849  68.382  1.00  0.00    -0.304 A  
HETATM   17  C   UNL     1     -10.386  16.942  69.754  1.00  0.00    -0.021 A  
HETATM   18  C   UNL     1     -11.263  16.055  70.401  1.00  0.00    -0.387 A  
HETATM   19  C   UNL     1     -10.750  15.878  67.603  1.00  0.00    -0.312 A  
HETATM   20  C   UNL     1     -11.938  15.100  69.639  1.00  0.00    -0.329 A  
HETATM   21  C   UNL     1     -11.676  15.028  68.257  1.00  0.00    -0.338 A  
BRANCH  18  22
HETATM   22  O   UNL     1     -11.464  16.136  71.758  1.00  0.00    -0.414 OA 
HETATM   23  C   UNL     1     -12.719  15.640  72.231  1.00  0.00    -0.430 C  
ENDBRANCH  18  22
BRANCH  20  24
HETATM   24  O   UNL     1     -12.817  14.124  70.021  1.00  0.00    -0.223 OA 
HETATM   25  C   UNL     1     -12.440  12.762  70.104  1.00  0.00    -0.056 C  
ENDBRANCH  20  24
ENDBRANCH  11  12
ENDBRANCH   7  11
ENDBRANCH   2   3
TORSDOF 6
ENDMDL
MODEL      147
REMARK 921   NORMALIZED FREE ENERGY PREDICTED BY IDOCK:   -4.26 KCAL/MOL
REMARK 922        TOTAL FREE ENERGY PREDICTED BY IDOCK:   -6.56 KCAL/MOL
REMARK 923 INTER-LIGAND FREE ENERGY PREDICTED BY IDOCK:   -6.39 KCAL/MOL
REMARK 924 INTRA-LIGAND FREE ENERGY PREDICTED BY IDOCK:   -0.17 KCAL/MOL
REMARK 927      BINDING AFFINITY PREDICTED BY RF-SCORE:    0.00 PKD
ROOT
HETATM    1  C   UNL     1     -13.050  11.094  71.656  1.00  0.00    -0.424 C  
HETATM    2  O   UNL     1     -11.985  10.436  70.972  1.00  0.00    -0.339 OA 
ENDROOT
BRANCH   2   3
HETATM    3  C   UNL     1     -11.478  11.093  69.879  1.00  0.00    -0.306 A  
HETATM    4  C   UNL     1     -10.417  10.471  69.198  1.00  0.00    -0.228 A  
HETATM    5  C   UNL     1     -11.901  12.361  69.475  1.00  0.00    -0.368 A  
HETATM    6  C   UNL     1      -9.820  11.129  68.113  1.00  0.00    -0.188 A  
HETATM    7  C   UNL     1     -10.203  12.433  67.749  1.00  0.00    -0.212 A  
HETATM    8  C   UNL     1     -11.273  13.028  68.423  1.00  0.00    -0.304 A  
BRANCH   4   9
HETATM    9  O   UNL     1     -10.025   9.240  69.668  1.00  0.00    -0.175 OA 
HETATM   10  C   UNL     1     -10.590   8.093  69.039  1.00  0.00    -0.151 C  
ENDBRANCH   4   9
BRANCH   7  11
HETATM   11  C   UNL     1      -9.491  13.194  66.653  1.00  0.00    -0.260 C  
BRANCH  11  12
HETATM   12  C   UNL     1      -8.363  14.080  67.147  1.00  0.00    -0.156 A  
HETATM   13  N   UNL     1      -7.381  13.416  67.819  1.00  0.00    -0.140 NA 
HETATM   14  C   UNL     1      -6.414  14.148  68.400  1.00  0.00    -0.103 A  
HETATM   15  C   UNL     1      -6.363  15.524  68.341  1.00  0.00    -0.109 A  
HETATM   16  C   UNL     1      -7.373  16.207  67.656  1.00  0.00    -0.164 A  
HETATM   17  C   UNL     1      -7.370  17.609  67.614  1.00  0.00    -0.202 A  
HETATM   18  C   UNL     1      -8.401  18.344  67.004  1.00  0.00    -0.252 A  
HETATM   19  C   UNL     1      -8.405  15.494  67.029  1.00  0.00    -0.265 A  
HETATM   20  C   UNL     1      -9.423  17.653  66.350  1.00  0.00    -0.259 A  
HETATM   21  C   UNL     1      -9.408  16.245  66.368  1.00  0.00    -0.322 A  
BRANCH  18  22
HETATM   22  O   UNL     1      -8.398  19.718  67.040  1.00  0.00    -0.286 OA 
HETATM   23  C   UNL     1      -7.238  20.321  67.619  1.00  0.00    -0.301 C  
ENDBRANCH  18  22
BRANCH  20  24
HETATM   24  O   UNL     1     -10.534  18.123  65.704  1.00  0.00    -0.626 OA 
HETATM   25  C   UNL     1     -10.822  19.506  65.610  1.00  0.00    -0.256 C  
ENDBRANCH  20  24
ENDBRANCH  11  12
ENDBRANCH   7  11
ENDBRANCH   2   3
TORSDOF 6
ENDMDL
MODEL      148
REMARK 921   NORMALIZED FREE ENERGY PREDICTED BY IDOCK:   -4.26 KCAL/MOL
REMARK 922        TOTAL FREE ENERGY PREDICTED BY IDOCK:   -6.56 KCAL/MOL
REMARK 923 INTER-LIGAND FREE ENERGY PREDICTED BY IDOCK:   -5.59 KCAL/MOL
REMARK 924 INTRA-LIGAND FREE ENERGY PREDICTED BY IDOCK:   -0.97 KCAL/MOL
REMARK 927      BINDING AFFINITY PREDICTED BY RF-SCORE:    0.00 PKD
ROOT
HETATM    1  C   UNL     1     -13.330   8.431  71.503  1.00  0.00    -0.286 C  
HETATM    2  O   UNL     1     -12.403   9.500  71.683  1.00  0.00    -0.348 OA 
ENDROOT
BRANCH   2   3
HETATM    3  C   UNL     1     -11.634   9.817  70.591  1.00  0.00    -0.313 A  
HETATM    4  C   UNL     1     -11.700  11.142  70.128  1.00  0.00    -0.353 A  
HETATM    5  C   UNL     1     -10.874   8.882  69.885  1.00  0.00    -0.219 A  
HETATM    6  C   UNL     1     -10.983  11.503  68.978  1.00  0.00    -0.285 A  
HETATM    7  C   UNL     1     -10.271  10.547  68.231  1.00  0.00    -0.185 A  
HETATM    8  C   UNL     1     -10.199   9.238  68.717  1.00  0.00    -0.223 A  
BRANCH   4   9
HETATM    9  O   UNL     1     -12.493  12.004  70.848  1.00  0.00    -0.369 OA 
HETATM   10  C   UNL     1     -12.250  13.399  70.691  1.00  0.00    -0.350 C  
ENDBRANCH   4   9
BRANCH   7  11
HETATM   11  C   UNL     1      -9.587  10.902  66.930  1.00  0.00    -0.203 C  
BRANCH  11  12
HETATM   12  C   UNL     1      -8.286  11.663  67.102  1.00  0.00    -0.165 A  
HETATM   13  N   UNL     1      -7.194  10.870  67.299  1.00  0.00    -0.094 NA 
HETATM   14  C   UNL     1      -6.027  11.471  67.589  1.00  0.00    -0.058 A  
HETATM   15  C   UNL     1      -5.880  12.838  67.687  1.00  0.00    -0.141 A  
HETATM   16  C   UNL     1      -6.999  13.653  67.490  1.00  0.00    -0.157 A  
HETATM   17  C   UNL     1      -6.889  15.045  67.624  1.00  0.00    -0.203 A  
HETATM   18  C   UNL     1      -7.998  15.900  67.512  1.00  0.00    -0.145 A  
HETATM   19  C   UNL     1      -8.242  13.079  67.183  1.00  0.00    -0.132 A  
HETATM   20  C   UNL     1      -9.238  15.352  67.178  1.00  0.00    -0.213 A  
HETATM   21  C   UNL     1      -9.341  13.957  67.015  1.00  0.00    -0.255 A  
BRANCH  18  22
HETATM   22  O   UNL     1      -7.863  17.253  67.714  1.00  0.00    -0.183 OA 
HETATM   23  C   UNL     1      -7.541  18.025  66.555  1.00  0.00    -0.245 C  
ENDBRANCH  18  22
BRANCH  20  24
HETATM   24  O   UNL     1     -10.458  15.954  67.027  1.00  0.00    -0.297 OA 
HETATM   25  C   UNL     1     -11.650  15.373  67.524  1.00  0.00    -0.169 C  
ENDBRANCH  20  24
ENDBRANCH  11  12
ENDBRANCH   7  11
ENDBRANCH   2   3
TORSDOF 6
ENDMDL
MODEL      149
REMARK 921   NORMALIZED FREE ENERGY PREDICTED BY IDOCK:   -4.25 KCAL/MOL
REMARK 922        TOTAL FREE ENERGY PREDICTED BY IDOCK:   -6.55 KCAL/MOL
REMARK 923 INTER-LIGAND FREE ENERGY PREDICTED BY IDOCK:   -6.07 KCAL/MOL
REMARK 924 INTRA-LIGAND FREE ENERGY PREDICTED BY IDOCK:   -0.47 KCAL/MOL
REMARK 927      BINDING AFFINITY PREDICTED BY RF-SCORE:    0.00 PKD
ROOT
HETATM    1  C   UNL     1      -9.812   4.382  66.584  1.00  0.00    -0.226 C  
HETATM    2  O   UNL     1      -8.766   5.259  67.000  1.00  0.00    -0.109 OA 
ENDROOT
BRANCH   2   3
HETATM    3  C   UNL     1      -9.071   6.596  67.006  1.00  0.00    -0.130 A  
HETATM    4  C   UNL     1      -9.681   7.104  68.166  1.00  0.00    -0.139 A  
HETATM    5  C   UNL     1      -8.886   7.436  65.906  1.00  0.00    -0.149 A  
HETATM    6  C   UNL     1     -10.072   8.451  68.202  1.00  0.00    -0.239 A  
HETATM    7  C   UNL     1      -9.944   9.278  67.071  1.00  0.00    -0.286 A  
HETATM    8  C   UNL     1      -9.317   8.763  65.933  1.00  0.00    -0.284 A  
BRANCH   4   9
HETATM    9  O   UNL     1      -9.867   6.217  69.199  1.00  0.00    -0.140 OA 
HETATM   10  C   UNL     1     -11.207   5.979  69.622  1.00  0.00    -0.357 C  
ENDBRANCH   4   9
BRANCH   7  11
HETATM   11  C   UNL     1     -10.463  10.699  67.063  1.00  0.00    -0.295 C  
BRANCH  11  12
HETATM   12  C   UNL     1      -9.404  11.746  67.350  1.00  0.00    -0.174 A  
HETATM   13  N   UNL     1      -8.464  11.360  68.259  1.00  0.00    -0.148 NA 
HETATM   14  C   UNL     1      -7.569  12.278  68.663  1.00  0.00    -0.089 A  
HETATM   15  C   UNL     1      -7.549  13.576  68.200  1.00  0.00    -0.138 A  
HETATM   16  C   UNL     1      -8.515  13.975  67.270  1.00  0.00    -0.220 A  
HETATM   17  C   UNL     1      -8.544  15.301  66.812  1.00  0.00    -0.300 A  
HETATM   18  C   UNL     1      -9.540  15.770  65.938  1.00  0.00    -0.347 A  
HETATM   19  C   UNL     1      -9.472  13.058  66.813  1.00  0.00    -0.250 A  
HETATM   20  C   UNL     1     -10.485  14.867  65.448  1.00  0.00    -0.384 A  
HETATM   21  C   UNL     1     -10.435  13.530  65.887  1.00  0.00    -0.292 A  
BRANCH  18  22
HETATM   22  O   UNL     1      -9.575  17.092  65.563  1.00  0.00    -0.522 OA 
HETATM   23  C   UNL     1      -9.223  18.036  66.578  1.00  0.00    -0.275 C  
ENDBRANCH  18  22
BRANCH  20  24
HETATM   24  O   UNL     1     -11.550  15.069  64.613  1.00  0.00    -0.410 OA 
HETATM   25  C   UNL     1     -12.751  14.329  64.732  1.00  0.00    -0.170 C  
ENDBRANCH  20  24
ENDBRANCH  11  12
ENDBRANCH   7  11
ENDBRANCH   2   3
TORSDOF 6
ENDMDL
MODEL      150
REMARK 921   NORMALIZED FREE ENERGY PREDICTED BY IDOCK:   -4.24 KCAL/MOL
REMARK 922        TOTAL FREE ENERGY PREDICTED BY IDOCK:   -6.53 KCAL/MOL
REMARK 923 INTER-LIGAND FREE ENERGY PREDICTED BY IDOCK:   -6.39 KCAL/MOL
REMARK 924 INTRA-LIGAND FREE ENERGY PREDICTED BY IDOCK:   -0.14 KCAL/MOL
REMARK 927      BINDING AFFINITY PREDICTED BY RF-SCORE:    0.00 PKD
ROOT
HETATM    1  C   UNL     1     -10.265  19.828  69.574  1.00  0.00     0.060 C  
HETATM    2  O   UNL     1      -9.485  19.232  68.539  1.00  0.00    -0.348 OA 
ENDROOT
BRANCH   2   3
HETATM    3  C   UNL     1      -9.888  17.987  68.125  1.00  0.00    -0.340 A  
HETATM    4  C   UNL     1      -9.929  17.759  66.739  1.00  0.00    -0.333 A  
HETATM    5  C   UNL     1     -10.332  16.990  68.996  1.00  0.00    -0.330 A  
HETATM    6  C   UNL     1     -10.394  16.526  66.260  1.00  0.00    -0.327 A  
HETATM    7  C   UNL     1     -10.901  15.548  67.135  1.00  0.00    -0.316 A  
HETATM    8  C   UNL     1     -10.835  15.782  68.511  1.00  0.00    -0.290 A  
BRANCH   4   9
HETATM    9  O   UNL     1      -9.512  18.794  65.935  1.00  0.00    -0.470 OA 
HETATM   10  C   UNL     1     -10.478  19.785  65.594  1.00  0.00    -0.361 C  
ENDBRANCH   4   9
BRANCH   7  11
HETATM   11  C   UNL     1     -11.508  14.260  66.622  1.00  0.00    -0.374 C  
BRANCH  11  12
HETATM   12  C   UNL     1     -10.989  13.014  67.313  1.00  0.00    -0.264 A  
HETATM   13  N   UNL     1     -11.962  12.144  67.707  1.00  0.00    -0.524 NA 
HETATM   14  C   UNL     1     -11.592  11.080  68.440  1.00  0.00    -0.302 A  
HETATM   15  C   UNL     1     -10.287  10.822  68.802  1.00  0.00    -0.209 A  
HETATM   16  C   UNL     1      -9.288  11.715  68.402  1.00  0.00    -0.191 A  
HETATM   17  C   UNL     1      -7.957  11.501  68.790  1.00  0.00    -0.107 A  
HETATM   18  C   UNL     1      -6.930  12.409  68.479  1.00  0.00    -0.092 A  
HETATM   19  C   UNL     1      -9.617  12.842  67.634  1.00  0.00    -0.192 A  
HETATM   20  C   UNL     1      -7.230  13.521  67.691  1.00  0.00    -0.168 A  
HETATM   21  C   UNL     1      -8.562  13.718  67.279  1.00  0.00    -0.221 A  
BRANCH  18  22
HETATM   22  O   UNL     1      -5.649  12.199  68.933  1.00  0.00    -0.050 OA 
HETATM   23  C   UNL     1      -5.484  12.207  70.353  1.00  0.00    -0.149 C  
ENDBRANCH  18  22
BRANCH  20  24
HETATM   24  O   UNL     1      -6.430  14.547  67.269  1.00  0.00    -0.298 OA 
HETATM   25  C   UNL     1      -6.800  15.905  67.428  1.00  0.00    -0.194 C  
ENDBRANCH  20  24
ENDBRANCH  11  12
ENDBRANCH   7  11
ENDBRANCH   2   3
TORSDOF 6
ENDMDL
MODEL      151
REMARK 921   NORMALIZED FREE ENERGY PREDICTED BY IDOCK:   -4.24 KCAL/MOL
REMARK 922        TOTAL FREE ENERGY PREDICTED BY IDOCK:   -6.53 KCAL/MOL
REMARK 923 INTER-LIGAND FREE ENERGY PREDICTED BY IDOCK:   -5.63 KCAL/MOL
REMARK 924 INTRA-LIGAND FREE ENERGY PREDICTED BY IDOCK:   -0.90 KCAL/MOL
REMARK 927      BINDING AFFINITY PREDICTED BY RF-SCORE:    0.00 PKD
ROOT
HETATM    1  C   UNL     1     -11.034   7.041  67.533  1.00  0.00    -0.229 C  
HETATM    2  O   UNL     1     -10.448   7.847  68.554  1.00  0.00    -0.206 OA 
ENDROOT
BRANCH   2   3
HETATM    3  C   UNL     1      -9.777   8.964  68.125  1.00  0.00    -0.160 A  
HETATM    4  C   UNL     1     -10.412  10.203  68.320  1.00  0.00    -0.211 A  
HETATM    5  C   UNL     1      -8.560   8.919  67.441  1.00  0.00    -0.119 A  
HETATM    6  C   UNL     1      -9.798  11.371  67.844  1.00  0.00    -0.188 A  
HETATM    7  C   UNL     1      -8.606  11.317  67.098  1.00  0.00    -0.147 A  
HETATM    8  C   UNL     1      -7.978  10.080  66.931  1.00  0.00    -0.113 A  
BRANCH   4   9
HETATM    9  O   UNL     1     -11.623  10.176  68.969  1.00  0.00    -0.143 OA 
HETATM   10  C   UNL     1     -11.696  10.813  70.242  1.00  0.00    -0.352 C  
ENDBRANCH   4   9
BRANCH   7  11
HETATM   11  C   UNL     1      -7.995  12.557  66.484  1.00  0.00     0.332 C  
BRANCH  11  12
HETATM   12  C   UNL     1      -7.934  13.747  67.424  1.00  0.00    -0.162 A  
HETATM   13  N   UNL     1      -7.236  13.519  68.573  1.00  0.00    -0.104 NA 
HETATM   14  C   UNL     1      -7.246  14.480  69.513  1.00  0.00    -0.095 A  
HETATM   15  C   UNL     1      -7.914  15.678  69.369  1.00  0.00    -0.226 A  
HETATM   16  C   UNL     1      -8.634  15.911  68.193  1.00  0.00    -0.169 A  
HETATM   17  C   UNL     1      -9.356  17.103  68.035  1.00  0.00    -0.254 A  
HETATM   18  C   UNL     1     -10.156  17.352  66.906  1.00  0.00    -0.314 A  
HETATM   19  C   UNL     1      -8.656  14.943  67.178  1.00  0.00    -0.248 A  
HETATM   20  C   UNL     1     -10.169  16.415  65.872  1.00  0.00    -0.359 A  
HETATM   21  C   UNL     1      -9.420  15.232  66.020  1.00  0.00    -0.372 A  
BRANCH  18  22
HETATM   22  O   UNL     1     -10.901  18.503  66.817  1.00  0.00    -0.315 OA 
HETATM   23  C   UNL     1     -10.224  19.641  66.277  1.00  0.00    -0.498 C  
ENDBRANCH  18  22
BRANCH  20  24
HETATM   24  O   UNL     1     -10.865  16.410  64.694  1.00  0.00    -0.717 OA 
HETATM   25  C   UNL     1     -11.757  15.364  64.351  1.00  0.00    -0.258 C  
ENDBRANCH  20  24
ENDBRANCH  11  12
ENDBRANCH   7  11
ENDBRANCH   2   3
TORSDOF 6
ENDMDL
MODEL      152
REMARK 921   NORMALIZED FREE ENERGY PREDICTED BY IDOCK:   -4.22 KCAL/MOL
REMARK 922        TOTAL FREE ENERGY PREDICTED BY IDOCK:   -6.51 KCAL/MOL
REMARK 923 INTER-LIGAND FREE ENERGY PREDICTED BY IDOCK:   -5.73 KCAL/MOL
REMARK 924 INTRA-LIGAND FREE ENERGY PREDICTED BY IDOCK:   -0.78 KCAL/MOL
REMARK 927      BINDING AFFINITY PREDICTED BY RF-SCORE:    0.00 PKD
ROOT
HETATM    1  C   UNL     1      -6.330  16.773  68.855  1.00  0.00    -0.172 C  
HETATM    2  O   UNL     1      -7.651  17.090  68.421  1.00  0.00    -0.200 OA 
ENDROOT
BRANCH   2   3
HETATM    3  C   UNL     1      -8.338  16.076  67.802  1.00  0.00    -0.150 A  
HETATM    4  C   UNL     1      -9.723  16.253  67.638  1.00  0.00    -0.234 A  
HETATM    5  C   UNL     1      -7.752  14.869  67.415  1.00  0.00    -0.231 A  
HETATM    6  C   UNL     1     -10.484  15.222  67.069  1.00  0.00    -0.292 A  
HETATM    7  C   UNL     1      -9.904  13.983  66.740  1.00  0.00    -0.275 A  
HETATM    8  C   UNL     1      -8.522  13.831  66.891  1.00  0.00    -0.081 A  
BRANCH   4   9
HETATM    9  O   UNL     1     -10.243  17.449  68.072  1.00  0.00    -0.309 OA 
HETATM   10  C   UNL     1     -10.419  18.476  67.098  1.00  0.00    -0.409 C  
ENDBRANCH   4   9
BRANCH   7  11
HETATM   11  C   UNL     1     -10.734  12.826  66.230  1.00  0.00    -0.291 C  
BRANCH  11  12
HETATM   12  C   UNL     1     -11.059  11.785  67.285  1.00  0.00    -0.287 A  
HETATM   13  N   UNL     1     -11.762  12.266  68.350  1.00  0.00    -0.323 NA 
HETATM   14  C   UNL     1     -11.976  11.436  69.386  1.00  0.00    -0.339 A  
HETATM   15  C   UNL     1     -11.531  10.132  69.420  1.00  0.00    -0.202 A  
HETATM   16  C   UNL     1     -10.805   9.639  68.330  1.00  0.00    -0.212 A  
HETATM   17  C   UNL     1     -10.304   8.329  68.354  1.00  0.00    -0.237 A  
HETATM   18  C   UNL     1      -9.506   7.812  67.319  1.00  0.00    -0.148 A  
HETATM   19  C   UNL     1     -10.555  10.461  67.222  1.00  0.00    -0.322 A  
HETATM   20  C   UNL     1      -9.269   8.603  66.194  1.00  0.00    -0.213 A  
HETATM   21  C   UNL     1      -9.798   9.908  66.160  1.00  0.00    -0.324 A  
BRANCH  18  22
HETATM   22  O   UNL     1      -8.978   6.546  67.408  1.00  0.00    -0.112 OA 
HETATM   23  C   UNL     1      -9.279   5.831  68.609  1.00  0.00    -0.118 C  
ENDBRANCH  18  22
BRANCH  20  24
HETATM   24  O   UNL     1      -8.524   8.347  65.075  1.00  0.00    -0.168 OA 
HETATM   25  C   UNL     1      -7.142   8.652  65.005  1.00  0.00    -0.080 C  
ENDBRANCH  20  24
ENDBRANCH  11  12
ENDBRANCH   7  11
ENDBRANCH   2   3
TORSDOF 6
ENDMDL
MODEL      153
REMARK 921   NORMALIZED FREE ENERGY PREDICTED BY IDOCK:   -4.22 KCAL/MOL
REMARK 922        TOTAL FREE ENERGY PREDICTED BY IDOCK:   -6.50 KCAL/MOL
REMARK 923 INTER-LIGAND FREE ENERGY PREDICTED BY IDOCK:   -5.57 KCAL/MOL
REMARK 924 INTRA-LIGAND FREE ENERGY PREDICTED BY IDOCK:   -0.93 KCAL/MOL
REMARK 927      BINDING AFFINITY PREDICTED BY RF-SCORE:    0.00 PKD
ROOT
HETATM    1  C   UNL     1     -11.265   5.090  72.859  1.00  0.00    -0.271 C  
HETATM    2  O   UNL     1     -11.643   6.015  71.841  1.00  0.00    -0.295 OA 
ENDROOT
BRANCH   2   3
HETATM    3  C   UNL     1     -10.706   6.963  71.514  1.00  0.00    -0.223 A  
HETATM    4  C   UNL     1     -11.098   8.309  71.618  1.00  0.00    -0.265 A  
HETATM    5  C   UNL     1      -9.440   6.656  71.011  1.00  0.00    -0.168 A  
HETATM    6  C   UNL     1     -10.201   9.316  71.236  1.00  0.00    -0.383 A  
HETATM    7  C   UNL     1      -8.952   9.004  70.669  1.00  0.00    -0.263 A  
HETATM    8  C   UNL     1      -8.569   7.662  70.591  1.00  0.00    -0.135 A  
BRANCH   4   9
HETATM    9  O   UNL     1     -12.369   8.542  72.086  1.00  0.00    -0.338 OA 
HETATM   10  C   UNL     1     -13.089   9.628  71.508  1.00  0.00    -0.400 C  
ENDBRANCH   4   9
BRANCH   7  11
HETATM   11  C   UNL     1      -8.022  10.079  70.151  1.00  0.00    -0.123 C  
BRANCH  11  12
HETATM   12  C   UNL     1      -7.554   9.858  68.726  1.00  0.00    -0.081 A  
HETATM   13  N   UNL     1      -6.245   9.491  68.616  1.00  0.00    -0.044 NA 
HETATM   14  C   UNL     1      -5.720   9.403  67.381  1.00  0.00    -0.041 A  
HETATM   15  C   UNL     1      -6.437   9.654  66.231  1.00  0.00    -0.070 A  
HETATM   16  C   UNL     1      -7.778  10.034  66.342  1.00  0.00    -0.103 A  
HETATM   17  C   UNL     1      -8.521  10.336  65.191  1.00  0.00    -0.173 A  
HETATM   18  C   UNL     1      -9.848  10.796  65.253  1.00  0.00    -0.272 A  
HETATM   19  C   UNL     1      -8.377  10.141  67.605  1.00  0.00    -0.114 A  
HETATM   20  C   UNL     1     -10.472  10.881  66.499  1.00  0.00    -0.253 A  
HETATM   21  C   UNL     1      -9.733  10.550  67.651  1.00  0.00    -0.187 A  
BRANCH  18  22
HETATM   22  O   UNL     1     -10.523  11.144  64.107  1.00  0.00    -0.333 OA 
HETATM   23  C   UNL     1     -10.676  12.547  63.878  1.00  0.00    -0.437 C  
ENDBRANCH  18  22
BRANCH  20  24
HETATM   24  O   UNL     1     -11.729  11.308  66.830  1.00  0.00    -0.418 OA 
HETATM   25  C   UNL     1     -11.947  12.420  67.678  1.00  0.00    -0.180 C  
ENDBRANCH  20  24
ENDBRANCH  11  12
ENDBRANCH   7  11
ENDBRANCH   2   3
TORSDOF 6
ENDMDL
MODEL      154
REMARK 921   NORMALIZED FREE ENERGY PREDICTED BY IDOCK:   -4.19 KCAL/MOL
REMARK 922        TOTAL FREE ENERGY PREDICTED BY IDOCK:   -6.46 KCAL/MOL
REMARK 923 INTER-LIGAND FREE ENERGY PREDICTED BY IDOCK:   -5.62 KCAL/MOL
REMARK 924 INTRA-LIGAND FREE ENERGY PREDICTED BY IDOCK:   -0.84 KCAL/MOL
REMARK 927      BINDING AFFINITY PREDICTED BY RF-SCORE:    0.00 PKD
ROOT
HETATM    1  C   UNL     1      -9.940  15.421  65.728  1.00  0.00    -0.362 C  
HETATM    2  O   UNL     1     -10.595  14.235  65.282  1.00  0.00    -0.333 OA 
ENDROOT
BRANCH   2   3
HETATM    3  C   UNL     1      -9.930  13.058  65.519  1.00  0.00    -0.214 A  
HETATM    4  C   UNL     1     -10.065  12.045  64.553  1.00  0.00    -0.265 A  
HETATM    5  C   UNL     1      -9.212  12.798  66.688  1.00  0.00    -0.212 A  
HETATM    6  C   UNL     1      -9.458  10.801  64.776  1.00  0.00    -0.292 A  
HETATM    7  C   UNL     1      -8.791  10.519  65.982  1.00  0.00    -0.179 A  
HETATM    8  C   UNL     1      -8.649  11.543  66.922  1.00  0.00    -0.163 A  
BRANCH   4   9
HETATM    9  O   UNL     1     -10.812  12.354  63.442  1.00  0.00    -0.451 OA 
HETATM   10  C   UNL     1     -12.210  12.081  63.500  1.00  0.00    -0.547 C  
ENDBRANCH   4   9
BRANCH   7  11
HETATM   11  C   UNL     1      -8.230   9.146  66.279  1.00  0.00    -0.111 C  
BRANCH  11  12
HETATM   12  C   UNL     1      -9.147   8.268  67.109  1.00  0.00    -0.139 A  
HETATM   13  N   UNL     1     -10.091   7.601  66.385  1.00  0.00    -0.114 NA 
HETATM   14  C   UNL     1     -11.022   6.906  67.061  1.00  0.00    -0.334 A  
HETATM   15  C   UNL     1     -11.063   6.827  68.437  1.00  0.00    -0.214 A  
HETATM   16  C   UNL     1     -10.098   7.514  69.180  1.00  0.00    -0.192 A  
HETATM   17  C   UNL     1     -10.139   7.486  70.582  1.00  0.00    -0.187 A  
HETATM   18  C   UNL     1      -9.240   8.221  71.374  1.00  0.00    -0.169 A  
HETATM   19  C   UNL     1      -9.102   8.254  68.527  1.00  0.00    -0.136 A  
HETATM   20  C   UNL     1      -8.222   8.940  70.744  1.00  0.00    -0.171 A  
HETATM   21  C   UNL     1      -8.166   8.943  69.337  1.00  0.00    -0.107 A  
BRANCH  18  22
HETATM   22  O   UNL     1      -9.352   8.220  72.744  1.00  0.00    -0.249 OA 
HETATM   23  C   UNL     1      -8.611   7.206  73.427  1.00  0.00    -0.134 C  
ENDBRANCH  18  22
BRANCH  20  24
HETATM   24  O   UNL     1      -7.246   9.738  71.275  1.00  0.00    -0.309 OA 
HETATM   25  C   UNL     1      -6.486  10.628  70.478  1.00  0.00    -0.040 C  
ENDBRANCH  20  24
ENDBRANCH  11  12
ENDBRANCH   7  11
ENDBRANCH   2   3
TORSDOF 6
ENDMDL
MODEL      155
REMARK 921   NORMALIZED FREE ENERGY PREDICTED BY IDOCK:   -4.17 KCAL/MOL
REMARK 922        TOTAL FREE ENERGY PREDICTED BY IDOCK:   -6.44 KCAL/MOL
REMARK 923 INTER-LIGAND FREE ENERGY PREDICTED BY IDOCK:   -5.53 KCAL/MOL
REMARK 924 INTRA-LIGAND FREE ENERGY PREDICTED BY IDOCK:   -0.91 KCAL/MOL
REMARK 927      BINDING AFFINITY PREDICTED BY RF-SCORE:    0.00 PKD
ROOT
HETATM    1  C   UNL     1     -14.198   8.857  72.223  1.00  0.00    -0.397 C  
HETATM    2  O   UNL     1     -12.912   8.728  72.827  1.00  0.00    -0.345 OA 
ENDROOT
BRANCH   2   3
HETATM    3  C   UNL     1     -11.838   8.938  71.999  1.00  0.00    -0.368 A  
HETATM    4  C   UNL     1     -10.605   8.401  72.408  1.00  0.00    -0.335 A  
HETATM    5  C   UNL     1     -11.895   9.717  70.842  1.00  0.00    -0.420 A  
HETATM    6  C   UNL     1      -9.462   8.640  71.631  1.00  0.00    -0.339 A  
HETATM    7  C   UNL     1      -9.508   9.478  70.502  1.00  0.00    -0.306 A  
HETATM    8  C   UNL     1     -10.746   9.987  70.099  1.00  0.00    -0.361 A  
BRANCH   4   9
HETATM    9  O   UNL     1     -10.610   7.674  73.574  1.00  0.00    -0.343 OA 
HETATM   10  C   UNL     1      -9.472   6.857  73.839  1.00  0.00    -0.224 C  
ENDBRANCH   4   9
BRANCH   7  11
HETATM   11  C   UNL     1      -8.261   9.832  69.723  1.00  0.00    -0.182 C  
BRANCH  11  12
HETATM   12  C   UNL     1      -8.357   9.542  68.237  1.00  0.00    -0.118 A  
HETATM   13  N   UNL     1      -8.488  10.652  67.456  1.00  0.00    -0.121 NA 
HETATM   14  C   UNL     1      -8.709  10.471  66.142  1.00  0.00    -0.158 A  
HETATM   15  C   UNL     1      -8.799   9.230  65.550  1.00  0.00    -0.224 A  
HETATM   16  C   UNL     1      -8.669   8.090  66.351  1.00  0.00    -0.169 A  
HETATM   17  C   UNL     1      -8.798   6.814  65.783  1.00  0.00    -0.088 A  
HETATM   18  C   UNL     1      -8.751   5.641  66.556  1.00  0.00    -0.121 A  
HETATM   19  C   UNL     1      -8.436   8.220  67.727  1.00  0.00    -0.131 A  
HETATM   20  C   UNL     1      -8.491   5.746  67.924  1.00  0.00    -0.103 A  
HETATM   21  C   UNL     1      -8.334   7.028  68.486  1.00  0.00    -0.121 A  
BRANCH  18  22
HETATM   22  O   UNL     1      -8.946   4.411  65.974  1.00  0.00    -0.117 OA 
HETATM   23  C   UNL     1      -9.373   4.430  64.610  1.00  0.00    -0.150 C  
ENDBRANCH  18  22
BRANCH  20  24
HETATM   24  O   UNL     1      -8.413   4.777  68.886  1.00  0.00    -0.082 OA 
HETATM   25  C   UNL     1      -9.568   4.196  69.465  1.00  0.00    -0.204 C  
ENDBRANCH  20  24
ENDBRANCH  11  12
ENDBRANCH   7  11
ENDBRANCH   2   3
TORSDOF 6
ENDMDL
MODEL      156
REMARK 921   NORMALIZED FREE ENERGY PREDICTED BY IDOCK:   -4.16 KCAL/MOL
REMARK 922        TOTAL FREE ENERGY PREDICTED BY IDOCK:   -6.42 KCAL/MOL
REMARK 923 INTER-LIGAND FREE ENERGY PREDICTED BY IDOCK:   -6.73 KCAL/MOL
REMARK 924 INTRA-LIGAND FREE ENERGY PREDICTED BY IDOCK:    0.31 KCAL/MOL
REMARK 927      BINDING AFFINITY PREDICTED BY RF-SCORE:    0.00 PKD
ROOT
HETATM    1  C   UNL     1      -9.177  18.550  67.727  1.00  0.00    -0.281 C  
HETATM    2  O   UNL     1     -10.367  17.944  67.225  1.00  0.00    -0.343 OA 
ENDROOT
BRANCH   2   3
HETATM    3  C   UNL     1     -10.604  16.657  67.637  1.00  0.00    -0.321 A  
HETATM    4  C   UNL     1     -10.640  15.665  66.641  1.00  0.00    -0.307 A  
HETATM    5  C   UNL     1     -10.889  16.309  68.959  1.00  0.00    -0.315 A  
HETATM    6  C   UNL     1     -10.941  14.344  67.000  1.00  0.00    -0.304 A  
HETATM    7  C   UNL     1     -11.292  14.007  68.320  1.00  0.00    -0.317 A  
HETATM    8  C   UNL     1     -11.230  15.000  69.301  1.00  0.00    -0.297 A  
BRANCH   4   9
HETATM    9  O   UNL     1     -10.386  16.079  65.355  1.00  0.00    -0.409 OA 
HETATM   10  C   UNL     1     -11.158  17.167  64.855  1.00  0.00     0.272 C  
ENDBRANCH   4   9
BRANCH   7  11
HETATM   11  C   UNL     1     -11.726  12.608  68.696  1.00  0.00    -0.364 C  
BRANCH  11  12
HETATM   12  C   UNL     1     -10.580  11.675  69.037  1.00  0.00    -0.153 A  
HETATM   13  N   UNL     1      -9.457  11.868  68.288  1.00  0.00    -0.194 NA 
HETATM   14  C   UNL     1      -8.444  10.997  68.440  1.00  0.00    -0.144 A  
HETATM   15  C   UNL     1      -8.481   9.934  69.317  1.00  0.00    -0.158 A  
HETATM   16  C   UNL     1      -9.634   9.732  70.083  1.00  0.00    -0.287 A  
HETATM   17  C   UNL     1      -9.717   8.634  70.953  1.00  0.00    -0.254 A  
HETATM   18  C   UNL     1     -10.880   8.345  71.687  1.00  0.00    -0.268 A  
HETATM   19  C   UNL     1     -10.720  10.611  69.965  1.00  0.00    -0.215 A  
HETATM   20  C   UNL     1     -11.962   9.223  71.606  1.00  0.00    -0.378 A  
HETATM   21  C   UNL     1     -11.865  10.340  70.754  1.00  0.00    -0.459 A  
BRANCH  18  22
HETATM   22  O   UNL     1     -10.947   7.224  72.479  1.00  0.00    -0.246 OA 
HETATM   23  C   UNL     1     -10.152   7.255  73.668  1.00  0.00    -0.340 C  
ENDBRANCH  18  22
BRANCH  20  24
HETATM   24  O   UNL     1     -13.195   9.162  72.196  1.00  0.00    -0.390 OA 
HETATM   25  C   UNL     1     -14.351   8.760  71.483  1.00  0.00    -0.262 C  
ENDBRANCH  20  24
ENDBRANCH  11  12
ENDBRANCH   7  11
ENDBRANCH   2   3
TORSDOF 6
ENDMDL
MODEL      157
REMARK 921   NORMALIZED FREE ENERGY PREDICTED BY IDOCK:   -4.15 KCAL/MOL
REMARK 922        TOTAL FREE ENERGY PREDICTED BY IDOCK:   -6.41 KCAL/MOL
REMARK 923 INTER-LIGAND FREE ENERGY PREDICTED BY IDOCK:   -5.71 KCAL/MOL
REMARK 924 INTRA-LIGAND FREE ENERGY PREDICTED BY IDOCK:   -0.69 KCAL/MOL
REMARK 927      BINDING AFFINITY PREDICTED BY RF-SCORE:    0.00 PKD
ROOT
HETATM    1  C   UNL     1     -11.917   8.819  72.850  1.00  0.00     0.372 C  
HETATM    2  O   UNL     1     -12.297   8.540  71.503  1.00  0.00    -0.298 OA 
ENDROOT
BRANCH   2   3
HETATM    3  C   UNL     1     -11.891   9.454  70.564  1.00  0.00    -0.151 A  
HETATM    4  C   UNL     1     -10.628   9.250  69.981  1.00  0.00    -0.228 A  
HETATM    5  C   UNL     1     -12.620  10.598  70.234  1.00  0.00    -0.333 A  
HETATM    6  C   UNL     1     -10.138  10.188  69.062  1.00  0.00    -0.216 A  
HETATM    7  C   UNL     1     -10.844  11.372  68.780  1.00  0.00    -0.251 A  
HETATM    8  C   UNL     1     -12.106  11.550  69.353  1.00  0.00    -0.345 A  
BRANCH   4   9
HETATM    9  O   UNL     1      -9.947   8.123  70.375  1.00  0.00    -0.186 OA 
HETATM   10  C   UNL     1      -8.723   8.314  71.080  1.00  0.00    -0.147 C  
ENDBRANCH   4   9
BRANCH   7  11
HETATM   11  C   UNL     1     -10.273  12.443  67.877  1.00  0.00    -0.213 C  
BRANCH  11  12
HETATM   12  C   UNL     1     -10.760  12.367  66.442  1.00  0.00    -0.247 A  
HETATM   13  N   UNL     1     -11.982  12.935  66.234  1.00  0.00    -0.413 NA 
HETATM   14  C   UNL     1     -12.540  12.794  65.019  1.00  0.00    -0.468 A  
HETATM   15  C   UNL     1     -11.937  12.117  63.979  1.00  0.00    -0.533 A  
HETATM   16  C   UNL     1     -10.686  11.530  64.193  1.00  0.00    -0.428 A  
HETATM   17  C   UNL     1     -10.067  10.800  63.167  1.00  0.00    -0.268 A  
HETATM   18  C   UNL     1      -8.847  10.128  63.355  1.00  0.00    -0.231 A  
HETATM   19  C   UNL     1     -10.057  11.647  65.441  1.00  0.00    -0.299 A  
HETATM   20  C   UNL     1      -8.191  10.256  64.580  1.00  0.00    -0.161 A  
HETATM   21  C   UNL     1      -8.800  11.013  65.599  1.00  0.00    -0.187 A  
BRANCH  18  22
HETATM   22  O   UNL     1      -8.304   9.369  62.346  1.00  0.00    -0.137 OA 
HETATM   23  C   UNL     1      -8.217   7.965  62.604  1.00  0.00    -0.111 C  
ENDBRANCH  18  22
BRANCH  20  24
HETATM   24  O   UNL     1      -7.020   9.699  65.017  1.00  0.00    -0.100 OA 
HETATM   25  C   UNL     1      -5.940  10.486  65.483  1.00  0.00    -0.134 C  
ENDBRANCH  20  24
ENDBRANCH  11  12
ENDBRANCH   7  11
ENDBRANCH   2   3
TORSDOF 6
ENDMDL
MODEL      158
REMARK 921   NORMALIZED FREE ENERGY PREDICTED BY IDOCK:   -4.14 KCAL/MOL
REMARK 922        TOTAL FREE ENERGY PREDICTED BY IDOCK:   -6.40 KCAL/MOL
REMARK 923 INTER-LIGAND FREE ENERGY PREDICTED BY IDOCK:   -6.01 KCAL/MOL
REMARK 924 INTRA-LIGAND FREE ENERGY PREDICTED BY IDOCK:   -0.40 KCAL/MOL
REMARK 927      BINDING AFFINITY PREDICTED BY RF-SCORE:    0.00 PKD
ROOT
HETATM    1  C   UNL     1      -9.769   7.430  66.969  1.00  0.00    -0.191 C  
HETATM    2  O   UNL     1     -10.905   8.176  67.403  1.00  0.00    -0.226 OA 
ENDROOT
BRANCH   2   3
HETATM    3  C   UNL     1     -10.741   9.536  67.467  1.00  0.00    -0.245 A  
HETATM    4  C   UNL     1     -10.832  10.130  68.738  1.00  0.00    -0.225 A  
HETATM    5  C   UNL     1     -10.576  10.348  66.342  1.00  0.00    -0.198 A  
HETATM    6  C   UNL     1     -10.735  11.524  68.851  1.00  0.00    -0.245 A  
HETATM    7  C   UNL     1     -10.635  12.345  67.713  1.00  0.00    -0.236 A  
HETATM    8  C   UNL     1     -10.525  11.737  66.459  1.00  0.00    -0.265 A  
BRANCH   4   9
HETATM    9  O   UNL     1     -11.029   9.279  69.799  1.00  0.00    -0.234 OA 
HETATM   10  C   UNL     1     -11.287   9.870  71.070  1.00  0.00    -0.386 C  
ENDBRANCH   4   9
BRANCH   7  11
HETATM   11  C   UNL     1     -10.641  13.854  67.817  1.00  0.00    -0.248 C  
BRANCH  11  12
HETATM   12  C   UNL     1      -9.268  14.466  68.019  1.00  0.00    -0.193 A  
HETATM   13  N   UNL     1      -8.331  13.598  68.495  1.00  0.00    -0.143 NA 
HETATM   14  C   UNL     1      -7.126  14.094  68.824  1.00  0.00    -0.107 A  
HETATM   15  C   UNL     1      -6.791  15.425  68.695  1.00  0.00    -0.106 A  
HETATM   16  C   UNL     1      -7.753  16.319  68.211  1.00  0.00    -0.158 A  
HETATM   17  C   UNL     1      -7.454  17.685  68.108  1.00  0.00    -0.231 A  
HETATM   18  C   UNL     1      -8.409  18.633  67.700  1.00  0.00    -0.267 A  
HETATM   19  C   UNL     1      -9.026  15.855  67.851  1.00  0.00    -0.181 A  
HETATM   20  C   UNL     1      -9.674  18.189  67.310  1.00  0.00    -0.297 A  
HETATM   21  C   UNL     1      -9.961  16.813  67.387  1.00  0.00    -0.267 A  
BRANCH  18  22
HETATM   22  O   UNL     1      -8.099  19.972  67.674  1.00  0.00    -0.296 OA 
HETATM   23  C   UNL     1      -6.711  20.286  67.537  1.00  0.00    -0.248 C  
ENDBRANCH  18  22
BRANCH  20  24
HETATM   24  O   UNL     1     -10.769  18.896  66.897  1.00  0.00    -0.421 OA 
HETATM   25  C   UNL     1     -10.763  19.669  65.710  1.00  0.00    -0.392 C  
ENDBRANCH  20  24
ENDBRANCH  11  12
ENDBRANCH   7  11
ENDBRANCH   2   3
TORSDOF 6
ENDMDL
MODEL      159
REMARK 921   NORMALIZED FREE ENERGY PREDICTED BY IDOCK:   -4.14 KCAL/MOL
REMARK 922        TOTAL FREE ENERGY PREDICTED BY IDOCK:   -6.40 KCAL/MOL
REMARK 923 INTER-LIGAND FREE ENERGY PREDICTED BY IDOCK:   -6.26 KCAL/MOL
REMARK 924 INTRA-LIGAND FREE ENERGY PREDICTED BY IDOCK:   -0.14 KCAL/MOL
REMARK 927      BINDING AFFINITY PREDICTED BY RF-SCORE:    0.00 PKD
ROOT
HETATM    1  C   UNL     1     -10.033   4.697  66.022  1.00  0.00    -0.244 C  
HETATM    2  O   UNL     1     -10.778   5.012  67.198  1.00  0.00    -0.126 OA 
ENDROOT
BRANCH   2   3
HETATM    3  C   UNL     1     -10.595   6.274  67.703  1.00  0.00    -0.271 A  
HETATM    4  C   UNL     1     -10.546   6.399  69.102  1.00  0.00    -0.255 A  
HETATM    5  C   UNL     1     -10.543   7.423  66.911  1.00  0.00    -0.375 A  
HETATM    6  C   UNL     1     -10.424   7.674  69.673  1.00  0.00    -0.235 A  
HETATM    7  C   UNL     1     -10.438   8.835  68.877  1.00  0.00    -0.217 A  
HETATM    8  C   UNL     1     -10.466   8.692  67.487  1.00  0.00    -0.335 A  
BRANCH   4   9
HETATM    9  O   UNL     1     -10.637   5.234  69.825  1.00  0.00    -0.307 OA 
HETATM   10  C   UNL     1      -9.475   4.814  70.536  1.00  0.00    -0.172 C  
ENDBRANCH   4   9
BRANCH   7  11
HETATM   11  C   UNL     1     -10.419  10.219  69.488  1.00  0.00    -0.268 C  
BRANCH  11  12
HETATM   12  C   UNL     1      -9.814  11.283  68.592  1.00  0.00    -0.202 A  
HETATM   13  N   UNL     1      -8.716  10.872  67.896  1.00  0.00    -0.128 NA 
HETATM   14  C   UNL     1      -8.047  11.793  67.181  1.00  0.00    -0.169 A  
HETATM   15  C   UNL     1      -8.420  13.119  67.110  1.00  0.00    -0.173 A  
HETATM   16  C   UNL     1      -9.544  13.542  67.827  1.00  0.00    -0.219 A  
HETATM   17  C   UNL     1      -9.923  14.892  67.806  1.00  0.00    -0.222 A  
HETATM   18  C   UNL     1     -10.998  15.382  68.569  1.00  0.00    -0.278 A  
HETATM   19  C   UNL     1     -10.280  12.623  68.588  1.00  0.00    -0.165 A  
HETATM   20  C   UNL     1     -11.761  14.479  69.311  1.00  0.00    -0.310 A  
HETATM   21  C   UNL     1     -11.396  13.119  69.307  1.00  0.00    -0.312 A  
BRANCH  18  22
HETATM   22  O   UNL     1     -11.299  16.723  68.575  1.00  0.00    -0.268 OA 
HETATM   23  C   UNL     1     -10.196  17.608  68.363  1.00  0.00    -0.381 C  
ENDBRANCH  18  22
BRANCH  20  24
HETATM   24  O   UNL     1     -12.830  14.696  70.138  1.00  0.00    -0.282 OA 
HETATM   25  C   UNL     1     -12.857  14.225  71.473  1.00  0.00    -0.346 C  
ENDBRANCH  20  24
ENDBRANCH  11  12
ENDBRANCH   7  11
ENDBRANCH   2   3
TORSDOF 6
ENDMDL
MODEL      160
REMARK 921   NORMALIZED FREE ENERGY PREDICTED BY IDOCK:   -4.14 KCAL/MOL
REMARK 922        TOTAL FREE ENERGY PREDICTED BY IDOCK:   -6.40 KCAL/MOL
REMARK 923 INTER-LIGAND FREE ENERGY PREDICTED BY IDOCK:   -5.51 KCAL/MOL
REMARK 924 INTRA-LIGAND FREE ENERGY PREDICTED BY IDOCK:   -0.88 KCAL/MOL
REMARK 927      BINDING AFFINITY PREDICTED BY RF-SCORE:    0.00 PKD
ROOT
HETATM    1  C   UNL     1     -10.648   3.641  73.874  1.00  0.00    -0.210 C  
HETATM    2  O   UNL     1     -10.741   3.912  72.477  1.00  0.00    -0.104 OA 
ENDROOT
BRANCH   2   3
HETATM    3  C   UNL     1     -10.048   5.010  72.032  1.00  0.00    -0.196 A  
HETATM    4  C   UNL     1     -10.802   6.154  71.716  1.00  0.00    -0.255 A  
HETATM    5  C   UNL     1      -8.671   5.013  71.802  1.00  0.00    -0.137 A  
HETATM    6  C   UNL     1     -10.151   7.282  71.197  1.00  0.00    -0.190 A  
HETATM    7  C   UNL     1      -8.774   7.261  70.905  1.00  0.00    -0.148 A  
HETATM    8  C   UNL     1      -8.037   6.123  71.244  1.00  0.00    -0.118 A  
BRANCH   4   9
HETATM    9  O   UNL     1     -12.157   6.074  71.932  1.00  0.00    -0.249 OA 
HETATM   10  C   UNL     1     -12.968   7.104  71.374  1.00  0.00    -0.368 C  
ENDBRANCH   4   9
BRANCH   7  11
HETATM   11  C   UNL     1      -8.084   8.433  70.242  1.00  0.00    -0.104 C  
BRANCH  11  12
HETATM   12  C   UNL     1      -8.483   8.648  68.795  1.00  0.00    -0.129 A  
HETATM   13  N   UNL     1      -7.690   8.003  67.892  1.00  0.00    -0.112 NA 
HETATM   14  C   UNL     1      -7.899   8.248  66.587  1.00  0.00    -0.094 A  
HETATM   15  C   UNL     1      -8.873   9.105  66.121  1.00  0.00    -0.187 A  
HETATM   16  C   UNL     1      -9.684   9.771  67.045  1.00  0.00    -0.233 A  
HETATM   17  C   UNL     1     -10.656  10.680  66.602  1.00  0.00    -0.276 A  
HETATM   18  C   UNL     1     -11.444  11.430  67.492  1.00  0.00    -0.260 A  
HETATM   19  C   UNL     1      -9.511   9.551  68.420  1.00  0.00    -0.144 A  
HETATM   20  C   UNL     1     -11.308  11.205  68.864  1.00  0.00    -0.278 A  
HETATM   21  C   UNL     1     -10.351  10.271  69.305  1.00  0.00    -0.250 A  
BRANCH  18  22
HETATM   22  O   UNL     1     -12.340  12.359  67.021  1.00  0.00    -0.399 OA 
HETATM   23  C   UNL     1     -11.773  13.479  66.338  1.00  0.00    -0.369 C  
ENDBRANCH  18  22
BRANCH  20  24
HETATM   24  O   UNL     1     -11.931  11.805  69.923  1.00  0.00    -0.312 OA 
HETATM   25  C   UNL     1     -12.555  11.058  70.951  1.00  0.00    -0.391 C  
ENDBRANCH  20  24
ENDBRANCH  11  12
ENDBRANCH   7  11
ENDBRANCH   2   3
TORSDOF 6
ENDMDL
MODEL      161
REMARK 921   NORMALIZED FREE ENERGY PREDICTED BY IDOCK:   -4.13 KCAL/MOL
REMARK 922        TOTAL FREE ENERGY PREDICTED BY IDOCK:   -6.38 KCAL/MOL
REMARK 923 INTER-LIGAND FREE ENERGY PREDICTED BY IDOCK:   -5.88 KCAL/MOL
REMARK 924 INTRA-LIGAND FREE ENERGY PREDICTED BY IDOCK:   -0.50 KCAL/MOL
REMARK 927      BINDING AFFINITY PREDICTED BY RF-SCORE:    0.00 PKD
ROOT
HETATM    1  C   UNL     1     -10.303   4.155  65.357  1.00  0.00    -0.148 C  
HETATM    2  O   UNL     1      -9.405   5.260  65.278  1.00  0.00    -0.108 OA 
ENDROOT
BRANCH   2   3
HETATM    3  C   UNL     1      -9.405   6.111  66.355  1.00  0.00    -0.152 A  
HETATM    4  C   UNL     1      -8.160   6.622  66.763  1.00  0.00    -0.113 A  
HETATM    5  C   UNL     1     -10.547   6.416  67.099  1.00  0.00    -0.389 A  
HETATM    6  C   UNL     1      -8.095   7.445  67.896  1.00  0.00    -0.119 A  
HETATM    7  C   UNL     1      -9.235   7.698  68.681  1.00  0.00    -0.141 A  
HETATM    8  C   UNL     1     -10.467   7.199  68.250  1.00  0.00    -0.235 A  
BRANCH   4   9
HETATM    9  O   UNL     1      -7.071   6.256  66.009  1.00  0.00    -0.064 OA 
HETATM   10  C   UNL     1      -6.238   5.220  66.525  1.00  0.00    -0.035 C  
ENDBRANCH   4   9
BRANCH   7  11
HETATM   11  C   UNL     1      -9.155   8.492  69.966  1.00  0.00    -0.147 C  
BRANCH  11  12
HETATM   12  C   UNL     1     -10.178   9.608  70.068  1.00  0.00    -0.255 A  
HETATM   13  N   UNL     1     -10.928   9.579  71.206  1.00  0.00    -0.363 NA 
HETATM   14  C   UNL     1     -11.942  10.455  71.311  1.00  0.00    -0.330 A  
HETATM   15  C   UNL     1     -12.251  11.380  70.337  1.00  0.00    -0.450 A  
HETATM   16  C   UNL     1     -11.485  11.409  69.167  1.00  0.00    -0.365 A  
HETATM   17  C   UNL     1     -11.802  12.311  68.140  1.00  0.00    -0.372 A  
HETATM   18  C   UNL     1     -11.112  12.327  66.916  1.00  0.00    -0.290 A  
HETATM   19  C   UNL     1     -10.414  10.518  69.005  1.00  0.00    -0.238 A  
HETATM   20  C   UNL     1     -10.024  11.469  66.746  1.00  0.00    -0.208 A  
HETATM   21  C   UNL     1      -9.690  10.584  67.789  1.00  0.00    -0.180 A  
BRANCH  18  22
HETATM   22  O   UNL     1     -11.493  13.181  65.909  1.00  0.00    -0.314 OA 
HETATM   23  C   UNL     1     -12.409  12.643  64.951  1.00  0.00    -0.498 C  
ENDBRANCH  18  22
BRANCH  20  24
HETATM   24  O   UNL     1      -9.210  11.279  65.663  1.00  0.00    -0.214 OA 
HETATM   25  C   UNL     1      -8.037  10.490  65.733  1.00  0.00    -0.158 C  
ENDBRANCH  20  24
ENDBRANCH  11  12
ENDBRANCH   7  11
ENDBRANCH   2   3
TORSDOF 6
ENDMDL
MODEL      162
REMARK 921   NORMALIZED FREE ENERGY PREDICTED BY IDOCK:   -4.12 KCAL/MOL
REMARK 922        TOTAL FREE ENERGY PREDICTED BY IDOCK:   -6.37 KCAL/MOL
REMARK 923 INTER-LIGAND FREE ENERGY PREDICTED BY IDOCK:   -5.47 KCAL/MOL
REMARK 924 INTRA-LIGAND FREE ENERGY PREDICTED BY IDOCK:   -0.90 KCAL/MOL
REMARK 927      BINDING AFFINITY PREDICTED BY RF-SCORE:    0.00 PKD
ROOT
HETATM    1  C   UNL     1     -10.448   5.050  66.118  1.00  0.00    -0.286 C  
HETATM    2  O   UNL     1     -10.645   5.279  67.512  1.00  0.00    -0.171 OA 
ENDROOT
BRANCH   2   3
HETATM    3  C   UNL     1      -9.860   6.254  68.076  1.00  0.00    -0.125 A  
HETATM    4  C   UNL     1     -10.292   6.788  69.303  1.00  0.00    -0.200 A  
HETATM    5  C   UNL     1      -8.726   6.786  67.459  1.00  0.00    -0.119 A  
HETATM    6  C   UNL     1      -9.561   7.830  69.891  1.00  0.00    -0.164 A  
HETATM    7  C   UNL     1      -8.458   8.409  69.238  1.00  0.00    -0.125 A  
HETATM    8  C   UNL     1      -8.031   7.852  68.029  1.00  0.00    -0.128 A  
BRANCH   4   9
HETATM    9  O   UNL     1     -11.434   6.244  69.840  1.00  0.00    -0.422 OA 
HETATM   10  C   UNL     1     -12.018   6.919  70.952  1.00  0.00    -0.381 C  
ENDBRANCH   4   9
BRANCH   7  11
HETATM   11  C   UNL     1      -7.732   9.605  69.811  1.00  0.00    -0.133 C  
BRANCH  11  12
HETATM   12  C   UNL     1      -7.624  10.779  68.856  1.00  0.00    -0.121 A  
HETATM   13  N   UNL     1      -6.345  11.135  68.546  1.00  0.00    -0.046 NA 
HETATM   14  C   UNL     1      -6.164  12.246  67.810  1.00  0.00    -0.101 A  
HETATM   15  C   UNL     1      -7.200  13.030  67.351  1.00  0.00    -0.123 A  
HETATM   16  C   UNL     1      -8.513  12.670  67.673  1.00  0.00    -0.173 A  
HETATM   17  C   UNL     1      -9.585  13.472  67.255  1.00  0.00    -0.235 A  
HETATM   18  C   UNL     1     -10.915  13.195  67.616  1.00  0.00    -0.262 A  
HETATM   19  C   UNL     1      -8.760  11.520  68.436  1.00  0.00    -0.160 A  
HETATM   20  C   UNL     1     -11.185  12.039  68.351  1.00  0.00    -0.262 A  
HETATM   21  C   UNL     1     -10.110  11.220  68.744  1.00  0.00    -0.204 A  
BRANCH  18  22
HETATM   22  O   UNL     1     -11.932  14.040  67.242  1.00  0.00    -0.390 OA 
HETATM   23  C   UNL     1     -12.433  13.860  65.915  1.00  0.00    -0.481 C  
ENDBRANCH  18  22
BRANCH  20  24
HETATM   24  O   UNL     1     -12.370  11.558  68.836  1.00  0.00    -0.400 OA 
HETATM   25  C   UNL     1     -12.450  10.849  70.059  1.00  0.00    -0.263 C  
ENDBRANCH  20  24
ENDBRANCH  11  12
ENDBRANCH   7  11
ENDBRANCH   2   3
TORSDOF 6
ENDMDL
MODEL      163
REMARK 921   NORMALIZED FREE ENERGY PREDICTED BY IDOCK:   -4.12 KCAL/MOL
REMARK 922        TOTAL FREE ENERGY PREDICTED BY IDOCK:   -6.37 KCAL/MOL
REMARK 923 INTER-LIGAND FREE ENERGY PREDICTED BY IDOCK:   -5.51 KCAL/MOL
REMARK 924 INTRA-LIGAND FREE ENERGY PREDICTED BY IDOCK:   -0.86 KCAL/MOL
REMARK 927      BINDING AFFINITY PREDICTED BY RF-SCORE:    0.00 PKD
ROOT
HETATM    1  C   UNL     1      -5.682  19.543  69.038  1.00  0.00    -0.220 C  
HETATM    2  O   UNL     1      -7.084  19.566  68.773  1.00  0.00    -0.319 OA 
ENDROOT
BRANCH   2   3
HETATM    3  C   UNL     1      -7.576  18.506  68.054  1.00  0.00    -0.256 A  
HETATM    4  C   UNL     1      -8.024  18.775  66.749  1.00  0.00    -0.255 A  
HETATM    5  C   UNL     1      -7.727  17.220  68.579  1.00  0.00    -0.261 A  
HETATM    6  C   UNL     1      -8.595  17.741  65.994  1.00  0.00    -0.044 A  
HETATM    7  C   UNL     1      -8.806  16.464  66.546  1.00  0.00    -0.316 A  
HETATM    8  C   UNL     1      -8.336  16.208  67.837  1.00  0.00    -0.165 A  
BRANCH   4   9
HETATM    9  O   UNL     1      -7.879  20.067  66.306  1.00  0.00    -0.303 OA 
HETATM   10  C   UNL     1      -6.866  20.313  65.333  1.00  0.00    -0.288 C  
ENDBRANCH   4   9
BRANCH   7  11
HETATM   11  C   UNL     1      -9.521  15.374  65.778  1.00  0.00    -0.325 C  
BRANCH  11  12
HETATM   12  C   UNL     1     -10.342  14.441  66.648  1.00  0.00    -0.275 A  
HETATM   13  N   UNL     1     -11.553  14.944  67.023  1.00  0.00    -0.343 NA 
HETATM   14  C   UNL     1     -12.282  14.232  67.900  1.00  0.00    -0.150 A  
HETATM   15  C   UNL     1     -11.874  13.025  68.426  1.00  0.00    -0.370 A  
HETATM   16  C   UNL     1     -10.631  12.510  68.045  1.00  0.00    -0.237 A  
HETATM   17  C   UNL     1     -10.171  11.304  68.595  1.00  0.00    -0.214 A  
HETATM   18  C   UNL     1      -8.898  10.784  68.304  1.00  0.00    -0.139 A  
HETATM   19  C   UNL     1      -9.828  13.210  67.132  1.00  0.00    -0.235 A  
HETATM   20  C   UNL     1      -8.095  11.450  67.376  1.00  0.00    -0.142 A  
HETATM   21  C   UNL     1      -8.572  12.645  66.803  1.00  0.00    -0.101 A  
BRANCH  18  22
HETATM   22  O   UNL     1      -8.456   9.634  68.913  1.00  0.00    -0.117 OA 
HETATM   23  C   UNL     1      -8.700   9.542  70.319  1.00  0.00    -0.235 C  
ENDBRANCH  18  22
BRANCH  20  24
HETATM   24  O   UNL     1      -6.831  11.167  66.938  1.00  0.00    -0.108 OA 
HETATM   25  C   UNL     1      -6.561  10.085  66.065  1.00  0.00    -0.095 C  
ENDBRANCH  20  24
ENDBRANCH  11  12
ENDBRANCH   7  11
ENDBRANCH   2   3
TORSDOF 6
ENDMDL
MODEL      164
REMARK 921   NORMALIZED FREE ENERGY PREDICTED BY IDOCK:   -4.10 KCAL/MOL
REMARK 922        TOTAL FREE ENERGY PREDICTED BY IDOCK:   -6.34 KCAL/MOL
REMARK 923 INTER-LIGAND FREE ENERGY PREDICTED BY IDOCK:   -5.48 KCAL/MOL
REMARK 924 INTRA-LIGAND FREE ENERGY PREDICTED BY IDOCK:   -0.86 KCAL/MOL
REMARK 927      BINDING AFFINITY PREDICTED BY RF-SCORE:    0.00 PKD
ROOT
HETATM    1  C   UNL     1      -8.203   6.407  65.211  1.00  0.00    -0.137 C  
HETATM    2  O   UNL     1      -8.974   6.952  66.280  1.00  0.00    -0.150 OA 
ENDROOT
BRANCH   2   3
HETATM    3  C   UNL     1      -9.323   8.273  66.154  1.00  0.00    -0.188 A  
HETATM    4  C   UNL     1     -10.225   8.787  67.103  1.00  0.00    -0.276 A  
HETATM    5  C   UNL     1      -8.900   9.087  65.101  1.00  0.00    -0.224 A  
HETATM    6  C   UNL     1     -10.664  10.113  66.983  1.00  0.00    -0.264 A  
HETATM    7  C   UNL     1     -10.289  10.911  65.887  1.00  0.00    -0.310 A  
HETATM    8  C   UNL     1      -9.376  10.391  64.964  1.00  0.00    -0.279 A  
BRANCH   4   9
HETATM    9  O   UNL     1     -10.629   7.925  68.094  1.00  0.00    -0.194 OA 
HETATM   10  C   UNL     1     -10.184   8.199  69.420  1.00  0.00    -0.211 C  
ENDBRANCH   4   9
BRANCH   7  11
HETATM   11  C   UNL     1     -10.844  12.304  65.689  1.00  0.00    -0.321 C  
BRANCH  11  12
HETATM   12  C   UNL     1     -10.809  13.167  66.936  1.00  0.00    -0.265 A  
HETATM   13  N   UNL     1     -12.032  13.599  67.354  1.00  0.00    -0.384 NA 
HETATM   14  C   UNL     1     -12.073  14.473  68.375  1.00  0.00    -0.214 A  
HETATM   15  C   UNL     1     -10.948  14.943  69.019  1.00  0.00    -0.251 A  
HETATM   16  C   UNL     1      -9.692  14.505  68.588  1.00  0.00    -0.221 A  
HETATM   17  C   UNL     1      -8.528  14.997  69.197  1.00  0.00    -0.192 A  
HETATM   18  C   UNL     1      -7.242  14.647  68.751  1.00  0.00    -0.124 A  
HETATM   19  C   UNL     1      -9.591  13.591  67.528  1.00  0.00    -0.221 A  
HETATM   20  C   UNL     1      -7.119  13.716  67.717  1.00  0.00    -0.161 A  
HETATM   21  C   UNL     1      -8.289  13.201  67.127  1.00  0.00    -0.146 A  
BRANCH  18  22
HETATM   22  O   UNL     1      -6.126  15.200  69.330  1.00  0.00    -0.102 OA 
HETATM   23  C   UNL     1      -6.231  16.580  69.689  1.00  0.00    -0.220 C  
ENDBRANCH  18  22
BRANCH  20  24
HETATM   24  O   UNL     1      -6.002  13.227  67.097  1.00  0.00    -0.304 OA 
HETATM   25  C   UNL     1      -5.437  11.976  67.441  1.00  0.00    -0.116 C  
ENDBRANCH  20  24
ENDBRANCH  11  12
ENDBRANCH   7  11
ENDBRANCH   2   3
TORSDOF 6
ENDMDL
MODEL      165
REMARK 921   NORMALIZED FREE ENERGY PREDICTED BY IDOCK:   -4.09 KCAL/MOL
REMARK 922        TOTAL FREE ENERGY PREDICTED BY IDOCK:   -6.33 KCAL/MOL
REMARK 923 INTER-LIGAND FREE ENERGY PREDICTED BY IDOCK:   -5.68 KCAL/MOL
REMARK 924 INTRA-LIGAND FREE ENERGY PREDICTED BY IDOCK:   -0.66 KCAL/MOL
REMARK 927      BINDING AFFINITY PREDICTED BY RF-SCORE:    0.00 PKD
ROOT
HETATM    1  C   UNL     1     -10.734  12.951  63.972  1.00  0.00    -0.399 C  
HETATM    2  O   UNL     1     -11.623  13.273  65.040  1.00  0.00    -0.303 OA 
ENDROOT
BRANCH   2   3
HETATM    3  C   UNL     1     -11.513  12.498  66.166  1.00  0.00    -0.377 A  
HETATM    4  C   UNL     1     -11.767  13.125  67.398  1.00  0.00    -0.370 A  
HETATM    5  C   UNL     1     -11.086  11.168  66.150  1.00  0.00    -0.152 A  
HETATM    6  C   UNL     1     -11.608  12.394  68.585  1.00  0.00    -0.365 A  
HETATM    7  C   UNL     1     -11.115  11.077  68.571  1.00  0.00    -0.297 A  
HETATM    8  C   UNL     1     -10.887  10.462  67.336  1.00  0.00    -0.344 A  
BRANCH   4   9
HETATM    9  O   UNL     1     -12.150  14.443  67.347  1.00  0.00    -0.397 OA 
HETATM   10  C   UNL     1     -11.441  15.361  68.177  1.00  0.00    -0.343 C  
ENDBRANCH   4   9
BRANCH   7  11
HETATM   11  C   UNL     1     -10.834  10.319  69.849  1.00  0.00    -0.355 C  
BRANCH  11  12
HETATM   12  C   UNL     1      -9.439   9.727  69.923  1.00  0.00    -0.231 A  
HETATM   13  N   UNL     1      -8.457  10.542  69.444  1.00  0.00    -0.133 NA 
HETATM   14  C   UNL     1      -7.213  10.040  69.355  1.00  0.00    -0.087 A  
HETATM   15  C   UNL     1      -6.883   8.756  69.731  1.00  0.00    -0.046 A  
HETATM   16  C   UNL     1      -7.890   7.916  70.218  1.00  0.00    -0.089 A  
HETATM   17  C   UNL     1      -7.592   6.591  70.569  1.00  0.00    -0.096 A  
HETATM   18  C   UNL     1      -8.582   5.686  70.991  1.00  0.00    -0.127 A  
HETATM   19  C   UNL     1      -9.206   8.388  70.333  1.00  0.00    -0.161 A  
HETATM   20  C   UNL     1      -9.892   6.144  71.141  1.00  0.00    -0.181 A  
HETATM   21  C   UNL     1     -10.183   7.483  70.815  1.00  0.00    -0.194 A  
BRANCH  18  22
HETATM   22  O   UNL     1      -8.263   4.377  71.263  1.00  0.00    -0.080 OA 
HETATM   23  C   UNL     1      -8.159   3.514  70.128  1.00  0.00    -0.045 C  
ENDBRANCH  18  22
BRANCH  20  24
HETATM   24  O   UNL     1     -11.025   5.473  71.513  1.00  0.00    -0.230 OA 
HETATM   25  C   UNL     1     -11.447   5.401  72.862  1.00  0.00    -0.275 C  
ENDBRANCH  20  24
ENDBRANCH  11  12
ENDBRANCH   7  11
ENDBRANCH   2   3
TORSDOF 6
ENDMDL
MODEL      166
REMARK 921   NORMALIZED FREE ENERGY PREDICTED BY IDOCK:   -4.09 KCAL/MOL
REMARK 922        TOTAL FREE ENERGY PREDICTED BY IDOCK:   -6.33 KCAL/MOL
REMARK 923 INTER-LIGAND FREE ENERGY PREDICTED BY IDOCK:   -5.34 KCAL/MOL
REMARK 924 INTRA-LIGAND FREE ENERGY PREDICTED BY IDOCK:   -0.99 KCAL/MOL
REMARK 927      BINDING AFFINITY PREDICTED BY RF-SCORE:    0.00 PKD
ROOT
HETATM    1  C   UNL     1     -11.807  12.419  66.291  1.00  0.00    -0.364 C  
HETATM    2  O   UNL     1     -11.953  11.630  67.470  1.00  0.00    -0.622 OA 
ENDROOT
BRANCH   2   3
HETATM    3  C   UNL     1     -11.055  10.603  67.619  1.00  0.00    -0.319 A  
HETATM    4  C   UNL     1     -10.898  10.077  68.913  1.00  0.00    -0.220 A  
HETATM    5  C   UNL     1     -10.248  10.127  66.584  1.00  0.00    -0.287 A  
HETATM    6  C   UNL     1      -9.948   9.069  69.133  1.00  0.00    -0.187 A  
HETATM    7  C   UNL     1      -9.091   8.637  68.104  1.00  0.00    -0.142 A  
HETATM    8  C   UNL     1      -9.274   9.155  66.819  1.00  0.00    -0.195 A  
BRANCH   4   9
HETATM    9  O   UNL     1     -11.698  10.613  69.893  1.00  0.00    -0.267 OA 
HETATM   10  C   UNL     1     -11.816   9.882  71.111  1.00  0.00    -0.386 C  
ENDBRANCH   4   9
BRANCH   7  11
HETATM   11  C   UNL     1      -7.990   7.631  68.357  1.00  0.00    -0.123 C  
BRANCH  11  12
HETATM   12  C   UNL     1      -8.480   6.207  68.533  1.00  0.00    -0.114 A  
HETATM   13  N   UNL     1      -8.784   5.569  67.367  1.00  0.00    -0.108 NA 
HETATM   14  C   UNL     1      -9.348   4.352  67.446  1.00  0.00    -0.155 A  
HETATM   15  C   UNL     1      -9.623   3.717  68.639  1.00  0.00    -0.173 A  
HETATM   16  C   UNL     1      -9.316   4.372  69.837  1.00  0.00    -0.225 A  
HETATM   17  C   UNL     1      -9.622   3.769  71.066  1.00  0.00    -0.249 A  
HETATM   18  C   UNL     1      -9.404   4.416  72.294  1.00  0.00    -0.128 A  
HETATM   19  C   UNL     1      -8.725   5.643  69.812  1.00  0.00    -0.125 A  
HETATM   20  C   UNL     1      -8.790   5.670  72.294  1.00  0.00    -0.132 A  
HETATM   21  C   UNL     1      -8.458   6.260  71.059  1.00  0.00    -0.128 A  
BRANCH  18  22
HETATM   22  O   UNL     1      -9.777   3.820  73.475  1.00  0.00    -0.106 OA 
HETATM   23  C   UNL     1     -11.037   3.146  73.459  1.00  0.00    -0.216 C  
ENDBRANCH  18  22
BRANCH  20  24
HETATM   24  O   UNL     1      -8.487   6.505  73.334  1.00  0.00    -0.119 OA 
HETATM   25  C   UNL     1      -8.813   7.883  73.312  1.00  0.00    -0.250 C  
ENDBRANCH  20  24
ENDBRANCH  11  12
ENDBRANCH   7  11
ENDBRANCH   2   3
TORSDOF 6
ENDMDL
MODEL      167
REMARK 921   NORMALIZED FREE ENERGY PREDICTED BY IDOCK:   -4.09 KCAL/MOL
REMARK 922        TOTAL FREE ENERGY PREDICTED BY IDOCK:   -6.33 KCAL/MOL
REMARK 923 INTER-LIGAND FREE ENERGY PREDICTED BY IDOCK:   -5.48 KCAL/MOL
REMARK 924 INTRA-LIGAND FREE ENERGY PREDICTED BY IDOCK:   -0.84 KCAL/MOL
REMARK 927      BINDING AFFINITY PREDICTED BY RF-SCORE:    0.00 PKD
ROOT
HETATM    1  C   UNL     1     -13.389  11.049  71.896  1.00  0.00    -0.318 C  
HETATM    2  O   UNL     1     -13.022  10.087  70.910  1.00  0.00    -0.356 OA 
ENDROOT
BRANCH   2   3
HETATM    3  C   UNL     1     -11.680   9.979  70.648  1.00  0.00    -0.337 A  
HETATM    4  C   UNL     1     -11.214  10.563  69.457  1.00  0.00    -0.271 A  
HETATM    5  C   UNL     1     -10.792   9.258  71.450  1.00  0.00    -0.434 A  
HETATM    6  C   UNL     1      -9.862  10.427  69.110  1.00  0.00    -0.237 A  
HETATM    7  C   UNL     1      -8.984   9.646  69.884  1.00  0.00    -0.243 A  
HETATM    8  C   UNL     1      -9.458   9.090  71.075  1.00  0.00    -0.342 A  
BRANCH   4   9
HETATM    9  O   UNL     1     -12.145  11.228  68.696  1.00  0.00    -0.543 OA 
HETATM   10  C   UNL     1     -11.852  12.576  68.337  1.00  0.00    -0.304 C  
ENDBRANCH   4   9
BRANCH   7  11
HETATM   11  C   UNL     1      -7.553   9.402  69.460  1.00  0.00    -0.086 C  
BRANCH  11  12
HETATM   12  C   UNL     1      -7.405   8.915  68.031  1.00  0.00    -0.084 A  
HETATM   13  N   UNL     1      -6.683   9.746  67.227  1.00  0.00    -0.074 NA 
HETATM   14  C   UNL     1      -6.617   9.450  65.917  1.00  0.00    -0.076 A  
HETATM   15  C   UNL     1      -7.231   8.352  65.354  1.00  0.00    -0.082 A  
HETATM   16  C   UNL     1      -7.977   7.501  66.177  1.00  0.00    -0.111 A  
HETATM   17  C   UNL     1      -8.647   6.399  65.625  1.00  0.00    -0.138 A  
HETATM   18  C   UNL     1      -9.470   5.559  66.395  1.00  0.00    -0.155 A  
HETATM   19  C   UNL     1      -8.078   7.761  67.551  1.00  0.00    -0.124 A  
HETATM   20  C   UNL     1      -9.560   5.783  67.770  1.00  0.00    -0.115 A  
HETATM   21  C   UNL     1      -8.863   6.873  68.326  1.00  0.00    -0.122 A  
BRANCH  18  22
HETATM   22  O   UNL     1     -10.162   4.527  65.807  1.00  0.00    -0.243 OA 
HETATM   23  C   UNL     1      -9.595   4.005  64.603  1.00  0.00    -0.175 C  
ENDBRANCH  18  22
BRANCH  20  24
HETATM   24  O   UNL     1     -10.293   5.132  68.725  1.00  0.00    -0.166 OA 
HETATM   25  C   UNL     1     -10.888   5.815  69.813  1.00  0.00    -0.349 C  
ENDBRANCH  20  24
ENDBRANCH  11  12
ENDBRANCH   7  11
ENDBRANCH   2   3
TORSDOF 6
ENDMDL
MODEL      168
REMARK 921   NORMALIZED FREE ENERGY PREDICTED BY IDOCK:   -4.08 KCAL/MOL
REMARK 922        TOTAL FREE ENERGY PREDICTED BY IDOCK:   -6.32 KCAL/MOL
REMARK 923 INTER-LIGAND FREE ENERGY PREDICTED BY IDOCK:   -5.95 KCAL/MOL
REMARK 924 INTRA-LIGAND FREE ENERGY PREDICTED BY IDOCK:   -0.36 KCAL/MOL
REMARK 927      BINDING AFFINITY PREDICTED BY RF-SCORE:    0.00 PKD
ROOT
HETATM    1  C   UNL     1     -13.017  14.807  71.666  1.00  0.00    -0.334 C  
HETATM    2  O   UNL     1     -13.138  14.691  70.249  1.00  0.00    -0.230 OA 
ENDROOT
BRANCH   2   3
HETATM    3  C   UNL     1     -12.117  14.032  69.612  1.00  0.00    -0.355 A  
HETATM    4  C   UNL     1     -11.313  14.791  68.744  1.00  0.00    -0.282 A  
HETATM    5  C   UNL     1     -11.900  12.656  69.719  1.00  0.00    -0.379 A  
HETATM    6  C   UNL     1     -10.295  14.154  68.020  1.00  0.00    -0.231 A  
HETATM    7  C   UNL     1     -10.120  12.759  68.078  1.00  0.00    -0.230 A  
HETATM    8  C   UNL     1     -10.914  12.022  68.961  1.00  0.00    -0.260 A  
BRANCH   4   9
HETATM    9  O   UNL     1     -11.601  16.132  68.658  1.00  0.00    -0.376 OA 
HETATM   10  C   UNL     1     -10.513  17.017  68.403  1.00  0.00    -0.370 C  
ENDBRANCH   4   9
BRANCH   7  11
HETATM   11  C   UNL     1      -9.099  12.049  67.217  1.00  0.00    -0.178 C  
BRANCH  11  12
HETATM   12  C   UNL     1      -9.550  11.816  65.788  1.00  0.00    -0.233 A  
HETATM   13  N   UNL     1     -10.650  12.534  65.422  1.00  0.00    -0.274 NA 
HETATM   14  C   UNL     1     -11.188  12.286  64.215  1.00  0.00    -0.350 A  
HETATM   15  C   UNL     1     -10.679  11.357  63.333  1.00  0.00    -0.405 A  
HETATM   16  C   UNL     1      -9.553  10.617  63.707  1.00  0.00    -0.354 A  
HETATM   17  C   UNL     1      -9.038   9.636  62.847  1.00  0.00    -0.241 A  
HETATM   18  C   UNL     1      -7.957   8.814  63.208  1.00  0.00    -0.160 A  
HETATM   19  C   UNL     1      -8.951  10.836  64.955  1.00  0.00    -0.201 A  
HETATM   20  C   UNL     1      -7.324   9.035  64.433  1.00  0.00    -0.099 A  
HETATM   21  C   UNL     1      -7.825  10.040  65.283  1.00  0.00    -0.138 A  
BRANCH  18  22
HETATM   22  O   UNL     1      -7.521   7.820  62.366  1.00  0.00    -0.090 OA 
HETATM   23  C   UNL     1      -7.917   6.491  62.716  1.00  0.00    -0.092 C  
ENDBRANCH  18  22
BRANCH  20  24
HETATM   24  O   UNL     1      -6.279   8.374  65.020  1.00  0.00    -0.052 OA 
HETATM   25  C   UNL     1      -5.264   9.055  65.734  1.00  0.00    -0.040 C  
ENDBRANCH  20  24
ENDBRANCH  11  12
ENDBRANCH   7  11
ENDBRANCH   2   3
TORSDOF 6
ENDMDL
MODEL      169
REMARK 921   NORMALIZED FREE ENERGY PREDICTED BY IDOCK:   -4.06 KCAL/MOL
REMARK 922        TOTAL FREE ENERGY PREDICTED BY IDOCK:   -6.29 KCAL/MOL
REMARK 923 INTER-LIGAND FREE ENERGY PREDICTED BY IDOCK:   -5.33 KCAL/MOL
REMARK 924 INTRA-LIGAND FREE ENERGY PREDICTED BY IDOCK:   -0.96 KCAL/MOL
REMARK 927      BINDING AFFINITY PREDICTED BY RF-SCORE:    0.00 PKD
ROOT
HETATM    1  C   UNL     1     -10.968   5.234  73.772  1.00  0.00    -0.201 C  
HETATM    2  O   UNL     1     -11.712   5.772  72.681  1.00  0.00    -0.293 OA 
ENDROOT
BRANCH   2   3
HETATM    3  C   UNL     1     -11.158   6.861  72.056  1.00  0.00    -0.245 A  
HETATM    4  C   UNL     1     -10.871   6.730  70.686  1.00  0.00    -0.250 A  
HETATM    5  C   UNL     1     -10.796   8.033  72.723  1.00  0.00    -0.438 A  
HETATM    6  C   UNL     1     -10.246   7.790  70.013  1.00  0.00    -0.210 A  
HETATM    7  C   UNL     1      -9.823   8.943  70.699  1.00  0.00    -0.261 A  
HETATM    8  C   UNL     1     -10.135   9.065  72.056  1.00  0.00    -0.242 A  
BRANCH   4   9
HETATM    9  O   UNL     1     -11.220   5.539  70.097  1.00  0.00    -0.168 OA 
HETATM   10  C   UNL     1     -10.851   5.352  68.733  1.00  0.00     0.073 C  
ENDBRANCH   4   9
BRANCH   7  11
HETATM   11  C   UNL     1      -9.050  10.043  70.005  1.00  0.00    -0.133 C  
BRANCH  11  12
HETATM   12  C   UNL     1      -9.880  10.870  69.041  1.00  0.00    -0.180 A  
HETATM   13  N   UNL     1     -10.826  11.648  69.640  1.00  0.00    -0.034 NA 
HETATM   14  C   UNL     1     -11.686  12.310  68.848  1.00  0.00    -0.328 A  
HETATM   15  C   UNL     1     -11.653  12.249  67.471  1.00  0.00    -0.422 A  
HETATM   16  C   UNL     1     -10.686  11.448  66.855  1.00  0.00    -0.308 A  
HETATM   17  C   UNL     1     -10.653  11.334  65.457  1.00  0.00    -0.306 A  
HETATM   18  C   UNL     1      -9.751  10.483  64.795  1.00  0.00    -0.305 A  
HETATM   19  C   UNL     1      -9.761  10.736  67.634  1.00  0.00    -0.185 A  
HETATM   20  C   UNL     1      -8.804   9.788  65.549  1.00  0.00    -0.163 A  
HETATM   21  C   UNL     1      -8.820   9.928  66.950  1.00  0.00    -0.146 A  
BRANCH  18  22
HETATM   22  O   UNL     1      -9.793  10.348  63.427  1.00  0.00    -0.307 OA 
HETATM   23  C   UNL     1      -9.398  11.499  62.677  1.00  0.00    -0.070 C  
ENDBRANCH  18  22
BRANCH  20  24
HETATM   24  O   UNL     1      -7.842   8.899  65.156  1.00  0.00    -0.098 OA 
HETATM   25  C   UNL     1      -8.160   7.587  64.729  1.00  0.00    -0.112 C  
ENDBRANCH  20  24
ENDBRANCH  11  12
ENDBRANCH   7  11
ENDBRANCH   2   3
TORSDOF 6
ENDMDL
MODEL      170
REMARK 921   NORMALIZED FREE ENERGY PREDICTED BY IDOCK:   -4.06 KCAL/MOL
REMARK 922        TOTAL FREE ENERGY PREDICTED BY IDOCK:   -6.28 KCAL/MOL
REMARK 923 INTER-LIGAND FREE ENERGY PREDICTED BY IDOCK:   -5.35 KCAL/MOL
REMARK 924 INTRA-LIGAND FREE ENERGY PREDICTED BY IDOCK:   -0.93 KCAL/MOL
REMARK 927      BINDING AFFINITY PREDICTED BY RF-SCORE:    0.00 PKD
ROOT
HETATM    1  C   UNL     1      -7.753   6.821  71.664  1.00  0.00    -0.096 C  
HETATM    2  O   UNL     1      -8.666   7.911  71.780  1.00  0.00    -0.111 OA 
ENDROOT
BRANCH   2   3
HETATM    3  C   UNL     1      -8.868   8.648  70.641  1.00  0.00    -0.167 A  
HETATM    4  C   UNL     1     -10.188   8.734  70.165  1.00  0.00    -0.190 A  
HETATM    5  C   UNL     1      -7.835   9.229  69.902  1.00  0.00    -0.109 A  
HETATM    6  C   UNL     1     -10.442   9.422  68.969  1.00  0.00    -0.233 A  
HETATM    7  C   UNL     1      -9.394   9.950  68.194  1.00  0.00    -0.138 A  
HETATM    8  C   UNL     1      -8.090   9.873  68.691  1.00  0.00    -0.099 A  
BRANCH   4   9
HETATM    9  O   UNL     1     -11.153   8.112  70.919  1.00  0.00    -0.249 OA 
HETATM   10  C   UNL     1     -12.266   8.900  71.334  1.00  0.00    -0.318 C  
ENDBRANCH   4   9
BRANCH   7  11
HETATM   11  C   UNL     1      -9.646  10.595  66.849  1.00  0.00    -0.200 C  
BRANCH  11  12
HETATM   12  C   UNL     1     -10.302  11.960  66.930  1.00  0.00    -0.210 A  
HETATM   13  N   UNL     1     -11.637  11.959  66.655  1.00  0.00    -0.528 NA 
HETATM   14  C   UNL     1     -12.263  13.146  66.579  1.00  0.00    -0.291 A  
HETATM   15  C   UNL     1     -11.628  14.354  66.774  1.00  0.00    -0.399 A  
HETATM   16  C   UNL     1     -10.257  14.357  67.052  1.00  0.00    -0.263 A  
HETATM   17  C   UNL     1      -9.575  15.573  67.214  1.00  0.00    -0.216 A  
HETATM   18  C   UNL     1      -8.186  15.632  67.419  1.00  0.00    -0.175 A  
HETATM   19  C   UNL     1      -9.554  13.147  67.144  1.00  0.00    -0.235 A  
HETATM   20  C   UNL     1      -7.472  14.439  67.543  1.00  0.00    -0.186 A  
HETATM   21  C   UNL     1      -8.164  13.220  67.409  1.00  0.00    -0.185 A  
BRANCH  18  22
HETATM   22  O   UNL     1      -7.543  16.844  67.508  1.00  0.00    -0.158 OA 
HETATM   23  C   UNL     1      -8.144  17.803  68.382  1.00  0.00    -0.297 C  
ENDBRANCH  18  22
BRANCH  20  24
HETATM   24  O   UNL     1      -6.134  14.225  67.725  1.00  0.00    -0.181 OA 
HETATM   25  C   UNL     1      -5.600  12.930  67.938  1.00  0.00    -0.119 C  
ENDBRANCH  20  24
ENDBRANCH  11  12
ENDBRANCH   7  11
ENDBRANCH   2   3
TORSDOF 6
ENDMDL
MODEL      171
REMARK 921   NORMALIZED FREE ENERGY PREDICTED BY IDOCK:   -4.05 KCAL/MOL
REMARK 922        TOTAL FREE ENERGY PREDICTED BY IDOCK:   -6.27 KCAL/MOL
REMARK 923 INTER-LIGAND FREE ENERGY PREDICTED BY IDOCK:   -5.69 KCAL/MOL
REMARK 924 INTRA-LIGAND FREE ENERGY PREDICTED BY IDOCK:   -0.58 KCAL/MOL
REMARK 927      BINDING AFFINITY PREDICTED BY RF-SCORE:    0.00 PKD
ROOT
HETATM    1  C   UNL     1     -13.036  11.995  63.373  1.00  0.00    -0.140 C  
HETATM    2  O   UNL     1     -11.697  11.513  63.474  1.00  0.00    -0.379 OA 
ENDROOT
BRANCH   2   3
HETATM    3  C   UNL     1     -11.034  11.824  64.634  1.00  0.00    -0.310 A  
HETATM    4  C   UNL     1      -9.697  11.402  64.736  1.00  0.00    -0.244 A  
HETATM    5  C   UNL     1     -11.639  12.451  65.725  1.00  0.00    -0.449 A  
HETATM    6  C   UNL     1      -8.992  11.638  65.925  1.00  0.00    -0.111 A  
HETATM    7  C   UNL     1      -9.622  12.210  67.046  1.00  0.00    -0.207 A  
HETATM    8  C   UNL     1     -10.945  12.643  66.920  1.00  0.00    -0.297 A  
BRANCH   4   9
HETATM    9  O   UNL     1      -9.172  10.760  63.641  1.00  0.00    -0.213 OA 
HETATM   10  C   UNL     1      -8.144   9.800  63.877  1.00  0.00    -0.150 C  
ENDBRANCH   4   9
BRANCH   7  11
HETATM   11  C   UNL     1      -8.903  12.368  68.368  1.00  0.00    -0.129 C  
BRANCH  11  12
HETATM   12  C   UNL     1      -7.588  13.117  68.272  1.00  0.00    -0.139 A  
HETATM   13  N   UNL     1      -6.553  12.521  68.930  1.00  0.00    -0.090 NA 
HETATM   14  C   UNL     1      -5.388  13.188  69.002  1.00  0.00    -0.069 A  
HETATM   15  C   UNL     1      -5.188  14.431  68.439  1.00  0.00    -0.105 A  
HETATM   16  C   UNL     1      -6.250  15.046  67.768  1.00  0.00    -0.168 A  
HETATM   17  C   UNL     1      -6.088  16.328  67.221  1.00  0.00    -0.189 A  
HETATM   18  C   UNL     1      -7.145  17.019  66.605  1.00  0.00    -0.254 A  
HETATM   19  C   UNL     1      -7.487  14.394  67.661  1.00  0.00    -0.191 A  
HETATM   20  C   UNL     1      -8.377  16.377  66.462  1.00  0.00    -0.302 A  
HETATM   21  C   UNL     1      -8.528  15.079  66.987  1.00  0.00    -0.258 A  
BRANCH  18  22
HETATM   22  O   UNL     1      -6.966  18.300  66.139  1.00  0.00    -0.223 OA 
HETATM   23  C   UNL     1      -7.187  19.344  67.091  1.00  0.00    -0.211 C  
ENDBRANCH  18  22
BRANCH  20  24
HETATM   24  O   UNL     1      -9.551  16.828  65.926  1.00  0.00    -0.458 OA 
HETATM   25  C   UNL     1     -10.506  15.950  65.357  1.00  0.00    -0.405 C  
ENDBRANCH  20  24
ENDBRANCH  11  12
ENDBRANCH   7  11
ENDBRANCH   2   3
TORSDOF 6
ENDMDL
MODEL      172
REMARK 921   NORMALIZED FREE ENERGY PREDICTED BY IDOCK:   -4.05 KCAL/MOL
REMARK 922        TOTAL FREE ENERGY PREDICTED BY IDOCK:   -6.27 KCAL/MOL
REMARK 923 INTER-LIGAND FREE ENERGY PREDICTED BY IDOCK:   -5.53 KCAL/MOL
REMARK 924 INTRA-LIGAND FREE ENERGY PREDICTED BY IDOCK:   -0.74 KCAL/MOL
REMARK 927      BINDING AFFINITY PREDICTED BY RF-SCORE:    0.00 PKD
ROOT
HETATM    1  C   UNL     1     -12.627  13.919  71.633  1.00  0.00    -0.298 C  
HETATM    2  O   UNL     1     -12.998  12.999  70.608  1.00  0.00    -0.060 OA 
ENDROOT
BRANCH   2   3
HETATM    3  C   UNL     1     -12.006  12.162  70.166  1.00  0.00    -0.314 A  
HETATM    4  C   UNL     1     -11.229  12.610  69.083  1.00  0.00    -0.243 A  
HETATM    5  C   UNL     1     -11.795  10.878  70.675  1.00  0.00    -0.453 A  
HETATM    6  C   UNL     1     -10.243  11.767  68.551  1.00  0.00    -0.215 A  
HETATM    7  C   UNL     1     -10.075  10.451  69.022  1.00  0.00    -0.227 A  
HETATM    8  C   UNL     1     -10.842  10.029  70.111  1.00  0.00    -0.365 A  
BRANCH   4   9
HETATM    9  O   UNL     1     -11.511  13.868  68.606  1.00  0.00    -0.258 OA 
HETATM   10  C   UNL     1     -11.936  13.971  67.250  1.00  0.00    -0.413 C  
ENDBRANCH   4   9
BRANCH   7  11
HETATM   11  C   UNL     1      -9.092   9.497  68.382  1.00  0.00    -0.127 C  
BRANCH  11  12
HETATM   12  C   UNL     1      -9.606   8.076  68.249  1.00  0.00    -0.146 A  
HETATM   13  N   UNL     1     -10.418   7.871  67.173  1.00  0.00    -0.326 NA 
HETATM   14  C   UNL     1     -11.017   6.673  67.059  1.00  0.00    -0.393 A  
HETATM   15  C   UNL     1     -10.844   5.647  67.964  1.00  0.00    -0.164 A  
HETATM   16  C   UNL     1     -10.014   5.857  69.071  1.00  0.00    -0.211 A  
HETATM   17  C   UNL     1      -9.852   4.846  70.030  1.00  0.00    -0.304 A  
HETATM   18  C   UNL     1      -9.091   5.034  71.197  1.00  0.00    -0.142 A  
HETATM   19  C   UNL     1      -9.363   7.088  69.238  1.00  0.00    -0.145 A  
HETATM   20  C   UNL     1      -8.411   6.241  71.369  1.00  0.00    -0.123 A  
HETATM   21  C   UNL     1      -8.553   7.244  70.390  1.00  0.00    -0.144 A  
BRANCH  18  22
HETATM   22  O   UNL     1      -9.008   4.044  72.145  1.00  0.00    -0.110 OA 
HETATM   23  C   UNL     1     -10.043   4.040  73.132  1.00  0.00    -0.144 C  
ENDBRANCH  18  22
BRANCH  20  24
HETATM   24  O   UNL     1      -7.631   6.676  72.405  1.00  0.00    -0.093 OA 
HETATM   25  C   UNL     1      -7.516   8.047  72.737  1.00  0.00    -0.114 C  
ENDBRANCH  20  24
ENDBRANCH  11  12
ENDBRANCH   7  11
ENDBRANCH   2   3
TORSDOF 6
ENDMDL
MODEL      173
REMARK 921   NORMALIZED FREE ENERGY PREDICTED BY IDOCK:   -4.02 KCAL/MOL
REMARK 922        TOTAL FREE ENERGY PREDICTED BY IDOCK:   -6.23 KCAL/MOL
REMARK 923 INTER-LIGAND FREE ENERGY PREDICTED BY IDOCK:   -5.40 KCAL/MOL
REMARK 924 INTRA-LIGAND FREE ENERGY PREDICTED BY IDOCK:   -0.83 KCAL/MOL
REMARK 927      BINDING AFFINITY PREDICTED BY RF-SCORE:    0.00 PKD
ROOT
HETATM    1  C   UNL     1     -11.798   6.682  70.921  1.00  0.00    -0.377 C  
HETATM    2  O   UNL     1     -10.802   7.625  71.314  1.00  0.00    -0.229 OA 
ENDROOT
BRANCH   2   3
HETATM    3  C   UNL     1     -10.168   8.286  70.293  1.00  0.00    -0.196 A  
HETATM    4  C   UNL     1      -9.035   9.046  70.634  1.00  0.00    -0.220 A  
HETATM    5  C   UNL     1     -10.636   8.307  68.977  1.00  0.00    -0.167 A  
HETATM    6  C   UNL     1      -8.386   9.793  69.640  1.00  0.00    -0.180 A  
HETATM    7  C   UNL     1      -8.896   9.865  68.331  1.00  0.00    -0.120 A  
HETATM    8  C   UNL     1     -10.010   9.087  68.004  1.00  0.00    -0.213 A  
BRANCH   4   9
HETATM    9  O   UNL     1      -8.647   9.010  71.951  1.00  0.00    -0.361 OA 
HETATM   10  C   UNL     1      -7.464   8.279  72.264  1.00  0.00    -0.117 C  
ENDBRANCH   4   9
BRANCH   7  11
HETATM   11  C   UNL     1      -8.268  10.754  67.280  1.00  0.00    -0.121 C  
BRANCH  11  12
HETATM   12  C   UNL     1      -7.685  12.043  67.829  1.00  0.00    -0.139 A  
HETATM   13  N   UNL     1      -6.387  11.943  68.236  1.00  0.00    -0.050 NA 
HETATM   14  C   UNL     1      -5.840  13.005  68.853  1.00  0.00    -0.076 A  
HETATM   15  C   UNL     1      -6.518  14.183  69.083  1.00  0.00    -0.111 A  
HETATM   16  C   UNL     1      -7.851  14.285  68.670  1.00  0.00    -0.140 A  
HETATM   17  C   UNL     1      -8.579  15.456  68.927  1.00  0.00    -0.207 A  
HETATM   18  C   UNL     1      -9.940  15.581  68.601  1.00  0.00    -0.208 A  
HETATM   19  C   UNL     1      -8.471  13.208  68.020  1.00  0.00    -0.181 A  
HETATM   20  C   UNL     1     -10.569  14.532  67.928  1.00  0.00    -0.243 A  
HETATM   21  C   UNL     1      -9.828  13.369  67.645  1.00  0.00    -0.226 A  
BRANCH  18  22
HETATM   22  O   UNL     1     -10.637  16.719  68.928  1.00  0.00    -0.310 OA 
HETATM   23  C   UNL     1      -9.954  17.954  68.695  1.00  0.00    -0.387 C  
ENDBRANCH  18  22
BRANCH  20  24
HETATM   24  O   UNL     1     -11.867  14.397  67.519  1.00  0.00    -0.373 OA 
HETATM   25  C   UNL     1     -12.214  13.726  66.321  1.00  0.00    -0.447 C  
ENDBRANCH  20  24
ENDBRANCH  11  12
ENDBRANCH   7  11
ENDBRANCH   2   3
TORSDOF 6
ENDMDL
MODEL      174
REMARK 921   NORMALIZED FREE ENERGY PREDICTED BY IDOCK:   -4.01 KCAL/MOL
REMARK 922        TOTAL FREE ENERGY PREDICTED BY IDOCK:   -6.23 KCAL/MOL
REMARK 923 INTER-LIGAND FREE ENERGY PREDICTED BY IDOCK:   -5.55 KCAL/MOL
REMARK 924 INTRA-LIGAND FREE ENERGY PREDICTED BY IDOCK:   -0.68 KCAL/MOL
REMARK 927      BINDING AFFINITY PREDICTED BY RF-SCORE:    0.00 PKD
ROOT
HETATM    1  C   UNL     1      -9.999   4.758  67.820  1.00  0.00    -0.112 C  
HETATM    2  O   UNL     1      -9.190   5.715  67.138  1.00  0.00    -0.114 OA 
ENDROOT
BRANCH   2   3
HETATM    3  C   UNL     1      -9.612   7.018  67.211  1.00  0.00    -0.141 A  
HETATM    4  C   UNL     1      -9.232   7.870  66.160  1.00  0.00    -0.152 A  
HETATM    5  C   UNL     1     -10.313   7.543  68.299  1.00  0.00    -0.233 A  
HETATM    6  C   UNL     1      -9.583   9.227  66.216  1.00  0.00    -0.313 A  
HETATM    7  C   UNL     1     -10.231   9.767  67.341  1.00  0.00    -0.284 A  
HETATM    8  C   UNL     1     -10.620   8.902  68.368  1.00  0.00    -0.190 A  
BRANCH   4   9
HETATM    9  O   UNL     1      -8.514   7.299  65.137  1.00  0.00    -0.115 OA 
HETATM   10  C   UNL     1      -7.182   7.763  64.935  1.00  0.00    -0.066 C  
ENDBRANCH   4   9
BRANCH   7  11
HETATM   11  C   UNL     1     -10.515  11.248  67.461  1.00  0.00    -0.234 C  
BRANCH  11  12
HETATM   12  C   UNL     1      -9.281  12.098  67.696  1.00  0.00    -0.181 A  
HETATM   13  N   UNL     1      -8.377  11.549  68.557  1.00  0.00    -0.153 NA 
HETATM   14  C   UNL     1      -7.320  12.297  68.918  1.00  0.00    -0.041 A  
HETATM   15  C   UNL     1      -7.102  13.577  68.456  1.00  0.00    -0.108 A  
HETATM   16  C   UNL     1      -8.030  14.144  67.577  1.00  0.00    -0.202 A  
HETATM   17  C   UNL     1      -7.857  15.460  67.124  1.00  0.00    -0.249 A  
HETATM   18  C   UNL     1      -8.799  16.101  66.301  1.00  0.00    -0.336 A  
HETATM   19  C   UNL     1      -9.151  13.408  67.166  1.00  0.00    -0.235 A  
HETATM   20  C   UNL     1      -9.907  15.377  65.857  1.00  0.00    -0.356 A  
HETATM   21  C   UNL     1     -10.064  14.046  66.291  1.00  0.00    -0.307 A  
BRANCH  18  22
HETATM   22  O   UNL     1      -8.627  17.413  65.930  1.00  0.00    -0.525 OA 
HETATM   23  C   UNL     1      -7.278  17.886  65.926  1.00  0.00    -0.242 C  
ENDBRANCH  18  22
BRANCH  20  24
HETATM   24  O   UNL     1     -10.962  15.765  65.077  1.00  0.00    -0.410 OA 
HETATM   25  C   UNL     1     -11.702  14.843  64.299  1.00  0.00    -0.247 C  
ENDBRANCH  20  24
ENDBRANCH  11  12
ENDBRANCH   7  11
ENDBRANCH   2   3
TORSDOF 6
ENDMDL
MODEL      175
REMARK 921   NORMALIZED FREE ENERGY PREDICTED BY IDOCK:   -4.00 KCAL/MOL
REMARK 922        TOTAL FREE ENERGY PREDICTED BY IDOCK:   -6.21 KCAL/MOL
REMARK 923 INTER-LIGAND FREE ENERGY PREDICTED BY IDOCK:   -5.44 KCAL/MOL
REMARK 924 INTRA-LIGAND FREE ENERGY PREDICTED BY IDOCK:   -0.77 KCAL/MOL
REMARK 927      BINDING AFFINITY PREDICTED BY RF-SCORE:    0.00 PKD
ROOT
HETATM    1  C   UNL     1     -10.761  16.089  65.277  1.00  0.00    -0.399 C  
HETATM    2  O   UNL     1     -11.342  14.806  65.054  1.00  0.00    -0.358 OA 
ENDROOT
BRANCH   2   3
HETATM    3  C   UNL     1     -10.522  13.729  65.282  1.00  0.00    -0.363 A  
HETATM    4  C   UNL     1     -10.680  12.618  64.435  1.00  0.00    -0.359 A  
HETATM    5  C   UNL     1      -9.619  13.656  66.345  1.00  0.00    -0.280 A  
HETATM    6  C   UNL     1      -9.912  11.468  64.663  1.00  0.00    -0.305 A  
HETATM    7  C   UNL     1      -9.052  11.372  65.772  1.00  0.00    -0.195 A  
HETATM    8  C   UNL     1      -8.891  12.492  66.592  1.00  0.00    -0.142 A  
BRANCH   4   9
HETATM    9  O   UNL     1     -11.610  12.741  63.430  1.00  0.00    -0.499 OA 
HETATM   10  C   UNL     1     -12.863  12.087  63.616  1.00  0.00    -0.346 C  
ENDBRANCH   4   9
BRANCH   7  11
HETATM   11  C   UNL     1      -8.303  10.096  66.090  1.00  0.00    -0.131 C  
BRANCH  11  12
HETATM   12  C   UNL     1      -9.176   8.991  66.655  1.00  0.00    -0.167 A  
HETATM   13  N   UNL     1      -9.928   9.364  67.729  1.00  0.00    -0.174 NA 
HETATM   14  C   UNL     1     -10.628   8.409  68.366  1.00  0.00    -0.105 A  
HETATM   15  C   UNL     1     -10.630   7.085  67.983  1.00  0.00    -0.260 A  
HETATM   16  C   UNL     1      -9.855   6.700  66.884  1.00  0.00    -0.222 A  
HETATM   17  C   UNL     1      -9.804   5.353  66.497  1.00  0.00    -0.195 A  
HETATM   18  C   UNL     1      -8.983   4.904  65.449  1.00  0.00    -0.151 A  
HETATM   19  C   UNL     1      -9.106   7.655  66.182  1.00  0.00    -0.189 A  
HETATM   20  C   UNL     1      -8.252   5.842  64.718  1.00  0.00    -0.129 A  
HETATM   21  C   UNL     1      -8.327   7.198  65.091  1.00  0.00    -0.081 A  
BRANCH  18  22
HETATM   22  O   UNL     1      -8.910   3.566  65.140  1.00  0.00    -0.114 OA 
HETATM   23  C   UNL     1      -9.875   3.093  64.198  1.00  0.00    -0.163 C  
ENDBRANCH  18  22
BRANCH  20  24
HETATM   24  O   UNL     1      -7.378   5.667  63.680  1.00  0.00    -0.051 OA 
HETATM   25  C   UNL     1      -7.447   6.446  62.499  1.00  0.00    -0.064 C  
ENDBRANCH  20  24
ENDBRANCH  11  12
ENDBRANCH   7  11
ENDBRANCH   2   3
TORSDOF 6
ENDMDL
MODEL      176
REMARK 921   NORMALIZED FREE ENERGY PREDICTED BY IDOCK:   -3.96 KCAL/MOL
REMARK 922        TOTAL FREE ENERGY PREDICTED BY IDOCK:   -6.15 KCAL/MOL
REMARK 923 INTER-LIGAND FREE ENERGY PREDICTED BY IDOCK:   -5.28 KCAL/MOL
REMARK 924 INTRA-LIGAND FREE ENERGY PREDICTED BY IDOCK:   -0.88 KCAL/MOL
REMARK 927      BINDING AFFINITY PREDICTED BY RF-SCORE:    0.00 PKD
ROOT
HETATM    1  C   UNL     1     -11.797  14.669  69.271  1.00  0.00    -0.321 C  
HETATM    2  O   UNL     1     -12.398  14.135  68.092  1.00  0.00    -0.227 OA 
ENDROOT
BRANCH   2   3
HETATM    3  C   UNL     1     -11.695  13.143  67.457  1.00  0.00    -0.366 A  
HETATM    4  C   UNL     1     -11.317  13.383  66.125  1.00  0.00    -0.303 A  
HETATM    5  C   UNL     1     -11.420  11.900  68.034  1.00  0.00    -0.389 A  
HETATM    6  C   UNL     1     -10.652  12.377  65.409  1.00  0.00    -0.316 A  
HETATM    7  C   UNL     1     -10.433  11.105  65.969  1.00  0.00    -0.312 A  
HETATM    8  C   UNL     1     -10.797  10.890  67.301  1.00  0.00    -0.342 A  
BRANCH   4   9
HETATM    9  O   UNL     1     -11.648  14.611  65.606  1.00  0.00    -0.346 OA 
HETATM   10  C   UNL     1     -10.576  15.481  65.253  1.00  0.00    -0.424 C  
ENDBRANCH   4   9
BRANCH   7  11
HETATM   11  C   UNL     1      -9.818   9.979  65.168  1.00  0.00    -0.388 C  
BRANCH  11  12
HETATM   12  C   UNL     1      -8.478   9.504  65.697  1.00  0.00    -0.133 A  
HETATM   13  N   UNL     1      -7.468  10.410  65.561  1.00  0.00    -0.149 NA 
HETATM   14  C   UNL     1      -6.224  10.016  65.887  1.00  0.00    -0.085 A  
HETATM   15  C   UNL     1      -5.925   8.755  66.357  1.00  0.00    -0.055 A  
HETATM   16  C   UNL     1      -6.959   7.823  66.493  1.00  0.00    -0.067 A  
HETATM   17  C   UNL     1      -6.678   6.520  66.929  1.00  0.00    -0.060 A  
HETATM   18  C   UNL     1      -7.669   5.526  67.010  1.00  0.00    -0.100 A  
HETATM   19  C   UNL     1      -8.276   8.181  66.169  1.00  0.00    -0.117 A  
HETATM   20  C   UNL     1      -8.991   5.869  66.720  1.00  0.00    -0.120 A  
HETATM   21  C   UNL     1      -9.274   7.186  66.310  1.00  0.00    -0.169 A  
BRANCH  18  22
HETATM   22  O   UNL     1      -7.344   4.243  67.379  1.00  0.00    -0.068 OA 
HETATM   23  C   UNL     1      -6.365   4.123  68.414  1.00  0.00    -0.036 C  
ENDBRANCH  18  22
BRANCH  20  24
HETATM   24  O   UNL     1     -10.120   5.098  66.706  1.00  0.00    -0.182 OA 
HETATM   25  C   UNL     1     -10.519   4.368  65.559  1.00  0.00    -0.199 C  
ENDBRANCH  20  24
ENDBRANCH  11  12
ENDBRANCH   7  11
ENDBRANCH   2   3
TORSDOF 6
ENDMDL
MODEL      177
REMARK 921   NORMALIZED FREE ENERGY PREDICTED BY IDOCK:   -3.95 KCAL/MOL
REMARK 922        TOTAL FREE ENERGY PREDICTED BY IDOCK:   -6.14 KCAL/MOL
REMARK 923 INTER-LIGAND FREE ENERGY PREDICTED BY IDOCK:   -5.21 KCAL/MOL
REMARK 924 INTRA-LIGAND FREE ENERGY PREDICTED BY IDOCK:   -0.93 KCAL/MOL
REMARK 927      BINDING AFFINITY PREDICTED BY RF-SCORE:    0.00 PKD
ROOT
HETATM    1  C   UNL     1      -6.729   2.861  65.619  1.00  0.00    -0.043 C  
HETATM    2  O   UNL     1      -8.133   2.630  65.512  1.00  0.00    -0.084 OA 
ENDROOT
BRANCH   2   3
HETATM    3  C   UNL     1      -8.935   3.466  66.247  1.00  0.00    -0.147 A  
HETATM    4  C   UNL     1      -9.816   4.295  65.531  1.00  0.00    -0.215 A  
HETATM    5  C   UNL     1      -8.857   3.588  67.636  1.00  0.00    -0.148 A  
HETATM    6  C   UNL     1     -10.613   5.214  66.229  1.00  0.00    -0.325 A  
HETATM    7  C   UNL     1     -10.486   5.381  67.620  1.00  0.00    -0.217 A  
HETATM    8  C   UNL     1      -9.621   4.535  68.319  1.00  0.00    -0.203 A  
BRANCH   4   9
HETATM    9  O   UNL     1      -9.819   4.150  64.164  1.00  0.00    -0.165 OA 
HETATM   10  C   UNL     1     -10.892   3.409  63.590  1.00  0.00    -0.202 C  
ENDBRANCH   4   9
BRANCH   7  11
HETATM   11  C   UNL     1     -11.260   6.445  68.367  1.00  0.00    -0.297 C  
BRANCH  11  12
HETATM   12  C   UNL     1     -10.387   7.493  69.031  1.00  0.00    -0.212 A  
HETATM   13  N   UNL     1     -10.147   7.267  70.354  1.00  0.00    -0.191 NA 
HETATM   14  C   UNL     1      -9.492   8.217  71.044  1.00  0.00    -0.156 A  
HETATM   15  C   UNL     1      -9.046   9.394  70.481  1.00  0.00    -0.308 A  
HETATM   16  C   UNL     1      -9.296   9.630  69.125  1.00  0.00    -0.172 A  
HETATM   17  C   UNL     1      -8.891  10.836  68.535  1.00  0.00    -0.149 A  
HETATM   18  C   UNL     1      -9.185  11.153  67.198  1.00  0.00    -0.158 A  
HETATM   19  C   UNL     1      -9.974   8.672  68.358  1.00  0.00    -0.204 A  
HETATM   20  C   UNL     1      -9.834  10.202  66.408  1.00  0.00    -0.222 A  
HETATM   21  C   UNL     1     -10.213   8.980  66.996  1.00  0.00    -0.336 A  
BRANCH  18  22
HETATM   22  O   UNL     1      -8.829  12.372  66.673  1.00  0.00    -0.208 OA 
HETATM   23  C   UNL     1      -9.807  13.409  66.791  1.00  0.00    -0.265 C  
ENDBRANCH  18  22
BRANCH  20  24
HETATM   24  O   UNL     1     -10.244  10.267  65.105  1.00  0.00    -0.314 OA 
HETATM   25  C   UNL     1      -9.353  10.061  64.024  1.00  0.00    -0.270 C  
ENDBRANCH  20  24
ENDBRANCH  11  12
ENDBRANCH   7  11
ENDBRANCH   2   3
TORSDOF 6
ENDMDL
MODEL      178
REMARK 921   NORMALIZED FREE ENERGY PREDICTED BY IDOCK:   -3.89 KCAL/MOL
REMARK 922        TOTAL FREE ENERGY PREDICTED BY IDOCK:   -6.06 KCAL/MOL
REMARK 923 INTER-LIGAND FREE ENERGY PREDICTED BY IDOCK:   -5.29 KCAL/MOL
REMARK 924 INTRA-LIGAND FREE ENERGY PREDICTED BY IDOCK:   -0.76 KCAL/MOL
REMARK 927      BINDING AFFINITY PREDICTED BY RF-SCORE:    0.00 PKD
ROOT
HETATM    1  C   UNL     1      -5.377   5.901  67.069  1.00  0.00    -0.005 C  
HETATM    2  O   UNL     1      -6.087   4.771  67.574  1.00  0.00    -0.025 OA 
ENDROOT
BRANCH   2   3
HETATM    3  C   UNL     1      -7.293   5.039  68.170  1.00  0.00    -0.074 A  
HETATM    4  C   UNL     1      -8.450   4.740  67.430  1.00  0.00    -0.104 A  
HETATM    5  C   UNL     1      -7.418   5.661  69.415  1.00  0.00    -0.075 A  
HETATM    6  C   UNL     1      -9.707   5.052  67.967  1.00  0.00    -0.197 A  
HETATM    7  C   UNL     1      -9.829   5.736  69.190  1.00  0.00    -0.211 A  
HETATM    8  C   UNL     1      -8.670   6.008  69.922  1.00  0.00    -0.131 A  
BRANCH   4   9
HETATM    9  O   UNL     1      -8.256   4.162  66.198  1.00  0.00    -0.104 OA 
HETATM   10  C   UNL     1      -9.220   3.203  65.769  1.00  0.00    -0.138 C  
ENDBRANCH   4   9
BRANCH   7  11
HETATM   11  C   UNL     1     -11.174   6.177  69.724  1.00  0.00    -0.494 C  
BRANCH  11  12
HETATM   12  C   UNL     1     -11.207   7.614  70.209  1.00  0.00    -0.216 A  
HETATM   13  N   UNL     1     -11.633   7.762  71.496  1.00  0.00    -0.263 NA 
HETATM   14  C   UNL     1     -11.814   9.012  71.956  1.00  0.00    -0.356 A  
HETATM   15  C   UNL     1     -11.583  10.141  71.201  1.00  0.00    -0.430 A  
HETATM   16  C   UNL     1     -11.150   9.991  69.879  1.00  0.00    -0.336 A  
HETATM   17  C   UNL     1     -10.946  11.121  69.073  1.00  0.00    -0.286 A  
HETATM   18  C   UNL     1     -10.585  11.021  67.718  1.00  0.00    -0.211 A  
HETATM   19  C   UNL     1     -10.943   8.710  69.348  1.00  0.00    -0.034 A  
HETATM   20  C   UNL     1     -10.346   9.756  67.177  1.00  0.00    -0.248 A  
HETATM   21  C   UNL     1     -10.524   8.625  67.997  1.00  0.00    -0.254 A  
BRANCH  18  22
HETATM   22  O   UNL     1     -10.458  12.149  66.943  1.00  0.00    -0.220 OA 
HETATM   23  C   UNL     1     -11.637  12.559  66.245  1.00  0.00    -0.394 C  
ENDBRANCH  18  22
BRANCH  20  24
HETATM   24  O   UNL     1     -10.007   9.390  65.904  1.00  0.00    -0.303 OA 
HETATM   25  C   UNL     1      -8.689   9.003  65.558  1.00  0.00    -0.181 C  
ENDBRANCH  20  24
ENDBRANCH  11  12
ENDBRANCH   7  11
ENDBRANCH   2   3
TORSDOF 6
ENDMDL
MODEL      179
REMARK 921   NORMALIZED FREE ENERGY PREDICTED BY IDOCK:   -3.88 KCAL/MOL
REMARK 922        TOTAL FREE ENERGY PREDICTED BY IDOCK:   -6.04 KCAL/MOL
REMARK 923 INTER-LIGAND FREE ENERGY PREDICTED BY IDOCK:   -5.22 KCAL/MOL
REMARK 924 INTRA-LIGAND FREE ENERGY PREDICTED BY IDOCK:   -0.82 KCAL/MOL
REMARK 927      BINDING AFFINITY PREDICTED BY RF-SCORE:    0.00 PKD
ROOT
HETATM    1  C   UNL     1      -8.084   7.074  67.380  1.00  0.00    -0.116 C  
HETATM    2  O   UNL     1      -7.015   8.018  67.363  1.00  0.00    -0.072 OA 
ENDROOT
BRANCH   2   3
HETATM    3  C   UNL     1      -7.373   9.332  67.535  1.00  0.00    -0.087 A  
HETATM    4  C   UNL     1      -6.583  10.297  66.887  1.00  0.00    -0.076 A  
HETATM    5  C   UNL     1      -8.409   9.747  68.374  1.00  0.00    -0.110 A  
HETATM    6  C   UNL     1      -6.866  11.656  67.079  1.00  0.00    -0.144 A  
HETATM    7  C   UNL     1      -7.867  12.074  67.975  1.00  0.00    -0.145 A  
HETATM    8  C   UNL     1      -8.656  11.102  68.596  1.00  0.00    -0.151 A  
BRANCH   4   9
HETATM    9  O   UNL     1      -5.557   9.823  66.103  1.00  0.00    -0.049 OA 
HETATM   10  C   UNL     1      -5.691   9.974  64.692  1.00  0.00    -0.110 C  
ENDBRANCH   4   9
BRANCH   7  11
HETATM   11  C   UNL     1      -8.106  13.537  68.275  1.00  0.00    -0.155 C  
BRANCH  11  12
HETATM   12  C   UNL     1      -9.554  13.968  68.140  1.00  0.00    -0.220 A  
HETATM   13  N   UNL     1     -10.128  14.381  69.306  1.00  0.00    -0.096 NA 
HETATM   14  C   UNL     1     -11.444  14.655  69.295  1.00  0.00    -0.291 A  
HETATM   15  C   UNL     1     -12.233  14.548  68.169  1.00  0.00    -0.120 A  
HETATM   16  C   UNL     1     -11.647  14.121  66.973  1.00  0.00    -0.404 A  
HETATM   17  C   UNL     1     -12.433  13.963  65.822  1.00  0.00    -0.530 A  
HETATM   18  C   UNL     1     -11.908  13.464  64.618  1.00  0.00    -0.391 A  
HETATM   19  C   UNL     1     -10.277  13.823  66.928  1.00  0.00    -0.261 A  
HETATM   20  C   UNL     1     -10.541  13.189  64.542  1.00  0.00    -0.406 A  
HETATM   21  C   UNL     1      -9.749  13.376  65.691  1.00  0.00    -0.103 A  
BRANCH  18  22
HETATM   22  O   UNL     1     -12.723  13.262  63.530  1.00  0.00    -0.708 OA 
HETATM   23  C   UNL     1     -13.093  11.904  63.274  1.00  0.00     0.159 C  
ENDBRANCH  18  22
BRANCH  20  24
HETATM   24  O   UNL     1      -9.797  12.687  63.510  1.00  0.00    -0.297 OA 
HETATM   25  C   UNL     1      -9.556  11.300  63.362  1.00  0.00    -0.333 C  
ENDBRANCH  20  24
ENDBRANCH  11  12
ENDBRANCH   7  11
ENDBRANCH   2   3
TORSDOF 6
ENDMDL
MODEL      180
REMARK 921   NORMALIZED FREE ENERGY PREDICTED BY IDOCK:   -3.86 KCAL/MOL
REMARK 922        TOTAL FREE ENERGY PREDICTED BY IDOCK:   -6.03 KCAL/MOL
REMARK 923 INTER-LIGAND FREE ENERGY PREDICTED BY IDOCK:   -5.74 KCAL/MOL
REMARK 924 INTRA-LIGAND FREE ENERGY PREDICTED BY IDOCK:   -0.29 KCAL/MOL
REMARK 927      BINDING AFFINITY PREDICTED BY RF-SCORE:    0.00 PKD
ROOT
HETATM    1  C   UNL     1      -8.908  19.529  66.823  1.00  0.00    -0.332 C  
HETATM    2  O   UNL     1      -8.967  18.284  67.516  1.00  0.00    -0.252 OA 
ENDROOT
BRANCH   2   3
HETATM    3  C   UNL     1      -9.877  17.375  67.040  1.00  0.00    -0.286 A  
HETATM    4  C   UNL     1     -10.649  16.688  67.993  1.00  0.00    -0.338 A  
HETATM    5  C   UNL     1     -10.008  17.049  65.688  1.00  0.00    -0.080 A  
HETATM    6  C   UNL     1     -11.550  15.703  67.563  1.00  0.00    -0.041 A  
HETATM    7  C   UNL     1     -11.634  15.329  66.210  1.00  0.00     0.008 A  
HETATM    8  C   UNL     1     -10.875  16.037  65.273  1.00  0.00    -0.376 A  
BRANCH   4   9
HETATM    9  O   UNL     1     -10.447  17.031  69.308  1.00  0.00    -0.323 OA 
HETATM   10  C   UNL     1     -10.921  16.124  70.300  1.00  0.00    -0.340 C  
ENDBRANCH   4   9
BRANCH   7  11
HETATM   11  C   UNL     1     -12.520  14.193  65.751  1.00  0.00    -0.490 C  
BRANCH  11  12
HETATM   12  C   UNL     1     -11.775  13.065  65.063  1.00  0.00    -0.339 A  
HETATM   13  N   UNL     1     -12.441  12.513  64.009  1.00  0.00    -0.618 NA 
HETATM   14  C   UNL     1     -11.905  11.425  63.430  1.00  0.00     0.147 A  
HETATM   15  C   UNL     1     -10.721  10.850  63.840  1.00  0.00    -0.186 A  
HETATM   16  C   UNL     1     -10.038  11.413  64.924  1.00  0.00    -0.323 A  
HETATM   17  C   UNL     1      -8.852  10.826  65.389  1.00  0.00    -0.202 A  
HETATM   18  C   UNL     1      -8.171  11.307  66.520  1.00  0.00    -0.165 A  
HETATM   19  C   UNL     1     -10.551  12.550  65.564  1.00  0.00    -0.304 A  
HETATM   20  C   UNL     1      -8.648  12.455  67.155  1.00  0.00    -0.189 A  
HETATM   21  C   UNL     1      -9.823  13.059  66.668  1.00  0.00    -0.252 A  
BRANCH  18  22
HETATM   22  O   UNL     1      -7.048  10.666  66.986  1.00  0.00    -0.091 OA 
HETATM   23  C   UNL     1      -7.230   9.306  67.388  1.00  0.00    -0.080 C  
ENDBRANCH  18  22
BRANCH  20  24
HETATM   24  O   UNL     1      -8.188  13.106  68.267  1.00  0.00    -0.149 OA 
HETATM   25  C   UNL     1      -7.787  14.464  68.232  1.00  0.00    -0.138 C  
ENDBRANCH  20  24
ENDBRANCH  11  12
ENDBRANCH   7  11
ENDBRANCH   2   3
TORSDOF 6
ENDMDL
MODEL      181
REMARK 921   NORMALIZED FREE ENERGY PREDICTED BY IDOCK:   -3.82 KCAL/MOL
REMARK 922        TOTAL FREE ENERGY PREDICTED BY IDOCK:   -5.96 KCAL/MOL
REMARK 923 INTER-LIGAND FREE ENERGY PREDICTED BY IDOCK:   -5.12 KCAL/MOL
REMARK 924 INTRA-LIGAND FREE ENERGY PREDICTED BY IDOCK:   -0.84 KCAL/MOL
REMARK 927      BINDING AFFINITY PREDICTED BY RF-SCORE:    0.00 PKD
ROOT
HETATM    1  C   UNL     1     -13.261  12.025  71.969  1.00  0.00    -0.375 C  
HETATM    2  O   UNL     1     -13.277  11.097  70.885  1.00  0.00    -0.149 OA 
ENDROOT
BRANCH   2   3
HETATM    3  C   UNL     1     -12.101  10.431  70.650  1.00  0.00    -0.348 A  
HETATM    4  C   UNL     1     -11.496  10.628  69.396  1.00  0.00    -0.286 A  
HETATM    5  C   UNL     1     -11.537   9.520  71.546  1.00  0.00    -0.465 A  
HETATM    6  C   UNL     1     -10.327   9.922  69.080  1.00  0.00    -0.224 A  
HETATM    7  C   UNL     1      -9.797   8.958  69.956  1.00  0.00    -0.188 A  
HETATM    8  C   UNL     1     -10.398   8.788  71.206  1.00  0.00    -0.331 A  
BRANCH   4   9
HETATM    9  O   UNL     1     -12.121  11.511  68.547  1.00  0.00    -0.522 OA 
HETATM   10  C   UNL     1     -11.578  11.650  67.237  1.00  0.00    -0.238 C  
ENDBRANCH   4   9
BRANCH   7  11
HETATM   11  C   UNL     1      -8.601   8.112  69.578  1.00  0.00    -0.134 C  
BRANCH  11  12
HETATM   12  C   UNL     1      -8.914   6.637  69.412  1.00  0.00    -0.133 A  
HETATM   13  N   UNL     1      -9.378   6.298  68.176  1.00  0.00    -0.116 NA 
HETATM   14  C   UNL     1      -9.800   5.035  67.990  1.00  0.00    -0.149 A  
HETATM   15  C   UNL     1      -9.778   4.072  68.976  1.00  0.00    -0.161 A  
HETATM   16  C   UNL     1      -9.307   4.420  70.247  1.00  0.00    -0.218 A  
HETATM   17  C   UNL     1      -9.311   3.473  71.282  1.00  0.00    -0.209 A  
HETATM   18  C   UNL     1      -8.919   3.794  72.593  1.00  0.00    -0.100 A  
HETATM   19  C   UNL     1      -8.852   5.723  70.496  1.00  0.00    -0.144 A  
HETATM   20  C   UNL     1      -8.436   5.077  72.856  1.00  0.00    -0.115 A  
HETATM   21  C   UNL     1      -8.406   6.017  71.808  1.00  0.00    -0.119 A  
BRANCH  18  22
HETATM   22  O   UNL     1      -8.999   2.857  73.596  1.00  0.00    -0.078 OA 
HETATM   23  C   UNL     1      -8.131   1.729  73.462  1.00  0.00    -0.046 C  
ENDBRANCH  18  22
BRANCH  20  24
HETATM   24  O   UNL     1      -8.015   5.639  74.031  1.00  0.00    -0.103 OA 
HETATM   25  C   UNL     1      -8.517   6.879  74.494  1.00  0.00    -0.171 C  
ENDBRANCH  20  24
ENDBRANCH  11  12
ENDBRANCH   7  11
ENDBRANCH   2   3
TORSDOF 6
ENDMDL
MODEL      182
REMARK 921   NORMALIZED FREE ENERGY PREDICTED BY IDOCK:   -3.81 KCAL/MOL
REMARK 922        TOTAL FREE ENERGY PREDICTED BY IDOCK:   -5.95 KCAL/MOL
REMARK 923 INTER-LIGAND FREE ENERGY PREDICTED BY IDOCK:   -4.90 KCAL/MOL
REMARK 924 INTRA-LIGAND FREE ENERGY PREDICTED BY IDOCK:   -1.05 KCAL/MOL
REMARK 927      BINDING AFFINITY PREDICTED BY RF-SCORE:    0.00 PKD
ROOT
HETATM    1  C   UNL     1     -10.157   4.591  65.991  1.00  0.00    -0.259 C  
HETATM    2  O   UNL     1      -9.409   5.755  65.641  1.00  0.00    -0.098 OA 
ENDROOT
BRANCH   2   3
HETATM    3  C   UNL     1      -9.385   6.756  66.578  1.00  0.00    -0.161 A  
HETATM    4  C   UNL     1      -8.151   7.016  67.199  1.00  0.00    -0.118 A  
HETATM    5  C   UNL     1     -10.521   7.453  66.994  1.00  0.00    -0.404 A  
HETATM    6  C   UNL     1      -8.083   7.986  68.210  1.00  0.00    -0.126 A  
HETATM    7  C   UNL     1      -9.239   8.640  68.673  1.00  0.00    -0.138 A  
HETATM    8  C   UNL     1     -10.454   8.385  68.031  1.00  0.00    -0.242 A  
BRANCH   4   9
HETATM    9  O   UNL     1      -7.079   6.272  66.768  1.00  0.00    -0.069 OA 
HETATM   10  C   UNL     1      -6.036   6.964  66.086  1.00  0.00    -0.035 C  
ENDBRANCH   4   9
BRANCH   7  11
HETATM   11  C   UNL     1      -9.195   9.606  69.837  1.00  0.00    -0.255 C  
BRANCH  11  12
HETATM   12  C   UNL     1      -8.570   9.031  71.094  1.00  0.00    -0.190 A  
HETATM   13  N   UNL     1      -7.269   9.390  71.288  1.00  0.00    -0.326 NA 
HETATM   14  C   UNL     1      -6.607   8.818  72.308  1.00  0.00    -0.018 A  
HETATM   15  C   UNL     1      -7.177   7.902  73.167  1.00  0.00    -0.121 A  
HETATM   16  C   UNL     1      -8.510   7.529  72.966  1.00  0.00    -0.172 A  
HETATM   17  C   UNL     1      -9.104   6.569  73.798  1.00  0.00    -0.152 A  
HETATM   18  C   UNL     1     -10.415   6.105  73.591  1.00  0.00    -0.276 A  
HETATM   19  C   UNL     1      -9.249   8.096  71.918  1.00  0.00    -0.243 A  
HETATM   20  C   UNL     1     -11.178   6.677  72.571  1.00  0.00    -0.266 A  
HETATM   21  C   UNL     1     -10.588   7.662  71.756  1.00  0.00    -0.250 A  
BRANCH  18  22
HETATM   22  O   UNL     1     -10.941   5.116  74.387  1.00  0.00    -0.256 OA 
HETATM   23  C   UNL     1     -10.575   3.778  74.038  1.00  0.00    -0.212 C  
ENDBRANCH  18  22
BRANCH  20  24
HETATM   24  O   UNL     1     -12.451   6.397  72.158  1.00  0.00    -0.291 OA 
HETATM   25  C   UNL     1     -13.069   7.100  71.095  1.00  0.00    -0.228 C  
ENDBRANCH  20  24
ENDBRANCH  11  12
ENDBRANCH   7  11
ENDBRANCH   2   3
TORSDOF 6
ENDMDL
MODEL      183
REMARK 921   NORMALIZED FREE ENERGY PREDICTED BY IDOCK:   -3.81 KCAL/MOL
REMARK 922        TOTAL FREE ENERGY PREDICTED BY IDOCK:   -5.95 KCAL/MOL
REMARK 923 INTER-LIGAND FREE ENERGY PREDICTED BY IDOCK:   -5.29 KCAL/MOL
REMARK 924 INTRA-LIGAND FREE ENERGY PREDICTED BY IDOCK:   -0.66 KCAL/MOL
REMARK 927      BINDING AFFINITY PREDICTED BY RF-SCORE:    0.00 PKD
ROOT
HETATM    1  C   UNL     1      -9.709  17.010  68.169  1.00  0.00    -0.268 C  
HETATM    2  O   UNL     1     -10.694  16.293  67.428  1.00  0.00    -0.319 OA 
ENDROOT
BRANCH   2   3
HETATM    3  C   UNL     1     -10.503  14.937  67.333  1.00  0.00    -0.255 A  
HETATM    4  C   UNL     1     -10.342  14.406  66.041  1.00  0.00    -0.309 A  
HETATM    5  C   UNL     1     -10.546  14.072  68.428  1.00  0.00    -0.259 A  
HETATM    6  C   UNL     1     -10.206  13.020  65.882  1.00  0.00    -0.298 A  
HETATM    7  C   UNL     1     -10.315  12.145  66.978  1.00  0.00    -0.232 A  
HETATM    8  C   UNL     1     -10.455  12.690  68.258  1.00  0.00    -0.249 A  
BRANCH   4   9
HETATM    9  O   UNL     1     -10.343  15.307  65.004  1.00  0.00    -0.388 OA 
HETATM   10  C   UNL     1     -11.610  15.698  64.480  1.00  0.00    -0.262 C  
ENDBRANCH   4   9
BRANCH   7  11
HETATM   11  C   UNL     1     -10.282  10.642  66.804  1.00  0.00    -0.284 C  
BRANCH  11  12
HETATM   12  C   UNL     1      -9.090   9.970  67.457  1.00  0.00    -0.134 A  
HETATM   13  N   UNL     1      -7.882  10.366  66.964  1.00  0.00    -0.110 NA 
HETATM   14  C   UNL     1      -6.785   9.722  67.399  1.00  0.00    -0.074 A  
HETATM   15  C   UNL     1      -6.821   8.696  68.320  1.00  0.00    -0.066 A  
HETATM   16  C   UNL     1      -8.060   8.285  68.823  1.00  0.00    -0.115 A  
HETATM   17  C   UNL     1      -8.131   7.217  69.729  1.00  0.00    -0.129 A  
HETATM   18  C   UNL     1      -9.355   6.717  70.205  1.00  0.00    -0.159 A  
HETATM   19  C   UNL     1      -9.236   8.923  68.405  1.00  0.00    -0.140 A  
HETATM   20  C   UNL     1     -10.536   7.356  69.824  1.00  0.00    -0.236 A  
HETATM   21  C   UNL     1     -10.460   8.447  68.937  1.00  0.00    -0.208 A  
BRANCH  18  22
HETATM   22  O   UNL     1      -9.389   5.627  71.041  1.00  0.00    -0.150 OA 
HETATM   23  C   UNL     1      -8.161   4.904  71.169  1.00  0.00    -0.109 C  
ENDBRANCH  18  22
BRANCH  20  24
HETATM   24  O   UNL     1     -11.838   7.062  70.128  1.00  0.00    -0.241 OA 
HETATM   25  C   UNL     1     -12.499   7.636  71.240  1.00  0.00    -0.298 C  
ENDBRANCH  20  24
ENDBRANCH  11  12
ENDBRANCH   7  11
ENDBRANCH   2   3
TORSDOF 6
ENDMDL
MODEL      184
REMARK 921   NORMALIZED FREE ENERGY PREDICTED BY IDOCK:   -3.79 KCAL/MOL
REMARK 922        TOTAL FREE ENERGY PREDICTED BY IDOCK:   -5.92 KCAL/MOL
REMARK 923 INTER-LIGAND FREE ENERGY PREDICTED BY IDOCK:   -4.98 KCAL/MOL
REMARK 924 INTRA-LIGAND FREE ENERGY PREDICTED BY IDOCK:   -0.94 KCAL/MOL
REMARK 927      BINDING AFFINITY PREDICTED BY RF-SCORE:    0.00 PKD
ROOT
HETATM    1  C   UNL     1     -13.532  12.579  72.122  1.00  0.00    -0.422 C  
HETATM    2  O   UNL     1     -13.409  11.203  71.767  1.00  0.00    -0.384 OA 
ENDROOT
BRANCH   2   3
HETATM    3  C   UNL     1     -12.378  10.894  70.917  1.00  0.00    -0.400 A  
HETATM    4  C   UNL     1     -11.684   9.696  71.166  1.00  0.00    -0.372 A  
HETATM    5  C   UNL     1     -11.942  11.737  69.892  1.00  0.00    -0.405 A  
HETATM    6  C   UNL     1     -10.582   9.364  70.365  1.00  0.00    -0.316 A  
HETATM    7  C   UNL     1     -10.104  10.244  69.377  1.00  0.00    -0.255 A  
HETATM    8  C   UNL     1     -10.818  11.420  69.129  1.00  0.00    -0.260 A  
BRANCH   4   9
HETATM    9  O   UNL     1     -12.141   8.929  72.210  1.00  0.00    -0.358 OA 
HETATM   10  C   UNL     1     -11.215   8.028  72.813  1.00  0.00    -0.382 C  
ENDBRANCH   4   9
BRANCH   7  11
HETATM   11  C   UNL     1      -8.851   9.946  68.584  1.00  0.00    -0.128 C  
BRANCH  11  12
HETATM   12  C   UNL     1      -8.757   8.514  68.091  1.00  0.00    -0.142 A  
HETATM   13  N   UNL     1      -9.433   8.275  66.931  1.00  0.00    -0.172 NA 
HETATM   14  C   UNL     1      -9.505   7.004  66.499  1.00  0.00    -0.150 A  
HETATM   15  C   UNL     1      -8.926   5.942  67.161  1.00  0.00    -0.113 A  
HETATM   16  C   UNL     1      -8.237   6.185  68.353  1.00  0.00    -0.115 A  
HETATM   17  C   UNL     1      -7.673   5.119  69.069  1.00  0.00    -0.081 A  
HETATM   18  C   UNL     1      -7.037   5.301  70.309  1.00  0.00    -0.057 A  
HETATM   19  C   UNL     1      -8.128   7.492  68.849  1.00  0.00    -0.127 A  
HETATM   20  C   UNL     1      -6.892   6.598  70.807  1.00  0.00    -0.063 A  
HETATM   21  C   UNL     1      -7.434   7.669  70.071  1.00  0.00    -0.082 A  
BRANCH  18  22
HETATM   22  O   UNL     1      -6.554   4.224  71.013  1.00  0.00    -0.028 OA 
HETATM   23  C   UNL     1      -7.421   3.704  72.024  1.00  0.00    -0.057 C  
ENDBRANCH  18  22
BRANCH  20  24
HETATM   24  O   UNL     1      -6.338   7.038  71.977  1.00  0.00    -0.044 OA 
HETATM   25  C   UNL     1      -7.129   7.496  73.059  1.00  0.00    -0.072 C  
ENDBRANCH  20  24
ENDBRANCH  11  12
ENDBRANCH   7  11
ENDBRANCH   2   3
TORSDOF 6
ENDMDL
MODEL      185
REMARK 921   NORMALIZED FREE ENERGY PREDICTED BY IDOCK:   -3.77 KCAL/MOL
REMARK 922        TOTAL FREE ENERGY PREDICTED BY IDOCK:   -5.90 KCAL/MOL
REMARK 923 INTER-LIGAND FREE ENERGY PREDICTED BY IDOCK:   -5.99 KCAL/MOL
REMARK 924 INTRA-LIGAND FREE ENERGY PREDICTED BY IDOCK:    0.09 KCAL/MOL
REMARK 927      BINDING AFFINITY PREDICTED BY RF-SCORE:    0.00 PKD
ROOT
HETATM    1  C   UNL     1      -9.741   4.129  73.465  1.00  0.00    -0.116 C  
HETATM    2  O   UNL     1      -9.393   3.711  72.146  1.00  0.00    -0.113 OA 
ENDROOT
BRANCH   2   3
HETATM    3  C   UNL     1      -9.545   4.652  71.159  1.00  0.00    -0.171 A  
HETATM    4  C   UNL     1      -8.369   5.176  70.593  1.00  0.00    -0.111 A  
HETATM    5  C   UNL     1     -10.782   5.163  70.762  1.00  0.00    -0.132 A  
HETATM    6  C   UNL     1      -8.466   6.186  69.626  1.00  0.00    -0.127 A  
HETATM    7  C   UNL     1      -9.708   6.745  69.274  1.00  0.00    -0.153 A  
HETATM    8  C   UNL     1     -10.868   6.199  69.831  1.00  0.00    -0.420 A  
BRANCH   4   9
HETATM    9  O   UNL     1      -7.183   4.655  71.052  1.00  0.00    -0.045 OA 
HETATM   10  C   UNL     1      -5.995   5.024  70.356  1.00  0.00    -0.018 C  
ENDBRANCH   4   9
BRANCH   7  11
HETATM   11  C   UNL     1      -9.814   7.910  68.315  1.00  0.00    -0.187 C  
BRANCH  11  12
HETATM   12  C   UNL     1     -10.474   9.141  68.907  1.00  0.00    -0.218 A  
HETATM   13  N   UNL     1     -10.963   8.964  70.168  1.00  0.00    -0.238 NA 
HETATM   14  C   UNL     1     -11.677   9.967  70.709  1.00  0.00    -0.341 A  
HETATM   15  C   UNL     1     -11.927  11.158  70.062  1.00  0.00    -0.447 A  
HETATM   16  C   UNL     1     -11.430  11.339  68.767  1.00  0.00    -0.359 A  
HETATM   17  C   UNL     1     -11.704  12.524  68.068  1.00  0.00    -0.410 A  
HETATM   18  C   UNL     1     -11.292  12.723  66.739  1.00  0.00    -0.313 A  
HETATM   19  C   UNL     1     -10.678  10.327  68.154  1.00  0.00    -0.287 A  
HETATM   20  C   UNL     1     -10.517  11.741  66.121  1.00  0.00    -0.245 A  
HETATM   21  C   UNL     1     -10.220  10.564  66.835  1.00  0.00    -0.280 A  
BRANCH  18  22
HETATM   22  O   UNL     1     -11.635  13.871  66.065  1.00  0.00    -0.329 OA 
HETATM   23  C   UNL     1     -12.480  13.693  64.926  1.00  0.00    -0.384 C  
ENDBRANCH  18  22
BRANCH  20  24
HETATM   24  O   UNL     1     -10.013  11.683  64.850  1.00  0.00    -0.243 OA 
HETATM   25  C   UNL     1      -9.549  10.474  64.279  1.00  0.00    -0.307 C  
ENDBRANCH  20  24
ENDBRANCH  11  12
ENDBRANCH   7  11
ENDBRANCH   2   3
TORSDOF 6
ENDMDL
MODEL      186
REMARK 921   NORMALIZED FREE ENERGY PREDICTED BY IDOCK:   -3.77 KCAL/MOL
REMARK 922        TOTAL FREE ENERGY PREDICTED BY IDOCK:   -5.90 KCAL/MOL
REMARK 923 INTER-LIGAND FREE ENERGY PREDICTED BY IDOCK:   -5.38 KCAL/MOL
REMARK 924 INTRA-LIGAND FREE ENERGY PREDICTED BY IDOCK:   -0.52 KCAL/MOL
REMARK 927      BINDING AFFINITY PREDICTED BY RF-SCORE:    0.00 PKD
ROOT
HETATM    1  C   UNL     1      -8.871   6.534  66.034  1.00  0.00    -0.143 C  
HETATM    2  O   UNL     1      -9.552   7.260  67.056  1.00  0.00    -0.148 OA 
ENDROOT
BRANCH   2   3
HETATM    3  C   UNL     1      -9.158   8.562  67.231  1.00  0.00    -0.133 A  
HETATM    4  C   UNL     1      -8.968   8.998  68.554  1.00  0.00    -0.133 A  
HETATM    5  C   UNL     1      -9.024   9.476  66.183  1.00  0.00    -0.191 A  
HETATM    6  C   UNL     1      -8.626  10.337  68.792  1.00  0.00    -0.139 A  
HETATM    7  C   UNL     1      -8.555  11.271  67.742  1.00  0.00    -0.126 A  
HETATM    8  C   UNL     1      -8.727  10.816  66.431  1.00  0.00    -0.163 A  
BRANCH   4   9
HETATM    9  O   UNL     1      -9.149   8.059  69.540  1.00  0.00    -0.151 OA 
HETATM   10  C   UNL     1      -9.543   8.531  70.826  1.00  0.00    -0.180 C  
ENDBRANCH   4   9
BRANCH   7  11
HETATM   11  C   UNL     1      -8.297  12.739  67.999  1.00  0.00    -0.173 C  
BRANCH  11  12
HETATM   12  C   UNL     1      -9.556  13.572  68.146  1.00  0.00    -0.215 A  
HETATM   13  N   UNL     1     -10.693  12.842  68.335  1.00  0.00    -0.248 NA 
HETATM   14  C   UNL     1     -11.865  13.500  68.344  1.00  0.00    -0.373 A  
HETATM   15  C   UNL     1     -11.973  14.865  68.183  1.00  0.00    -0.234 A  
HETATM   16  C   UNL     1     -10.808  15.614  67.985  1.00  0.00    -0.308 A  
HETATM   17  C   UNL     1     -10.890  16.999  67.778  1.00  0.00    -0.269 A  
HETATM   18  C   UNL     1      -9.758  17.784  67.499  1.00  0.00    -0.284 A  
HETATM   19  C   UNL     1      -9.558  14.980  67.968  1.00  0.00    -0.208 A  
HETATM   20  C   UNL     1      -8.500  17.177  67.506  1.00  0.00    -0.198 A  
HETATM   21  C   UNL     1      -8.419  15.792  67.744  1.00  0.00    -0.162 A  
BRANCH  18  22
HETATM   22  O   UNL     1      -9.885  19.127  67.236  1.00  0.00    -0.314 OA 
HETATM   23  C   UNL     1     -10.266  19.944  68.346  1.00  0.00    -0.433 C  
ENDBRANCH  18  22
BRANCH  20  24
HETATM   24  O   UNL     1      -7.264  17.704  67.253  1.00  0.00    -0.175 OA 
HETATM   25  C   UNL     1      -6.785  17.902  65.935  1.00  0.00    -0.277 C  
ENDBRANCH  20  24
ENDBRANCH  11  12
ENDBRANCH   7  11
ENDBRANCH   2   3
TORSDOF 6
ENDMDL
MODEL      187
REMARK 921   NORMALIZED FREE ENERGY PREDICTED BY IDOCK:   -3.76 KCAL/MOL
REMARK 922        TOTAL FREE ENERGY PREDICTED BY IDOCK:   -5.89 KCAL/MOL
REMARK 923 INTER-LIGAND FREE ENERGY PREDICTED BY IDOCK:   -4.94 KCAL/MOL
REMARK 924 INTRA-LIGAND FREE ENERGY PREDICTED BY IDOCK:   -0.95 KCAL/MOL
REMARK 927      BINDING AFFINITY PREDICTED BY RF-SCORE:    0.00 PKD
ROOT
HETATM    1  C   UNL     1      -9.813   3.743  64.724  1.00  0.00    -0.191 C  
HETATM    2  O   UNL     1      -8.974   4.880  64.531  1.00  0.00    -0.151 OA 
ENDROOT
BRANCH   2   3
HETATM    3  C   UNL     1      -8.686   5.610  65.656  1.00  0.00    -0.151 A  
HETATM    4  C   UNL     1      -7.354   5.591  66.105  1.00  0.00    -0.078 A  
HETATM    5  C   UNL     1      -9.651   6.286  66.407  1.00  0.00    -0.159 A  
HETATM    6  C   UNL     1      -7.018   6.269  67.286  1.00  0.00    -0.072 A  
HETATM    7  C   UNL     1      -8.002   6.893  68.074  1.00  0.00    -0.115 A  
HETATM    8  C   UNL     1      -9.317   6.921  67.603  1.00  0.00    -0.124 A  
BRANCH   4   9
HETATM    9  O   UNL     1      -6.461   4.879  65.341  1.00  0.00    -0.034 OA 
HETATM   10  C   UNL     1      -5.453   5.619  64.656  1.00  0.00    -0.013 C  
ENDBRANCH   4   9
BRANCH   7  11
HETATM   11  C   UNL     1      -7.668   7.531  69.405  1.00  0.00    -0.111 C  
BRANCH  11  12
HETATM   12  C   UNL     1      -8.565   7.089  70.545  1.00  0.00    -0.141 A  
HETATM   13  N   UNL     1      -8.298   5.839  71.018  1.00  0.00    -0.121 NA 
HETATM   14  C   UNL     1      -9.131   5.325  71.939  1.00  0.00    -0.138 A  
HETATM   15  C   UNL     1     -10.228   5.999  72.431  1.00  0.00    -0.216 A  
HETATM   16  C   UNL     1     -10.507   7.280  71.944  1.00  0.00    -0.224 A  
HETATM   17  C   UNL     1     -11.640   7.973  72.396  1.00  0.00    -0.450 A  
HETATM   18  C   UNL     1     -12.005   9.229  71.883  1.00  0.00    -0.363 A  
HETATM   19  C   UNL     1      -9.670   7.865  70.984  1.00  0.00    -0.178 A  
HETATM   20  C   UNL     1     -11.170   9.843  70.947  1.00  0.00    -0.360 A  
HETATM   21  C   UNL     1     -10.018   9.157  70.517  1.00  0.00    -0.288 A  
BRANCH  18  22
HETATM   22  O   UNL     1     -13.158   9.849  72.303  1.00  0.00    -0.418 OA 
HETATM   23  C   UNL     1     -14.352   9.068  72.212  1.00  0.00    -0.273 C  
ENDBRANCH  18  22
BRANCH  20  24
HETATM   24  O   UNL     1     -11.304  11.035  70.290  1.00  0.00    -0.284 OA 
HETATM   25  C   UNL     1     -12.142  11.180  69.158  1.00  0.00    -0.283 C  
ENDBRANCH  20  24
ENDBRANCH  11  12
ENDBRANCH   7  11
ENDBRANCH   2   3
TORSDOF 6
ENDMDL
MODEL      188
REMARK 921   NORMALIZED FREE ENERGY PREDICTED BY IDOCK:   -3.74 KCAL/MOL
REMARK 922        TOTAL FREE ENERGY PREDICTED BY IDOCK:   -5.86 KCAL/MOL
REMARK 923 INTER-LIGAND FREE ENERGY PREDICTED BY IDOCK:   -5.41 KCAL/MOL
REMARK 924 INTRA-LIGAND FREE ENERGY PREDICTED BY IDOCK:   -0.45 KCAL/MOL
REMARK 927      BINDING AFFINITY PREDICTED BY RF-SCORE:    0.00 PKD
ROOT
HETATM    1  C   UNL     1      -9.323   5.921  65.984  1.00  0.00    -0.097 C  
HETATM    2  O   UNL     1      -8.294   6.772  65.484  1.00  0.00    -0.141 OA 
ENDROOT
BRANCH   2   3
HETATM    3  C   UNL     1      -8.353   8.083  65.886  1.00  0.00    -0.134 A  
HETATM    4  C   UNL     1      -8.219   9.062  64.887  1.00  0.00    -0.153 A  
HETATM    5  C   UNL     1      -8.450   8.478  67.222  1.00  0.00    -0.123 A  
HETATM    6  C   UNL     1      -8.208  10.416  65.251  1.00  0.00    -0.162 A  
HETATM    7  C   UNL     1      -8.241  10.810  66.601  1.00  0.00    -0.140 A  
HETATM    8  C   UNL     1      -8.395   9.825  67.580  1.00  0.00    -0.114 A  
BRANCH   4   9
HETATM    9  O   UNL     1      -8.091   8.607  63.596  1.00  0.00    -0.154 OA 
HETATM   10  C   UNL     1      -8.170   9.574  62.552  1.00  0.00    -0.142 C  
ENDBRANCH   4   9
BRANCH   7  11
HETATM   11  C   UNL     1      -8.118  12.261  67.010  1.00  0.00    -0.141 C  
BRANCH  11  12
HETATM   12  C   UNL     1      -9.448  12.966  67.197  1.00  0.00    -0.229 A  
HETATM   13  N   UNL     1     -10.530  12.239  66.797  1.00  0.00    -0.216 NA 
HETATM   14  C   UNL     1     -11.731  12.843  66.810  1.00  0.00    -0.383 A  
HETATM   15  C   UNL     1     -11.921  14.148  67.212  1.00  0.00    -0.449 A  
HETATM   16  C   UNL     1     -10.811  14.897  67.618  1.00  0.00    -0.286 A  
HETATM   17  C   UNL     1     -10.968  16.240  67.993  1.00  0.00    -0.328 A  
HETATM   18  C   UNL     1      -9.876  17.056  68.335  1.00  0.00    -0.283 A  
HETATM   19  C   UNL     1      -9.535  14.316  67.626  1.00  0.00    -0.211 A  
HETATM   20  C   UNL     1      -8.601  16.489  68.378  1.00  0.00    -0.213 A  
HETATM   21  C   UNL     1      -8.450  15.134  68.028  1.00  0.00    -0.148 A  
BRANCH  18  22
HETATM   22  O   UNL     1     -10.062  18.384  68.634  1.00  0.00    -0.369 OA 
HETATM   23  C   UNL     1     -10.849  19.127  67.699  1.00  0.00    -0.369 C  
ENDBRANCH  18  22
BRANCH  20  24
HETATM   24  O   UNL     1      -7.390  17.060  68.658  1.00  0.00    -0.205 OA 
HETATM   25  C   UNL     1      -6.472  16.474  69.563  1.00  0.00    -0.223 C  
ENDBRANCH  20  24
ENDBRANCH  11  12
ENDBRANCH   7  11
ENDBRANCH   2   3
TORSDOF 6
ENDMDL
MODEL      189
REMARK 921   NORMALIZED FREE ENERGY PREDICTED BY IDOCK:   -3.69 KCAL/MOL
REMARK 922        TOTAL FREE ENERGY PREDICTED BY IDOCK:   -5.79 KCAL/MOL
REMARK 923 INTER-LIGAND FREE ENERGY PREDICTED BY IDOCK:   -5.17 KCAL/MOL
REMARK 924 INTRA-LIGAND FREE ENERGY PREDICTED BY IDOCK:   -0.62 KCAL/MOL
REMARK 927      BINDING AFFINITY PREDICTED BY RF-SCORE:    0.00 PKD
ROOT
HETATM    1  C   UNL     1      -6.621  16.417  69.672  1.00  0.00    -0.180 C  
HETATM    2  O   UNL     1      -7.854  16.807  69.070  1.00  0.00    -0.240 OA 
ENDROOT
BRANCH   2   3
HETATM    3  C   UNL     1      -8.805  15.824  68.960  1.00  0.00    -0.236 A  
HETATM    4  C   UNL     1      -9.029  15.296  67.677  1.00  0.00    -0.179 A  
HETATM    5  C   UNL     1      -9.601  15.397  70.025  1.00  0.00     0.014 A  
HETATM    6  C   UNL     1     -10.034  14.334  67.497  1.00  0.00    -0.235 A  
HETATM    7  C   UNL     1     -10.877  13.952  68.556  1.00  0.00    -0.274 A  
HETATM    8  C   UNL     1     -10.628  14.472  69.830  1.00  0.00    -0.013 A  
BRANCH   4   9
HETATM    9  O   UNL     1      -8.237  15.784  66.666  1.00  0.00    -0.251 OA 
HETATM   10  C   UNL     1      -8.728  16.905  65.935  1.00  0.00    -0.023 C  
ENDBRANCH   4   9
BRANCH   7  11
HETATM   11  C   UNL     1     -12.034  13.000  68.349  1.00  0.00    -0.309 C  
BRANCH  11  12
HETATM   12  C   UNL     1     -12.168  11.945  69.430  1.00  0.00    -0.125 A  
HETATM   13  N   UNL     1     -12.848  12.359  70.538  1.00  0.00     0.063 NA 
HETATM   14  C   UNL     1     -12.897  11.526  71.591  1.00  0.00    -0.370 A  
HETATM   15  C   UNL     1     -12.307  10.280  71.603  1.00  0.00    -0.445 A  
HETATM   16  C   UNL     1     -11.605   9.855  70.470  1.00  0.00    -0.386 A  
HETATM   17  C   UNL     1     -10.960   8.610  70.468  1.00  0.00    -0.266 A  
HETATM   18  C   UNL     1     -10.180   8.170  69.385  1.00  0.00    -0.211 A  
HETATM   19  C   UNL     1     -11.524  10.684  69.341  1.00  0.00    -0.356 A  
HETATM   20  C   UNL     1     -10.110   8.967  68.240  1.00  0.00    -0.187 A  
HETATM   21  C   UNL     1     -10.782  10.203  68.234  1.00  0.00    -0.277 A  
BRANCH  18  22
HETATM   22  O   UNL     1      -9.509   6.972  69.446  1.00  0.00    -0.147 OA 
HETATM   23  C   UNL     1      -8.117   7.055  69.764  1.00  0.00    -0.126 C  
ENDBRANCH  18  22
BRANCH  20  24
HETATM   24  O   UNL     1      -9.417   8.780  67.075  1.00  0.00    -0.151 OA 
HETATM   25  C   UNL     1      -9.851   9.330  65.845  1.00  0.00    -0.265 C  
ENDBRANCH  20  24
ENDBRANCH  11  12
ENDBRANCH   7  11
ENDBRANCH   2   3
TORSDOF 6
ENDMDL
MODEL      190
REMARK 921   NORMALIZED FREE ENERGY PREDICTED BY IDOCK:   -3.69 KCAL/MOL
REMARK 922        TOTAL FREE ENERGY PREDICTED BY IDOCK:   -5.78 KCAL/MOL
REMARK 923 INTER-LIGAND FREE ENERGY PREDICTED BY IDOCK:   -4.82 KCAL/MOL
REMARK 924 INTRA-LIGAND FREE ENERGY PREDICTED BY IDOCK:   -0.96 KCAL/MOL
REMARK 927      BINDING AFFINITY PREDICTED BY RF-SCORE:    0.00 PKD
ROOT
HETATM    1  C   UNL     1      -6.683  14.435  67.618  1.00  0.00    -0.169 C  
HETATM    2  O   UNL     1      -7.807  13.607  67.324  1.00  0.00    -0.159 OA 
ENDROOT
BRANCH   2   3
HETATM    3  C   UNL     1      -7.581  12.254  67.363  1.00  0.00    -0.159 A  
HETATM    4  C   UNL     1      -8.531  11.432  66.732  1.00  0.00    -0.165 A  
HETATM    5  C   UNL     1      -6.522  11.667  68.059  1.00  0.00    -0.055 A  
HETATM    6  C   UNL     1      -8.382  10.039  66.796  1.00  0.00    -0.125 A  
HETATM    7  C   UNL     1      -7.353   9.449  67.551  1.00  0.00    -0.084 A  
HETATM    8  C   UNL     1      -6.406  10.280  68.155  1.00  0.00    -0.056 A  
BRANCH   4   9
HETATM    9  O   UNL     1      -9.568  12.071  66.095  1.00  0.00    -0.232 OA 
HETATM   10  C   UNL     1     -10.030  11.505  64.871  1.00  0.00    -0.259 C  
ENDBRANCH   4   9
BRANCH   7  11
HETATM   11  C   UNL     1      -7.249   7.949  67.719  1.00  0.00    -0.091 C  
BRANCH  11  12
HETATM   12  C   UNL     1      -8.588   7.245  67.834  1.00  0.00    -0.120 A  
HETATM   13  N   UNL     1      -9.012   6.653  66.681  1.00  0.00    -0.137 NA 
HETATM   14  C   UNL     1     -10.246   6.122  66.666  1.00  0.00    -0.178 A  
HETATM   15  C   UNL     1     -11.093   6.137  67.754  1.00  0.00    -0.306 A  
HETATM   16  C   UNL     1     -10.662   6.747  68.936  1.00  0.00    -0.276 A  
HETATM   17  C   UNL     1     -11.517   6.814  70.046  1.00  0.00    -0.390 A  
HETATM   18  C   UNL     1     -11.159   7.482  71.230  1.00  0.00    -0.246 A  
HETATM   19  C   UNL     1      -9.382   7.316  69.008  1.00  0.00    -0.148 A  
HETATM   20  C   UNL     1      -9.879   8.030  71.332  1.00  0.00    -0.171 A  
HETATM   21  C   UNL     1      -9.012   7.936  70.227  1.00  0.00    -0.151 A  
BRANCH  18  22
HETATM   22  O   UNL     1     -12.049   7.584  72.273  1.00  0.00    -0.287 OA 
HETATM   23  C   UNL     1     -12.960   8.684  72.207  1.00  0.00    -0.381 C  
ENDBRANCH  18  22
BRANCH  20  24
HETATM   24  O   UNL     1      -9.299   8.735  72.351  1.00  0.00    -0.331 OA 
HETATM   25  C   UNL     1      -8.123   8.289  73.001  1.00  0.00    -0.149 C  
ENDBRANCH  20  24
ENDBRANCH  11  12
ENDBRANCH   7  11
ENDBRANCH   2   3
TORSDOF 6
ENDMDL
MODEL      191
REMARK 921   NORMALIZED FREE ENERGY PREDICTED BY IDOCK:   -3.68 KCAL/MOL
REMARK 922        TOTAL FREE ENERGY PREDICTED BY IDOCK:   -5.78 KCAL/MOL
REMARK 923 INTER-LIGAND FREE ENERGY PREDICTED BY IDOCK:   -5.05 KCAL/MOL
REMARK 924 INTRA-LIGAND FREE ENERGY PREDICTED BY IDOCK:   -0.73 KCAL/MOL
REMARK 927      BINDING AFFINITY PREDICTED BY RF-SCORE:    0.00 PKD
ROOT
HETATM    1  C   UNL     1     -11.477  11.471  67.534  1.00  0.00    -0.282 C  
HETATM    2  O   UNL     1     -12.035  11.655  68.834  1.00  0.00    -0.328 OA 
ENDROOT
BRANCH   2   3
HETATM    3  C   UNL     1     -11.804  10.646  69.734  1.00  0.00    -0.304 A  
HETATM    4  C   UNL     1     -12.488  10.716  70.960  1.00  0.00    -0.413 A  
HETATM    5  C   UNL     1     -10.876   9.623  69.526  1.00  0.00    -0.253 A  
HETATM    6  C   UNL     1     -12.240   9.744  71.940  1.00  0.00    -0.378 A  
HETATM    7  C   UNL     1     -11.259   8.753  71.755  1.00  0.00    -0.410 A  
HETATM    8  C   UNL     1     -10.603   8.686  70.522  1.00  0.00    -0.248 A  
BRANCH   4   9
HETATM    9  O   UNL     1     -13.361  11.766  71.115  1.00  0.00    -0.018 OA 
HETATM   10  C   UNL     1     -12.912  12.879  71.884  1.00  0.00    -0.301 C  
ENDBRANCH   4   9
BRANCH   7  11
HETATM   11  C   UNL     1     -10.905   7.769  72.848  1.00  0.00    -0.453 C  
BRANCH  11  12
HETATM   12  C   UNL     1      -9.425   7.452  72.940  1.00  0.00    -0.170 A  
HETATM   13  N   UNL     1      -8.632   8.538  73.168  1.00  0.00    -0.383 NA 
HETATM   14  C   UNL     1      -7.300   8.359  73.133  1.00  0.00    -0.056 A  
HETATM   15  C   UNL     1      -6.702   7.141  72.889  1.00  0.00    -0.064 A  
HETATM   16  C   UNL     1      -7.514   6.027  72.651  1.00  0.00    -0.095 A  
HETATM   17  C   UNL     1      -6.935   4.783  72.360  1.00  0.00    -0.070 A  
HETATM   18  C   UNL     1      -7.706   3.653  72.038  1.00  0.00    -0.059 A  
HETATM   19  C   UNL     1      -8.911   6.156  72.677  1.00  0.00    -0.123 A  
HETATM   20  C   UNL     1      -9.098   3.752  72.087  1.00  0.00    -0.115 A  
HETATM   21  C   UNL     1      -9.677   4.995  72.408  1.00  0.00    -0.190 A  
BRANCH  18  22
HETATM   22  O   UNL     1      -7.101   2.468  71.695  1.00  0.00    -0.030 OA 
HETATM   23  C   UNL     1      -5.720   2.557  71.332  1.00  0.00    -0.013 C  
ENDBRANCH  18  22
BRANCH  20  24
HETATM   24  O   UNL     1     -10.060   2.821  71.807  1.00  0.00    -0.149 OA 
HETATM   25  C   UNL     1     -10.610   1.983  72.806  1.00  0.00    -0.146 C  
ENDBRANCH  20  24
ENDBRANCH  11  12
ENDBRANCH   7  11
ENDBRANCH   2   3
TORSDOF 6
ENDMDL
MODEL      192
REMARK 921   NORMALIZED FREE ENERGY PREDICTED BY IDOCK:   -3.66 KCAL/MOL
REMARK 922        TOTAL FREE ENERGY PREDICTED BY IDOCK:   -5.75 KCAL/MOL
REMARK 923 INTER-LIGAND FREE ENERGY PREDICTED BY IDOCK:   -4.87 KCAL/MOL
REMARK 924 INTRA-LIGAND FREE ENERGY PREDICTED BY IDOCK:   -0.88 KCAL/MOL
REMARK 927      BINDING AFFINITY PREDICTED BY RF-SCORE:    0.00 PKD
ROOT
HETATM    1  C   UNL     1      -9.886  10.225  64.140  1.00  0.00    -0.250 C  
HETATM    2  O   UNL     1      -8.869   9.772  65.031  1.00  0.00    -0.164 OA 
ENDROOT
BRANCH   2   3
HETATM    3  C   UNL     1      -9.278   8.916  66.022  1.00  0.00    -0.228 A  
HETATM    4  C   UNL     1      -8.875   7.573  65.910  1.00  0.00    -0.126 A  
HETATM    5  C   UNL     1     -10.128   9.291  67.064  1.00  0.00    -0.313 A  
HETATM    6  C   UNL     1      -9.317   6.643  66.862  1.00  0.00    -0.171 A  
HETATM    7  C   UNL     1     -10.225   7.009  67.873  1.00  0.00    -0.224 A  
HETATM    8  C   UNL     1     -10.600   8.351  67.981  1.00  0.00    -0.191 A  
BRANCH   4   9
HETATM    9  O   UNL     1      -8.067   7.263  64.842  1.00  0.00    -0.125 OA 
HETATM   10  C   UNL     1      -7.372   6.020  64.890  1.00  0.00    -0.073 C  
ENDBRANCH   4   9
BRANCH   7  11
HETATM   11  C   UNL     1     -10.795   5.991  68.835  1.00  0.00    -0.400 C  
BRANCH  11  12
HETATM   12  C   UNL     1     -11.013   6.521  70.240  1.00  0.00    -0.310 A  
HETATM   13  N   UNL     1     -12.275   6.979  70.478  1.00  0.00    -0.249 NA 
HETATM   14  C   UNL     1     -12.512   7.583  71.655  1.00  0.00    -0.342 A  
HETATM   15  C   UNL     1     -11.551   7.753  72.629  1.00  0.00    -0.398 A  
HETATM   16  C   UNL     1     -10.254   7.289  72.385  1.00  0.00    -0.229 A  
HETATM   17  C   UNL     1      -9.245   7.485  73.340  1.00  0.00    -0.280 A  
HETATM   18  C   UNL     1      -7.912   7.106  73.111  1.00  0.00    -0.097 A  
HETATM   19  C   UNL     1      -9.952   6.649  71.174  1.00  0.00    -0.198 A  
HETATM   20  C   UNL     1      -7.595   6.441  71.924  1.00  0.00    -0.095 A  
HETATM   21  C   UNL     1      -8.616   6.220  70.980  1.00  0.00    -0.132 A  
BRANCH  18  22
HETATM   22  O   UNL     1      -6.938   7.373  74.044  1.00  0.00    -0.085 OA 
HETATM   23  C   UNL     1      -6.926   8.704  74.564  1.00  0.00    -0.126 C  
ENDBRANCH  18  22
BRANCH  20  24
HETATM   24  O   UNL     1      -6.391   5.989  71.459  1.00  0.00    -0.045 OA 
HETATM   25  C   UNL     1      -5.747   6.577  70.343  1.00  0.00    -0.023 C  
ENDBRANCH  20  24
ENDBRANCH  11  12
ENDBRANCH   7  11
ENDBRANCH   2   3
TORSDOF 6
ENDMDL
MODEL      193
REMARK 921   NORMALIZED FREE ENERGY PREDICTED BY IDOCK:   -3.66 KCAL/MOL
REMARK 922        TOTAL FREE ENERGY PREDICTED BY IDOCK:   -5.75 KCAL/MOL
REMARK 923 INTER-LIGAND FREE ENERGY PREDICTED BY IDOCK:   -4.94 KCAL/MOL
REMARK 924 INTRA-LIGAND FREE ENERGY PREDICTED BY IDOCK:   -0.81 KCAL/MOL
REMARK 927      BINDING AFFINITY PREDICTED BY RF-SCORE:    0.00 PKD
ROOT
HETATM    1  C   UNL     1      -8.373  10.574  62.465  1.00  0.00    -0.197 C  
HETATM    2  O   UNL     1      -8.759   9.529  63.355  1.00  0.00    -0.206 OA 
ENDROOT
BRANCH   2   3
HETATM    3  C   UNL     1      -8.950   9.894  64.663  1.00  0.00    -0.222 A  
HETATM    4  C   UNL     1      -8.436   9.031  65.647  1.00  0.00    -0.150 A  
HETATM    5  C   UNL     1      -9.687  11.015  65.053  1.00  0.00    -0.303 A  
HETATM    6  C   UNL     1      -8.658   9.325  67.000  1.00  0.00    -0.128 A  
HETATM    7  C   UNL     1      -9.455  10.416  67.389  1.00  0.00    -0.170 A  
HETATM    8  C   UNL     1      -9.941  11.276  66.400  1.00  0.00    -0.252 A  
BRANCH   4   9
HETATM    9  O   UNL     1      -7.750   7.929  65.197  1.00  0.00    -0.090 OA 
HETATM   10  C   UNL     1      -8.290   6.649  65.517  1.00  0.00    -0.144 C  
ENDBRANCH   4   9
BRANCH   7  11
HETATM   11  C   UNL     1      -9.792  10.678  68.841  1.00  0.00    -0.210 C  
BRANCH  11  12
HETATM   12  C   UNL     1      -8.955   9.882  69.824  1.00  0.00    -0.221 A  
HETATM   13  N   UNL     1      -7.661  10.301  69.926  1.00  0.00    -0.163 NA 
HETATM   14  C   UNL     1      -6.822   9.567  70.677  1.00  0.00    -0.115 A  
HETATM   15  C   UNL     1      -7.205   8.427  71.351  1.00  0.00    -0.086 A  
HETATM   16  C   UNL     1      -8.531   7.994  71.244  1.00  0.00    -0.138 A  
HETATM   17  C   UNL     1      -8.939   6.815  71.885  1.00  0.00    -0.135 A  
HETATM   18  C   UNL     1     -10.238   6.297  71.747  1.00  0.00    -0.196 A  
HETATM   19  C   UNL     1      -9.449   8.722  70.475  1.00  0.00    -0.219 A  
HETATM   20  C   UNL     1     -11.176   7.022  71.009  1.00  0.00    -0.274 A  
HETATM   21  C   UNL     1     -10.771   8.220  70.390  1.00  0.00    -0.239 A  
BRANCH  18  22
HETATM   22  O   UNL     1     -10.583   5.104  72.337  1.00  0.00    -0.209 OA 
HETATM   23  C   UNL     1     -10.014   3.932  71.748  1.00  0.00    -0.163 C  
ENDBRANCH  18  22
BRANCH  20  24
HETATM   24  O   UNL     1     -12.480   6.733  70.712  1.00  0.00    -0.351 OA 
HETATM   25  C   UNL     1     -13.556   7.228  71.488  1.00  0.00    -0.356 C  
ENDBRANCH  20  24
ENDBRANCH  11  12
ENDBRANCH   7  11
ENDBRANCH   2   3
TORSDOF 6
ENDMDL
MODEL      194
REMARK 921   NORMALIZED FREE ENERGY PREDICTED BY IDOCK:   -3.63 KCAL/MOL
REMARK 922        TOTAL FREE ENERGY PREDICTED BY IDOCK:   -5.71 KCAL/MOL
REMARK 923 INTER-LIGAND FREE ENERGY PREDICTED BY IDOCK:   -5.03 KCAL/MOL
REMARK 924 INTRA-LIGAND FREE ENERGY PREDICTED BY IDOCK:   -0.69 KCAL/MOL
REMARK 927      BINDING AFFINITY PREDICTED BY RF-SCORE:    0.00 PKD
ROOT
HETATM    1  C   UNL     1     -12.660  12.392  63.553  1.00  0.00    -0.425 C  
HETATM    2  O   UNL     1     -11.574  13.013  64.239  1.00  0.00    -0.345 OA 
ENDROOT
BRANCH   2   3
HETATM    3  C   UNL     1     -10.560  12.178  64.636  1.00  0.00    -0.300 A  
HETATM    4  C   UNL     1     -10.011  12.404  65.910  1.00  0.00    -0.255 A  
HETATM    5  C   UNL     1     -10.005  11.193  63.816  1.00  0.00    -0.401 A  
HETATM    6  C   UNL     1      -8.931  11.621  66.340  1.00  0.00    -0.198 A  
HETATM    7  C   UNL     1      -8.331  10.674  65.489  1.00  0.00    -0.158 A  
HETATM    8  C   UNL     1      -8.902  10.448  64.233  1.00  0.00    -0.224 A  
BRANCH   4   9
HETATM    9  O   UNL     1     -10.580  13.411  66.653  1.00  0.00    -0.278 OA 
HETATM   10  C   UNL     1     -10.057  14.725  66.480  1.00  0.00    -0.273 C  
ENDBRANCH   4   9
BRANCH   7  11
HETATM   11  C   UNL     1      -7.096   9.903  65.901  1.00  0.00    -0.107 C  
BRANCH  11  12
HETATM   12  C   UNL     1      -7.308   8.405  66.002  1.00  0.00    -0.073 A  
HETATM   13  N   UNL     1      -6.621   7.678  65.074  1.00  0.00    -0.044 NA 
HETATM   14  C   UNL     1      -6.857   6.356  65.015  1.00  0.00    -0.047 A  
HETATM   15  C   UNL     1      -7.743   5.703  65.844  1.00  0.00    -0.095 A  
HETATM   16  C   UNL     1      -8.452   6.448  66.793  1.00  0.00    -0.112 A  
HETATM   17  C   UNL     1      -9.391   5.818  67.623  1.00  0.00    -0.108 A  
HETATM   18  C   UNL     1     -10.182   6.533  68.539  1.00  0.00    -0.172 A  
HETATM   19  C   UNL     1      -8.244   7.831  66.900  1.00  0.00    -0.116 A  
HETATM   20  C   UNL     1      -9.971   7.906  68.682  1.00  0.00    -0.191 A  
HETATM   21  C   UNL     1      -9.007   8.530  67.867  1.00  0.00    -0.139 A  
BRANCH  18  22
HETATM   22  O   UNL     1     -11.138   5.891  69.289  1.00  0.00    -0.360 OA 
HETATM   23  C   UNL     1     -10.677   5.295  70.504  1.00  0.00    -0.138 C  
ENDBRANCH  18  22
BRANCH  20  24
HETATM   24  O   UNL     1     -10.608   8.820  69.475  1.00  0.00    -0.225 OA 
HETATM   25  C   UNL     1     -10.208   9.065  70.811  1.00  0.00    -0.244 C  
ENDBRANCH  20  24
ENDBRANCH  11  12
ENDBRANCH   7  11
ENDBRANCH   2   3
TORSDOF 6
ENDMDL
MODEL      195
REMARK 921   NORMALIZED FREE ENERGY PREDICTED BY IDOCK:   -3.60 KCAL/MOL
REMARK 922        TOTAL FREE ENERGY PREDICTED BY IDOCK:   -5.67 KCAL/MOL
REMARK 923 INTER-LIGAND FREE ENERGY PREDICTED BY IDOCK:   -4.85 KCAL/MOL
REMARK 924 INTRA-LIGAND FREE ENERGY PREDICTED BY IDOCK:   -0.82 KCAL/MOL
REMARK 927      BINDING AFFINITY PREDICTED BY RF-SCORE:    0.00 PKD
ROOT
HETATM    1  C   UNL     1      -7.538  10.062  64.682  1.00  0.00    -0.143 C  
HETATM    2  O   UNL     1      -7.597  10.286  66.090  1.00  0.00    -0.112 OA 
ENDROOT
BRANCH   2   3
HETATM    3  C   UNL     1      -8.461   9.482  66.789  1.00  0.00    -0.127 A  
HETATM    4  C   UNL     1      -7.895   8.615  67.740  1.00  0.00    -0.103 A  
HETATM    5  C   UNL     1      -9.834   9.425  66.543  1.00  0.00    -0.325 A  
HETATM    6  C   UNL     1      -8.726   7.727  68.438  1.00  0.00    -0.127 A  
HETATM    7  C   UNL     1     -10.098   7.625  68.143  1.00  0.00    -0.220 A  
HETATM    8  C   UNL     1     -10.648   8.508  67.209  1.00  0.00    -0.315 A  
BRANCH   4   9
HETATM    9  O   UNL     1      -6.534   8.696  67.910  1.00  0.00    -0.056 OA 
HETATM   10  C   UNL     1      -5.867   7.534  68.396  1.00  0.00    -0.027 C  
ENDBRANCH   4   9
BRANCH   7  11
HETATM   11  C   UNL     1     -10.981   6.594  68.810  1.00  0.00    -0.322 C  
BRANCH  11  12
HETATM   12  C   UNL     1     -11.174   6.814  70.298  1.00  0.00    -0.334 A  
HETATM   13  N   UNL     1     -11.735   8.014  70.620  1.00  0.00    -0.211 NA 
HETATM   14  C   UNL     1     -11.819   8.338  71.922  1.00  0.00    -0.324 A  
HETATM   15  C   UNL     1     -11.379   7.519  72.939  1.00  0.00    -0.355 A  
HETATM   16  C   UNL     1     -10.799   6.289  72.611  1.00  0.00    -0.273 A  
HETATM   17  C   UNL     1     -10.304   5.453  73.622  1.00  0.00    -0.263 A  
HETATM   18  C   UNL     1      -9.644   4.244  73.341  1.00  0.00    -0.120 A  
HETATM   19  C   UNL     1     -10.687   5.900  71.268  1.00  0.00    -0.325 A  
HETATM   20  C   UNL     1      -9.549   3.823  72.013  1.00  0.00    -0.147 A  
HETATM   21  C   UNL     1     -10.072   4.651  71.001  1.00  0.00    -0.246 A  
BRANCH  18  22
HETATM   22  O   UNL     1      -9.115   3.482  74.355  1.00  0.00    -0.086 OA 
HETATM   23  C   UNL     1      -9.733   2.210  74.564  1.00  0.00    -0.094 C  
ENDBRANCH  18  22
BRANCH  20  24
HETATM   24  O   UNL     1      -8.951   2.715  71.478  1.00  0.00    -0.076 OA 
HETATM   25  C   UNL     1      -9.239   2.263  70.167  1.00  0.00    -0.119 C  
ENDBRANCH  20  24
ENDBRANCH  11  12
ENDBRANCH   7  11
ENDBRANCH   2   3
TORSDOF 6
ENDMDL
MODEL      196
REMARK 921   NORMALIZED FREE ENERGY PREDICTED BY IDOCK:   -3.60 KCAL/MOL
REMARK 922        TOTAL FREE ENERGY PREDICTED BY IDOCK:   -5.67 KCAL/MOL
REMARK 923 INTER-LIGAND FREE ENERGY PREDICTED BY IDOCK:   -5.15 KCAL/MOL
REMARK 924 INTRA-LIGAND FREE ENERGY PREDICTED BY IDOCK:   -0.52 KCAL/MOL
REMARK 927      BINDING AFFINITY PREDICTED BY RF-SCORE:    0.00 PKD
ROOT
HETATM    1  C   UNL     1     -12.301  15.871  72.012  1.00  0.00    -0.475 C  
HETATM    2  O   UNL     1     -12.794  15.745  70.679  1.00  0.00    -0.438 OA 
ENDROOT
BRANCH   2   3
HETATM    3  C   UNL     1     -12.080  14.916  69.852  1.00  0.00    -0.332 A  
HETATM    4  C   UNL     1     -11.355  15.524  68.812  1.00  0.00    -0.334 A  
HETATM    5  C   UNL     1     -12.109  13.522  69.941  1.00  0.00    -0.408 A  
HETATM    6  C   UNL     1     -10.659  14.719  67.899  1.00  0.00    -0.248 A  
HETATM    7  C   UNL     1     -10.742  13.316  67.952  1.00  0.00    -0.252 A  
HETATM    8  C   UNL     1     -11.451  12.727  69.003  1.00  0.00    -0.360 A  
BRANCH   4   9
HETATM    9  O   UNL     1     -11.395  16.897  68.759  1.00  0.00    -0.167 OA 
HETATM   10  C   UNL     1     -10.313  17.557  68.106  1.00  0.00    -0.375 C  
ENDBRANCH   4   9
BRANCH   7  11
HETATM   11  C   UNL     1     -10.087  12.440  66.907  1.00  0.00    -0.230 C  
BRANCH  11  12
HETATM   12  C   UNL     1      -8.728  11.904  67.313  1.00  0.00    -0.171 A  
HETATM   13  N   UNL     1      -8.133  12.593  68.328  1.00  0.00    -0.158 NA 
HETATM   14  C   UNL     1      -6.872  12.261  68.657  1.00  0.00    -0.087 A  
HETATM   15  C   UNL     1      -6.162  11.260  68.030  1.00  0.00    -0.049 A  
HETATM   16  C   UNL     1      -6.769  10.555  66.986  1.00  0.00    -0.082 A  
HETATM   17  C   UNL     1      -6.056   9.559  66.302  1.00  0.00    -0.060 A  
HETATM   18  C   UNL     1      -6.593   8.875  65.197  1.00  0.00    -0.065 A  
HETATM   19  C   UNL     1      -8.083  10.859  66.602  1.00  0.00    -0.147 A  
HETATM   20  C   UNL     1      -7.910   9.142  64.817  1.00  0.00    -0.119 A  
HETATM   21  C   UNL     1      -8.633  10.122  65.524  1.00  0.00    -0.162 A  
BRANCH  18  22
HETATM   22  O   UNL     1      -5.840   7.952  64.512  1.00  0.00    -0.044 OA 
HETATM   23  C   UNL     1      -6.019   6.589  64.906  1.00  0.00    -0.034 C  
ENDBRANCH  18  22
BRANCH  20  24
HETATM   24  O   UNL     1      -8.651   8.636  63.785  1.00  0.00    -0.123 OA 
HETATM   25  C   UNL     1      -8.672   9.242  62.505  1.00  0.00    -0.230 C  
ENDBRANCH  20  24
ENDBRANCH  11  12
ENDBRANCH   7  11
ENDBRANCH   2   3
TORSDOF 6
ENDMDL
MODEL      197
REMARK 921   NORMALIZED FREE ENERGY PREDICTED BY IDOCK:   -3.57 KCAL/MOL
REMARK 922        TOTAL FREE ENERGY PREDICTED BY IDOCK:   -5.62 KCAL/MOL
REMARK 923 INTER-LIGAND FREE ENERGY PREDICTED BY IDOCK:   -4.79 KCAL/MOL
REMARK 924 INTRA-LIGAND FREE ENERGY PREDICTED BY IDOCK:   -0.83 KCAL/MOL
REMARK 927      BINDING AFFINITY PREDICTED BY RF-SCORE:    0.00 PKD
ROOT
HETATM    1  C   UNL     1      -7.484   2.227  65.527  1.00  0.00    -0.067 C  
HETATM    2  O   UNL     1      -8.763   2.410  66.131  1.00  0.00    -0.113 OA 
ENDROOT
BRANCH   2   3
HETATM    3  C   UNL     1      -9.090   3.701  66.462  1.00  0.00    -0.159 A  
HETATM    4  C   UNL     1     -10.108   4.313  65.710  1.00  0.00    -0.212 A  
HETATM    5  C   UNL     1      -8.414   4.445  67.432  1.00  0.00    -0.103 A  
HETATM    6  C   UNL     1     -10.438   5.652  65.965  1.00  0.00     0.021 A  
HETATM    7  C   UNL     1      -9.713   6.418  66.896  1.00  0.00    -0.190 A  
HETATM    8  C   UNL     1      -8.718   5.789  67.649  1.00  0.00    -0.107 A  
BRANCH   4   9
HETATM    9  O   UNL     1     -10.708   3.538  64.747  1.00  0.00     0.018 OA 
HETATM   10  C   UNL     1     -10.331   3.771  63.392  1.00  0.00    -0.218 C  
ENDBRANCH   4   9
BRANCH   7  11
HETATM   11  C   UNL     1      -9.987   7.892  67.098  1.00  0.00    -0.298 C  
BRANCH  11  12
HETATM   12  C   UNL     1      -9.311   8.485  68.320  1.00  0.00    -0.137 A  
HETATM   13  N   UNL     1      -8.131   9.115  68.057  1.00  0.00    -0.104 NA 
HETATM   14  C   UNL     1      -7.408   9.553  69.103  1.00  0.00    -0.072 A  
HETATM   15  C   UNL     1      -7.803   9.406  70.415  1.00  0.00    -0.179 A  
HETATM   16  C   UNL     1      -9.011   8.755  70.686  1.00  0.00    -0.219 A  
HETATM   17  C   UNL     1      -9.419   8.554  72.013  1.00  0.00    -0.364 A  
HETATM   18  C   UNL     1     -10.585   7.841  72.340  1.00  0.00    -0.278 A  
HETATM   19  C   UNL     1      -9.806   8.280  69.634  1.00  0.00    -0.184 A  
HETATM   20  C   UNL     1     -11.406   7.384  71.307  1.00  0.00    -0.265 A  
HETATM   21  C   UNL     1     -11.008   7.613  69.976  1.00  0.00    -0.237 A  
BRANCH  18  22
HETATM   22  O   UNL     1     -10.918   7.607  73.653  1.00  0.00    -0.301 OA 
HETATM   23  C   UNL     1     -10.271   6.490  74.269  1.00  0.00    -0.350 C  
ENDBRANCH  18  22
BRANCH  20  24
HETATM   24  O   UNL     1     -12.566   6.662  71.355  1.00  0.00    -0.325 OA 
HETATM   25  C   UNL     1     -13.822   7.269  71.599  1.00  0.00    -0.349 C  
ENDBRANCH  20  24
ENDBRANCH  11  12
ENDBRANCH   7  11
ENDBRANCH   2   3
TORSDOF 6
ENDMDL
MODEL      198
REMARK 921   NORMALIZED FREE ENERGY PREDICTED BY IDOCK:   -3.55 KCAL/MOL
REMARK 922        TOTAL FREE ENERGY PREDICTED BY IDOCK:   -5.60 KCAL/MOL
REMARK 923 INTER-LIGAND FREE ENERGY PREDICTED BY IDOCK:   -5.12 KCAL/MOL
REMARK 924 INTRA-LIGAND FREE ENERGY PREDICTED BY IDOCK:   -0.48 KCAL/MOL
REMARK 927      BINDING AFFINITY PREDICTED BY RF-SCORE:    0.00 PKD
ROOT
HETATM    1  C   UNL     1     -13.383  12.746  72.069  1.00  0.00    -0.466 C  
HETATM    2  O   UNL     1     -13.261  12.137  70.785  1.00  0.00     0.136 OA 
ENDROOT
BRANCH   2   3
HETATM    3  C   UNL     1     -12.174  11.319  70.610  1.00  0.00    -0.393 A  
HETATM    4  C   UNL     1     -11.373  11.556  69.480  1.00  0.00    -0.274 A  
HETATM    5  C   UNL     1     -11.884  10.232  71.439  1.00  0.00    -0.371 A  
HETATM    6  C   UNL     1     -10.286  10.709  69.220  1.00  0.00    -0.235 A  
HETATM    7  C   UNL     1     -10.034   9.578  70.017  1.00  0.00    -0.274 A  
HETATM    8  C   UNL     1     -10.827   9.369  71.149  1.00  0.00    -0.427 A  
BRANCH   4   9
HETATM    9  O   UNL     1     -11.732  12.619  68.686  1.00  0.00    -0.289 OA 
HETATM   10  C   UNL     1     -10.756  13.636  68.475  1.00  0.00    -0.255 C  
ENDBRANCH   4   9
BRANCH   7  11
HETATM   11  C   UNL     1      -8.933   8.597  69.681  1.00  0.00    -0.145 C  
BRANCH  11  12
HETATM   12  C   UNL     1      -9.420   7.183  69.429  1.00  0.00    -0.153 A  
HETATM   13  N   UNL     1      -9.866   6.536  70.543  1.00  0.00    -0.179 NA 
HETATM   14  C   UNL     1     -10.193   5.237  70.426  1.00  0.00    -0.268 A  
HETATM   15  C   UNL     1     -10.108   4.536  69.241  1.00  0.00    -0.102 A  
HETATM   16  C   UNL     1      -9.647   5.197  68.098  1.00  0.00    -0.173 A  
HETATM   17  C   UNL     1      -9.511   4.499  66.889  1.00  0.00    -0.190 A  
HETATM   18  C   UNL     1      -8.980   5.097  65.733  1.00  0.00    -0.152 A  
HETATM   19  C   UNL     1      -9.294   6.553  68.164  1.00  0.00    -0.109 A  
HETATM   20  C   UNL     1      -8.650   6.453  65.768  1.00  0.00    -0.148 A  
HETATM   21  C   UNL     1      -8.815   7.159  66.976  1.00  0.00    -0.125 A  
BRANCH  18  22
HETATM   22  O   UNL     1      -8.801   4.363  64.585  1.00  0.00    -0.135 OA 
HETATM   23  C   UNL     1      -9.723   3.288  64.385  1.00  0.00    -0.163 C  
ENDBRANCH  18  22
BRANCH  20  24
HETATM   24  O   UNL     1      -8.109   7.256  64.802  1.00  0.00    -0.129 OA 
HETATM   25  C   UNL     1      -7.689   8.581  65.072  1.00  0.00    -0.102 C  
ENDBRANCH  20  24
ENDBRANCH  11  12
ENDBRANCH   7  11
ENDBRANCH   2   3
TORSDOF 6
ENDMDL
MODEL      199
REMARK 921   NORMALIZED FREE ENERGY PREDICTED BY IDOCK:   -3.55 KCAL/MOL
REMARK 922        TOTAL FREE ENERGY PREDICTED BY IDOCK:   -5.60 KCAL/MOL
REMARK 923 INTER-LIGAND FREE ENERGY PREDICTED BY IDOCK:   -4.62 KCAL/MOL
REMARK 924 INTRA-LIGAND FREE ENERGY PREDICTED BY IDOCK:   -0.98 KCAL/MOL
REMARK 927      BINDING AFFINITY PREDICTED BY RF-SCORE:    0.00 PKD
ROOT
HETATM    1  C   UNL     1      -7.569   2.461  64.152  1.00  0.00    -0.064 C  
HETATM    2  O   UNL     1      -8.008   3.724  63.656  1.00  0.00    -0.084 OA 
ENDROOT
BRANCH   2   3
HETATM    3  C   UNL     1      -8.794   4.461  64.506  1.00  0.00    -0.148 A  
HETATM    4  C   UNL     1      -8.252   5.664  64.992  1.00  0.00    -0.137 A  
HETATM    5  C   UNL     1     -10.042   4.037  64.967  1.00  0.00    -0.203 A  
HETATM    6  C   UNL     1      -8.987   6.424  65.913  1.00  0.00    -0.111 A  
HETATM    7  C   UNL     1     -10.214   5.965  66.425  1.00  0.00    -0.163 A  
HETATM    8  C   UNL     1     -10.748   4.777  65.916  1.00  0.00    -0.225 A  
BRANCH   4   9
HETATM    9  O   UNL     1      -7.005   6.006  64.526  1.00  0.00    -0.049 OA 
HETATM   10  C   UNL     1      -5.940   6.032  65.473  1.00  0.00    -0.025 C  
ENDBRANCH   4   9
BRANCH   7  11
HETATM   11  C   UNL     1     -10.961   6.722  67.501  1.00  0.00    -0.375 C  
BRANCH  11  12
HETATM   12  C   UNL     1     -10.082   7.624  68.346  1.00  0.00    -0.186 A  
HETATM   13  N   UNL     1      -9.405   6.978  69.338  1.00  0.00    -0.147 NA 
HETATM   14  C   UNL     1      -8.707   7.726  70.211  1.00  0.00    -0.143 A  
HETATM   15  C   UNL     1      -8.636   9.101  70.146  1.00  0.00    -0.195 A  
HETATM   16  C   UNL     1      -9.333   9.766  69.132  1.00  0.00    -0.185 A  
HETATM   17  C   UNL     1      -9.313  11.167  69.066  1.00  0.00    -0.065 A  
HETATM   18  C   UNL     1     -10.057  11.884  68.114  1.00  0.00    -0.198 A  
HETATM   19  C   UNL     1     -10.076   9.035  68.193  1.00  0.00    -0.229 A  
HETATM   20  C   UNL     1     -10.780  11.175  67.152  1.00  0.00    -0.259 A  
HETATM   21  C   UNL     1     -10.775   9.768  67.203  1.00  0.00    -0.273 A  
BRANCH  18  22
HETATM   22  O   UNL     1     -10.064  13.258  68.121  1.00  0.00    -0.228 OA 
HETATM   23  C   UNL     1      -9.082  13.889  67.295  1.00  0.00    -0.228 C  
ENDBRANCH  18  22
BRANCH  20  24
HETATM   24  O   UNL     1     -11.587  11.626  66.144  1.00  0.00    -0.390 OA 
HETATM   25  C   UNL     1     -11.092  11.887  64.843  1.00  0.00    -0.307 C  
ENDBRANCH  20  24
ENDBRANCH  11  12
ENDBRANCH   7  11
ENDBRANCH   2   3
TORSDOF 6
ENDMDL
MODEL      200
REMARK 921   NORMALIZED FREE ENERGY PREDICTED BY IDOCK:   -3.55 KCAL/MOL
REMARK 922        TOTAL FREE ENERGY PREDICTED BY IDOCK:   -5.60 KCAL/MOL
REMARK 923 INTER-LIGAND FREE ENERGY PREDICTED BY IDOCK:   -4.96 KCAL/MOL
REMARK 924 INTRA-LIGAND FREE ENERGY PREDICTED BY IDOCK:   -0.64 KCAL/MOL
REMARK 927      BINDING AFFINITY PREDICTED BY RF-SCORE:    0.00 PKD
ROOT
HETATM    1  C   UNL     1      -8.814   9.256  62.369  1.00  0.00    -0.233 C  
HETATM    2  O   UNL     1      -8.459   8.955  63.718  1.00  0.00    -0.186 OA 
ENDROOT
BRANCH   2   3
HETATM    3  C   UNL     1      -8.958   9.804  64.673  1.00  0.00    -0.230 A  
HETATM    4  C   UNL     1      -8.767   9.435  66.016  1.00  0.00    -0.150 A  
HETATM    5  C   UNL     1      -9.704  10.947  64.377  1.00  0.00    -0.342 A  
HETATM    6  C   UNL     1      -9.311  10.234  67.031  1.00  0.00    -0.177 A  
HETATM    7  C   UNL     1     -10.118  11.347  66.731  1.00  0.00    -0.250 A  
HETATM    8  C   UNL     1     -10.281  11.712  65.392  1.00  0.00    -0.306 A  
BRANCH   4   9
HETATM    9  O   UNL     1      -8.053   8.281  66.238  1.00  0.00    -0.103 OA 
HETATM   10  C   UNL     1      -8.056   7.758  67.564  1.00  0.00    -0.124 C  
ENDBRANCH   4   9
BRANCH   7  11
HETATM   11  C   UNL     1     -10.801  12.150  67.815  1.00  0.00    -0.263 C  
BRANCH  11  12
HETATM   12  C   UNL     1     -10.472  13.630  67.791  1.00  0.00    -0.240 A  
HETATM   13  N   UNL     1     -11.558  14.445  67.666  1.00  0.00    -0.352 NA 
HETATM   14  C   UNL     1     -11.338  15.761  67.505  1.00  0.00    -0.150 A  
HETATM   15  C   UNL     1     -10.080  16.324  67.472  1.00  0.00    -0.258 A  
HETATM   16  C   UNL     1      -8.965  15.489  67.595  1.00  0.00    -0.187 A  
HETATM   17  C   UNL     1      -7.672  16.028  67.523  1.00  0.00    -0.176 A  
HETATM   18  C   UNL     1      -6.520  15.223  67.565  1.00  0.00    -0.129 A  
HETATM   19  C   UNL     1      -9.136  14.108  67.766  1.00  0.00    -0.190 A  
HETATM   20  C   UNL     1      -6.667  13.849  67.764  1.00  0.00    -0.176 A  
HETATM   21  C   UNL     1      -7.966  13.315  67.865  1.00  0.00    -0.159 A  
BRANCH  18  22
HETATM   22  O   UNL     1      -5.271  15.780  67.426  1.00  0.00    -0.293 OA 
HETATM   23  C   UNL     1      -5.224  17.209  67.438  1.00  0.00    -0.128 C  
ENDBRANCH  18  22
BRANCH  20  24
HETATM   24  O   UNL     1      -5.724  12.859  67.825  1.00  0.00    -0.110 OA 
HETATM   25  C   UNL     1      -5.948  11.648  68.523  1.00  0.00    -0.049 C  
ENDBRANCH  20  24
ENDBRANCH  11  12
ENDBRANCH   7  11
ENDBRANCH   2   3
TORSDOF 6
ENDMDL
MODEL      201
REMARK 921   NORMALIZED FREE ENERGY PREDICTED BY IDOCK:   -3.54 KCAL/MOL
REMARK 922        TOTAL FREE ENERGY PREDICTED BY IDOCK:   -5.59 KCAL/MOL
REMARK 923 INTER-LIGAND FREE ENERGY PREDICTED BY IDOCK:   -4.79 KCAL/MOL
REMARK 924 INTRA-LIGAND FREE ENERGY PREDICTED BY IDOCK:   -0.80 KCAL/MOL
REMARK 927      BINDING AFFINITY PREDICTED BY RF-SCORE:    0.00 PKD
ROOT
HETATM    1  C   UNL     1     -10.686  15.653  67.453  1.00  0.00    -0.309 C  
HETATM    2  O   UNL     1     -11.033  14.321  67.081  1.00  0.00    -0.291 OA 
ENDROOT
BRANCH   2   3
HETATM    3  C   UNL     1      -9.983  13.461  66.881  1.00  0.00    -0.252 A  
HETATM    4  C   UNL     1     -10.261  12.263  66.201  1.00  0.00    -0.239 A  
HETATM    5  C   UNL     1      -8.699  13.679  67.386  1.00  0.00    -0.214 A  
HETATM    6  C   UNL     1      -9.238  11.320  66.025  1.00  0.00    -0.224 A  
HETATM    7  C   UNL     1      -7.964  11.512  66.591  1.00  0.00    -0.127 A  
HETATM    8  C   UNL     1      -7.698  12.717  67.246  1.00  0.00    -0.129 A  
BRANCH   4   9
HETATM    9  O   UNL     1     -11.552  12.094  65.760  1.00  0.00    -0.366 OA 
HETATM   10  C   UNL     1     -11.780  12.198  64.357  1.00  0.00    -0.355 C  
ENDBRANCH   4   9
BRANCH   7  11
HETATM   11  C   UNL     1      -6.887  10.453  66.503  1.00  0.00    -0.107 C  
BRANCH  11  12
HETATM   12  C   UNL     1      -7.416   9.049  66.280  1.00  0.00    -0.092 A  
HETATM   13  N   UNL     1      -7.373   8.632  64.982  1.00  0.00    -0.084 NA 
HETATM   14  C   UNL     1      -7.943   7.452  64.684  1.00  0.00    -0.127 A  
HETATM   15  C   UNL     1      -8.555   6.645  65.619  1.00  0.00    -0.130 A  
HETATM   16  C   UNL     1      -8.604   7.073  66.950  1.00  0.00    -0.120 A  
HETATM   17  C   UNL     1      -9.256   6.292  67.916  1.00  0.00    -0.116 A  
HETATM   18  C   UNL     1      -9.399   6.713  69.249  1.00  0.00    -0.142 A  
HETATM   19  C   UNL     1      -8.024   8.295  67.318  1.00  0.00    -0.105 A  
HETATM   20  C   UNL     1      -8.804   7.913  69.643  1.00  0.00    -0.138 A  
HETATM   21  C   UNL     1      -8.125   8.681  68.677  1.00  0.00    -0.117 A  
BRANCH  18  22
HETATM   22  O   UNL     1     -10.101   5.952  70.152  1.00  0.00    -0.180 OA 
HETATM   23  C   UNL     1     -11.503   6.221  70.235  1.00  0.00    -0.358 C  
ENDBRANCH  18  22
BRANCH  20  24
HETATM   24  O   UNL     1      -8.809   8.546  70.856  1.00  0.00    -0.144 OA 
HETATM   25  C   UNL     1      -9.992   9.085  71.419  1.00  0.00    -0.318 C  
ENDBRANCH  20  24
ENDBRANCH  11  12
ENDBRANCH   7  11
ENDBRANCH   2   3
TORSDOF 6
ENDMDL
MODEL      202
REMARK 921   NORMALIZED FREE ENERGY PREDICTED BY IDOCK:   -3.50 KCAL/MOL
REMARK 922        TOTAL FREE ENERGY PREDICTED BY IDOCK:   -5.53 KCAL/MOL
REMARK 923 INTER-LIGAND FREE ENERGY PREDICTED BY IDOCK:   -4.74 KCAL/MOL
REMARK 924 INTRA-LIGAND FREE ENERGY PREDICTED BY IDOCK:   -0.79 KCAL/MOL
REMARK 927      BINDING AFFINITY PREDICTED BY RF-SCORE:    0.00 PKD
ROOT
HETATM    1  C   UNL     1     -10.688   7.805  67.022  1.00  0.00    -0.246 C  
HETATM    2  O   UNL     1     -10.850   8.998  67.788  1.00  0.00    -0.194 OA 
ENDROOT
BRANCH   2   3
HETATM    3  C   UNL     1      -9.796   9.877  67.758  1.00  0.00    -0.155 A  
HETATM    4  C   UNL     1     -10.096  11.221  67.475  1.00  0.00    -0.183 A  
HETATM    5  C   UNL     1      -8.463   9.490  67.907  1.00  0.00    -0.119 A  
HETATM    6  C   UNL     1      -9.051  12.149  67.369  1.00  0.00    -0.181 A  
HETATM    7  C   UNL     1      -7.705  11.747  67.455  1.00  0.00    -0.151 A  
HETATM    8  C   UNL     1      -7.426  10.411  67.757  1.00  0.00    -0.088 A  
BRANCH   4   9
HETATM    9  O   UNL     1     -11.425  11.529  67.304  1.00  0.00    -0.422 OA 
HETATM   10  C   UNL     1     -11.768  12.339  66.183  1.00  0.00    -0.376 C  
ENDBRANCH   4   9
BRANCH   7  11
HETATM   11  C   UNL     1      -6.568  12.719  67.232  1.00  0.00    -0.083 C  
BRANCH  11  12
HETATM   12  C   UNL     1      -6.239  13.574  68.441  1.00  0.00    -0.093 A  
HETATM   13  N   UNL     1      -5.817  12.868  69.529  1.00  0.00    -0.096 NA 
HETATM   14  C   UNL     1      -5.631  13.540  70.679  1.00  0.00    -0.169 A  
HETATM   15  C   UNL     1      -5.835  14.898  70.807  1.00  0.00    -0.098 A  
HETATM   16  C   UNL     1      -6.272  15.622  69.693  1.00  0.00    -0.164 A  
HETATM   17  C   UNL     1      -6.528  16.997  69.804  1.00  0.00    -0.094 A  
HETATM   18  C   UNL     1      -7.040  17.754  68.737  1.00  0.00    -0.263 A  
HETATM   19  C   UNL     1      -6.481  14.972  68.468  1.00  0.00    -0.094 A  
HETATM   20  C   UNL     1      -7.228  17.132  67.501  1.00  0.00    -0.157 A  
HETATM   21  C   UNL     1      -6.943  15.758  67.384  1.00  0.00    -0.235 A  
BRANCH  18  22
HETATM   22  O   UNL     1      -7.340  19.085  68.903  1.00  0.00    -0.316 OA 
HETATM   23  C   UNL     1      -6.263  19.913  69.348  1.00  0.00    -0.322 C  
ENDBRANCH  18  22
BRANCH  20  24
HETATM   24  O   UNL     1      -7.722  17.631  66.327  1.00  0.00    -0.266 OA 
HETATM   25  C   UNL     1      -9.031  18.163  66.227  1.00  0.00    -0.177 C  
ENDBRANCH  20  24
ENDBRANCH  11  12
ENDBRANCH   7  11
ENDBRANCH   2   3
TORSDOF 6
ENDMDL
MODEL      203
REMARK 921   NORMALIZED FREE ENERGY PREDICTED BY IDOCK:   -3.49 KCAL/MOL
REMARK 922        TOTAL FREE ENERGY PREDICTED BY IDOCK:   -5.53 KCAL/MOL
REMARK 923 INTER-LIGAND FREE ENERGY PREDICTED BY IDOCK:   -4.69 KCAL/MOL
REMARK 924 INTRA-LIGAND FREE ENERGY PREDICTED BY IDOCK:   -0.84 KCAL/MOL
REMARK 927      BINDING AFFINITY PREDICTED BY RF-SCORE:    0.00 PKD
ROOT
HETATM    1  C   UNL     1     -11.456  11.986  64.349  1.00  0.00    -0.343 C  
HETATM    2  O   UNL     1     -11.166  12.853  65.444  1.00  0.00    -0.277 OA 
ENDROOT
BRANCH   2   3
HETATM    3  C   UNL     1     -10.348  12.336  66.417  1.00  0.00    -0.225 A  
HETATM    4  C   UNL     1     -10.103  13.147  67.539  1.00  0.00    -0.222 A  
HETATM    5  C   UNL     1      -9.695  11.107  66.305  1.00  0.00    -0.244 A  
HETATM    6  C   UNL     1      -9.225  12.694  68.534  1.00  0.00    -0.068 A  
HETATM    7  C   UNL     1      -8.518  11.486  68.389  1.00  0.00    -0.159 A  
HETATM    8  C   UNL     1      -8.788  10.683  67.277  1.00  0.00    -0.137 A  
BRANCH   4   9
HETATM    9  O   UNL     1     -10.750  14.359  67.572  1.00  0.00    -0.266 OA 
HETATM   10  C   UNL     1      -9.957  15.514  67.837  1.00  0.00    -0.218 C  
ENDBRANCH   4   9
BRANCH   7  11
HETATM   11  C   UNL     1      -7.485  11.043  69.401  1.00  0.00    -0.074 C  
BRANCH  11  12
HETATM   12  C   UNL     1      -7.376   9.537  69.555  1.00  0.00    -0.077 A  
HETATM   13  N   UNL     1      -6.260   8.995  68.991  1.00  0.00    -0.043 NA 
HETATM   14  C   UNL     1      -6.156   7.654  68.971  1.00  0.00    -0.035 A  
HETATM   15  C   UNL     1      -7.110   6.810  69.498  1.00  0.00    -0.072 A  
HETATM   16  C   UNL     1      -8.258   7.365  70.073  1.00  0.00    -0.131 A  
HETATM   17  C   UNL     1      -9.265   6.530  70.579  1.00  0.00    -0.156 A  
HETATM   18  C   UNL     1     -10.469   7.036  71.097  1.00  0.00    -0.211 A  
HETATM   19  C   UNL     1      -8.418   8.757  70.122  1.00  0.00    -0.139 A  
HETATM   20  C   UNL     1     -10.636   8.420  71.182  1.00  0.00    -0.215 A  
HETATM   21  C   UNL     1      -9.612   9.256  70.699  1.00  0.00    -0.334 A  
BRANCH  18  22
HETATM   22  O   UNL     1     -11.460   6.185  71.524  1.00  0.00    -0.291 OA 
HETATM   23  C   UNL     1     -11.058   5.187  72.467  1.00  0.00    -0.194 C  
ENDBRANCH  18  22
BRANCH  20  24
HETATM   24  O   UNL     1     -11.702   9.155  71.622  1.00  0.00    -0.328 OA 
HETATM   25  C   UNL     1     -11.880  10.513  71.262  1.00  0.00    -0.229 C  
ENDBRANCH  20  24
ENDBRANCH  11  12
ENDBRANCH   7  11
ENDBRANCH   2   3
TORSDOF 6
ENDMDL
MODEL      204
REMARK 921   NORMALIZED FREE ENERGY PREDICTED BY IDOCK:   -3.49 KCAL/MOL
REMARK 922        TOTAL FREE ENERGY PREDICTED BY IDOCK:   -5.52 KCAL/MOL
REMARK 923 INTER-LIGAND FREE ENERGY PREDICTED BY IDOCK:   -4.66 KCAL/MOL
REMARK 924 INTRA-LIGAND FREE ENERGY PREDICTED BY IDOCK:   -0.87 KCAL/MOL
REMARK 927      BINDING AFFINITY PREDICTED BY RF-SCORE:    0.00 PKD
ROOT
HETATM    1  C   UNL     1      -6.757  11.504  67.386  1.00  0.00    -0.101 C  
HETATM    2  O   UNL     1      -7.896  11.240  68.203  1.00  0.00    -0.114 OA 
ENDROOT
BRANCH   2   3
HETATM    3  C   UNL     1      -8.614  10.115  67.884  1.00  0.00    -0.118 A  
HETATM    4  C   UNL     1      -9.990  10.135  68.171  1.00  0.00    -0.147 A  
HETATM    5  C   UNL     1      -8.037   8.947  67.378  1.00  0.00    -0.108 A  
HETATM    6  C   UNL     1     -10.759   8.989  67.923  1.00  0.00    -0.200 A  
HETATM    7  C   UNL     1     -10.166   7.794  67.476  1.00  0.00    -0.301 A  
HETATM    8  C   UNL     1      -8.801   7.797  67.176  1.00  0.00    -0.130 A  
BRANCH   4   9
HETATM    9  O   UNL     1     -10.488  11.302  68.699  1.00  0.00    -0.188 OA 
HETATM   10  C   UNL     1     -11.873  11.572  68.494  1.00  0.00    -0.297 C  
ENDBRANCH   4   9
BRANCH   7  11
HETATM   11  C   UNL     1     -10.966   6.521  67.312  1.00  0.00    -0.475 C  
BRANCH  11  12
HETATM   12  C   UNL     1     -10.163   5.253  67.527  1.00  0.00    -0.178 A  
HETATM   13  N   UNL     1      -9.936   4.534  66.391  1.00  0.00    -0.227 NA 
HETATM   14  C   UNL     1      -9.344   3.333  66.517  1.00  0.00    -0.126 A  
HETATM   15  C   UNL     1      -8.950   2.803  67.727  1.00  0.00    -0.197 A  
HETATM   16  C   UNL     1      -9.187   3.537  68.894  1.00  0.00    -0.227 A  
HETATM   17  C   UNL     1      -8.835   3.005  70.143  1.00  0.00    -0.148 A  
HETATM   18  C   UNL     1      -9.120   3.669  71.349  1.00  0.00    -0.116 A  
HETATM   19  C   UNL     1      -9.800   4.797  68.821  1.00  0.00    -0.218 A  
HETATM   20  C   UNL     1      -9.703   4.937  71.297  1.00  0.00    -0.177 A  
HETATM   21  C   UNL     1     -10.029   5.481  70.040  1.00  0.00    -0.285 A  
BRANCH  18  22
HETATM   22  O   UNL     1      -8.819   3.087  72.557  1.00  0.00    -0.081 OA 
HETATM   23  C   UNL     1      -7.902   1.991  72.507  1.00  0.00    -0.052 C  
ENDBRANCH  18  22
BRANCH  20  24
HETATM   24  O   UNL     1     -10.092   5.773  72.308  1.00  0.00    -0.179 OA 
HETATM   25  C   UNL     1     -11.226   5.505  73.112  1.00  0.00    -0.267 C  
ENDBRANCH  20  24
ENDBRANCH  11  12
ENDBRANCH   7  11
ENDBRANCH   2   3
TORSDOF 6
ENDMDL
MODEL      205
REMARK 921   NORMALIZED FREE ENERGY PREDICTED BY IDOCK:   -3.48 KCAL/MOL
REMARK 922        TOTAL FREE ENERGY PREDICTED BY IDOCK:   -5.51 KCAL/MOL
REMARK 923 INTER-LIGAND FREE ENERGY PREDICTED BY IDOCK:   -5.23 KCAL/MOL
REMARK 924 INTRA-LIGAND FREE ENERGY PREDICTED BY IDOCK:   -0.28 KCAL/MOL
REMARK 927      BINDING AFFINITY PREDICTED BY RF-SCORE:    0.00 PKD
ROOT
HETATM    1  C   UNL     1      -8.406   8.614  64.146  1.00  0.00    -0.126 C  
HETATM    2  O   UNL     1      -8.846   8.624  65.503  1.00  0.00    -0.183 OA 
ENDROOT
BRANCH   2   3
HETATM    3  C   UNL     1      -9.225   9.845  66.001  1.00  0.00    -0.170 A  
HETATM    4  C   UNL     1      -8.557  10.300  67.151  1.00  0.00    -0.126 A  
HETATM    5  C   UNL     1     -10.279  10.599  65.479  1.00  0.00    -0.329 A  
HETATM    6  C   UNL     1      -8.948  11.511  67.738  1.00  0.00    -0.160 A  
HETATM    7  C   UNL     1     -10.051  12.236  67.250  1.00  0.00    -0.212 A  
HETATM    8  C   UNL     1     -10.691  11.781  66.094  1.00  0.00    -0.320 A  
BRANCH   4   9
HETATM    9  O   UNL     1      -7.553   9.495  67.634  1.00  0.00    -0.093 OA 
HETATM   10  C   UNL     1      -6.225  10.011  67.593  1.00  0.00    -0.058 C  
ENDBRANCH   4   9
BRANCH   7  11
HETATM   11  C   UNL     1     -10.551  13.485  67.942  1.00  0.00    -0.255 C  
BRANCH  11  12
HETATM   12  C   UNL     1     -10.753  14.668  67.014  1.00  0.00    -0.290 A  
HETATM   13  N   UNL     1     -11.649  14.447  66.010  1.00  0.00    -0.357 NA 
HETATM   14  C   UNL     1     -11.786  15.400  65.071  1.00  0.00    -0.102 A  
HETATM   15  C   UNL     1     -11.078  16.582  65.079  1.00  0.00    -0.174 A  
HETATM   16  C   UNL     1     -10.154  16.808  66.106  1.00  0.00    -0.360 A  
HETATM   17  C   UNL     1      -9.389  17.984  66.117  1.00  0.00    -0.146 A  
HETATM   18  C   UNL     1      -8.396  18.224  67.082  1.00  0.00    -0.245 A  
HETATM   19  C   UNL     1      -9.972  15.849  67.112  1.00  0.00    -0.240 A  
HETATM   20  C   UNL     1      -8.219  17.295  68.110  1.00  0.00    -0.231 A  
HETATM   21  C   UNL     1      -9.008  16.130  68.112  1.00  0.00    -0.185 A  
BRANCH  18  22
HETATM   22  O   UNL     1      -7.622  19.358  67.023  1.00  0.00    -0.236 OA 
HETATM   23  C   UNL     1      -7.461  19.933  65.723  1.00  0.00    -0.315 C  
ENDBRANCH  18  22
BRANCH  20  24
HETATM   24  O   UNL     1      -7.324  17.283  69.144  1.00  0.00    -0.236 OA 
HETATM   25  C   UNL     1      -6.907  16.081  69.764  1.00  0.00    -0.080 C  
ENDBRANCH  20  24
ENDBRANCH  11  12
ENDBRANCH   7  11
ENDBRANCH   2   3
TORSDOF 6
ENDMDL
MODEL      206
REMARK 921   NORMALIZED FREE ENERGY PREDICTED BY IDOCK:   -3.48 KCAL/MOL
REMARK 922        TOTAL FREE ENERGY PREDICTED BY IDOCK:   -5.51 KCAL/MOL
REMARK 923 INTER-LIGAND FREE ENERGY PREDICTED BY IDOCK:   -4.60 KCAL/MOL
REMARK 924 INTRA-LIGAND FREE ENERGY PREDICTED BY IDOCK:   -0.90 KCAL/MOL
REMARK 927      BINDING AFFINITY PREDICTED BY RF-SCORE:    0.00 PKD
ROOT
HETATM    1  C   UNL     1     -10.960   6.164  67.720  1.00  0.00    -0.303 C  
HETATM    2  O   UNL     1     -10.003   6.699  68.633  1.00  0.00    -0.141 OA 
ENDROOT
BRANCH   2   3
HETATM    3  C   UNL     1      -9.245   7.742  68.163  1.00  0.00    -0.138 A  
HETATM    4  C   UNL     1      -9.614   9.034  68.575  1.00  0.00    -0.153 A  
HETATM    5  C   UNL     1      -8.201   7.587  67.248  1.00  0.00    -0.115 A  
HETATM    6  C   UNL     1      -8.912  10.140  68.075  1.00  0.00    -0.125 A  
HETATM    7  C   UNL     1      -7.905   9.987  67.104  1.00  0.00    -0.099 A  
HETATM    8  C   UNL     1      -7.537   8.695  66.721  1.00  0.00    -0.086 A  
BRANCH   4   9
HETATM    9  O   UNL     1     -10.671   9.120  69.450  1.00  0.00    -0.226 OA 
HETATM   10  C   UNL     1     -10.987  10.410  69.967  1.00  0.00    -0.308 C  
ENDBRANCH   4   9
BRANCH   7  11
HETATM   11  C   UNL     1      -7.218  11.180  66.476  1.00  0.00    -0.124 C  
BRANCH  11  12
HETATM   12  C   UNL     1      -6.909  12.300  67.451  1.00  0.00    -0.145 A  
HETATM   13  N   UNL     1      -5.745  12.137  68.142  1.00  0.00    -0.049 NA 
HETATM   14  C   UNL     1      -5.467  13.020  69.117  1.00  0.00    -0.071 A  
HETATM   15  C   UNL     1      -6.288  14.078  69.442  1.00  0.00    -0.115 A  
HETATM   16  C   UNL     1      -7.484  14.245  68.737  1.00  0.00    -0.129 A  
HETATM   17  C   UNL     1      -8.360  15.288  69.073  1.00  0.00    -0.215 A  
HETATM   18  C   UNL     1      -9.607  15.452  68.446  1.00  0.00    -0.200 A  
HETATM   19  C   UNL     1      -7.824  13.354  67.708  1.00  0.00    -0.158 A  
HETATM   20  C   UNL     1      -9.952  14.594  67.400  1.00  0.00    -0.231 A  
HETATM   21  C   UNL     1      -9.059  13.565  67.046  1.00  0.00    -0.248 A  
BRANCH  18  22
HETATM   22  O   UNL     1     -10.466  16.447  68.847  1.00  0.00    -0.246 OA 
HETATM   23  C   UNL     1     -11.361  16.104  69.909  1.00  0.00    -0.317 C  
ENDBRANCH  18  22
BRANCH  20  24
HETATM   24  O   UNL     1     -11.095  14.530  66.650  1.00  0.00    -0.318 OA 
HETATM   25  C   UNL     1     -12.229  13.792  67.067  1.00  0.00    -0.340 C  
ENDBRANCH  20  24
ENDBRANCH  11  12
ENDBRANCH   7  11
ENDBRANCH   2   3
TORSDOF 6
ENDMDL
MODEL      207
REMARK 921   NORMALIZED FREE ENERGY PREDICTED BY IDOCK:   -3.47 KCAL/MOL
REMARK 922        TOTAL FREE ENERGY PREDICTED BY IDOCK:   -5.50 KCAL/MOL
REMARK 923 INTER-LIGAND FREE ENERGY PREDICTED BY IDOCK:   -4.83 KCAL/MOL
REMARK 924 INTRA-LIGAND FREE ENERGY PREDICTED BY IDOCK:   -0.67 KCAL/MOL
REMARK 927      BINDING AFFINITY PREDICTED BY RF-SCORE:    0.00 PKD
ROOT
HETATM    1  C   UNL     1      -8.051   1.511  64.668  1.00  0.00    -0.069 C  
HETATM    2  O   UNL     1      -8.418   2.809  65.132  1.00  0.00    -0.091 OA 
ENDROOT
BRANCH   2   3
HETATM    3  C   UNL     1      -8.794   2.890  66.449  1.00  0.00    -0.145 A  
HETATM    4  C   UNL     1      -9.381   4.097  66.870  1.00  0.00    -0.174 A  
HETATM    5  C   UNL     1      -8.548   1.885  67.387  1.00  0.00    -0.107 A  
HETATM    6  C   UNL     1      -9.726   4.256  68.220  1.00  0.00    -0.162 A  
HETATM    7  C   UNL     1      -9.419   3.269  69.174  1.00  0.00    -0.189 A  
HETATM    8  C   UNL     1      -8.854   2.068  68.735  1.00  0.00    -0.138 A  
BRANCH   4   9
HETATM    9  O   UNL     1      -9.564   5.058  65.906  1.00  0.00    -0.157 OA 
HETATM   10  C   UNL     1      -8.910   6.310  66.101  1.00  0.00    -0.153 C  
ENDBRANCH   4   9
BRANCH   7  11
HETATM   11  C   UNL     1      -9.685   3.478  70.649  1.00  0.00    -0.196 C  
BRANCH  11  12
HETATM   12  C   UNL     1      -9.115   4.768  71.205  1.00  0.00    -0.137 A  
HETATM   13  N   UNL     1      -7.820   4.675  71.622  1.00  0.00    -0.094 NA 
HETATM   14  C   UNL     1      -7.284   5.739  72.246  1.00  0.00    -0.089 A  
HETATM   15  C   UNL     1      -7.971   6.912  72.473  1.00  0.00    -0.099 A  
HETATM   16  C   UNL     1      -9.301   7.008  72.049  1.00  0.00    -0.149 A  
HETATM   17  C   UNL     1     -10.038   8.174  72.304  1.00  0.00    -0.338 A  
HETATM   18  C   UNL     1     -11.398   8.291  71.966  1.00  0.00    -0.325 A  
HETATM   19  C   UNL     1      -9.909   5.929  71.392  1.00  0.00    -0.205 A  
HETATM   20  C   UNL     1     -12.014   7.240  71.285  1.00  0.00    -0.324 A  
HETATM   21  C   UNL     1     -11.264   6.082  71.006  1.00  0.00    -0.332 A  
BRANCH  18  22
HETATM   22  O   UNL     1     -12.104   9.425  72.290  1.00  0.00    -0.290 OA 
HETATM   23  C   UNL     1     -12.631  10.164  71.186  1.00  0.00    -0.386 C  
ENDBRANCH  18  22
BRANCH  20  24
HETATM   24  O   UNL     1     -13.309   7.098  70.866  1.00  0.00    -0.184 OA 
HETATM   25  C   UNL     1     -14.396   7.078  71.772  1.00  0.00    -0.294 C  
ENDBRANCH  20  24
ENDBRANCH  11  12
ENDBRANCH   7  11
ENDBRANCH   2   3
TORSDOF 6
ENDMDL
MODEL      208
REMARK 921   NORMALIZED FREE ENERGY PREDICTED BY IDOCK:   -3.46 KCAL/MOL
REMARK 922        TOTAL FREE ENERGY PREDICTED BY IDOCK:   -5.48 KCAL/MOL
REMARK 923 INTER-LIGAND FREE ENERGY PREDICTED BY IDOCK:   -4.66 KCAL/MOL
REMARK 924 INTRA-LIGAND FREE ENERGY PREDICTED BY IDOCK:   -0.81 KCAL/MOL
REMARK 927      BINDING AFFINITY PREDICTED BY RF-SCORE:    0.00 PKD
ROOT
HETATM    1  C   UNL     1      -5.154  10.224  65.867  1.00  0.00    -0.051 C  
HETATM    2  O   UNL     1      -5.495   8.895  65.477  1.00  0.00    -0.038 OA 
ENDROOT
BRANCH   2   3
HETATM    3  C   UNL     1      -6.668   8.402  65.991  1.00  0.00    -0.061 A  
HETATM    4  C   UNL     1      -7.847   8.702  65.287  1.00  0.00    -0.107 A  
HETATM    5  C   UNL     1      -6.750   7.705  67.199  1.00  0.00    -0.067 A  
HETATM    6  C   UNL     1      -9.080   8.276  65.802  1.00  0.00    -0.169 A  
HETATM    7  C   UNL     1      -9.167   7.632  67.050  1.00  0.00    -0.168 A  
HETATM    8  C   UNL     1      -7.983   7.324  67.727  1.00  0.00    -0.115 A  
BRANCH   4   9
HETATM    9  O   UNL     1      -7.701   9.420  64.125  1.00  0.00    -0.108 OA 
HETATM   10  C   UNL     1      -8.814  10.201  63.696  1.00  0.00    -0.226 C  
ENDBRANCH   4   9
BRANCH   7  11
HETATM   11  C   UNL     1     -10.499   7.269  67.667  1.00  0.00    -0.310 C  
BRANCH  11  12
HETATM   12  C   UNL     1     -10.775   7.953  68.992  1.00  0.00    -0.096 A  
HETATM   13  N   UNL     1     -10.920   9.306  68.906  1.00  0.00    -0.088 NA 
HETATM   14  C   UNL     1     -11.037   9.998  70.052  1.00  0.00    -0.295 A  
HETATM   15  C   UNL     1     -11.028   9.411  71.299  1.00  0.00    -0.440 A  
HETATM   16  C   UNL     1     -10.875   8.023  71.390  1.00  0.00    -0.271 A  
HETATM   17  C   UNL     1     -10.820   7.403  72.647  1.00  0.00    -0.349 A  
HETATM   18  C   UNL     1     -10.591   6.023  72.793  1.00  0.00    -0.225 A  
HETATM   19  C   UNL     1     -10.750   7.252  70.226  1.00  0.00    -0.252 A  
HETATM   20  C   UNL     1     -10.494   5.233  71.647  1.00  0.00    -0.214 A  
HETATM   21  C   UNL     1     -10.578   5.855  70.386  1.00  0.00    -0.353 A  
BRANCH  18  22
HETATM   22  O   UNL     1     -10.479   5.461  74.042  1.00  0.00    -0.252 OA 
HETATM   23  C   UNL     1      -9.150   5.361  74.561  1.00  0.00    -0.121 C  
ENDBRANCH  18  22
BRANCH  20  24
HETATM   24  O   UNL     1     -10.259   3.891  71.516  1.00  0.00    -0.121 OA 
HETATM   25  C   UNL     1      -9.289   3.380  70.620  1.00  0.00    -0.162 C  
ENDBRANCH  20  24
ENDBRANCH  11  12
ENDBRANCH   7  11
ENDBRANCH   2   3
TORSDOF 6
ENDMDL
MODEL      209
REMARK 921   NORMALIZED FREE ENERGY PREDICTED BY IDOCK:   -3.46 KCAL/MOL
REMARK 922        TOTAL FREE ENERGY PREDICTED BY IDOCK:   -5.47 KCAL/MOL
REMARK 923 INTER-LIGAND FREE ENERGY PREDICTED BY IDOCK:   -4.64 KCAL/MOL
REMARK 924 INTRA-LIGAND FREE ENERGY PREDICTED BY IDOCK:   -0.84 KCAL/MOL
REMARK 927      BINDING AFFINITY PREDICTED BY RF-SCORE:    0.00 PKD
ROOT
HETATM    1  C   UNL     1     -12.360   8.683  72.200  1.00  0.00    -0.386 C  
HETATM    2  O   UNL     1     -12.689   7.301  72.077  1.00  0.00    -0.278 OA 
ENDROOT
BRANCH   2   3
HETATM    3  C   UNL     1     -11.817   6.540  71.341  1.00  0.00    -0.329 A  
HETATM    4  C   UNL     1     -10.975   5.668  72.053  1.00  0.00    -0.243 A  
HETATM    5  C   UNL     1     -11.672   6.653  69.956  1.00  0.00    -0.378 A  
HETATM    6  C   UNL     1     -10.021   4.914  71.355  1.00  0.00    -0.266 A  
HETATM    7  C   UNL     1      -9.831   5.077  69.970  1.00  0.00    -0.298 A  
HETATM    8  C   UNL     1     -10.691   5.933  69.275  1.00  0.00    -0.401 A  
BRANCH   4   9
HETATM    9  O   UNL     1     -11.144   5.630  73.416  1.00  0.00    -0.269 OA 
HETATM   10  C   UNL     1     -10.234   6.388  74.209  1.00  0.00    -0.344 C  
ENDBRANCH   4   9
BRANCH   7  11
HETATM   11  C   UNL     1      -8.732   4.352  69.227  1.00  0.00    -0.120 C  
BRANCH  11  12
HETATM   12  C   UNL     1      -8.739   4.587  67.728  1.00  0.00    -0.104 A  
HETATM   13  N   UNL     1      -9.352   3.603  67.009  1.00  0.00    -0.188 NA 
HETATM   14  C   UNL     1      -9.286   3.673  65.668  1.00  0.00    -0.156 A  
HETATM   15  C   UNL     1      -8.643   4.687  64.991  1.00  0.00    -0.138 A  
HETATM   16  C   UNL     1      -8.010   5.694  65.727  1.00  0.00    -0.109 A  
HETATM   17  C   UNL     1      -7.312   6.716  65.065  1.00  0.00    -0.082 A  
HETATM   18  C   UNL     1      -6.597   7.707  65.759  1.00  0.00    -0.045 A  
HETATM   19  C   UNL     1      -8.049   5.671  67.128  1.00  0.00    -0.102 A  
HETATM   20  C   UNL     1      -6.647   7.720  67.155  1.00  0.00    -0.063 A  
HETATM   21  C   UNL     1      -7.371   6.709  67.815  1.00  0.00    -0.096 A  
BRANCH  18  22
HETATM   22  O   UNL     1      -5.871   8.654  65.077  1.00  0.00    -0.047 OA 
HETATM   23  C   UNL     1      -6.540   9.895  64.837  1.00  0.00    -0.119 C  
ENDBRANCH  18  22
BRANCH  20  24
HETATM   24  O   UNL     1      -6.035   8.551  68.053  1.00  0.00    -0.045 OA 
HETATM   25  C   UNL     1      -5.844   8.185  69.407  1.00  0.00    -0.030 C  
ENDBRANCH  20  24
ENDBRANCH  11  12
ENDBRANCH   7  11
ENDBRANCH   2   3
TORSDOF 6
ENDMDL
MODEL      210
REMARK 921   NORMALIZED FREE ENERGY PREDICTED BY IDOCK:   -3.45 KCAL/MOL
REMARK 922        TOTAL FREE ENERGY PREDICTED BY IDOCK:   -5.47 KCAL/MOL
REMARK 923 INTER-LIGAND FREE ENERGY PREDICTED BY IDOCK:   -4.85 KCAL/MOL
REMARK 924 INTRA-LIGAND FREE ENERGY PREDICTED BY IDOCK:   -0.62 KCAL/MOL
REMARK 927      BINDING AFFINITY PREDICTED BY RF-SCORE:    0.00 PKD
ROOT
HETATM    1  C   UNL     1     -11.005   3.371  73.321  1.00  0.00    -0.164 C  
HETATM    2  O   UNL     1     -11.425   4.708  73.056  1.00  0.00    -0.237 OA 
ENDROOT
BRANCH   2   3
HETATM    3  C   UNL     1     -10.755   5.359  72.051  1.00  0.00    -0.220 A  
HETATM    4  C   UNL     1     -11.222   6.637  71.698  1.00  0.00    -0.264 A  
HETATM    5  C   UNL     1      -9.709   4.787  71.323  1.00  0.00    -0.245 A  
HETATM    6  C   UNL     1     -10.613   7.320  70.635  1.00  0.00    -0.240 A  
HETATM    7  C   UNL     1      -9.605   6.717  69.862  1.00  0.00    -0.159 A  
HETATM    8  C   UNL     1      -9.139   5.455  70.239  1.00  0.00    -0.166 A  
BRANCH   4   9
HETATM    9  O   UNL     1     -12.276   7.128  72.431  1.00  0.00    -0.183 OA 
HETATM   10  C   UNL     1     -12.618   8.499  72.244  1.00  0.00    -0.381 C  
ENDBRANCH   4   9
BRANCH   7  11
HETATM   11  C   UNL     1      -9.020   7.400  68.645  1.00  0.00    -0.131 C  
BRANCH  11  12
HETATM   12  C   UNL     1      -8.208   8.641  68.963  1.00  0.00    -0.122 A  
HETATM   13  N   UNL     1      -7.302   8.476  69.969  1.00  0.00    -0.054 NA 
HETATM   14  C   UNL     1      -6.636   9.563  70.397  1.00  0.00    -0.086 A  
HETATM   15  C   UNL     1      -6.816  10.823  69.867  1.00  0.00    -0.146 A  
HETATM   16  C   UNL     1      -7.748  10.994  68.838  1.00  0.00    -0.140 A  
HETATM   17  C   UNL     1      -7.982  12.271  68.307  1.00  0.00    -0.163 A  
HETATM   18  C   UNL     1      -8.962  12.509  67.327  1.00  0.00    -0.192 A  
HETATM   19  C   UNL     1      -8.470   9.894  68.352  1.00  0.00    -0.111 A  
HETATM   20  C   UNL     1      -9.671  11.423  66.809  1.00  0.00    -0.198 A  
HETATM   21  C   UNL     1      -9.413  10.138  67.323  1.00  0.00    -0.178 A  
BRANCH  18  22
HETATM   22  O   UNL     1      -9.208  13.784  66.878  1.00  0.00    -0.240 OA 
HETATM   23  C   UNL     1      -8.694  14.840  67.694  1.00  0.00    -0.178 C  
ENDBRANCH  18  22
BRANCH  20  24
HETATM   24  O   UNL     1     -10.671  11.386  65.877  1.00  0.00    -0.264 OA 
HETATM   25  C   UNL     1     -11.770  12.278  65.916  1.00  0.00    -0.389 C  
ENDBRANCH  20  24
ENDBRANCH  11  12
ENDBRANCH   7  11
ENDBRANCH   2   3
TORSDOF 6
ENDMDL
MODEL      211
REMARK 921   NORMALIZED FREE ENERGY PREDICTED BY IDOCK:   -3.44 KCAL/MOL
REMARK 922        TOTAL FREE ENERGY PREDICTED BY IDOCK:   -5.45 KCAL/MOL
REMARK 923 INTER-LIGAND FREE ENERGY PREDICTED BY IDOCK:   -4.66 KCAL/MOL
REMARK 924 INTRA-LIGAND FREE ENERGY PREDICTED BY IDOCK:   -0.78 KCAL/MOL
REMARK 927      BINDING AFFINITY PREDICTED BY RF-SCORE:    0.00 PKD
ROOT
HETATM    1  C   UNL     1     -11.168  10.689  69.842  1.00  0.00    -0.308 C  
HETATM    2  O   UNL     1     -11.335  10.082  71.122  1.00  0.00    -0.360 OA 
ENDROOT
BRANCH   2   3
HETATM    3  C   UNL     1     -11.090   8.734  71.183  1.00  0.00    -0.276 A  
HETATM    4  C   UNL     1     -11.997   7.954  71.922  1.00  0.00    -0.305 A  
HETATM    5  C   UNL     1      -9.960   8.128  70.628  1.00  0.00    -0.204 A  
HETATM    6  C   UNL     1     -11.758   6.580  72.069  1.00  0.00    -0.367 A  
HETATM    7  C   UNL     1     -10.588   5.984  71.566  1.00  0.00    -0.295 A  
HETATM    8  C   UNL     1      -9.707   6.769  70.816  1.00  0.00    -0.187 A  
BRANCH   4   9
HETATM    9  O   UNL     1     -13.068   8.616  72.471  1.00  0.00    -0.363 OA 
HETATM   10  C   UNL     1     -14.359   8.317  71.947  1.00  0.00    -0.476 C  
ENDBRANCH   4   9
BRANCH   7  11
HETATM   11  C   UNL     1     -10.267   4.527  71.815  1.00  0.00    -0.226 C  
BRANCH  11  12
HETATM   12  C   UNL     1      -8.826   4.152  71.524  1.00  0.00    -0.112 A  
HETATM   13  N   UNL     1      -7.988   4.272  72.593  1.00  0.00    -0.084 NA 
HETATM   14  C   UNL     1      -6.674   4.084  72.384  1.00  0.00    -0.036 A  
HETATM   15  C   UNL     1      -6.137   3.769  71.154  1.00  0.00    -0.014 A  
HETATM   16  C   UNL     1      -6.995   3.650  70.055  1.00  0.00    -0.041 A  
HETATM   17  C   UNL     1      -6.473   3.371  68.783  1.00  0.00    -0.033 A  
HETATM   18  C   UNL     1      -7.283   3.317  67.635  1.00  0.00    -0.054 A  
HETATM   19  C   UNL     1      -8.375   3.834  70.217  1.00  0.00    -0.081 A  
HETATM   20  C   UNL     1      -8.663   3.469  67.778  1.00  0.00    -0.108 A  
HETATM   21  C   UNL     1      -9.187   3.720  69.061  1.00  0.00    -0.221 A  
BRANCH  18  22
HETATM   22  O   UNL     1      -6.727   3.106  66.396  1.00  0.00    -0.045 OA 
HETATM   23  C   UNL     1      -5.982   4.200  65.855  1.00  0.00    -0.023 C  
ENDBRANCH  18  22
BRANCH  20  24
HETATM   24  O   UNL     1      -9.653   3.476  66.835  1.00  0.00    -0.197 OA 
HETATM   25  C   UNL     1      -9.924   4.613  66.035  1.00  0.00    -0.244 C  
ENDBRANCH  20  24
ENDBRANCH  11  12
ENDBRANCH   7  11
ENDBRANCH   2   3
TORSDOF 6
ENDMDL
MODEL      212
REMARK 921   NORMALIZED FREE ENERGY PREDICTED BY IDOCK:   -3.42 KCAL/MOL
REMARK 922        TOTAL FREE ENERGY PREDICTED BY IDOCK:   -5.42 KCAL/MOL
REMARK 923 INTER-LIGAND FREE ENERGY PREDICTED BY IDOCK:   -4.54 KCAL/MOL
REMARK 924 INTRA-LIGAND FREE ENERGY PREDICTED BY IDOCK:   -0.88 KCAL/MOL
REMARK 927      BINDING AFFINITY PREDICTED BY RF-SCORE:    0.00 PKD
ROOT
HETATM    1  C   UNL     1     -13.617  10.829  71.884  1.00  0.00    -0.078 C  
HETATM    2  O   UNL     1     -13.135   9.918  70.898  1.00  0.00    -0.348 OA 
ENDROOT
BRANCH   2   3
HETATM    3  C   UNL     1     -11.771   9.834  70.775  1.00  0.00    -0.328 A  
HETATM    4  C   UNL     1     -11.203  10.371  69.606  1.00  0.00    -0.277 A  
HETATM    5  C   UNL     1     -10.951   9.180  71.697  1.00  0.00    -0.445 A  
HETATM    6  C   UNL     1      -9.820  10.256  69.401  1.00  0.00    -0.247 A  
HETATM    7  C   UNL     1      -9.006   9.540  70.297  1.00  0.00    -0.288 A  
HETATM    8  C   UNL     1      -9.583   9.031  71.464  1.00  0.00    -0.340 A  
BRANCH   4   9
HETATM    9  O   UNL     1     -12.069  10.970  68.724  1.00  0.00    -0.518 OA 
HETATM   10  C   UNL     1     -11.925  12.374  68.521  1.00  0.00    -0.223 C  
ENDBRANCH   4   9
BRANCH   7  11
HETATM   11  C   UNL     1      -7.534   9.314  70.029  1.00  0.00    -0.094 C  
BRANCH  11  12
HETATM   12  C   UNL     1      -6.996  10.092  68.843  1.00  0.00    -0.062 A  
HETATM   13  N   UNL     1      -6.557  11.347  69.147  1.00  0.00    -0.085 NA 
HETATM   14  C   UNL     1      -6.187  12.145  68.130  1.00  0.00    -0.055 A  
HETATM   15  C   UNL     1      -6.218  11.756  66.808  1.00  0.00    -0.094 A  
HETATM   16  C   UNL     1      -6.672  10.470  66.494  1.00  0.00    -0.105 A  
HETATM   17  C   UNL     1      -6.755  10.061  65.155  1.00  0.00    -0.126 A  
HETATM   18  C   UNL     1      -7.275   8.810  64.783  1.00  0.00    -0.091 A  
HETATM   19  C   UNL     1      -7.070   9.596  67.515  1.00  0.00    -0.088 A  
HETATM   20  C   UNL     1      -7.649   7.912  65.785  1.00  0.00    -0.083 A  
HETATM   21  C   UNL     1      -7.538   8.315  67.130  1.00  0.00    -0.093 A  
BRANCH  18  22
HETATM   22  O   UNL     1      -7.401   8.470  63.458  1.00  0.00    -0.099 OA 
HETATM   23  C   UNL     1      -6.951   9.451  62.519  1.00  0.00    -0.097 C  
ENDBRANCH  18  22
BRANCH  20  24
HETATM   24  O   UNL     1      -8.191   6.660  65.692  1.00  0.00    -0.125 OA 
HETATM   25  C   UNL     1      -9.268   6.243  66.511  1.00  0.00    -0.154 C  
ENDBRANCH  20  24
ENDBRANCH  11  12
ENDBRANCH   7  11
ENDBRANCH   2   3
TORSDOF 6
ENDMDL
MODEL      213
REMARK 921   NORMALIZED FREE ENERGY PREDICTED BY IDOCK:   -3.38 KCAL/MOL
REMARK 922        TOTAL FREE ENERGY PREDICTED BY IDOCK:   -5.37 KCAL/MOL
REMARK 923 INTER-LIGAND FREE ENERGY PREDICTED BY IDOCK:   -4.63 KCAL/MOL
REMARK 924 INTRA-LIGAND FREE ENERGY PREDICTED BY IDOCK:   -0.75 KCAL/MOL
REMARK 927      BINDING AFFINITY PREDICTED BY RF-SCORE:    0.00 PKD
ROOT
HETATM    1  C   UNL     1      -8.625   9.690  62.771  1.00  0.00    -0.204 C  
HETATM    2  O   UNL     1      -9.432  10.707  63.361  1.00  0.00    -0.258 OA 
ENDROOT
BRANCH   2   3
HETATM    3  C   UNL     1      -9.572  10.646  64.725  1.00  0.00    -0.280 A  
HETATM    4  C   UNL     1      -9.805  11.858  65.397  1.00  0.00    -0.233 A  
HETATM    5  C   UNL     1      -9.412   9.473  65.465  1.00  0.00    -0.334 A  
HETATM    6  C   UNL     1      -9.893  11.861  66.796  1.00  0.00    -0.214 A  
HETATM    7  C   UNL     1      -9.667  10.691  67.544  1.00  0.00    -0.189 A  
HETATM    8  C   UNL     1      -9.457   9.491  66.860  1.00  0.00    -0.204 A  
BRANCH   4   9
HETATM    9  O   UNL     1      -9.918  12.981  64.612  1.00  0.00    -0.240 OA 
HETATM   10  C   UNL     1     -11.213  13.566  64.493  1.00  0.00    -0.375 C  
ENDBRANCH   4   9
BRANCH   7  11
HETATM   11  C   UNL     1      -9.649  10.705  69.057  1.00  0.00    -0.207 C  
BRANCH  11  12
HETATM   12  C   UNL     1      -8.332  10.259  69.664  1.00  0.00    -0.123 A  
HETATM   13  N   UNL     1      -7.228  10.772  69.049  1.00  0.00    -0.087 NA 
HETATM   14  C   UNL     1      -6.025  10.323  69.445  1.00  0.00    -0.038 A  
HETATM   15  C   UNL     1      -5.853   9.385  70.441  1.00  0.00    -0.044 A  
HETATM   16  C   UNL     1      -6.984   8.855  71.070  1.00  0.00    -0.085 A  
HETATM   17  C   UNL     1      -6.843   7.869  72.057  1.00  0.00    -0.066 A  
HETATM   18  C   UNL     1      -7.949   7.250  72.664  1.00  0.00    -0.098 A  
HETATM   19  C   UNL     1      -8.265   9.288  70.697  1.00  0.00    -0.224 A  
HETATM   20  C   UNL     1      -9.232   7.688  72.329  1.00  0.00    -0.144 A  
HETATM   21  C   UNL     1      -9.370   8.698  71.358  1.00  0.00    -0.305 A  
BRANCH  18  22
HETATM   22  O   UNL     1      -7.772   6.241  73.581  1.00  0.00    -0.094 OA 
HETATM   23  C   UNL     1      -7.377   4.976  73.044  1.00  0.00    -0.087 C  
ENDBRANCH  18  22
BRANCH  20  24
HETATM   24  O   UNL     1     -10.455   7.247  72.754  1.00  0.00    -0.215 OA 
HETATM   25  C   UNL     1     -11.608   7.316  71.935  1.00  0.00    -0.277 C  
ENDBRANCH  20  24
ENDBRANCH  11  12
ENDBRANCH   7  11
ENDBRANCH   2   3
TORSDOF 6
ENDMDL
MODEL      214
REMARK 921   NORMALIZED FREE ENERGY PREDICTED BY IDOCK:   -3.38 KCAL/MOL
REMARK 922        TOTAL FREE ENERGY PREDICTED BY IDOCK:   -5.37 KCAL/MOL
REMARK 923 INTER-LIGAND FREE ENERGY PREDICTED BY IDOCK:   -5.16 KCAL/MOL
REMARK 924 INTRA-LIGAND FREE ENERGY PREDICTED BY IDOCK:   -0.21 KCAL/MOL
REMARK 927      BINDING AFFINITY PREDICTED BY RF-SCORE:    0.00 PKD
ROOT
HETATM    1  C   UNL     1      -7.301   3.533  68.238  1.00  0.00    -0.051 C  
HETATM    2  O   UNL     1      -6.300   4.358  67.644  1.00  0.00    -0.035 OA 
ENDROOT
BRANCH   2   3
HETATM    3  C   UNL     1      -6.684   5.639  67.339  1.00  0.00    -0.059 A  
HETATM    4  C   UNL     1      -6.372   6.107  66.050  1.00  0.00    -0.038 A  
HETATM    5  C   UNL     1      -7.279   6.507  68.257  1.00  0.00    -0.085 A  
HETATM    6  C   UNL     1      -6.685   7.430  65.707  1.00  0.00    -0.052 A  
HETATM    7  C   UNL     1      -7.224   8.322  66.652  1.00  0.00    -0.081 A  
HETATM    8  C   UNL     1      -7.547   7.835  67.922  1.00  0.00    -0.116 A  
BRANCH   4   9
HETATM    9  O   UNL     1      -5.756   5.214  65.207  1.00  0.00    -0.013 OA 
HETATM   10  C   UNL     1      -6.103   5.275  63.826  1.00  0.00    -0.022 C  
ENDBRANCH   4   9
BRANCH   7  11
HETATM   11  C   UNL     1      -7.462   9.780  66.325  1.00  0.00    -0.100 C  
BRANCH  11  12
HETATM   12  C   UNL     1      -8.242  10.007  65.044  1.00  0.00    -0.148 A  
HETATM   13  N   UNL     1      -7.590   9.615  63.913  1.00  0.00    -0.121 NA 
HETATM   14  C   UNL     1      -8.159   9.903  62.729  1.00  0.00    -0.134 A  
HETATM   15  C   UNL     1      -9.364  10.560  62.605  1.00  0.00    -0.337 A  
HETATM   16  C   UNL     1     -10.033  10.967  63.765  1.00  0.00    -0.404 A  
HETATM   17  C   UNL     1     -11.240  11.674  63.669  1.00  0.00    -0.497 A  
HETATM   18  C   UNL     1     -11.911  12.171  64.800  1.00  0.00    -0.307 A  
HETATM   19  C   UNL     1      -9.485  10.692  65.026  1.00  0.00    -0.293 A  
HETATM   20  C   UNL     1     -11.398  11.883  66.066  1.00  0.00    -0.316 A  
HETATM   21  C   UNL     1     -10.201  11.148  66.160  1.00  0.00    -0.293 A  
BRANCH  18  22
HETATM   22  O   UNL     1     -13.058  12.916  64.663  1.00  0.00    -0.742 OA 
HETATM   23  C   UNL     1     -12.977  14.270  65.115  1.00  0.00    -0.112 C  
ENDBRANCH  18  22
BRANCH  20  24
HETATM   24  O   UNL     1     -11.842  12.256  67.305  1.00  0.00    -0.500 OA 
HETATM   25  C   UNL     1     -11.765  11.392  68.424  1.00  0.00    -0.303 C  
ENDBRANCH  20  24
ENDBRANCH  11  12
ENDBRANCH   7  11
ENDBRANCH   2   3
TORSDOF 6
ENDMDL
MODEL      215
REMARK 921   NORMALIZED FREE ENERGY PREDICTED BY IDOCK:   -3.34 KCAL/MOL
REMARK 922        TOTAL FREE ENERGY PREDICTED BY IDOCK:   -5.31 KCAL/MOL
REMARK 923 INTER-LIGAND FREE ENERGY PREDICTED BY IDOCK:   -4.59 KCAL/MOL
REMARK 924 INTRA-LIGAND FREE ENERGY PREDICTED BY IDOCK:   -0.72 KCAL/MOL
REMARK 927      BINDING AFFINITY PREDICTED BY RF-SCORE:    0.00 PKD
ROOT
HETATM    1  C   UNL     1      -6.399  10.747  65.628  1.00  0.00    -0.059 C  
HETATM    2  O   UNL     1      -7.517  11.004  66.476  1.00  0.00    -0.139 OA 
ENDROOT
BRANCH   2   3
HETATM    3  C   UNL     1      -8.405   9.969  66.627  1.00  0.00    -0.125 A  
HETATM    4  C   UNL     1      -9.721  10.306  66.988  1.00  0.00    -0.176 A  
HETATM    5  C   UNL     1      -8.047   8.622  66.525  1.00  0.00    -0.103 A  
HETATM    6  C   UNL     1     -10.653   9.283  67.217  1.00  0.00    -0.303 A  
HETATM    7  C   UNL     1     -10.274   7.929  67.178  1.00  0.00    -0.360 A  
HETATM    8  C   UNL     1      -8.967   7.610  66.798  1.00  0.00    -0.166 A  
BRANCH   4   9
HETATM    9  O   UNL     1     -10.000  11.646  67.106  1.00  0.00    -0.197 OA 
HETATM   10  C   UNL     1     -11.328  12.066  66.804  1.00  0.00    -0.339 C  
ENDBRANCH   4   9
BRANCH   7  11
HETATM   11  C   UNL     1     -11.242   6.822  67.533  1.00  0.00    -0.246 C  
BRANCH  11  12
HETATM   12  C   UNL     1     -10.793   5.954  68.693  1.00  0.00    -0.261 A  
HETATM   13  N   UNL     1     -11.116   6.448  69.922  1.00  0.00    -0.345 NA 
HETATM   14  C   UNL     1     -10.640   5.804  71.001  1.00  0.00    -0.253 A  
HETATM   15  C   UNL     1      -9.855   4.673  70.927  1.00  0.00    -0.272 A  
HETATM   16  C   UNL     1      -9.518   4.168  69.667  1.00  0.00    -0.259 A  
HETATM   17  C   UNL     1      -8.687   3.043  69.560  1.00  0.00    -0.131 A  
HETATM   18  C   UNL     1      -8.258   2.542  68.319  1.00  0.00    -0.057 A  
HETATM   19  C   UNL     1      -9.989   4.799  68.507  1.00  0.00    -0.160 A  
HETATM   20  C   UNL     1      -8.739   3.138  67.151  1.00  0.00    -0.123 A  
HETATM   21  C   UNL     1      -9.596   4.249  67.262  1.00  0.00    -0.224 A  
BRANCH  18  22
HETATM   22  O   UNL     1      -7.391   1.478  68.255  1.00  0.00    -0.042 OA 
HETATM   23  C   UNL     1      -6.050   1.791  67.870  1.00  0.00    -0.024 C  
ENDBRANCH  18  22
BRANCH  20  24
HETATM   24  O   UNL     1      -8.467   2.858  65.840  1.00  0.00    -0.102 OA 
HETATM   25  C   UNL     1      -8.934   1.680  65.209  1.00  0.00    -0.123 C  
ENDBRANCH  20  24
ENDBRANCH  11  12
ENDBRANCH   7  11
ENDBRANCH   2   3
TORSDOF 6
ENDMDL
MODEL      216
REMARK 921   NORMALIZED FREE ENERGY PREDICTED BY IDOCK:   -3.33 KCAL/MOL
REMARK 922        TOTAL FREE ENERGY PREDICTED BY IDOCK:   -5.31 KCAL/MOL
REMARK 923 INTER-LIGAND FREE ENERGY PREDICTED BY IDOCK:   -4.53 KCAL/MOL
REMARK 924 INTRA-LIGAND FREE ENERGY PREDICTED BY IDOCK:   -0.78 KCAL/MOL
REMARK 927      BINDING AFFINITY PREDICTED BY RF-SCORE:    0.00 PKD
ROOT
HETATM    1  C   UNL     1     -10.547  10.916  69.036  1.00  0.00    -0.216 C  
HETATM    2  O   UNL     1     -11.176  10.821  70.313  1.00  0.00    -0.298 OA 
ENDROOT
BRANCH   2   3
HETATM    3  C   UNL     1     -10.897   9.689  71.036  1.00  0.00    -0.342 A  
HETATM    4  C   UNL     1     -11.938   9.161  71.820  1.00  0.00    -0.379 A  
HETATM    5  C   UNL     1      -9.630   9.102  71.094  1.00  0.00    -0.347 A  
HETATM    6  C   UNL     1     -11.688   8.042  72.627  1.00  0.00    -0.418 A  
HETATM    7  C   UNL     1     -10.398   7.492  72.735  1.00  0.00    -0.331 A  
HETATM    8  C   UNL     1      -9.379   8.016  71.934  1.00  0.00    -0.225 A  
BRANCH   4   9
HETATM    9  O   UNL     1     -13.149   9.806  71.744  1.00  0.00    -0.369 OA 
HETATM   10  C   UNL     1     -14.302   9.080  72.164  1.00  0.00    -0.267 C  
ENDBRANCH   4   9
BRANCH   7  11
HETATM   11  C   UNL     1     -10.093   6.356  73.686  1.00  0.00    -0.256 C  
BRANCH  11  12
HETATM   12  C   UNL     1      -8.643   5.912  73.676  1.00  0.00    -0.122 A  
HETATM   13  N   UNL     1      -7.839   6.599  74.537  1.00  0.00    -0.116 NA 
HETATM   14  C   UNL     1      -6.518   6.353  74.492  1.00  0.00    -0.074 A  
HETATM   15  C   UNL     1      -5.943   5.441  73.634  1.00  0.00    -0.046 A  
HETATM   16  C   UNL     1      -6.766   4.738  72.747  1.00  0.00    -0.060 A  
HETATM   17  C   UNL     1      -6.205   3.834  71.833  1.00  0.00    -0.014 A  
HETATM   18  C   UNL     1      -6.978   3.161  70.872  1.00  0.00    -0.033 A  
HETATM   19  C   UNL     1      -8.152   4.954  72.751  1.00  0.00    -0.101 A  
HETATM   20  C   UNL     1      -8.363   3.339  70.878  1.00  0.00    -0.065 A  
HETATM   21  C   UNL     1      -8.927   4.226  71.816  1.00  0.00    -0.156 A  
BRANCH  18  22
HETATM   22  O   UNL     1      -6.384   2.332  69.951  1.00  0.00    -0.024 OA 
HETATM   23  C   UNL     1      -5.331   2.915  69.179  1.00  0.00    -0.013 C  
ENDBRANCH  18  22
BRANCH  20  24
HETATM   24  O   UNL     1      -9.324   2.823  70.053  1.00  0.00    -0.132 OA 
HETATM   25  C   UNL     1      -9.427   3.198  68.691  1.00  0.00    -0.126 C  
ENDBRANCH  20  24
ENDBRANCH  11  12
ENDBRANCH   7  11
ENDBRANCH   2   3
TORSDOF 6
ENDMDL
MODEL      217
REMARK 921   NORMALIZED FREE ENERGY PREDICTED BY IDOCK:   -3.28 KCAL/MOL
REMARK 922        TOTAL FREE ENERGY PREDICTED BY IDOCK:   -5.23 KCAL/MOL
REMARK 923 INTER-LIGAND FREE ENERGY PREDICTED BY IDOCK:   -5.80 KCAL/MOL
REMARK 924 INTRA-LIGAND FREE ENERGY PREDICTED BY IDOCK:    0.57 KCAL/MOL
REMARK 927      BINDING AFFINITY PREDICTED BY RF-SCORE:    0.00 PKD
ROOT
HETATM    1  C   UNL     1      -8.096   4.735  68.969  1.00  0.00    -0.078 C  
HETATM    2  O   UNL     1      -7.300   5.875  68.650  1.00  0.00    -0.080 OA 
ENDROOT
BRANCH   2   3
HETATM    3  C   UNL     1      -7.905   6.830  67.872  1.00  0.00    -0.113 A  
HETATM    4  C   UNL     1      -7.384   8.133  67.944  1.00  0.00    -0.096 A  
HETATM    5  C   UNL     1      -9.042   6.588  67.097  1.00  0.00    -0.122 A  
HETATM    6  C   UNL     1      -8.004   9.160  67.218  1.00  0.00    -0.102 A  
HETATM    7  C   UNL     1      -9.186   8.930  66.491  1.00  0.00    -0.231 A  
HETATM    8  C   UNL     1      -9.679   7.624  66.413  1.00  0.00    -0.197 A  
BRANCH   4   9
HETATM    9  O   UNL     1      -6.286   8.311  68.751  1.00  0.00    -0.043 OA 
HETATM   10  C   UNL     1      -5.195   9.056  68.215  1.00  0.00    -0.034 C  
ENDBRANCH   4   9
BRANCH   7  11
HETATM   11  C   UNL     1      -9.924  10.052  65.796  1.00  0.00    -0.346 C  
BRANCH  11  12
HETATM   12  C   UNL     1     -10.698  10.959  66.735  1.00  0.00    -0.252 A  
HETATM   13  N   UNL     1     -10.872  12.229  66.271  1.00  0.00    -0.268 NA 
HETATM   14  C   UNL     1     -11.433  13.127  67.100  1.00  0.00    -0.334 A  
HETATM   15  C   UNL     1     -11.846  12.826  68.380  1.00  0.00    -0.353 A  
HETATM   16  C   UNL     1     -11.664  11.524  68.859  1.00  0.00    -0.403 A  
HETATM   17  C   UNL     1     -12.036  11.199  70.172  1.00  0.00    -0.449 A  
HETATM   18  C   UNL     1     -11.804   9.927  70.724  1.00  0.00    -0.330 A  
HETATM   19  C   UNL     1     -11.085  10.547  68.036  1.00  0.00    -0.361 A  
HETATM   20  C   UNL     1     -11.256   8.932  69.914  1.00  0.00    -0.065 A  
HETATM   21  C   UNL     1     -10.910   9.253  68.587  1.00  0.00    -0.120 A  
BRANCH  18  22
HETATM   22  O   UNL     1     -12.123   9.665  72.035  1.00  0.00    -0.343 OA 
HETATM   23  C   UNL     1     -13.479   9.284  72.280  1.00  0.00    -0.482 C  
ENDBRANCH  18  22
BRANCH  20  24
HETATM   24  O   UNL     1     -10.919   7.639  70.208  1.00  0.00    -0.251 OA 
HETATM   25  C   UNL     1     -11.897   6.634  70.409  1.00  0.00    -0.346 C  
ENDBRANCH  20  24
ENDBRANCH  11  12
ENDBRANCH   7  11
ENDBRANCH   2   3
TORSDOF 6
ENDMDL
MODEL      218
REMARK 921   NORMALIZED FREE ENERGY PREDICTED BY IDOCK:   -3.25 KCAL/MOL
REMARK 922        TOTAL FREE ENERGY PREDICTED BY IDOCK:   -5.19 KCAL/MOL
REMARK 923 INTER-LIGAND FREE ENERGY PREDICTED BY IDOCK:   -4.38 KCAL/MOL
REMARK 924 INTRA-LIGAND FREE ENERGY PREDICTED BY IDOCK:   -0.81 KCAL/MOL
REMARK 927      BINDING AFFINITY PREDICTED BY RF-SCORE:    0.00 PKD
ROOT
HETATM    1  C   UNL     1     -11.118   2.403  73.702  1.00  0.00    -0.214 C  
HETATM    2  O   UNL     1      -9.900   2.885  73.137  1.00  0.00    -0.099 OA 
ENDROOT
BRANCH   2   3
HETATM    3  C   UNL     1      -9.847   4.234  72.889  1.00  0.00    -0.136 A  
HETATM    4  C   UNL     1      -8.582   4.844  72.954  1.00  0.00    -0.118 A  
HETATM    5  C   UNL     1     -10.977   5.023  72.665  1.00  0.00    -0.280 A  
HETATM    6  C   UNL     1      -8.480   6.231  72.772  1.00  0.00    -0.122 A  
HETATM    7  C   UNL     1      -9.624   7.033  72.612  1.00  0.00    -0.165 A  
HETATM    8  C   UNL     1     -10.872   6.408  72.529  1.00  0.00    -0.268 A  
BRANCH   4   9
HETATM    9  O   UNL     1      -7.516   4.017  73.212  1.00  0.00    -0.068 OA 
HETATM   10  C   UNL     1      -6.210   4.550  73.003  1.00  0.00    -0.032 C  
ENDBRANCH   4   9
BRANCH   7  11
HETATM   11  C   UNL     1      -9.534   8.540  72.526  1.00  0.00    -0.328 C  
BRANCH  11  12
HETATM   12  C   UNL     1     -10.133   9.125  71.261  1.00  0.00    -0.318 A  
HETATM   13  N   UNL     1     -11.194   9.954  71.474  1.00  0.00    -0.240 NA 
HETATM   14  C   UNL     1     -11.860  10.409  70.398  1.00  0.00    -0.328 A  
HETATM   15  C   UNL     1     -11.520  10.088  69.102  1.00  0.00    -0.090 A  
HETATM   16  C   UNL     1     -10.434   9.234  68.882  1.00  0.00    -0.235 A  
HETATM   17  C   UNL     1     -10.090   8.857  67.575  1.00  0.00    -0.285 A  
HETATM   18  C   UNL     1      -9.057   7.942  67.306  1.00  0.00    -0.135 A  
HETATM   19  C   UNL     1      -9.702   8.731  69.968  1.00  0.00    -0.182 A  
HETATM   20  C   UNL     1      -8.297   7.453  68.370  1.00  0.00    -0.125 A  
HETATM   21  C   UNL     1      -8.627   7.856  69.678  1.00  0.00    -0.133 A  
BRANCH  18  22
HETATM   22  O   UNL     1      -8.791   7.546  66.017  1.00  0.00    -0.162 OA 
HETATM   23  C   UNL     1      -8.291   8.564  65.145  1.00  0.00    -0.169 C  
ENDBRANCH  18  22
BRANCH  20  24
HETATM   24  O   UNL     1      -7.266   6.554  68.380  1.00  0.00    -0.080 OA 
HETATM   25  C   UNL     1      -7.300   5.377  69.167  1.00  0.00    -0.066 C  
ENDBRANCH  20  24
ENDBRANCH  11  12
ENDBRANCH   7  11
ENDBRANCH   2   3
TORSDOF 6
ENDMDL
MODEL      219
REMARK 921   NORMALIZED FREE ENERGY PREDICTED BY IDOCK:   -3.24 KCAL/MOL
REMARK 922        TOTAL FREE ENERGY PREDICTED BY IDOCK:   -5.19 KCAL/MOL
REMARK 923 INTER-LIGAND FREE ENERGY PREDICTED BY IDOCK:   -5.45 KCAL/MOL
REMARK 924 INTRA-LIGAND FREE ENERGY PREDICTED BY IDOCK:    0.26 KCAL/MOL
REMARK 927      BINDING AFFINITY PREDICTED BY RF-SCORE:    0.00 PKD
ROOT
HETATM    1  C   UNL     1     -14.039  15.584  71.229  1.00  0.00    -0.239 C  
HETATM    2  O   UNL     1     -12.699  15.272  70.852  1.00  0.00    -0.369 OA 
ENDROOT
BRANCH   2   3
HETATM    3  C   UNL     1     -12.419  13.940  70.680  1.00  0.00    -0.366 A  
HETATM    4  C   UNL     1     -11.956  13.544  69.413  1.00  0.00    -0.330 A  
HETATM    5  C   UNL     1     -12.650  12.969  71.658  1.00  0.00    -0.222 A  
HETATM    6  C   UNL     1     -11.715  12.186  69.164  1.00  0.00    -0.384 A  
HETATM    7  C   UNL     1     -12.010  11.203  70.127  1.00  0.00    -0.449 A  
HETATM    8  C   UNL     1     -12.450  11.615  71.388  1.00  0.00    -0.314 A  
BRANCH   4   9
HETATM    9  O   UNL     1     -11.783  14.543  68.485  1.00  0.00    -0.294 OA 
HETATM   10  C   UNL     1     -11.725  14.157  67.114  1.00  0.00    -0.403 C  
ENDBRANCH   4   9
BRANCH   7  11
HETATM   11  C   UNL     1     -11.859   9.728  69.831  1.00  0.00    -0.001 C  
BRANCH  11  12
HETATM   12  C   UNL     1     -10.465   9.324  69.392  1.00  0.00    -0.219 A  
HETATM   13  N   UNL     1     -10.063   9.881  68.214  1.00  0.00    -0.155 NA 
HETATM   14  C   UNL     1      -8.894   9.472  67.693  1.00  0.00    -0.118 A  
HETATM   15  C   UNL     1      -8.082   8.531  68.292  1.00  0.00    -0.119 A  
HETATM   16  C   UNL     1      -8.495   7.956  69.499  1.00  0.00    -0.133 A  
HETATM   17  C   UNL     1      -7.710   6.967  70.110  1.00  0.00    -0.101 A  
HETATM   18  C   UNL     1      -8.117   6.304  71.281  1.00  0.00    -0.118 A  
HETATM   19  C   UNL     1      -9.706   8.347  70.087  1.00  0.00    -0.175 A  
HETATM   20  C   UNL     1      -9.305   6.698  71.899  1.00  0.00    -0.147 A  
HETATM   21  C   UNL     1     -10.076   7.712  71.299  1.00  0.00    -0.203 A  
BRANCH  18  22
HETATM   22  O   UNL     1      -7.352   5.294  71.815  1.00  0.00    -0.083 OA 
HETATM   23  C   UNL     1      -7.271   5.265  73.242  1.00  0.00    -0.090 C  
ENDBRANCH  18  22
BRANCH  20  24
HETATM   24  O   UNL     1      -9.922   6.211  73.018  1.00  0.00    -0.170 OA 
HETATM   25  C   UNL     1     -10.059   6.981  74.198  1.00  0.00    -0.252 C  
ENDBRANCH  20  24
ENDBRANCH  11  12
ENDBRANCH   7  11
ENDBRANCH   2   3
TORSDOF 6
ENDMDL
MODEL      220
REMARK 921   NORMALIZED FREE ENERGY PREDICTED BY IDOCK:   -3.23 KCAL/MOL
REMARK 922        TOTAL FREE ENERGY PREDICTED BY IDOCK:   -5.17 KCAL/MOL
REMARK 923 INTER-LIGAND FREE ENERGY PREDICTED BY IDOCK:   -5.15 KCAL/MOL
REMARK 924 INTRA-LIGAND FREE ENERGY PREDICTED BY IDOCK:   -0.02 KCAL/MOL
REMARK 927      BINDING AFFINITY PREDICTED BY RF-SCORE:    0.00 PKD
ROOT
HETATM    1  C   UNL     1     -10.694  12.052  68.554  1.00  0.00    -0.234 C  
HETATM    2  O   UNL     1     -11.417  11.903  69.775  1.00  0.00    -0.278 OA 
ENDROOT
BRANCH   2   3
HETATM    3  C   UNL     1     -11.408  10.647  70.328  1.00  0.00    -0.319 A  
HETATM    4  C   UNL     1     -12.496  10.306  71.149  1.00  0.00    -0.391 A  
HETATM    5  C   UNL     1     -10.351   9.747  70.183  1.00  0.00    -0.335 A  
HETATM    6  C   UNL     1     -12.507   9.058  71.789  1.00  0.00    -0.438 A  
HETATM    7  C   UNL     1     -11.412   8.180  71.695  1.00  0.00    -0.323 A  
HETATM    8  C   UNL     1     -10.348   8.526  70.858  1.00  0.00    -0.245 A  
BRANCH   4   9
HETATM    9  O   UNL     1     -13.487  11.249  71.278  1.00  0.00    -0.035 OA 
HETATM   10  C   UNL     1     -13.199  12.393  72.079  1.00  0.00    -0.409 C  
ENDBRANCH   4   9
BRANCH   7  11
HETATM   11  C   UNL     1     -11.365   6.881  72.470  1.00  0.00    -0.291 C  
BRANCH  11  12
HETATM   12  C   UNL     1      -9.993   6.235  72.511  1.00  0.00    -0.171 A  
HETATM   13  N   UNL     1      -9.311   6.439  73.674  1.00  0.00    -0.133 NA 
HETATM   14  C   UNL     1      -8.039   6.009  73.738  1.00  0.00    -0.108 A  
HETATM   15  C   UNL     1      -7.399   5.369  72.698  1.00  0.00    -0.095 A  
HETATM   16  C   UNL     1      -8.096   5.162  71.503  1.00  0.00    -0.115 A  
HETATM   17  C   UNL     1      -7.458   4.551  70.413  1.00  0.00    -0.050 A  
HETATM   18  C   UNL     1      -8.090   4.390  69.168  1.00  0.00    -0.068 A  
HETATM   19  C   UNL     1      -9.426   5.589  71.381  1.00  0.00    -0.182 A  
HETATM   20  C   UNL     1      -9.423   4.781  69.035  1.00  0.00    -0.148 A  
HETATM   21  C   UNL     1     -10.070   5.368  70.139  1.00  0.00    -0.322 A  
BRANCH  18  22
HETATM   22  O   UNL     1      -7.411   3.845  68.105  1.00  0.00    -0.058 OA 
HETATM   23  C   UNL     1      -7.505   2.424  67.969  1.00  0.00    -0.055 C  
ENDBRANCH  18  22
BRANCH  20  24
HETATM   24  O   UNL     1     -10.248   4.749  67.944  1.00  0.00    -0.100 OA 
HETATM   25  C   UNL     1     -10.883   5.912  67.445  1.00  0.00    -0.248 C  
ENDBRANCH  20  24
ENDBRANCH  11  12
ENDBRANCH   7  11
ENDBRANCH   2   3
TORSDOF 6
ENDMDL
MODEL      221
REMARK 921   NORMALIZED FREE ENERGY PREDICTED BY IDOCK:   -3.23 KCAL/MOL
REMARK 922        TOTAL FREE ENERGY PREDICTED BY IDOCK:   -5.17 KCAL/MOL
REMARK 923 INTER-LIGAND FREE ENERGY PREDICTED BY IDOCK:   -4.43 KCAL/MOL
REMARK 924 INTRA-LIGAND FREE ENERGY PREDICTED BY IDOCK:   -0.74 KCAL/MOL
REMARK 927      BINDING AFFINITY PREDICTED BY RF-SCORE:    0.00 PKD
ROOT
HETATM    1  C   UNL     1     -14.031  15.700  71.210  1.00  0.00    -0.093 C  
HETATM    2  O   UNL     1     -12.635  15.717  70.919  1.00  0.00    -0.444 OA 
ENDROOT
BRANCH   2   3
HETATM    3  C   UNL     1     -12.157  14.644  70.210  1.00  0.00    -0.319 A  
HETATM    4  C   UNL     1     -11.364  14.926  69.084  1.00  0.00    -0.292 A  
HETATM    5  C   UNL     1     -12.486  13.318  70.500  1.00  0.00    -0.332 A  
HETATM    6  C   UNL     1     -10.902  13.869  68.288  1.00  0.00    -0.263 A  
HETATM    7  C   UNL     1     -11.288  12.540  68.543  1.00  0.00    -0.337 A  
HETATM    8  C   UNL     1     -12.060  12.275  69.678  1.00  0.00    -0.277 A  
BRANCH   4   9
HETATM    9  O   UNL     1     -11.106  16.253  68.834  1.00  0.00    -0.315 OA 
HETATM   10  C   UNL     1     -10.676  16.597  67.519  1.00  0.00    -0.278 C  
ENDBRANCH   4   9
BRANCH   7  11
HETATM   11  C   UNL     1     -10.888  11.405  67.627  1.00  0.00    -0.286 C  
BRANCH  11  12
HETATM   12  C   UNL     1      -9.389  11.247  67.457  1.00  0.00    -0.162 A  
HETATM   13  N   UNL     1      -8.873  11.908  66.382  1.00  0.00    -0.184 NA 
HETATM   14  C   UNL     1      -7.576  11.711  66.089  1.00  0.00     0.286 A  
HETATM   15  C   UNL     1      -6.746  10.889  66.822  1.00  0.00    -0.120 A  
HETATM   16  C   UNL     1      -7.275  10.207  67.922  1.00  0.00    -0.086 A  
HETATM   17  C   UNL     1      -6.466   9.332  68.662  1.00  0.00    -0.053 A  
HETATM   18  C   UNL     1      -6.968   8.566  69.728  1.00  0.00    -0.047 A  
HETATM   19  C   UNL     1      -8.622  10.376  68.274  1.00  0.00    -0.128 A  
HETATM   20  C   UNL     1      -8.299   8.741  70.114  1.00  0.00    -0.131 A  
HETATM   21  C   UNL     1      -9.101   9.642  69.388  1.00  0.00    -0.194 A  
BRANCH  18  22
HETATM   22  O   UNL     1      -6.161   7.670  70.388  1.00  0.00    -0.030 OA 
HETATM   23  C   UNL     1      -5.900   7.965  71.762  1.00  0.00    -0.035 C  
ENDBRANCH  18  22
BRANCH  20  24
HETATM   24  O   UNL     1      -9.025   8.116  71.091  1.00  0.00    -0.134 OA 
HETATM   25  C   UNL     1      -9.477   8.800  72.245  1.00  0.00    -0.176 C  
ENDBRANCH  20  24
ENDBRANCH  11  12
ENDBRANCH   7  11
ENDBRANCH   2   3
TORSDOF 6
ENDMDL
MODEL      222
REMARK 921   NORMALIZED FREE ENERGY PREDICTED BY IDOCK:   -3.21 KCAL/MOL
REMARK 922        TOTAL FREE ENERGY PREDICTED BY IDOCK:   -5.15 KCAL/MOL
REMARK 923 INTER-LIGAND FREE ENERGY PREDICTED BY IDOCK:   -4.50 KCAL/MOL
REMARK 924 INTRA-LIGAND FREE ENERGY PREDICTED BY IDOCK:   -0.65 KCAL/MOL
REMARK 927      BINDING AFFINITY PREDICTED BY RF-SCORE:    0.00 PKD
ROOT
HETATM    1  C   UNL     1      -9.664   9.992  69.798  1.00  0.00    -0.226 C  
HETATM    2  O   UNL     1      -9.805   9.260  71.014  1.00  0.00    -0.273 OA 
ENDROOT
BRANCH   2   3
HETATM    3  C   UNL     1      -9.755   7.893  70.901  1.00  0.00    -0.164 A  
HETATM    4  C   UNL     1     -10.981   7.207  70.929  1.00  0.00    -0.251 A  
HETATM    5  C   UNL     1      -8.564   7.166  70.846  1.00  0.00    -0.138 A  
HETATM    6  C   UNL     1     -10.983   5.805  70.881  1.00  0.00    -0.305 A  
HETATM    7  C   UNL     1      -9.783   5.072  70.891  1.00  0.00    -0.256 A  
HETATM    8  C   UNL     1      -8.573   5.771  70.842  1.00  0.00    -0.130 A  
BRANCH   4   9
HETATM    9  O   UNL     1     -12.114   7.979  71.019  1.00  0.00    -0.292 OA 
HETATM   10  C   UNL     1     -13.265   7.384  71.614  1.00  0.00    -0.362 C  
ENDBRANCH   4   9
BRANCH   7  11
HETATM   11  C   UNL     1      -9.774   3.561  70.951  1.00  0.00    -0.213 C  
BRANCH  11  12
HETATM   12  C   UNL     1      -8.860   2.906  69.933  1.00  0.00    -0.088 A  
HETATM   13  N   UNL     1      -7.911   2.090  70.473  1.00  0.00    -0.042 NA 
HETATM   14  C   UNL     1      -6.982   1.576  69.648  1.00  0.00    -0.033 A  
HETATM   15  C   UNL     1      -6.948   1.825  68.292  1.00  0.00    -0.039 A  
HETATM   16  C   UNL     1      -7.918   2.666  67.737  1.00  0.00    -0.064 A  
HETATM   17  C   UNL     1      -7.885   2.970  66.368  1.00  0.00    -0.077 A  
HETATM   18  C   UNL     1      -8.789   3.869  65.777  1.00  0.00    -0.125 A  
HETATM   19  C   UNL     1      -8.912   3.228  68.552  1.00  0.00    -0.185 A  
HETATM   20  C   UNL     1      -9.804   4.417  66.564  1.00  0.00    -0.229 A  
HETATM   21  C   UNL     1      -9.853   4.087  67.932  1.00  0.00    -0.078 A  
BRANCH  18  22
HETATM   22  O   UNL     1      -8.684   4.193  64.446  1.00  0.00    -0.119 OA 
HETATM   23  C   UNL     1      -8.015   5.423  64.156  1.00  0.00    -0.118 C  
ENDBRANCH  18  22
BRANCH  20  24
HETATM   24  O   UNL     1     -10.784   5.316  66.242  1.00  0.00    -0.294 OA 
HETATM   25  C   UNL     1     -10.967   6.521  66.962  1.00  0.00    -0.396 C  
ENDBRANCH  20  24
ENDBRANCH  11  12
ENDBRANCH   7  11
ENDBRANCH   2   3
TORSDOF 6
ENDMDL
MODEL      223
REMARK 921   NORMALIZED FREE ENERGY PREDICTED BY IDOCK:   -3.19 KCAL/MOL
REMARK 922        TOTAL FREE ENERGY PREDICTED BY IDOCK:   -5.11 KCAL/MOL
REMARK 923 INTER-LIGAND FREE ENERGY PREDICTED BY IDOCK:   -6.05 KCAL/MOL
REMARK 924 INTRA-LIGAND FREE ENERGY PREDICTED BY IDOCK:    0.93 KCAL/MOL
REMARK 927      BINDING AFFINITY PREDICTED BY RF-SCORE:    0.00 PKD
ROOT
HETATM    1  C   UNL     1     -10.658   4.654  74.135  1.00  0.00    -0.291 C  
HETATM    2  O   UNL     1      -9.739   5.567  73.539  1.00  0.00    -0.145 OA 
ENDROOT
BRANCH   2   3
HETATM    3  C   UNL     1     -10.296   6.634  72.881  1.00  0.00    -0.213 A  
HETATM    4  C   UNL     1      -9.554   7.828  72.860  1.00  0.00    -0.242 A  
HETATM    5  C   UNL     1     -11.575   6.613  72.319  1.00  0.00    -0.313 A  
HETATM    6  C   UNL     1     -10.104   8.967  72.255  1.00  0.00    -0.190 A  
HETATM    7  C   UNL     1     -11.416   8.963  71.748  1.00  0.00    -0.423 A  
HETATM    8  C   UNL     1     -12.133   7.763  71.759  1.00  0.00    -0.332 A  
BRANCH   4   9
HETATM    9  O   UNL     1      -8.318   7.792  73.460  1.00  0.00    -0.154 OA 
HETATM   10  C   UNL     1      -7.177   7.872  72.611  1.00  0.00    -0.092 C  
ENDBRANCH   4   9
BRANCH   7  11
HETATM   11  C   UNL     1     -12.060  10.215  71.195  1.00  0.00    -0.485 C  
BRANCH  11  12
HETATM   12  C   UNL     1     -11.593  10.586  69.800  1.00  0.00    -0.294 A  
HETATM   13  N   UNL     1     -12.043  11.796  69.361  1.00  0.00    -0.273 NA 
HETATM   14  C   UNL     1     -11.781  12.138  68.088  1.00  0.00    -0.341 A  
HETATM   15  C   UNL     1     -11.077  11.336  67.215  1.00  0.00    -0.367 A  
HETATM   16  C   UNL     1     -10.619  10.093  67.662  1.00  0.00    -0.316 A  
HETATM   17  C   UNL     1      -9.936   9.238  66.784  1.00  0.00    -0.312 A  
HETATM   18  C   UNL     1      -9.522   7.949  67.162  1.00  0.00    -0.159 A  
HETATM   19  C   UNL     1     -10.863   9.686  68.982  1.00  0.00    -0.206 A  
HETATM   20  C   UNL     1      -9.729   7.536  68.480  1.00  0.00    -0.156 A  
HETATM   21  C   UNL     1     -10.389   8.408  69.367  1.00  0.00    -0.217 A  
BRANCH  18  22
HETATM   22  O   UNL     1      -8.913   7.115  66.255  1.00  0.00    -0.153 OA 
HETATM   23  C   UNL     1      -7.483   7.108  66.280  1.00  0.00    -0.087 C  
ENDBRANCH  18  22
BRANCH  20  24
HETATM   24  O   UNL     1      -9.441   6.344  69.087  1.00  0.00    -0.135 OA 
HETATM   25  C   UNL     1     -10.274   5.208  68.947  1.00  0.00    -0.150 C  
ENDBRANCH  20  24
ENDBRANCH  11  12
ENDBRANCH   7  11
ENDBRANCH   2   3
TORSDOF 6
ENDMDL
MODEL      224
REMARK 921   NORMALIZED FREE ENERGY PREDICTED BY IDOCK:   -3.14 KCAL/MOL
REMARK 922        TOTAL FREE ENERGY PREDICTED BY IDOCK:   -5.04 KCAL/MOL
REMARK 923 INTER-LIGAND FREE ENERGY PREDICTED BY IDOCK:   -4.49 KCAL/MOL
REMARK 924 INTRA-LIGAND FREE ENERGY PREDICTED BY IDOCK:   -0.55 KCAL/MOL
REMARK 927      BINDING AFFINITY PREDICTED BY RF-SCORE:    0.00 PKD
ROOT
HETATM    1  C   UNL     1     -12.695   8.400  72.724  1.00  0.00    -0.010 C  
HETATM    2  O   UNL     1     -12.461   7.353  71.784  1.00  0.00    -0.314 OA 
ENDROOT
BRANCH   2   3
HETATM    3  C   UNL     1     -11.429   7.557  70.904  1.00  0.00    -0.281 A  
HETATM    4  C   UNL     1     -10.364   6.640  70.947  1.00  0.00    -0.208 A  
HETATM    5  C   UNL     1     -11.350   8.658  70.048  1.00  0.00    -0.022 A  
HETATM    6  C   UNL     1      -9.254   6.838  70.113  1.00  0.00    -0.155 A  
HETATM    7  C   UNL     1      -9.147   7.981  69.300  1.00  0.00    -0.148 A  
HETATM    8  C   UNL     1     -10.223   8.872  69.254  1.00  0.00    -0.214 A  
BRANCH   4   9
HETATM    9  O   UNL     1     -10.488   5.599  71.836  1.00  0.00    -0.211 OA 
HETATM   10  C   UNL     1     -10.048   4.315  71.401  1.00  0.00    -0.117 C  
ENDBRANCH   4   9
BRANCH   7  11
HETATM   11  C   UNL     1      -7.906   8.261  68.481  1.00  0.00    -0.121 C  
BRANCH  11  12
HETATM   12  C   UNL     1      -8.079   8.021  66.994  1.00  0.00    -0.116 A  
HETATM   13  N   UNL     1      -7.571   6.834  66.554  1.00  0.00    -0.088 NA 
HETATM   14  C   UNL     1      -7.568   6.606  65.229  1.00  0.00    -0.088 A  
HETATM   15  C   UNL     1      -8.059   7.501  64.302  1.00  0.00    -0.064 A  
HETATM   16  C   UNL     1      -8.576   8.720  64.751  1.00  0.00    -0.161 A  
HETATM   17  C   UNL     1      -9.045   9.668  63.829  1.00  0.00    -0.220 A  
HETATM   18  C   UNL     1      -9.503  10.936  64.223  1.00  0.00    -0.250 A  
HETATM   19  C   UNL     1      -8.605   9.010  66.123  1.00  0.00    -0.149 A  
HETATM   20  C   UNL     1      -9.567  11.234  65.586  1.00  0.00    -0.229 A  
HETATM   21  C   UNL     1      -9.123  10.270  66.511  1.00  0.00    -0.169 A  
BRANCH  18  22
HETATM   22  O   UNL     1      -9.893  11.862  63.286  1.00  0.00    -0.407 OA 
HETATM   23  C   UNL     1     -11.291  12.161  63.251  1.00  0.00    -0.327 C  
ENDBRANCH  18  22
BRANCH  20  24
HETATM   24  O   UNL     1      -9.951  12.383  66.222  1.00  0.00    -0.235 OA 
HETATM   25  C   UNL     1      -9.518  12.700  67.532  1.00  0.00    -0.186 C  
ENDBRANCH  20  24
ENDBRANCH  11  12
ENDBRANCH   7  11
ENDBRANCH   2   3
TORSDOF 6
ENDMDL
MODEL      225
REMARK 921   NORMALIZED FREE ENERGY PREDICTED BY IDOCK:   -3.09 KCAL/MOL
REMARK 922        TOTAL FREE ENERGY PREDICTED BY IDOCK:   -4.98 KCAL/MOL
REMARK 923 INTER-LIGAND FREE ENERGY PREDICTED BY IDOCK:   -5.67 KCAL/MOL
REMARK 924 INTRA-LIGAND FREE ENERGY PREDICTED BY IDOCK:    0.69 KCAL/MOL
REMARK 927      BINDING AFFINITY PREDICTED BY RF-SCORE:    0.00 PKD
ROOT
HETATM    1  C   UNL     1     -11.848  12.704  65.599  1.00  0.00    -0.437 C  
HETATM    2  O   UNL     1     -10.446  12.514  65.415  1.00  0.00    -0.270 OA 
ENDROOT
BRANCH   2   3
HETATM    3  C   UNL     1      -9.878  11.500  66.143  1.00  0.00    -0.221 A  
HETATM    4  C   UNL     1      -8.912  11.864  67.097  1.00  0.00    -0.178 A  
HETATM    5  C   UNL     1     -10.147  10.147  65.923  1.00  0.00    -0.325 A  
HETATM    6  C   UNL     1      -8.254  10.862  67.824  1.00  0.00    -0.116 A  
HETATM    7  C   UNL     1      -8.478   9.499  67.556  1.00  0.00    -0.126 A  
HETATM    8  C   UNL     1      -9.457   9.154  66.619  1.00  0.00    -0.242 A  
BRANCH   4   9
HETATM    9  O   UNL     1      -8.669  13.209  67.240  1.00  0.00    -0.193 OA 
HETATM   10  C   UNL     1      -9.240  13.859  68.373  1.00  0.00    -0.194 C  
ENDBRANCH   4   9
BRANCH   7  11
HETATM   11  C   UNL     1      -7.694   8.411  68.256  1.00  0.00    -0.106 C  
BRANCH  11  12
HETATM   12  C   UNL     1      -8.039   8.245  69.723  1.00  0.00    -0.118 A  
HETATM   13  N   UNL     1      -7.145   7.495  70.429  1.00  0.00    -0.058 NA 
HETATM   14  C   UNL     1      -7.448   7.194  71.704  1.00  0.00    -0.086 A  
HETATM   15  C   UNL     1      -8.604   7.611  72.330  1.00  0.00    -0.157 A  
HETATM   16  C   UNL     1      -9.524   8.376  71.606  1.00  0.00    -0.281 A  
HETATM   17  C   UNL     1     -10.727   8.780  72.203  1.00  0.00    -0.383 A  
HETATM   18  C   UNL     1     -11.717   9.484  71.496  1.00  0.00    -0.402 A  
HETATM   19  C   UNL     1      -9.258   8.721  70.273  1.00  0.00    -0.191 A  
HETATM   20  C   UNL     1     -11.460   9.863  70.177  1.00  0.00    -0.248 A  
HETATM   21  C   UNL     1     -10.239   9.481  69.589  1.00  0.00    -0.234 A  
BRANCH  18  22
HETATM   22  O   UNL     1     -12.911   9.805  72.096  1.00  0.00    -0.391 OA 
HETATM   23  C   UNL     1     -13.995   8.908  71.843  1.00  0.00    -0.419 C  
ENDBRANCH  18  22
BRANCH  20  24
HETATM   24  O   UNL     1     -12.250  10.527  69.279  1.00  0.00    -0.213 OA 
HETATM   25  C   UNL     1     -12.207  11.935  69.136  1.00  0.00    -0.082 C  
ENDBRANCH  20  24
ENDBRANCH  11  12
ENDBRANCH   7  11
ENDBRANCH   2   3
TORSDOF 6
ENDMDL
MODEL      226
REMARK 921   NORMALIZED FREE ENERGY PREDICTED BY IDOCK:   -3.07 KCAL/MOL
REMARK 922        TOTAL FREE ENERGY PREDICTED BY IDOCK:   -4.95 KCAL/MOL
REMARK 923 INTER-LIGAND FREE ENERGY PREDICTED BY IDOCK:   -3.99 KCAL/MOL
REMARK 924 INTRA-LIGAND FREE ENERGY PREDICTED BY IDOCK:   -0.97 KCAL/MOL
REMARK 927      BINDING AFFINITY PREDICTED BY RF-SCORE:    0.00 PKD
ROOT
HETATM    1  C   UNL     1     -10.877  15.477  65.435  1.00  0.00    -0.390 C  
HETATM    2  O   UNL     1     -10.679  15.138  66.807  1.00  0.00    -0.300 OA 
ENDROOT
BRANCH   2   3
HETATM    3  C   UNL     1      -9.792  14.120  67.051  1.00  0.00    -0.258 A  
HETATM    4  C   UNL     1      -8.503  14.486  67.473  1.00  0.00    -0.190 A  
HETATM    5  C   UNL     1     -10.081  12.773  66.821  1.00  0.00    -0.239 A  
HETATM    6  C   UNL     1      -7.538  13.488  67.676  1.00  0.00    -0.181 A  
HETATM    7  C   UNL     1      -7.810  12.140  67.381  1.00  0.00    -0.168 A  
HETATM    8  C   UNL     1      -9.103  11.790  66.982  1.00  0.00    -0.187 A  
BRANCH   4   9
HETATM    9  O   UNL     1      -8.274  15.830  67.647  1.00  0.00    -0.143 OA 
HETATM   10  C   UNL     1      -7.181  16.403  66.934  1.00  0.00    -0.231 C  
ENDBRANCH   4   9
BRANCH   7  11
HETATM   11  C   UNL     1      -6.744  11.072  67.489  1.00  0.00    -0.072 C  
BRANCH  11  12
HETATM   12  C   UNL     1      -6.390  10.415  66.169  1.00  0.00    -0.106 A  
HETATM   13  N   UNL     1      -5.572  11.161  65.373  1.00  0.00    -0.139 NA 
HETATM   14  C   UNL     1      -5.318  10.706  64.134  1.00  0.00    -0.125 A  
HETATM   15  C   UNL     1      -5.832   9.527  63.636  1.00  0.00    -0.092 A  
HETATM   16  C   UNL     1      -6.675   8.763  64.450  1.00  0.00    -0.071 A  
HETATM   17  C   UNL     1      -7.246   7.580  63.957  1.00  0.00    -0.077 A  
HETATM   18  C   UNL     1      -8.158   6.818  64.707  1.00  0.00    -0.098 A  
HETATM   19  C   UNL     1      -6.972   9.190  65.752  1.00  0.00    -0.085 A  
HETATM   20  C   UNL     1      -8.445   7.209  66.016  1.00  0.00    -0.145 A  
HETATM   21  C   UNL     1      -7.848   8.381  66.518  1.00  0.00    -0.092 A  
BRANCH  18  22
HETATM   22  O   UNL     1      -8.747   5.700  64.166  1.00  0.00    -0.017 OA 
HETATM   23  C   UNL     1      -8.045   4.470  64.364  1.00  0.00    -0.099 C  
ENDBRANCH  18  22
BRANCH  20  24
HETATM   24  O   UNL     1      -9.297   6.660  66.935  1.00  0.00    -0.138 OA 
HETATM   25  C   UNL     1     -10.645   7.075  67.054  1.00  0.00    -0.341 C  
ENDBRANCH  20  24
ENDBRANCH  11  12
ENDBRANCH   7  11
ENDBRANCH   2   3
TORSDOF 6
ENDMDL
MODEL      227
REMARK 921   NORMALIZED FREE ENERGY PREDICTED BY IDOCK:   -3.05 KCAL/MOL
REMARK 922        TOTAL FREE ENERGY PREDICTED BY IDOCK:   -4.92 KCAL/MOL
REMARK 923 INTER-LIGAND FREE ENERGY PREDICTED BY IDOCK:   -4.62 KCAL/MOL
REMARK 924 INTRA-LIGAND FREE ENERGY PREDICTED BY IDOCK:   -0.30 KCAL/MOL
REMARK 927      BINDING AFFINITY PREDICTED BY RF-SCORE:    0.00 PKD
ROOT
HETATM    1  C   UNL     1      -6.068   6.448  69.929  1.00  0.00    -0.030 C  
HETATM    2  O   UNL     1      -7.089   6.568  70.919  1.00  0.00    -0.066 OA 
ENDROOT
BRANCH   2   3
HETATM    3  C   UNL     1      -8.148   7.378  70.593  1.00  0.00    -0.110 A  
HETATM    4  C   UNL     1      -9.287   6.751  70.059  1.00  0.00    -0.158 A  
HETATM    5  C   UNL     1      -8.112   8.771  70.685  1.00  0.00    -0.145 A  
HETATM    6  C   UNL     1     -10.374   7.537  69.650  1.00  0.00    -0.225 A  
HETATM    7  C   UNL     1     -10.311   8.943  69.682  1.00  0.00    -0.214 A  
HETATM    8  C   UNL     1      -9.179   9.549  70.234  1.00  0.00    -0.303 A  
BRANCH   4   9
HETATM    9  O   UNL     1      -9.245   5.381  69.963  1.00  0.00    -0.132 OA 
HETATM   10  C   UNL     1      -9.908   4.634  70.980  1.00  0.00    -0.198 C  
ENDBRANCH   4   9
BRANCH   7  11
HETATM   11  C   UNL     1     -11.432   9.801  69.140  1.00  0.00     0.049 C  
BRANCH  11  12
HETATM   12  C   UNL     1     -11.001  10.768  68.053  1.00  0.00    -0.283 A  
HETATM   13  N   UNL     1     -11.538  12.016  68.168  1.00  0.00    -0.322 NA 
HETATM   14  C   UNL     1     -11.309  12.891  67.173  1.00  0.00    -0.306 A  
HETATM   15  C   UNL     1     -10.555  12.593  66.057  1.00  0.00    -0.294 A  
HETATM   16  C   UNL     1     -10.007  11.312  65.937  1.00  0.00    -0.277 A  
HETATM   17  C   UNL     1      -9.271  10.967  64.794  1.00  0.00    -0.227 A  
HETATM   18  C   UNL     1      -8.765   9.671  64.590  1.00  0.00    -0.201 A  
HETATM   19  C   UNL     1     -10.214  10.360  66.946  1.00  0.00    -0.281 A  
HETATM   20  C   UNL     1      -8.934   8.717  65.595  1.00  0.00    -0.200 A  
HETATM   21  C   UNL     1      -9.649   9.075  66.754  1.00  0.00    -0.259 A  
BRANCH  18  22
HETATM   22  O   UNL     1      -8.104   9.353  63.427  1.00  0.00    -0.135 OA 
HETATM   23  C   UNL     1      -8.906   8.770  62.397  1.00  0.00    -0.077 C  
ENDBRANCH  18  22
BRANCH  20  24
HETATM   24  O   UNL     1      -8.560   7.402  65.636  1.00  0.00    -0.148 OA 
HETATM   25  C   UNL     1      -7.214   7.008  65.833  1.00  0.00    -0.074 C  
ENDBRANCH  20  24
ENDBRANCH  11  12
ENDBRANCH   7  11
ENDBRANCH   2   3
TORSDOF 6
ENDMDL
MODEL      228
REMARK 921   NORMALIZED FREE ENERGY PREDICTED BY IDOCK:   -3.00 KCAL/MOL
REMARK 922        TOTAL FREE ENERGY PREDICTED BY IDOCK:   -4.86 KCAL/MOL
REMARK 923 INTER-LIGAND FREE ENERGY PREDICTED BY IDOCK:   -3.88 KCAL/MOL
REMARK 924 INTRA-LIGAND FREE ENERGY PREDICTED BY IDOCK:   -0.98 KCAL/MOL
REMARK 927      BINDING AFFINITY PREDICTED BY RF-SCORE:    0.00 PKD
ROOT
HETATM    1  C   UNL     1      -9.635  11.026  63.291  1.00  0.00    -0.345 C  
HETATM    2  O   UNL     1      -8.681  10.431  64.169  1.00  0.00    -0.181 OA 
ENDROOT
BRANCH   2   3
HETATM    3  C   UNL     1      -9.194   9.805  65.276  1.00  0.00    -0.238 A  
HETATM    4  C   UNL     1      -8.757   8.493  65.526  1.00  0.00    -0.174 A  
HETATM    5  C   UNL     1     -10.173  10.369  66.098  1.00  0.00    -0.288 A  
HETATM    6  C   UNL     1      -9.298   7.784  66.609  1.00  0.00    -0.238 A  
HETATM    7  C   UNL     1     -10.329   8.328  67.395  1.00  0.00    -0.350 A  
HETATM    8  C   UNL     1     -10.738   9.642  67.147  1.00  0.00    -0.258 A  
BRANCH   4   9
HETATM    9  O   UNL     1      -7.819   7.984  64.660  1.00  0.00    -0.124 OA 
HETATM   10  C   UNL     1      -7.670   6.567  64.617  1.00  0.00    -0.108 C  
ENDBRANCH   4   9
BRANCH   7  11
HETATM   11  C   UNL     1     -10.996   7.531  68.495  1.00  0.00     0.062 C  
BRANCH  11  12
HETATM   12  C   UNL     1     -10.196   7.462  69.781  1.00  0.00    -0.209 A  
HETATM   13  N   UNL     1     -10.379   8.527  70.614  1.00  0.00    -0.194 NA 
HETATM   14  C   UNL     1      -9.608   8.603  71.712  1.00  0.00    -0.290 A  
HETATM   15  C   UNL     1      -8.657   7.660  72.041  1.00  0.00    -0.136 A  
HETATM   16  C   UNL     1      -8.465   6.570  71.186  1.00  0.00    -0.126 A  
HETATM   17  C   UNL     1      -7.477   5.617  71.473  1.00  0.00    -0.096 A  
HETATM   18  C   UNL     1      -7.194   4.546  70.608  1.00  0.00    -0.048 A  
HETATM   19  C   UNL     1      -9.243   6.440  70.026  1.00  0.00    -0.159 A  
HETATM   20  C   UNL     1      -7.976   4.381  69.463  1.00  0.00    -0.060 A  
HETATM   21  C   UNL     1      -8.987   5.323  69.193  1.00  0.00    -0.124 A  
BRANCH  18  22
HETATM   22  O   UNL     1      -6.174   3.669  70.890  1.00  0.00    -0.017 OA 
HETATM   23  C   UNL     1      -6.491   2.623  71.812  1.00  0.00    -0.015 C  
ENDBRANCH  18  22
BRANCH  20  24
HETATM   24  O   UNL     1      -7.897   3.448  68.466  1.00  0.00    -0.059 OA 
HETATM   25  C   UNL     1      -8.578   3.603  67.234  1.00  0.00    -0.108 C  
ENDBRANCH  20  24
ENDBRANCH  11  12
ENDBRANCH   7  11
ENDBRANCH   2   3
TORSDOF 6
ENDMDL
MODEL      229
REMARK 921   NORMALIZED FREE ENERGY PREDICTED BY IDOCK:   -2.95 KCAL/MOL
REMARK 922        TOTAL FREE ENERGY PREDICTED BY IDOCK:   -4.80 KCAL/MOL
REMARK 923 INTER-LIGAND FREE ENERGY PREDICTED BY IDOCK:   -3.96 KCAL/MOL
REMARK 924 INTRA-LIGAND FREE ENERGY PREDICTED BY IDOCK:   -0.84 KCAL/MOL
REMARK 927      BINDING AFFINITY PREDICTED BY RF-SCORE:    0.00 PKD
ROOT
HETATM    1  C   UNL     1     -13.209  11.210  71.856  1.00  0.00    -0.382 C  
HETATM    2  O   UNL     1     -12.800  10.344  70.799  1.00  0.00    -0.358 OA 
ENDROOT
BRANCH   2   3
HETATM    3  C   UNL     1     -11.495   9.922  70.840  1.00  0.00    -0.376 A  
HETATM    4  C   UNL     1     -10.624  10.448  69.870  1.00  0.00    -0.251 A  
HETATM    5  C   UNL     1     -11.025   8.951  71.727  1.00  0.00    -0.431 A  
HETATM    6  C   UNL     1      -9.296  10.003  69.828  1.00  0.00    -0.233 A  
HETATM    7  C   UNL     1      -8.841   8.979  70.679  1.00  0.00    -0.259 A  
HETATM    8  C   UNL     1      -9.714   8.481  71.651  1.00  0.00    -0.322 A  
BRANCH   4   9
HETATM    9  O   UNL     1     -11.158  11.373  69.005  1.00  0.00    -0.210 OA 
HETATM   10  C   UNL     1     -10.394  12.550  68.755  1.00  0.00    -0.117 C  
ENDBRANCH   4   9
BRANCH   7  11
HETATM   11  C   UNL     1      -7.442   8.414  70.567  1.00  0.00    -0.065 C  
BRANCH  11  12
HETATM   12  C   UNL     1      -7.162   7.712  69.252  1.00  0.00    -0.082 A  
HETATM   13  N   UNL     1      -6.803   8.546  68.235  1.00  0.00    -0.065 NA 
HETATM   14  C   UNL     1      -6.664   8.016  67.008  1.00  0.00    -0.065 A  
HETATM   15  C   UNL     1      -6.857   6.679  66.731  1.00  0.00    -0.065 A  
HETATM   16  C   UNL     1      -7.230   5.822  67.772  1.00  0.00    -0.076 A  
HETATM   17  C   UNL     1      -7.473   4.465  67.512  1.00  0.00    -0.073 A  
HETATM   18  C   UNL     1      -7.924   3.580  68.507  1.00  0.00    -0.066 A  
HETATM   19  C   UNL     1      -7.387   6.322  69.073  1.00  0.00    -0.085 A  
HETATM   20  C   UNL     1      -8.058   4.050  69.815  1.00  0.00    -0.054 A  
HETATM   21  C   UNL     1      -7.785   5.407  70.078  1.00  0.00    -0.077 A  
BRANCH  18  22
HETATM   22  O   UNL     1      -8.214   2.272  68.201  1.00  0.00    -0.057 OA 
HETATM   23  C   UNL     1      -7.544   1.739  67.055  1.00  0.00    -0.060 C  
ENDBRANCH  18  22
BRANCH  20  24
HETATM   24  O   UNL     1      -8.488   3.409  70.944  1.00  0.00    -0.064 OA 
HETATM   25  C   UNL     1      -9.859   3.153  71.188  1.00  0.00    -0.061 C  
ENDBRANCH  20  24
ENDBRANCH  11  12
ENDBRANCH   7  11
ENDBRANCH   2   3
TORSDOF 6
ENDMDL
MODEL      230
REMARK 921   NORMALIZED FREE ENERGY PREDICTED BY IDOCK:   -2.95 KCAL/MOL
REMARK 922        TOTAL FREE ENERGY PREDICTED BY IDOCK:   -4.79 KCAL/MOL
REMARK 923 INTER-LIGAND FREE ENERGY PREDICTED BY IDOCK:   -3.93 KCAL/MOL
REMARK 924 INTRA-LIGAND FREE ENERGY PREDICTED BY IDOCK:   -0.86 KCAL/MOL
REMARK 927      BINDING AFFINITY PREDICTED BY RF-SCORE:    0.00 PKD
ROOT
HETATM    1  C   UNL     1     -10.769   1.709  74.564  1.00  0.00    -0.112 C  
HETATM    2  O   UNL     1     -11.443   2.387  73.506  1.00  0.00    -0.220 OA 
ENDROOT
BRANCH   2   3
HETATM    3  C   UNL     1     -10.641   2.929  72.534  1.00  0.00     0.012 A  
HETATM    4  C   UNL     1     -10.711   4.321  72.353  1.00  0.00    -0.007 A  
HETATM    5  C   UNL     1      -9.842   2.167  71.678  1.00  0.00    -0.217 A  
HETATM    6  C   UNL     1      -9.960   4.918  71.331  1.00  0.00    -0.266 A  
HETATM    7  C   UNL     1      -9.208   4.144  70.430  1.00  0.00    -0.196 A  
HETATM    8  C   UNL     1      -9.132   2.763  70.636  1.00  0.00    -0.191 A  
BRANCH   4   9
HETATM    9  O   UNL     1     -11.543   5.008  73.205  1.00  0.00    -0.328 OA 
HETATM   10  C   UNL     1     -12.178   6.178  72.695  1.00  0.00     0.121 C  
ENDBRANCH   4   9
BRANCH   7  11
HETATM   11  C   UNL     1      -8.484   4.767  69.257  1.00  0.00    -0.087 C  
BRANCH  11  12
HETATM   12  C   UNL     1      -9.329   5.735  68.451  1.00  0.00    -0.121 A  
HETATM   13  N   UNL     1     -10.028   5.157  67.434  1.00  0.00    -0.170 NA 
HETATM   14  C   UNL     1     -10.698   5.966  66.594  1.00  0.00    -0.252 A  
HETATM   15  C   UNL     1     -10.720   7.339  66.717  1.00  0.00    -0.231 A  
HETATM   16  C   UNL     1      -9.999   7.934  67.758  1.00  0.00    -0.221 A  
HETATM   17  C   UNL     1      -9.969   9.331  67.884  1.00  0.00    -0.228 A  
HETATM   18  C   UNL     1      -9.199   9.980  68.865  1.00  0.00    -0.169 A  
HETATM   19  C   UNL     1      -9.284   7.138  68.664  1.00  0.00    -0.135 A  
HETATM   20  C   UNL     1      -8.503   9.205  69.795  1.00  0.00    -0.139 A  
HETATM   21  C   UNL     1      -8.559   7.802  69.684  1.00  0.00    -0.135 A  
BRANCH  18  22
HETATM   22  O   UNL     1      -9.143  11.352  68.916  1.00  0.00    -0.127 OA 
HETATM   23  C   UNL     1     -10.141  12.043  68.161  1.00  0.00    -0.200 C  
ENDBRANCH  18  22
BRANCH  20  24
HETATM   24  O   UNL     1      -7.681   9.583  70.820  1.00  0.00    -0.230 OA 
HETATM   25  C   UNL     1      -7.199   8.659  71.778  1.00  0.00    -0.080 C  
ENDBRANCH  20  24
ENDBRANCH  11  12
ENDBRANCH   7  11
ENDBRANCH   2   3
TORSDOF 6
ENDMDL
MODEL      231
REMARK 921   NORMALIZED FREE ENERGY PREDICTED BY IDOCK:   -2.91 KCAL/MOL
REMARK 922        TOTAL FREE ENERGY PREDICTED BY IDOCK:   -4.74 KCAL/MOL
REMARK 923 INTER-LIGAND FREE ENERGY PREDICTED BY IDOCK:   -4.42 KCAL/MOL
REMARK 924 INTRA-LIGAND FREE ENERGY PREDICTED BY IDOCK:   -0.32 KCAL/MOL
REMARK 927      BINDING AFFINITY PREDICTED BY RF-SCORE:    0.00 PKD
ROOT
HETATM    1  C   UNL     1     -10.991   2.360  74.137  1.00  0.00    -0.124 C  
HETATM    2  O   UNL     1      -9.715   2.636  73.561  1.00  0.00    -0.093 OA 
ENDROOT
BRANCH   2   3
HETATM    3  C   UNL     1      -9.640   3.764  72.784  1.00  0.00    -0.130 A  
HETATM    4  C   UNL     1      -8.372   4.109  72.284  1.00  0.00    -0.102 A  
HETATM    5  C   UNL     1     -10.724   4.612  72.545  1.00  0.00    -0.217 A  
HETATM    6  C   UNL     1      -8.227   5.287  71.536  1.00  0.00    -0.117 A  
HETATM    7  C   UNL     1      -9.305   6.172  71.351  1.00  0.00    -0.163 A  
HETATM    8  C   UNL     1     -10.563   5.803  71.838  1.00  0.00    -0.285 A  
BRANCH   4   9
HETATM    9  O   UNL     1      -7.341   3.252  72.584  1.00  0.00    -0.046 OA 
HETATM   10  C   UNL     1      -6.128   3.409  71.852  1.00  0.00    -0.014 C  
ENDBRANCH   4   9
BRANCH   7  11
HETATM   11  C   UNL     1      -9.134   7.497  70.643  1.00  0.00    -0.155 C  
BRANCH  11  12
HETATM   12  C   UNL     1      -9.783   7.555  69.273  1.00  0.00    -0.163 A  
HETATM   13  N   UNL     1     -10.337   6.377  68.864  1.00  0.00    -0.183 NA 
HETATM   14  C   UNL     1     -10.816   6.312  67.610  1.00  0.00    -0.346 A  
HETATM   15  C   UNL     1     -10.783   7.371  66.727  1.00  0.00    -0.202 A  
HETATM   16  C   UNL     1     -10.211   8.578  67.143  1.00  0.00    -0.355 A  
HETATM   17  C   UNL     1     -10.126   9.659  66.254  1.00  0.00    -0.322 A  
HETATM   18  C   UNL     1      -9.493  10.866  66.598  1.00  0.00    -0.179 A  
HETATM   19  C   UNL     1      -9.697   8.702  68.442  1.00  0.00    -0.176 A  
HETATM   20  C   UNL     1      -9.001  11.021  67.895  1.00  0.00    -0.144 A  
HETATM   21  C   UNL     1      -9.114   9.944  68.795  1.00  0.00    -0.147 A  
BRANCH  18  22
HETATM   22  O   UNL     1      -9.372  11.880  65.678  1.00  0.00    -0.207 OA 
HETATM   23  C   UNL     1     -10.594  12.504  65.277  1.00  0.00    -0.290 C  
ENDBRANCH  18  22
BRANCH  20  24
HETATM   24  O   UNL     1      -8.339  12.071  68.469  1.00  0.00    -0.153 OA 
HETATM   25  C   UNL     1      -7.006  11.957  68.935  1.00  0.00    -0.110 C  
ENDBRANCH  20  24
ENDBRANCH  11  12
ENDBRANCH   7  11
ENDBRANCH   2   3
TORSDOF 6
ENDMDL
MODEL      232
REMARK 921   NORMALIZED FREE ENERGY PREDICTED BY IDOCK:   -2.89 KCAL/MOL
REMARK 922        TOTAL FREE ENERGY PREDICTED BY IDOCK:   -4.71 KCAL/MOL
REMARK 923 INTER-LIGAND FREE ENERGY PREDICTED BY IDOCK:   -3.86 KCAL/MOL
REMARK 924 INTRA-LIGAND FREE ENERGY PREDICTED BY IDOCK:   -0.85 KCAL/MOL
REMARK 927      BINDING AFFINITY PREDICTED BY RF-SCORE:    0.00 PKD
ROOT
HETATM    1  C   UNL     1     -11.079   6.526  66.941  1.00  0.00    -0.272 C  
HETATM    2  O   UNL     1      -9.845   7.230  66.811  1.00  0.00    -0.197 OA 
ENDROOT
BRANCH   2   3
HETATM    3  C   UNL     1      -9.281   7.673  67.980  1.00  0.00    -0.137 A  
HETATM    4  C   UNL     1      -8.173   6.955  68.465  1.00  0.00    -0.121 A  
HETATM    5  C   UNL     1      -9.798   8.726  68.737  1.00  0.00    -0.180 A  
HETATM    6  C   UNL     1      -7.597   7.327  69.688  1.00  0.00    -0.099 A  
HETATM    7  C   UNL     1      -8.159   8.345  70.480  1.00  0.00    -0.107 A  
HETATM    8  C   UNL     1      -9.248   9.061  69.975  1.00  0.00    -0.193 A  
BRANCH   4   9
HETATM    9  O   UNL     1      -7.734   5.909  67.690  1.00  0.00    -0.095 OA 
HETATM   10  C   UNL     1      -6.462   6.049  67.063  1.00  0.00    -0.050 C  
ENDBRANCH   4   9
BRANCH   7  11
HETATM   11  C   UNL     1      -7.614   8.678  71.851  1.00  0.00    -0.106 C  
BRANCH  11  12
HETATM   12  C   UNL     1      -7.487   7.481  72.775  1.00  0.00    -0.080 A  
HETATM   13  N   UNL     1      -6.221   7.257  73.231  1.00  0.00    -0.060 NA 
HETATM   14  C   UNL     1      -6.003   6.141  73.948  1.00  0.00    -0.063 A  
HETATM   15  C   UNL     1      -6.989   5.226  74.251  1.00  0.00    -0.078 A  
HETATM   16  C   UNL     1      -8.286   5.452  73.779  1.00  0.00    -0.112 A  
HETATM   17  C   UNL     1      -9.300   4.518  74.036  1.00  0.00    -0.119 A  
HETATM   18  C   UNL     1     -10.600   4.661  73.521  1.00  0.00    -0.240 A  
HETATM   19  C   UNL     1      -8.571   6.601  73.027  1.00  0.00    -0.125 A  
HETATM   20  C   UNL     1     -10.913   5.812  72.794  1.00  0.00    -0.272 A  
HETATM   21  C   UNL     1      -9.900   6.762  72.563  1.00  0.00    -0.177 A  
BRANCH  18  22
HETATM   22  O   UNL     1     -11.550   3.693  73.739  1.00  0.00    -0.105 OA 
HETATM   23  C   UNL     1     -11.193   2.369  73.332  1.00  0.00    -0.180 C  
ENDBRANCH  18  22
BRANCH  20  24
HETATM   24  O   UNL     1     -12.078   6.180  72.180  1.00  0.00    -0.327 OA 
HETATM   25  C   UNL     1     -12.099   6.758  70.888  1.00  0.00    -0.367 C  
ENDBRANCH  20  24
ENDBRANCH  11  12
ENDBRANCH   7  11
ENDBRANCH   2   3
TORSDOF 6
ENDMDL
MODEL      233
REMARK 921   NORMALIZED FREE ENERGY PREDICTED BY IDOCK:   -2.88 KCAL/MOL
REMARK 922        TOTAL FREE ENERGY PREDICTED BY IDOCK:   -4.69 KCAL/MOL
REMARK 923 INTER-LIGAND FREE ENERGY PREDICTED BY IDOCK:   -3.98 KCAL/MOL
REMARK 924 INTRA-LIGAND FREE ENERGY PREDICTED BY IDOCK:   -0.71 KCAL/MOL
REMARK 927      BINDING AFFINITY PREDICTED BY RF-SCORE:    0.00 PKD
ROOT
HETATM    1  C   UNL     1     -10.038   4.563  66.636  1.00  0.00    -0.209 C  
HETATM    2  O   UNL     1      -9.656   5.565  65.695  1.00  0.00    -0.084 OA 
ENDROOT
BRANCH   2   3
HETATM    3  C   UNL     1      -9.496   6.831  66.200  1.00  0.00    -0.006 A  
HETATM    4  C   UNL     1      -8.230   7.423  66.048  1.00  0.00    -0.130 A  
HETATM    5  C   UNL     1     -10.487   7.508  66.915  1.00  0.00    -0.385 A  
HETATM    6  C   UNL     1      -7.994   8.689  66.601  1.00  0.00    -0.096 A  
HETATM    7  C   UNL     1      -8.971   9.341  67.377  1.00  0.00    -0.135 A  
HETATM    8  C   UNL     1     -10.231   8.749  67.500  1.00  0.00    -0.309 A  
BRANCH   4   9
HETATM    9  O   UNL     1      -7.289   6.690  65.365  1.00  0.00    -0.071 OA 
HETATM   10  C   UNL     1      -6.878   7.182  64.092  1.00  0.00    -0.051 C  
ENDBRANCH   4   9
BRANCH   7  11
HETATM   11  C   UNL     1      -8.689  10.656  68.070  1.00  0.00    -0.126 C  
BRANCH  11  12
HETATM   12  C   UNL     1      -9.811  11.670  67.953  1.00  0.00    -0.184 A  
HETATM   13  N   UNL     1     -10.316  12.089  69.148  1.00  0.00    -0.002 NA 
HETATM   14  C   UNL     1     -11.397  12.887  69.127  1.00  0.00    -0.273 A  
HETATM   15  C   UNL     1     -12.010  13.307  67.965  1.00  0.00    -0.351 A  
HETATM   16  C   UNL     1     -11.496  12.874  66.738  1.00  0.00    -0.391 A  
HETATM   17  C   UNL     1     -12.124  13.250  65.541  1.00  0.00    -0.480 A  
HETATM   18  C   UNL     1     -11.693  12.781  64.288  1.00  0.00    -0.381 A  
HETATM   19  C   UNL     1     -10.369  12.041  66.702  1.00  0.00    -0.237 A  
HETATM   20  C   UNL     1     -10.555  11.974  64.227  1.00  0.00    -0.334 A  
HETATM   21  C   UNL     1      -9.910  11.622  65.428  1.00  0.00    -0.268 A  
BRANCH  18  22
HETATM   22  O   UNL     1     -12.372  13.119  63.143  1.00  0.00    -0.677 OA 
HETATM   23  C   UNL     1     -13.527  12.329  62.849  1.00  0.00     1.748 C  
ENDBRANCH  18  22
BRANCH  20  24
HETATM   24  O   UNL     1      -9.949  11.382  63.154  1.00  0.00    -0.353 OA 
HETATM   25  C   UNL     1      -8.786  10.586  63.290  1.00  0.00    -0.195 C  
ENDBRANCH  20  24
ENDBRANCH  11  12
ENDBRANCH   7  11
ENDBRANCH   2   3
TORSDOF 6
ENDMDL
MODEL      234
REMARK 921   NORMALIZED FREE ENERGY PREDICTED BY IDOCK:   -2.81 KCAL/MOL
REMARK 922        TOTAL FREE ENERGY PREDICTED BY IDOCK:   -4.59 KCAL/MOL
REMARK 923 INTER-LIGAND FREE ENERGY PREDICTED BY IDOCK:   -3.64 KCAL/MOL
REMARK 924 INTRA-LIGAND FREE ENERGY PREDICTED BY IDOCK:   -0.96 KCAL/MOL
REMARK 927      BINDING AFFINITY PREDICTED BY RF-SCORE:    0.00 PKD
ROOT
HETATM    1  C   UNL     1      -6.188  14.263  69.674  1.00  0.00    -0.126 C  
HETATM    2  O   UNL     1      -7.107  13.556  68.843  1.00  0.00    -0.105 OA 
ENDROOT
BRANCH   2   3
HETATM    3  C   UNL     1      -7.077  12.188  68.945  1.00  0.00    -0.098 A  
HETATM    4  C   UNL     1      -7.866  11.464  68.034  1.00  0.00    -0.121 A  
HETATM    5  C   UNL     1      -6.383  11.503  69.944  1.00  0.00    -0.136 A  
HETATM    6  C   UNL     1      -7.921  10.067  68.134  1.00  0.00    -0.100 A  
HETATM    7  C   UNL     1      -7.275   9.383  69.180  1.00  0.00    -0.066 A  
HETATM    8  C   UNL     1      -6.478  10.116  70.065  1.00  0.00    -0.106 A  
BRANCH   4   9
HETATM    9  O   UNL     1      -8.551  12.201  67.097  1.00  0.00    -0.171 OA 
HETATM   10  C   UNL     1      -9.263  11.480  66.094  1.00  0.00    -0.219 C  
ENDBRANCH   4   9
BRANCH   7  11
HETATM   11  C   UNL     1      -7.419   7.889  69.363  1.00  0.00    -0.091 C  
BRANCH  11  12
HETATM   12  C   UNL     1      -8.782   7.347  68.976  1.00  0.00    -0.133 A  
HETATM   13  N   UNL     1      -9.745   7.520  69.926  1.00  0.00    -0.171 NA 
HETATM   14  C   UNL     1     -10.945   6.953  69.713  1.00  0.00    -0.270 A  
HETATM   15  C   UNL     1     -11.250   6.219  68.587  1.00  0.00    -0.328 A  
HETATM   16  C   UNL     1     -10.262   6.036  67.614  1.00  0.00    -0.221 A  
HETATM   17  C   UNL     1     -10.530   5.260  66.477  1.00  0.00    -0.354 A  
HETATM   18  C   UNL     1      -9.549   4.983  65.508  1.00  0.00    -0.089 A  
HETATM   19  C   UNL     1      -8.992   6.607  67.784  1.00  0.00    -0.112 A  
HETATM   20  C   UNL     1      -8.288   5.566  65.643  1.00  0.00    -0.133 A  
HETATM   21  C   UNL     1      -8.030   6.369  66.771  1.00  0.00    -0.109 A  
BRANCH  18  22
HETATM   22  O   UNL     1      -9.831   4.164  64.441  1.00  0.00    -0.171 OA 
HETATM   23  C   UNL     1      -9.554   2.775  64.634  1.00  0.00    -0.112 C  
ENDBRANCH  18  22
BRANCH  20  24
HETATM   24  O   UNL     1      -7.171   5.445  64.863  1.00  0.00    -0.063 OA 
HETATM   25  C   UNL     1      -6.168   4.481  65.127  1.00  0.00    -0.034 C  
ENDBRANCH  20  24
ENDBRANCH  11  12
ENDBRANCH   7  11
ENDBRANCH   2   3
TORSDOF 6
ENDMDL
MODEL      235
REMARK 921   NORMALIZED FREE ENERGY PREDICTED BY IDOCK:   -2.73 KCAL/MOL
REMARK 922        TOTAL FREE ENERGY PREDICTED BY IDOCK:   -4.49 KCAL/MOL
REMARK 923 INTER-LIGAND FREE ENERGY PREDICTED BY IDOCK:   -3.67 KCAL/MOL
REMARK 924 INTRA-LIGAND FREE ENERGY PREDICTED BY IDOCK:   -0.82 KCAL/MOL
REMARK 927      BINDING AFFINITY PREDICTED BY RF-SCORE:    0.00 PKD
ROOT
HETATM    1  C   UNL     1     -11.287  17.318  72.830  1.00  0.00     1.409 C  
HETATM    2  O   UNL     1     -11.960  16.064  72.734  1.00  0.00    -0.453 OA 
ENDROOT
BRANCH   2   3
HETATM    3  C   UNL     1     -11.839  15.409  71.534  1.00  0.00    -0.387 A  
HETATM    4  C   UNL     1     -12.407  14.126  71.448  1.00  0.00    -0.344 A  
HETATM    5  C   UNL     1     -11.120  15.913  70.448  1.00  0.00    -0.382 A  
HETATM    6  C   UNL     1     -12.258  13.388  70.266  1.00  0.00    -0.405 A  
HETATM    7  C   UNL     1     -11.479  13.869  69.197  1.00  0.00    -0.345 A  
HETATM    8  C   UNL     1     -10.939  15.155  69.291  1.00  0.00    -0.260 A  
BRANCH   4   9
HETATM    9  O   UNL     1     -13.071  13.675  72.564  1.00  0.00    -0.426 OA 
HETATM   10  C   UNL     1     -14.402  13.198  72.382  1.00  0.00    -0.018 C  
ENDBRANCH   4   9
BRANCH   7  11
HETATM   11  C   UNL     1     -11.220  13.035  67.963  1.00  0.00    -0.310 C  
BRANCH  11  12
HETATM   12  C   UNL     1      -9.798  12.520  67.851  1.00  0.00    -0.207 A  
HETATM   13  N   UNL     1      -8.964  13.325  67.132  1.00  0.00    -0.221 NA 
HETATM   14  C   UNL     1      -7.723  12.875  66.878  1.00  0.00     0.171 A  
HETATM   15  C   UNL     1      -7.253  11.655  67.313  1.00  0.00    -0.137 A  
HETATM   16  C   UNL     1      -8.108  10.826  68.047  1.00  0.00    -0.114 A  
HETATM   17  C   UNL     1      -7.671   9.561  68.468  1.00  0.00    -0.081 A  
HETATM   18  C   UNL     1      -8.515   8.661  69.141  1.00  0.00    -0.124 A  
HETATM   19  C   UNL     1      -9.413  11.246  68.342  1.00  0.00    -0.192 A  
HETATM   20  C   UNL     1      -9.808   9.070  69.470  1.00  0.00    -0.180 A  
HETATM   21  C   UNL     1     -10.235  10.352  69.072  1.00  0.00    -0.233 A  
BRANCH  18  22
HETATM   22  O   UNL     1      -8.071   7.405  69.480  1.00  0.00    -0.124 OA 
HETATM   23  C   UNL     1      -6.924   7.361  70.332  1.00  0.00    -0.056 C  
ENDBRANCH  18  22
BRANCH  20  24
HETATM   24  O   UNL     1     -10.817   8.391  70.097  1.00  0.00    -0.239 OA 
HETATM   25  C   UNL     1     -11.386   7.215  69.550  1.00  0.00    -0.017 C  
ENDBRANCH  20  24
ENDBRANCH  11  12
ENDBRANCH   7  11
ENDBRANCH   2   3
TORSDOF 6
ENDMDL
MODEL      236
REMARK 921   NORMALIZED FREE ENERGY PREDICTED BY IDOCK:   -2.72 KCAL/MOL
REMARK 922        TOTAL FREE ENERGY PREDICTED BY IDOCK:   -4.49 KCAL/MOL
REMARK 923 INTER-LIGAND FREE ENERGY PREDICTED BY IDOCK:   -4.78 KCAL/MOL
REMARK 924 INTRA-LIGAND FREE ENERGY PREDICTED BY IDOCK:    0.29 KCAL/MOL
REMARK 927      BINDING AFFINITY PREDICTED BY RF-SCORE:    0.00 PKD
ROOT
HETATM    1  C   UNL     1     -11.507  15.766  69.655  1.00  0.00    -0.346 C  
HETATM    2  O   UNL     1     -11.668  14.976  68.479  1.00  0.00    -0.320 OA 
ENDROOT
BRANCH   2   3
HETATM    3  C   UNL     1     -11.456  13.629  68.627  1.00  0.00    -0.307 A  
HETATM    4  C   UNL     1     -10.889  12.949  67.535  1.00  0.00    -0.235 A  
HETATM    5  C   UNL     1     -11.847  12.905  69.756  1.00  0.00    -0.380 A  
HETATM    6  C   UNL     1     -10.709  11.560  67.610  1.00  0.00    -0.255 A  
HETATM    7  C   UNL     1     -11.162  10.824  68.720  1.00  0.00    -0.331 A  
HETATM    8  C   UNL     1     -11.705  11.518  69.806  1.00  0.00    -0.426 A  
BRANCH   4   9
HETATM    9  O   UNL     1     -10.559  13.713  66.442  1.00  0.00    -0.279 OA 
HETATM   10  C   UNL     1     -10.275  13.026  65.226  1.00  0.00    -0.279 C  
ENDBRANCH   4   9
BRANCH   7  11
HETATM   11  C   UNL     1     -11.074   9.315  68.764  1.00  0.00     0.054 C  
BRANCH  11  12
HETATM   12  C   UNL     1      -9.821   8.787  69.436  1.00  0.00    -0.186 A  
HETATM   13  N   UNL     1      -9.256   9.651  70.328  1.00  0.00    -0.254 NA 
HETATM   14  C   UNL     1      -8.073   9.310  70.867  1.00  0.00    -0.124 A  
HETATM   15  C   UNL     1      -7.413   8.136  70.574  1.00  0.00    -0.063 A  
HETATM   16  C   UNL     1      -7.989   7.251  69.656  1.00  0.00    -0.127 A  
HETATM   17  C   UNL     1      -7.321   6.068  69.306  1.00  0.00    -0.083 A  
HETATM   18  C   UNL     1      -7.819   5.184  68.334  1.00  0.00    -0.087 A  
HETATM   19  C   UNL     1      -9.223   7.555  69.064  1.00  0.00    -0.146 A  
HETATM   20  C   UNL     1      -9.060   5.453  67.753  1.00  0.00    -0.108 A  
HETATM   21  C   UNL     1      -9.742   6.627  68.128  1.00  0.00    -0.130 A  
BRANCH  18  22
HETATM   22  O   UNL     1      -7.104   4.068  67.970  1.00  0.00    -0.057 OA 
HETATM   23  C   UNL     1      -7.858   3.023  67.350  1.00  0.00    -0.076 C  
ENDBRANCH  18  22
BRANCH  20  24
HETATM   24  O   UNL     1      -9.749   4.774  66.786  1.00  0.00    -0.156 OA 
HETATM   25  C   UNL     1     -10.893   5.318  66.154  1.00  0.00    -0.075 C  
ENDBRANCH  20  24
ENDBRANCH  11  12
ENDBRANCH   7  11
ENDBRANCH   2   3
TORSDOF 6
ENDMDL
MODEL      237
REMARK 921   NORMALIZED FREE ENERGY PREDICTED BY IDOCK:   -2.66 KCAL/MOL
REMARK 922        TOTAL FREE ENERGY PREDICTED BY IDOCK:   -4.39 KCAL/MOL
REMARK 923 INTER-LIGAND FREE ENERGY PREDICTED BY IDOCK:   -3.73 KCAL/MOL
REMARK 924 INTRA-LIGAND FREE ENERGY PREDICTED BY IDOCK:   -0.67 KCAL/MOL
REMARK 927      BINDING AFFINITY PREDICTED BY RF-SCORE:    0.00 PKD
ROOT
HETATM    1  C   UNL     1      -6.441   3.992  64.756  1.00  0.00    -0.042 C  
HETATM    2  O   UNL     1      -7.520   4.892  64.513  1.00  0.00    -0.068 OA 
ENDROOT
BRANCH   2   3
HETATM    3  C   UNL     1      -7.799   5.781  65.521  1.00  0.00    -0.102 A  
HETATM    4  C   UNL     1      -8.034   7.115  65.147  1.00  0.00    -0.128 A  
HETATM    5  C   UNL     1      -7.775   5.444  66.876  1.00  0.00    -0.100 A  
HETATM    6  C   UNL     1      -8.261   8.077  66.142  1.00  0.00    -0.116 A  
HETATM    7  C   UNL     1      -8.172   7.749  67.507  1.00  0.00    -0.124 A  
HETATM    8  C   UNL     1      -7.958   6.414  67.862  1.00  0.00    -0.111 A  
BRANCH   4   9
HETATM    9  O   UNL     1      -8.009   7.387  63.800  1.00  0.00    -0.128 OA 
HETATM   10  C   UNL     1      -7.004   8.284  63.333  1.00  0.00    -0.085 C  
ENDBRANCH   4   9
BRANCH   7  11
HETATM   11  C   UNL     1      -8.304   8.800  68.587  1.00  0.00    -0.128 C  
BRANCH  11  12
HETATM   12  C   UNL     1      -7.831  10.179  68.170  1.00  0.00    -0.096 A  
HETATM   13  N   UNL     1      -6.524  10.232  67.785  1.00  0.00    -0.061 NA 
HETATM   14  C   UNL     1      -5.995  11.440  67.526  1.00  0.00    -0.064 A  
HETATM   15  C   UNL     1      -6.706  12.617  67.620  1.00  0.00    -0.144 A  
HETATM   16  C   UNL     1      -8.045  12.566  68.020  1.00  0.00    -0.164 A  
HETATM   17  C   UNL     1      -8.782  13.751  68.165  1.00  0.00    -0.183 A  
HETATM   18  C   UNL     1     -10.106  13.759  68.637  1.00  0.00    -0.193 A  
HETATM   19  C   UNL     1      -8.649  11.332  68.301  1.00  0.00    -0.153 A  
HETATM   20  C   UNL     1     -10.735  12.539  68.895  1.00  0.00    -0.165 A  
HETATM   21  C   UNL     1     -10.002  11.350  68.720  1.00  0.00    -0.188 A  
BRANCH  18  22
HETATM   22  O   UNL     1     -10.774  14.944  68.828  1.00  0.00    -0.236 OA 
HETATM   23  C   UNL     1     -10.891  15.784  67.677  1.00  0.00    -0.310 C  
ENDBRANCH  18  22
BRANCH  20  24
HETATM   24  O   UNL     1     -11.990  12.276  69.370  1.00  0.00    -0.297 OA 
HETATM   25  C   UNL     1     -12.273  11.134  70.158  1.00  0.00    -0.337 C  
ENDBRANCH  20  24
ENDBRANCH  11  12
ENDBRANCH   7  11
ENDBRANCH   2   3
TORSDOF 6
ENDMDL
MODEL      238
REMARK 921   NORMALIZED FREE ENERGY PREDICTED BY IDOCK:   -2.65 KCAL/MOL
REMARK 922        TOTAL FREE ENERGY PREDICTED BY IDOCK:   -4.39 KCAL/MOL
REMARK 923 INTER-LIGAND FREE ENERGY PREDICTED BY IDOCK:   -3.98 KCAL/MOL
REMARK 924 INTRA-LIGAND FREE ENERGY PREDICTED BY IDOCK:   -0.41 KCAL/MOL
REMARK 927      BINDING AFFINITY PREDICTED BY RF-SCORE:    0.00 PKD
ROOT
HETATM    1  C   UNL     1      -8.467   6.790  65.660  1.00  0.00    -0.138 C  
HETATM    2  O   UNL     1      -7.392   7.706  65.457  1.00  0.00    -0.069 OA 
ENDROOT
BRANCH   2   3
HETATM    3  C   UNL     1      -7.587   8.975  65.940  1.00  0.00    -0.094 A  
HETATM    4  C   UNL     1      -7.310   9.188  67.301  1.00  0.00    -0.087 A  
HETATM    5  C   UNL     1      -8.118  10.019  65.178  1.00  0.00    -0.144 A  
HETATM    6  C   UNL     1      -7.551  10.451  67.861  1.00  0.00    -0.088 A  
HETATM    7  C   UNL     1      -8.146  11.481  67.110  1.00  0.00    -0.159 A  
HETATM    8  C   UNL     1      -8.397  11.259  65.753  1.00  0.00     0.023 A  
BRANCH   4   9
HETATM    9  O   UNL     1      -6.823   8.112  68.003  1.00  0.00    -0.069 OA 
HETATM   10  C   UNL     1      -5.878   8.379  69.036  1.00  0.00    -0.039 C  
ENDBRANCH   4   9
BRANCH   7  11
HETATM   11  C   UNL     1      -8.514  12.810  67.732  1.00  0.00    -0.177 C  
BRANCH  11  12
HETATM   12  C   UNL     1      -7.442  13.875  67.595  1.00  0.00    -0.176 A  
HETATM   13  N   UNL     1      -6.209  13.490  68.029  1.00  0.00    -0.120 NA 
HETATM   14  C   UNL     1      -5.237  14.418  68.061  1.00  0.00    -0.102 A  
HETATM   15  C   UNL     1      -5.423  15.727  67.670  1.00  0.00    -0.127 A  
HETATM   16  C   UNL     1      -6.689  16.125  67.228  1.00  0.00    -0.233 A  
HETATM   17  C   UNL     1      -6.919  17.460  66.864  1.00  0.00    -0.227 A  
HETATM   18  C   UNL     1      -8.190  17.926  66.486  1.00  0.00    -0.269 A  
HETATM   19  C   UNL     1      -7.739  15.197  67.173  1.00  0.00    -0.223 A  
HETATM   20  C   UNL     1      -9.242  17.013  66.396  1.00  0.00    -0.271 A  
HETATM   21  C   UNL     1      -9.002  15.668  66.736  1.00  0.00    -0.291 A  
BRANCH  18  22
HETATM   22  O   UNL     1      -8.391  19.255  66.198  1.00  0.00    -0.331 OA 
HETATM   23  C   UNL     1      -9.164  19.988  67.153  1.00  0.00    -0.368 C  
ENDBRANCH  18  22
BRANCH  20  24
HETATM   24  O   UNL     1     -10.558  17.210  66.075  1.00  0.00    -0.303 OA 
HETATM   25  C   UNL     1     -11.060  16.961  64.775  1.00  0.00     0.102 C  
ENDBRANCH  20  24
ENDBRANCH  11  12
ENDBRANCH   7  11
ENDBRANCH   2   3
TORSDOF 6
ENDMDL
MODEL      239
REMARK 921   NORMALIZED FREE ENERGY PREDICTED BY IDOCK:   -2.61 KCAL/MOL
REMARK 922        TOTAL FREE ENERGY PREDICTED BY IDOCK:   -4.33 KCAL/MOL
REMARK 923 INTER-LIGAND FREE ENERGY PREDICTED BY IDOCK:   -4.10 KCAL/MOL
REMARK 924 INTRA-LIGAND FREE ENERGY PREDICTED BY IDOCK:   -0.23 KCAL/MOL
REMARK 927      BINDING AFFINITY PREDICTED BY RF-SCORE:    0.00 PKD
ROOT
HETATM    1  C   UNL     1     -11.975   6.064  72.090  1.00  0.00    -0.202 C  
HETATM    2  O   UNL     1     -11.970   6.256  70.676  1.00  0.00    -0.261 OA 
ENDROOT
BRANCH   2   3
HETATM    3  C   UNL     1     -10.736   6.274  70.078  1.00  0.00    -0.285 A  
HETATM    4  C   UNL     1     -10.298   7.504  69.557  1.00  0.00    -0.216 A  
HETATM    5  C   UNL     1      -9.951   5.133  69.891  1.00  0.00    -0.316 A  
HETATM    6  C   UNL     1      -9.072   7.565  68.880  1.00  0.00    -0.140 A  
HETATM    7  C   UNL     1      -8.314   6.404  68.635  1.00  0.00    -0.121 A  
HETATM    8  C   UNL     1      -8.754   5.193  69.177  1.00  0.00    -0.103 A  
BRANCH   4   9
HETATM    9  O   UNL     1     -11.132   8.580  69.744  1.00  0.00    -0.188 OA 
HETATM   10  C   UNL     1     -10.935   9.362  70.920  1.00  0.00    -0.320 C  
ENDBRANCH   4   9
BRANCH   7  11
HETATM   11  C   UNL     1      -7.047   6.441  67.810  1.00  0.00    -0.085 C  
BRANCH  11  12
HETATM   12  C   UNL     1      -7.282   6.385  66.313  1.00  0.00    -0.072 A  
HETATM   13  N   UNL     1      -6.865   5.228  65.722  1.00  0.00    -0.063 NA 
HETATM   14  C   UNL     1      -6.919   5.155  64.381  1.00  0.00    -0.049 A  
HETATM   15  C   UNL     1      -7.381   6.178  63.581  1.00  0.00    -0.067 A  
HETATM   16  C   UNL     1      -7.805   7.367  64.185  1.00  0.00    -0.120 A  
HETATM   17  C   UNL     1      -8.241   8.440  63.395  1.00  0.00    -0.114 A  
HETATM   18  C   UNL     1      -8.605   9.680  63.948  1.00  0.00    -0.206 A  
HETATM   19  C   UNL     1      -7.772   7.498  65.581  1.00  0.00    -0.100 A  
HETATM   20  C   UNL     1      -8.607   9.822  65.337  1.00  0.00    -0.149 A  
HETATM   21  C   UNL     1      -8.196   8.733  66.129  1.00  0.00    -0.117 A  
BRANCH  18  22
HETATM   22  O   UNL     1      -8.964  10.730  63.137  1.00  0.00    -0.200 OA 
HETATM   23  C   UNL     1     -10.307  11.200  63.287  1.00  0.00    -0.308 C  
ENDBRANCH  18  22
BRANCH  20  24
HETATM   24  O   UNL     1      -8.897  10.911  66.113  1.00  0.00    -0.173 OA 
HETATM   25  C   UNL     1      -8.782  10.881  67.524  1.00  0.00    -0.130 C  
ENDBRANCH  20  24
ENDBRANCH  11  12
ENDBRANCH   7  11
ENDBRANCH   2   3
TORSDOF 6
ENDMDL
MODEL      240
REMARK 921   NORMALIZED FREE ENERGY PREDICTED BY IDOCK:   -2.55 KCAL/MOL
REMARK 922        TOTAL FREE ENERGY PREDICTED BY IDOCK:   -4.24 KCAL/MOL
REMARK 923 INTER-LIGAND FREE ENERGY PREDICTED BY IDOCK:   -4.45 KCAL/MOL
REMARK 924 INTRA-LIGAND FREE ENERGY PREDICTED BY IDOCK:    0.20 KCAL/MOL
REMARK 927      BINDING AFFINITY PREDICTED BY RF-SCORE:    0.00 PKD
ROOT
HETATM    1  C   UNL     1     -10.306  14.590  68.463  1.00  0.00    -0.242 C  
HETATM    2  O   UNL     1     -10.186  14.152  67.110  1.00  0.00    -0.254 OA 
ENDROOT
BRANCH   2   3
HETATM    3  C   UNL     1      -9.650  12.902  66.931  1.00  0.00    -0.240 A  
HETATM    4  C   UNL     1     -10.162  12.136  65.869  1.00  0.00    -0.244 A  
HETATM    5  C   UNL     1      -8.702  12.337  67.787  1.00  0.00    -0.174 A  
HETATM    6  C   UNL     1      -9.693  10.828  65.679  1.00  0.00    -0.287 A  
HETATM    7  C   UNL     1      -8.788  10.238  66.581  1.00  0.00    -0.148 A  
HETATM    8  C   UNL     1      -8.274  11.020  67.619  1.00  0.00    -0.117 A  
BRANCH   4   9
HETATM    9  O   UNL     1     -11.117  12.736  65.085  1.00  0.00    -0.282 OA 
HETATM   10  C   UNL     1     -10.773  13.978  64.474  1.00  0.00    -0.336 C  
ENDBRANCH   4   9
BRANCH   7  11
HETATM   11  C   UNL     1      -8.362   8.793  66.449  1.00  0.00    -0.117 C  
BRANCH  11  12
HETATM   12  C   UNL     1      -9.256   7.815  67.188  1.00  0.00    -0.146 A  
HETATM   13  N   UNL     1     -10.045   8.386  68.143  1.00  0.00    -0.193 NA 
HETATM   14  C   UNL     1     -10.768   7.570  68.929  1.00  0.00    -0.115 A  
HETATM   15  C   UNL     1     -10.759   6.197  68.812  1.00  0.00    -0.370 A  
HETATM   16  C   UNL     1      -9.947   5.609  67.836  1.00  0.00    -0.174 A  
HETATM   17  C   UNL     1      -9.886   4.212  67.721  1.00  0.00    -0.108 A  
HETATM   18  C   UNL     1      -9.029   3.571  66.809  1.00  0.00    -0.150 A  
HETATM   19  C   UNL     1      -9.172   6.412  66.988  1.00  0.00    -0.136 A  
HETATM   20  C   UNL     1      -8.271   4.353  65.935  1.00  0.00    -0.109 A  
HETATM   21  C   UNL     1      -8.357   5.755  66.034  1.00  0.00    -0.126 A  
BRANCH  18  22
HETATM   22  O   UNL     1      -8.948   2.200  66.770  1.00  0.00    -0.128 OA 
HETATM   23  C   UNL     1      -8.810   1.549  68.036  1.00  0.00    -0.107 C  
ENDBRANCH  18  22
BRANCH  20  24
HETATM   24  O   UNL     1      -7.362   3.983  64.982  1.00  0.00    -0.069 OA 
HETATM   25  C   UNL     1      -7.758   3.525  63.702  1.00  0.00    -0.075 C  
ENDBRANCH  20  24
ENDBRANCH  11  12
ENDBRANCH   7  11
ENDBRANCH   2   3
TORSDOF 6
ENDMDL
MODEL      241
REMARK 921   NORMALIZED FREE ENERGY PREDICTED BY IDOCK:   -2.51 KCAL/MOL
REMARK 922        TOTAL FREE ENERGY PREDICTED BY IDOCK:   -4.19 KCAL/MOL
REMARK 923 INTER-LIGAND FREE ENERGY PREDICTED BY IDOCK:   -4.09 KCAL/MOL
REMARK 924 INTRA-LIGAND FREE ENERGY PREDICTED BY IDOCK:   -0.10 KCAL/MOL
REMARK 927      BINDING AFFINITY PREDICTED BY RF-SCORE:    0.00 PKD
ROOT
HETATM    1  C   UNL     1      -7.963  16.599  68.150  1.00  0.00    -0.177 C  
HETATM    2  O   UNL     1      -8.287  15.515  69.018  1.00  0.00    -0.188 OA 
ENDROOT
BRANCH   2   3
HETATM    3  C   UNL     1      -8.817  14.402  68.416  1.00  0.00    -0.182 A  
HETATM    4  C   UNL     1     -10.028  14.569  67.721  1.00  0.00    -0.225 A  
HETATM    5  C   UNL     1      -8.265  13.124  68.531  1.00  0.00    -0.076 A  
HETATM    6  C   UNL     1     -10.645  13.452  67.141  1.00  0.00    -0.259 A  
HETATM    7  C   UNL     1     -10.123  12.157  67.313  1.00  0.00    -0.214 A  
HETATM    8  C   UNL     1      -8.908  12.011  67.989  1.00  0.00    -0.179 A  
BRANCH   4   9
HETATM    9  O   UNL     1     -10.536  15.845  67.674  1.00  0.00    -0.275 OA 
HETATM   10  C   UNL     1     -11.374  16.173  66.569  1.00  0.00     0.360 C  
ENDBRANCH   4   9
BRANCH   7  11
HETATM   11  C   UNL     1     -10.840  10.933  66.786  1.00  0.00    -0.283 C  
BRANCH  11  12
HETATM   12  C   UNL     1      -9.915   9.803  66.378  1.00  0.00    -0.247 A  
HETATM   13  N   UNL     1      -9.473   9.877  65.090  1.00  0.00    -0.256 NA 
HETATM   14  C   UNL     1      -8.755   8.845  64.613  1.00  0.00    -0.103 A  
HETATM   15  C   UNL     1      -8.439   7.729  65.359  1.00  0.00    -0.124 A  
HETATM   16  C   UNL     1      -8.895   7.650  66.679  1.00  0.00    -0.159 A  
HETATM   17  C   UNL     1      -8.625   6.509  67.449  1.00  0.00    -0.118 A  
HETATM   18  C   UNL     1      -9.125   6.348  68.753  1.00  0.00    -0.125 A  
HETATM   19  C   UNL     1      -9.647   8.699  67.228  1.00  0.00    -0.216 A  
HETATM   20  C   UNL     1      -9.850   7.392  69.329  1.00  0.00    -0.168 A  
HETATM   21  C   UNL     1     -10.096   8.548  68.563  1.00  0.00    -0.214 A  
BRANCH  18  22
HETATM   22  O   UNL     1      -8.893   5.188  69.453  1.00  0.00    -0.097 OA 
HETATM   23  C   UNL     1      -8.066   5.316  70.612  1.00  0.00    -0.108 C  
ENDBRANCH  18  22
BRANCH  20  24
HETATM   24  O   UNL     1     -10.452   7.479  70.554  1.00  0.00    -0.213 OA 
HETATM   25  C   UNL     1     -10.136   8.506  71.477  1.00  0.00    -0.245 C  
ENDBRANCH  20  24
ENDBRANCH  11  12
ENDBRANCH   7  11
ENDBRANCH   2   3
TORSDOF 6
ENDMDL
MODEL      242
REMARK 921   NORMALIZED FREE ENERGY PREDICTED BY IDOCK:   -2.48 KCAL/MOL
REMARK 922        TOTAL FREE ENERGY PREDICTED BY IDOCK:   -4.15 KCAL/MOL
REMARK 923 INTER-LIGAND FREE ENERGY PREDICTED BY IDOCK:   -3.21 KCAL/MOL
REMARK 924 INTRA-LIGAND FREE ENERGY PREDICTED BY IDOCK:   -0.95 KCAL/MOL
REMARK 927      BINDING AFFINITY PREDICTED BY RF-SCORE:    0.00 PKD
ROOT
HETATM    1  C   UNL     1      -8.193  11.901  67.361  1.00  0.00    -0.164 C  
HETATM    2  O   UNL     1      -7.184  11.331  66.530  1.00  0.00    -0.139 OA 
ENDROOT
BRANCH   2   3
HETATM    3  C   UNL     1      -6.783  10.061  66.858  1.00  0.00    -0.079 A  
HETATM    4  C   UNL     1      -7.232   9.017  66.029  1.00  0.00    -0.093 A  
HETATM    5  C   UNL     1      -6.039   9.756  68.000  1.00  0.00    -0.054 A  
HETATM    6  C   UNL     1      -6.904   7.694  66.355  1.00  0.00    -0.062 A  
HETATM    7  C   UNL     1      -6.210   7.384  67.539  1.00  0.00    -0.048 A  
HETATM    8  C   UNL     1      -5.754   8.434  68.341  1.00  0.00    -0.038 A  
BRANCH   4   9
HETATM    9  O   UNL     1      -7.989   9.381  64.942  1.00  0.00    -0.111 OA 
HETATM   10  C   UNL     1      -9.406   9.339  65.090  1.00  0.00    -0.171 C  
ENDBRANCH   4   9
BRANCH   7  11
HETATM   11  C   UNL     1      -5.949   5.953  67.957  1.00  0.00    -0.017 C  
BRANCH  11  12
HETATM   12  C   UNL     1      -7.205   5.130  68.166  1.00  0.00    -0.067 A  
HETATM   13  N   UNL     1      -7.464   4.237  67.168  1.00  0.00    -0.076 NA 
HETATM   14  C   UNL     1      -8.626   3.563  67.216  1.00  0.00    -0.109 A  
HETATM   15  C   UNL     1      -9.557   3.722  68.220  1.00  0.00    -0.171 A  
HETATM   16  C   UNL     1      -9.295   4.641  69.242  1.00  0.00    -0.207 A  
HETATM   17  C   UNL     1     -10.242   4.855  70.254  1.00  0.00    -0.299 A  
HETATM   18  C   UNL     1     -10.061   5.820  71.260  1.00  0.00    -0.201 A  
HETATM   19  C   UNL     1      -8.098   5.371  69.243  1.00  0.00    -0.093 A  
HETATM   20  C   UNL     1      -8.863   6.537  71.296  1.00  0.00    -0.137 A  
HETATM   21  C   UNL     1      -7.902   6.300  70.295  1.00  0.00    -0.103 A  
BRANCH  18  22
HETATM   22  O   UNL     1     -11.040   6.047  72.197  1.00  0.00    -0.252 OA 
HETATM   23  C   UNL     1     -11.100   5.106  73.272  1.00  0.00    -0.327 C  
ENDBRANCH  18  22
BRANCH  20  24
HETATM   24  O   UNL     1      -8.452   7.528  72.144  1.00  0.00    -0.106 OA 
HETATM   25  C   UNL     1      -7.547   7.283  73.205  1.00  0.00    -0.082 C  
ENDBRANCH  20  24
ENDBRANCH  11  12
ENDBRANCH   7  11
ENDBRANCH   2   3
TORSDOF 6
ENDMDL
MODEL      243
REMARK 921   NORMALIZED FREE ENERGY PREDICTED BY IDOCK:   -2.46 KCAL/MOL
REMARK 922        TOTAL FREE ENERGY PREDICTED BY IDOCK:   -4.13 KCAL/MOL
REMARK 923 INTER-LIGAND FREE ENERGY PREDICTED BY IDOCK:   -3.59 KCAL/MOL
REMARK 924 INTRA-LIGAND FREE ENERGY PREDICTED BY IDOCK:   -0.54 KCAL/MOL
REMARK 927      BINDING AFFINITY PREDICTED BY RF-SCORE:    0.00 PKD
ROOT
HETATM    1  C   UNL     1      -8.190   3.089  64.595  1.00  0.00    -0.086 C  
HETATM    2  O   UNL     1      -8.785   4.302  64.136  1.00  0.00    -0.115 OA 
ENDROOT
BRANCH   2   3
HETATM    3  C   UNL     1      -9.248   5.149  65.112  1.00  0.00    -0.050 A  
HETATM    4  C   UNL     1      -8.653   6.420  65.188  1.00  0.00    -0.002 A  
HETATM    5  C   UNL     1     -10.201   4.781  66.065  1.00  0.00    -0.308 A  
HETATM    6  C   UNL     1      -9.044   7.301  66.206  1.00  0.00    -0.186 A  
HETATM    7  C   UNL     1      -9.956   6.906  67.202  1.00  0.00    -0.239 A  
HETATM    8  C   UNL     1     -10.553   5.647  67.101  1.00  0.00    -0.344 A  
BRANCH   4   9
HETATM    9  O   UNL     1      -7.697   6.706  64.242  1.00  0.00    -0.098 OA 
HETATM   10  C   UNL     1      -7.191   8.038  64.209  1.00  0.00    -0.086 C  
ENDBRANCH   4   9
BRANCH   7  11
HETATM   11  C   UNL     1     -10.300   7.808  68.367  1.00  0.00    -0.231 C  
BRANCH  11  12
HETATM   12  C   UNL     1      -9.094   8.323  69.129  1.00  0.00    -0.148 A  
HETATM   13  N   UNL     1      -8.661   7.494  70.121  1.00  0.00    -0.141 NA 
HETATM   14  C   UNL     1      -7.680   7.939  70.926  1.00  0.00    -0.083 A  
HETATM   15  C   UNL     1      -7.089   9.177  70.791  1.00  0.00    -0.103 A  
HETATM   16  C   UNL     1      -7.535  10.030  69.776  1.00  0.00    -0.152 A  
HETATM   17  C   UNL     1      -6.981  11.312  69.641  1.00  0.00    -0.057 A  
HETATM   18  C   UNL     1      -7.446  12.234  68.688  1.00  0.00    -0.100 A  
HETATM   19  C   UNL     1      -8.555   9.617  68.907  1.00  0.00    -0.127 A  
HETATM   20  C   UNL     1      -8.441  11.832  67.794  1.00  0.00    -0.147 A  
HETATM   21  C   UNL     1      -8.975  10.535  67.913  1.00  0.00    -0.137 A  
BRANCH  18  22
HETATM   22  O   UNL     1      -6.923  13.503  68.628  1.00  0.00    -0.089 OA 
HETATM   23  C   UNL     1      -5.767  13.660  67.801  1.00  0.00    -0.090 C  
ENDBRANCH  18  22
BRANCH  20  24
HETATM   24  O   UNL     1      -9.070  12.531  66.800  1.00  0.00    -0.211 OA 
HETATM   25  C   UNL     1      -9.238  13.936  66.858  1.00  0.00    -0.259 C  
ENDBRANCH  20  24
ENDBRANCH  11  12
ENDBRANCH   7  11
ENDBRANCH   2   3
TORSDOF 6
ENDMDL
MODEL      244
REMARK 921   NORMALIZED FREE ENERGY PREDICTED BY IDOCK:   -2.45 KCAL/MOL
REMARK 922        TOTAL FREE ENERGY PREDICTED BY IDOCK:   -4.11 KCAL/MOL
REMARK 923 INTER-LIGAND FREE ENERGY PREDICTED BY IDOCK:   -3.66 KCAL/MOL
REMARK 924 INTRA-LIGAND FREE ENERGY PREDICTED BY IDOCK:   -0.45 KCAL/MOL
REMARK 927      BINDING AFFINITY PREDICTED BY RF-SCORE:    0.00 PKD
ROOT
HETATM    1  C   UNL     1     -12.425  12.077  71.915  1.00  0.00     0.264 C  
HETATM    2  O   UNL     1     -12.962  11.443  70.755  1.00  0.00    -0.203 OA 
ENDROOT
BRANCH   2   3
HETATM    3  C   UNL     1     -12.060  11.144  69.764  1.00  0.00    -0.344 A  
HETATM    4  C   UNL     1     -11.905  12.092  68.738  1.00  0.00    -0.303 A  
HETATM    5  C   UNL     1     -11.372   9.932  69.687  1.00  0.00    -0.212 A  
HETATM    6  C   UNL     1     -11.044  11.809  67.668  1.00  0.00    -0.312 A  
HETATM    7  C   UNL     1     -10.402  10.562  67.558  1.00  0.00    -0.265 A  
HETATM    8  C   UNL     1     -10.551   9.639  68.597  1.00  0.00    -0.246 A  
BRANCH   4   9
HETATM    9  O   UNL     1     -12.637  13.249  68.857  1.00  0.00     0.142 OA 
HETATM   10  C   UNL     1     -11.951  14.412  69.314  1.00  0.00    -0.324 C  
ENDBRANCH   4   9
BRANCH   7  11
HETATM   11  C   UNL     1      -9.560  10.205  66.353  1.00  0.00    -0.242 C  
BRANCH  11  12
HETATM   12  C   UNL     1      -8.066  10.237  66.610  1.00  0.00    -0.119 A  
HETATM   13  N   UNL     1      -7.446   9.030  66.472  1.00  0.00    -0.088 NA 
HETATM   14  C   UNL     1      -6.147   8.950  66.810  1.00  0.00    -0.057 A  
HETATM   15  C   UNL     1      -5.415  10.021  67.276  1.00  0.00    -0.042 A  
HETATM   16  C   UNL     1      -6.050  11.258  67.423  1.00  0.00    -0.066 A  
HETATM   17  C   UNL     1      -5.342  12.356  67.934  1.00  0.00    -0.083 A  
HETATM   18  C   UNL     1      -5.953  13.599  68.172  1.00  0.00    -0.118 A  
HETATM   19  C   UNL     1      -7.404  11.399  67.084  1.00  0.00    -0.138 A  
HETATM   20  C   UNL     1      -7.292  13.769  67.814  1.00  0.00    -0.164 A  
HETATM   21  C   UNL     1      -7.993  12.674  67.274  1.00  0.00    -0.166 A  
BRANCH  18  22
HETATM   22  O   UNL     1      -5.243  14.632  68.734  1.00  0.00    -0.084 OA 
HETATM   23  C   UNL     1      -5.337  14.748  70.157  1.00  0.00    -0.107 C  
ENDBRANCH  18  22
BRANCH  20  24
HETATM   24  O   UNL     1      -8.112  14.855  67.955  1.00  0.00    -0.127 OA 
HETATM   25  C   UNL     1      -8.801  15.425  66.856  1.00  0.00    -0.253 C  
ENDBRANCH  20  24
ENDBRANCH  11  12
ENDBRANCH   7  11
ENDBRANCH   2   3
TORSDOF 6
ENDMDL
MODEL      245
REMARK 921   NORMALIZED FREE ENERGY PREDICTED BY IDOCK:   -2.44 KCAL/MOL
REMARK 922        TOTAL FREE ENERGY PREDICTED BY IDOCK:   -4.10 KCAL/MOL
REMARK 923 INTER-LIGAND FREE ENERGY PREDICTED BY IDOCK:   -4.34 KCAL/MOL
REMARK 924 INTRA-LIGAND FREE ENERGY PREDICTED BY IDOCK:    0.24 KCAL/MOL
REMARK 927      BINDING AFFINITY PREDICTED BY RF-SCORE:    0.00 PKD
ROOT
HETATM    1  C   UNL     1     -10.530  10.776  64.624  1.00  0.00    -0.276 C  
HETATM    2  O   UNL     1      -9.843   9.636  65.137  1.00  0.00    -0.295 OA 
ENDROOT
BRANCH   2   3
HETATM    3  C   UNL     1      -9.154   9.829  66.308  1.00  0.00    -0.157 A  
HETATM    4  C   UNL     1      -8.490   8.713  66.847  1.00  0.00    -0.112 A  
HETATM    5  C   UNL     1      -9.154  11.033  67.015  1.00  0.00    -0.154 A  
HETATM    6  C   UNL     1      -7.824   8.839  68.074  1.00  0.00    -0.102 A  
HETATM    7  C   UNL     1      -7.880  10.032  68.817  1.00  0.00    -0.094 A  
HETATM    8  C   UNL     1      -8.526  11.138  68.257  1.00  0.00    -0.145 A  
BRANCH   4   9
HETATM    9  O   UNL     1      -8.558   7.549  66.119  1.00  0.00    -0.135 OA 
HETATM   10  C   UNL     1      -7.342   6.833  65.919  1.00  0.00    -0.075 C  
ENDBRANCH   4   9
BRANCH   7  11
HETATM   11  C   UNL     1      -7.259  10.144  70.192  1.00  0.00    -0.162 C  
BRANCH  11  12
HETATM   12  C   UNL     1      -7.631   9.014  71.132  1.00  0.00    -0.102 A  
HETATM   13  N   UNL     1      -6.565   8.378  71.696  1.00  0.00    -0.061 NA 
HETATM   14  C   UNL     1      -6.808   7.284  72.438  1.00  0.00    -0.063 A  
HETATM   15  C   UNL     1      -8.073   6.784  72.664  1.00  0.00    -0.104 A  
HETATM   16  C   UNL     1      -9.168   7.432  72.083  1.00  0.00    -0.158 A  
HETATM   17  C   UNL     1     -10.462   6.923  72.261  1.00  0.00    -0.233 A  
HETATM   18  C   UNL     1     -11.586   7.493  71.637  1.00  0.00    -0.268 A  
HETATM   19  C   UNL     1      -8.972   8.579  71.300  1.00  0.00    -0.244 A  
HETATM   20  C   UNL     1     -11.417   8.652  70.877  1.00  0.00    -0.275 A  
HETATM   21  C   UNL     1     -10.120   9.178  70.724  1.00  0.00    -0.333 A  
BRANCH  18  22
HETATM   22  O   UNL     1     -12.829   6.927  71.783  1.00  0.00    -0.362 OA 
HETATM   23  C   UNL     1     -13.934   7.743  71.383  1.00  0.00    -0.322 C  
ENDBRANCH  18  22
BRANCH  20  24
HETATM   24  O   UNL     1     -12.328   9.381  70.164  1.00  0.00     0.169 OA 
HETATM   25  C   UNL     1     -12.063  10.704  69.734  1.00  0.00    -0.272 C  
ENDBRANCH  20  24
ENDBRANCH  11  12
ENDBRANCH   7  11
ENDBRANCH   2   3
TORSDOF 6
ENDMDL
MODEL      246
REMARK 921   NORMALIZED FREE ENERGY PREDICTED BY IDOCK:   -2.37 KCAL/MOL
REMARK 922        TOTAL FREE ENERGY PREDICTED BY IDOCK:   -4.01 KCAL/MOL
REMARK 923 INTER-LIGAND FREE ENERGY PREDICTED BY IDOCK:   -3.74 KCAL/MOL
REMARK 924 INTRA-LIGAND FREE ENERGY PREDICTED BY IDOCK:   -0.27 KCAL/MOL
REMARK 927      BINDING AFFINITY PREDICTED BY RF-SCORE:    0.00 PKD
ROOT
HETATM    1  C   UNL     1     -10.884   7.343  71.873  1.00  0.00    -0.229 C  
HETATM    2  O   UNL     1     -11.665   6.424  71.111  1.00  0.00    -0.325 OA 
ENDROOT
BRANCH   2   3
HETATM    3  C   UNL     1     -11.034   5.847  70.038  1.00  0.00    -0.360 A  
HETATM    4  C   UNL     1     -10.107   4.827  70.318  1.00  0.00    -0.234 A  
HETATM    5  C   UNL     1     -11.204   6.275  68.720  1.00  0.00    -0.357 A  
HETATM    6  C   UNL     1      -9.388   4.247  69.264  1.00  0.00    -0.231 A  
HETATM    7  C   UNL     1      -9.511   4.723  67.946  1.00  0.00    -0.181 A  
HETATM    8  C   UNL     1     -10.452   5.723  67.682  1.00  0.00    -0.299 A  
BRANCH   4   9
HETATM    9  O   UNL     1      -9.962   4.477  71.639  1.00  0.00    -0.183 OA 
HETATM   10  C   UNL     1      -8.719   3.897  72.027  1.00  0.00    -0.100 C  
ENDBRANCH   4   9
BRANCH   7  11
HETATM   11  C   UNL     1      -8.659   4.180  66.820  1.00  0.00    -0.108 C  
BRANCH  11  12
HETATM   12  C   UNL     1      -8.312   5.204  65.757  1.00  0.00    -0.120 A  
HETATM   13  N   UNL     1      -8.643   4.830  64.488  1.00  0.00    -0.140 NA 
HETATM   14  C   UNL     1      -8.250   5.625  63.477  1.00  0.00    -0.090 A  
HETATM   15  C   UNL     1      -7.545   6.795  63.661  1.00  0.00    -0.097 A  
HETATM   16  C   UNL     1      -7.202   7.179  64.961  1.00  0.00    -0.074 A  
HETATM   17  C   UNL     1      -6.449   8.343  65.176  1.00  0.00    -0.056 A  
HETATM   18  C   UNL     1      -6.014   8.730  66.455  1.00  0.00    -0.055 A  
HETATM   19  C   UNL     1      -7.587   6.387  66.053  1.00  0.00    -0.087 A  
HETATM   20  C   UNL     1      -6.411   7.972  67.558  1.00  0.00    -0.057 A  
HETATM   21  C   UNL     1      -7.191   6.820  67.343  1.00  0.00    -0.090 A  
BRANCH  18  22
HETATM   22  O   UNL     1      -5.223   9.842  66.618  1.00  0.00    -0.039 OA 
HETATM   23  C   UNL     1      -5.475  10.922  65.715  1.00  0.00    -0.137 C  
ENDBRANCH  18  22
BRANCH  20  24
HETATM   24  O   UNL     1      -6.114   8.122  68.885  1.00  0.00    -0.038 OA 
HETATM   25  C   UNL     1      -7.119   8.307  69.865  1.00  0.00    -0.055 C  
ENDBRANCH  20  24
ENDBRANCH  11  12
ENDBRANCH   7  11
ENDBRANCH   2   3
TORSDOF 6
ENDMDL
MODEL      247
REMARK 921   NORMALIZED FREE ENERGY PREDICTED BY IDOCK:   -2.35 KCAL/MOL
REMARK 922        TOTAL FREE ENERGY PREDICTED BY IDOCK:   -3.97 KCAL/MOL
REMARK 923 INTER-LIGAND FREE ENERGY PREDICTED BY IDOCK:   -3.00 KCAL/MOL
REMARK 924 INTRA-LIGAND FREE ENERGY PREDICTED BY IDOCK:   -0.97 KCAL/MOL
REMARK 927      BINDING AFFINITY PREDICTED BY RF-SCORE:    0.00 PKD
ROOT
HETATM    1  C   UNL     1     -10.929   1.652  74.100  1.00  0.00    -0.142 C  
HETATM    2  O   UNL     1     -10.965   2.405  72.889  1.00  0.00    -0.122 OA 
ENDROOT
BRANCH   2   3
HETATM    3  C   UNL     1      -9.937   3.294  72.704  1.00  0.00    -0.154 A  
HETATM    4  C   UNL     1     -10.269   4.660  72.694  1.00  0.00    -0.184 A  
HETATM    5  C   UNL     1      -8.619   2.909  72.446  1.00  0.00    -0.085 A  
HETATM    6  C   UNL     1      -9.267   5.608  72.447  1.00  0.00    -0.151 A  
HETATM    7  C   UNL     1      -7.955   5.216  72.123  1.00  0.00    -0.112 A  
HETATM    8  C   UNL     1      -7.636   3.856  72.157  1.00  0.00    -0.066 A  
BRANCH   4   9
HETATM    9  O   UNL     1     -11.589   4.971  72.920  1.00  0.00    -0.272 OA 
HETATM   10  C   UNL     1     -12.124   6.092  72.222  1.00  0.00    -0.184 C  
ENDBRANCH   4   9
BRANCH   7  11
HETATM   11  C   UNL     1      -6.893   6.226  71.745  1.00  0.00    -0.065 C  
BRANCH  11  12
HETATM   12  C   UNL     1      -7.361   7.275  70.754  1.00  0.00    -0.071 A  
HETATM   13  N   UNL     1      -7.655   8.483  71.314  1.00  0.00    -0.091 NA 
HETATM   14  C   UNL     1      -8.200   9.424  70.522  1.00  0.00    -0.189 A  
HETATM   15  C   UNL     1      -8.463   9.231  69.183  1.00  0.00    -0.133 A  
HETATM   16  C   UNL     1      -8.166   7.991  68.609  1.00  0.00    -0.126 A  
HETATM   17  C   UNL     1      -8.461   7.752  67.258  1.00  0.00    -0.118 A  
HETATM   18  C   UNL     1      -8.253   6.500  66.655  1.00  0.00    -0.112 A  
HETATM   19  C   UNL     1      -7.595   6.974  69.388  1.00  0.00    -0.099 A  
HETATM   20  C   UNL     1      -7.659   5.483  67.404  1.00  0.00    -0.089 A  
HETATM   21  C   UNL     1      -7.337   5.734  68.751  1.00  0.00    -0.084 A  
BRANCH  18  22
HETATM   22  O   UNL     1      -8.615   6.285  65.346  1.00  0.00    -0.147 OA 
HETATM   23  C   UNL     1      -8.006   7.149  64.383  1.00  0.00    -0.101 C  
ENDBRANCH  18  22
BRANCH  20  24
HETATM   24  O   UNL     1      -7.368   4.190  67.064  1.00  0.00    -0.071 OA 
HETATM   25  C   UNL     1      -6.332   3.460  67.696  1.00  0.00    -0.036 C  
ENDBRANCH  20  24
ENDBRANCH  11  12
ENDBRANCH   7  11
ENDBRANCH   2   3
TORSDOF 6
ENDMDL
MODEL      248
REMARK 921   NORMALIZED FREE ENERGY PREDICTED BY IDOCK:   -2.34 KCAL/MOL
REMARK 922        TOTAL FREE ENERGY PREDICTED BY IDOCK:   -3.97 KCAL/MOL
REMARK 923 INTER-LIGAND FREE ENERGY PREDICTED BY IDOCK:   -4.03 KCAL/MOL
REMARK 924 INTRA-LIGAND FREE ENERGY PREDICTED BY IDOCK:    0.06 KCAL/MOL
REMARK 927      BINDING AFFINITY PREDICTED BY RF-SCORE:    0.00 PKD
ROOT
HETATM    1  C   UNL     1     -10.507  19.647  69.478  1.00  0.00     0.418 C  
HETATM    2  O   UNL     1      -9.623  19.421  68.381  1.00  0.00    -0.343 OA 
ENDROOT
BRANCH   2   3
HETATM    3  C   UNL     1      -9.292  18.111  68.139  1.00  0.00    -0.288 A  
HETATM    4  C   UNL     1      -9.216  17.713  66.793  1.00  0.00    -0.271 A  
HETATM    5  C   UNL     1      -9.117  17.159  69.145  1.00  0.00    -0.029 A  
HETATM    6  C   UNL     1      -8.944  16.371  66.489  1.00  0.00    -0.311 A  
HETATM    7  C   UNL     1      -8.832  15.402  67.502  1.00  0.00    -0.190 A  
HETATM    8  C   UNL     1      -8.891  15.818  68.835  1.00  0.00    -0.220 A  
BRANCH   4   9
HETATM    9  O   UNL     1      -9.433  18.690  65.851  1.00  0.00    -0.477 OA 
HETATM   10  C   UNL     1     -10.763  19.184  65.718  1.00  0.00    -0.307 C  
ENDBRANCH   4   9
BRANCH   7  11
HETATM   11  C   UNL     1      -8.650  13.934  67.183  1.00  0.00    -0.217 C  
BRANCH  11  12
HETATM   12  C   UNL     1      -7.848  13.170  68.219  1.00  0.00    -0.143 A  
HETATM   13  N   UNL     1      -6.728  13.816  68.650  1.00  0.00    -0.092 NA 
HETATM   14  C   UNL     1      -5.896  13.150  69.471  1.00  0.00    -0.102 A  
HETATM   15  C   UNL     1      -6.125  11.861  69.901  1.00  0.00    -0.153 A  
HETATM   16  C   UNL     1      -7.272  11.195  69.456  1.00  0.00    -0.058 A  
HETATM   17  C   UNL     1      -7.509   9.868  69.844  1.00  0.00    -0.156 A  
HETATM   18  C   UNL     1      -8.606   9.130  69.364  1.00  0.00    -0.138 A  
HETATM   19  C   UNL     1      -8.174  11.843  68.600  1.00  0.00    -0.072 A  
HETATM   20  C   UNL     1      -9.532   9.766  68.535  1.00  0.00    -0.145 A  
HETATM   21  C   UNL     1      -9.306  11.107  68.170  1.00  0.00    -0.176 A  
BRANCH  18  22
HETATM   22  O   UNL     1      -8.770   7.812  69.715  1.00  0.00    -0.137 OA 
HETATM   23  C   UNL     1      -7.735   6.922  69.288  1.00  0.00    -0.105 C  
ENDBRANCH  18  22
BRANCH  20  24
HETATM   24  O   UNL     1     -10.656   9.276  67.928  1.00  0.00    -0.244 OA 
HETATM   25  C   UNL     1     -10.638   8.767  66.607  1.00  0.00    -0.070 C  
ENDBRANCH  20  24
ENDBRANCH  11  12
ENDBRANCH   7  11
ENDBRANCH   2   3
TORSDOF 6
ENDMDL
MODEL      249
REMARK 921   NORMALIZED FREE ENERGY PREDICTED BY IDOCK:   -2.33 KCAL/MOL
REMARK 922        TOTAL FREE ENERGY PREDICTED BY IDOCK:   -3.96 KCAL/MOL
REMARK 923 INTER-LIGAND FREE ENERGY PREDICTED BY IDOCK:   -3.27 KCAL/MOL
REMARK 924 INTRA-LIGAND FREE ENERGY PREDICTED BY IDOCK:   -0.69 KCAL/MOL
REMARK 927      BINDING AFFINITY PREDICTED BY RF-SCORE:    0.00 PKD
ROOT
HETATM    1  C   UNL     1      -7.093   4.075  71.790  1.00  0.00    -0.052 C  
HETATM    2  O   UNL     1      -7.752   5.109  72.518  1.00  0.00    -0.094 OA 
ENDROOT
BRANCH   2   3
HETATM    3  C   UNL     1      -8.213   6.166  71.773  1.00  0.00    -0.114 A  
HETATM    4  C   UNL     1      -9.578   6.163  71.439  1.00  0.00    -0.159 A  
HETATM    5  C   UNL     1      -7.388   7.175  71.271  1.00  0.00    -0.079 A  
HETATM    6  C   UNL     1     -10.088   7.185  70.627  1.00  0.00    -0.198 A  
HETATM    7  C   UNL     1      -9.244   8.163  70.068  1.00  0.00    -0.155 A  
HETATM    8  C   UNL     1      -7.893   8.164  70.427  1.00  0.00    -0.090 A  
BRANCH   4   9
HETATM    9  O   UNL     1     -10.328   5.124  71.936  1.00  0.00    -0.203 OA 
HETATM   10  C   UNL     1     -11.173   5.402  73.050  1.00  0.00    -0.311 C  
ENDBRANCH   4   9
BRANCH   7  11
HETATM   11  C   UNL     1      -9.764   9.205  69.102  1.00  0.00    -0.163 C  
BRANCH  11  12
HETATM   12  C   UNL     1      -8.934   9.347  67.840  1.00  0.00    -0.123 A  
HETATM   13  N   UNL     1      -8.591  10.631  67.536  1.00  0.00    -0.122 NA 
HETATM   14  C   UNL     1      -7.967  10.853  66.366  1.00  0.00    -0.157 A  
HETATM   15  C   UNL     1      -7.652   9.853  65.471  1.00  0.00    -0.125 A  
HETATM   16  C   UNL     1      -8.007   8.536  65.779  1.00  0.00    -0.107 A  
HETATM   17  C   UNL     1      -7.736   7.503  64.869  1.00  0.00    -0.115 A  
HETATM   18  C   UNL     1      -8.141   6.177  65.098  1.00  0.00    -0.133 A  
HETATM   19  C   UNL     1      -8.658   8.247  66.988  1.00  0.00    -0.124 A  
HETATM   20  C   UNL     1      -8.764   5.862  66.307  1.00  0.00    -0.136 A  
HETATM   21  C   UNL     1      -9.008   6.896  67.231  1.00  0.00    -0.118 A  
BRANCH  18  22
HETATM   22  O   UNL     1      -7.915   5.204  64.153  1.00  0.00    -0.095 OA 
HETATM   23  C   UNL     1      -9.007   4.928  63.273  1.00  0.00    -0.032 C  
ENDBRANCH  18  22
BRANCH  20  24
HETATM   24  O   UNL     1      -9.262   4.672  66.761  1.00  0.00    -0.116 OA 
HETATM   25  C   UNL     1      -9.406   4.393  68.141  1.00  0.00    -0.146 C  
ENDBRANCH  20  24
ENDBRANCH  11  12
ENDBRANCH   7  11
ENDBRANCH   2   3
TORSDOF 6
ENDMDL
MODEL      250
REMARK 921   NORMALIZED FREE ENERGY PREDICTED BY IDOCK:   -2.27 KCAL/MOL
REMARK 922        TOTAL FREE ENERGY PREDICTED BY IDOCK:   -3.88 KCAL/MOL
REMARK 923 INTER-LIGAND FREE ENERGY PREDICTED BY IDOCK:   -3.33 KCAL/MOL
REMARK 924 INTRA-LIGAND FREE ENERGY PREDICTED BY IDOCK:   -0.55 KCAL/MOL
REMARK 927      BINDING AFFINITY PREDICTED BY RF-SCORE:    0.00 PKD
ROOT
HETATM    1  C   UNL     1     -11.303   6.894  71.826  1.00  0.00    -0.261 C  
HETATM    2  O   UNL     1     -11.726   6.173  70.669  1.00  0.00    -0.284 OA 
ENDROOT
BRANCH   2   3
HETATM    3  C   UNL     1     -10.830   6.125  69.632  1.00  0.00    -0.356 A  
HETATM    4  C   UNL     1      -9.811   5.160  69.714  1.00  0.00    -0.212 A  
HETATM    5  C   UNL     1     -10.833   7.027  68.565  1.00  0.00    -0.187 A  
HETATM    6  C   UNL     1      -8.832   5.109  68.712  1.00  0.00    -0.105 A  
HETATM    7  C   UNL     1      -8.799   6.059  67.675  1.00  0.00    -0.106 A  
HETATM    8  C   UNL     1      -9.831   6.998  67.596  1.00  0.00    -0.180 A  
BRANCH   4   9
HETATM    9  O   UNL     1      -9.844   4.326  70.806  1.00  0.00    -0.195 OA 
HETATM   10  C   UNL     1      -9.156   3.082  70.699  1.00  0.00    -0.122 C  
ENDBRANCH   4   9
BRANCH   7  11
HETATM   11  C   UNL     1      -7.684   6.081  66.652  1.00  0.00    -0.103 C  
BRANCH  11  12
HETATM   12  C   UNL     1      -7.612   7.363  65.844  1.00  0.00    -0.089 A  
HETATM   13  N   UNL     1      -8.025   7.235  64.551  1.00  0.00    -0.129 NA 
HETATM   14  C   UNL     1      -7.870   8.292  63.735  1.00  0.00    -0.152 A  
HETATM   15  C   UNL     1      -7.326   9.492  64.141  1.00  0.00    -0.115 A  
HETATM   16  C   UNL     1      -6.898   9.624  65.466  1.00  0.00    -0.089 A  
HETATM   17  C   UNL     1      -6.303  10.819  65.897  1.00  0.00    -0.109 A  
HETATM   18  C   UNL     1      -5.788  10.975  67.196  1.00  0.00    -0.064 A  
HETATM   19  C   UNL     1      -7.038   8.553  66.361  1.00  0.00    -0.079 A  
HETATM   20  C   UNL     1      -5.943   9.932  68.111  1.00  0.00    -0.043 A  
HETATM   21  C   UNL     1      -6.566   8.744  67.683  1.00  0.00    -0.062 A  
BRANCH  18  22
HETATM   22  O   UNL     1      -5.153  12.138  67.562  1.00  0.00    -0.070 OA 
HETATM   23  C   UNL     1      -5.962  13.317  67.549  1.00  0.00    -0.064 C  
ENDBRANCH  18  22
BRANCH  20  24
HETATM   24  O   UNL     1      -5.523   9.825  69.408  1.00  0.00    -0.035 OA 
HETATM   25  C   UNL     1      -5.901  10.761  70.401  1.00  0.00    -0.118 C  
ENDBRANCH  20  24
ENDBRANCH  11  12
ENDBRANCH   7  11
ENDBRANCH   2   3
TORSDOF 6
ENDMDL
MODEL      251
REMARK 921   NORMALIZED FREE ENERGY PREDICTED BY IDOCK:   -2.26 KCAL/MOL
REMARK 922        TOTAL FREE ENERGY PREDICTED BY IDOCK:   -3.86 KCAL/MOL
REMARK 923 INTER-LIGAND FREE ENERGY PREDICTED BY IDOCK:   -3.00 KCAL/MOL
REMARK 924 INTRA-LIGAND FREE ENERGY PREDICTED BY IDOCK:   -0.86 KCAL/MOL
REMARK 927      BINDING AFFINITY PREDICTED BY RF-SCORE:    0.00 PKD
ROOT
HETATM    1  C   UNL     1     -10.658  10.096  67.206  1.00  0.00    -0.261 C  
HETATM    2  O   UNL     1      -9.286   9.890  66.871  1.00  0.00    -0.147 OA 
ENDROOT
BRANCH   2   3
HETATM    3  C   UNL     1      -8.775   8.653  67.172  1.00  0.00    -0.128 A  
HETATM    4  C   UNL     1      -7.488   8.616  67.735  1.00  0.00    -0.097 A  
HETATM    5  C   UNL     1      -9.425   7.454  66.870  1.00  0.00    -0.208 A  
HETATM    6  C   UNL     1      -6.892   7.376  68.003  1.00  0.00    -0.070 A  
HETATM    7  C   UNL     1      -7.520   6.170  67.640  1.00  0.00    -0.088 A  
HETATM    8  C   UNL     1      -8.808   6.224  67.099  1.00  0.00    -0.109 A  
BRANCH   4   9
HETATM    9  O   UNL     1      -6.889   9.830  67.974  1.00  0.00    -0.071 OA 
HETATM   10  C   UNL     1      -7.170  10.462  69.220  1.00  0.00    -0.100 C  
ENDBRANCH   4   9
BRANCH   7  11
HETATM   11  C   UNL     1      -6.839   4.832  67.823  1.00  0.00    -0.060 C  
BRANCH  11  12
HETATM   12  C   UNL     1      -7.711   3.778  68.478  1.00  0.00    -0.060 A  
HETATM   13  N   UNL     1      -8.231   2.862  67.613  1.00  0.00    -0.079 NA 
HETATM   14  C   UNL     1      -9.118   1.975  68.097  1.00  0.00    -0.168 A  
HETATM   15  C   UNL     1      -9.516   1.940  69.416  1.00  0.00    -0.123 A  
HETATM   16  C   UNL     1      -8.987   2.883  70.304  1.00  0.00    -0.165 A  
HETATM   17  C   UNL     1      -9.405   2.898  71.643  1.00  0.00    -0.198 A  
HETATM   18  C   UNL     1      -8.962   3.871  72.556  1.00  0.00    -0.108 A  
HETATM   19  C   UNL     1      -8.057   3.830  69.854  1.00  0.00    -0.062 A  
HETATM   20  C   UNL     1      -8.014   4.806  72.136  1.00  0.00    -0.106 A  
HETATM   21  C   UNL     1      -7.574   4.769  70.799  1.00  0.00    -0.065 A  
BRANCH  18  22
HETATM   22  O   UNL     1      -9.443   3.894  73.843  1.00  0.00    -0.095 OA 
HETATM   23  C   UNL     1     -10.488   4.836  74.099  1.00  0.00    -0.283 C  
ENDBRANCH  18  22
BRANCH  20  24
HETATM   24  O   UNL     1      -7.442   5.849  72.811  1.00  0.00    -0.093 OA 
HETATM   25  C   UNL     1      -6.546   6.749  72.186  1.00  0.00    -0.058 C  
ENDBRANCH  20  24
ENDBRANCH  11  12
ENDBRANCH   7  11
ENDBRANCH   2   3
TORSDOF 6
ENDMDL
MODEL      252
REMARK 921   NORMALIZED FREE ENERGY PREDICTED BY IDOCK:   -2.18 KCAL/MOL
REMARK 922        TOTAL FREE ENERGY PREDICTED BY IDOCK:   -3.74 KCAL/MOL
REMARK 923 INTER-LIGAND FREE ENERGY PREDICTED BY IDOCK:   -2.96 KCAL/MOL
REMARK 924 INTRA-LIGAND FREE ENERGY PREDICTED BY IDOCK:   -0.78 KCAL/MOL
REMARK 927      BINDING AFFINITY PREDICTED BY RF-SCORE:    0.00 PKD
ROOT
HETATM    1  C   UNL     1     -10.745   1.720  74.506  1.00  0.00    -0.107 C  
HETATM    2  O   UNL     1     -11.201   2.348  73.308  1.00  0.00    -0.175 OA 
ENDROOT
BRANCH   2   3
HETATM    3  C   UNL     1     -10.238   2.624  72.372  1.00  0.00    -0.145 A  
HETATM    4  C   UNL     1      -9.991   3.980  72.093  1.00  0.00    -0.172 A  
HETATM    5  C   UNL     1      -9.568   1.642  71.639  1.00  0.00    -0.193 A  
HETATM    6  C   UNL     1      -9.062   4.317  71.098  1.00  0.00    -0.183 A  
HETATM    7  C   UNL     1      -8.437   3.328  70.317  1.00  0.00    -0.095 A  
HETATM    8  C   UNL     1      -8.677   1.985  70.621  1.00  0.00    -0.109 A  
BRANCH   4   9
HETATM    9  O   UNL     1     -10.709   4.896  72.824  1.00  0.00    -0.209 OA 
HETATM   10  C   UNL     1     -10.503   6.275  72.524  1.00  0.00    -0.203 C  
ENDBRANCH   4   9
BRANCH   7  11
HETATM   11  C   UNL     1      -7.518   3.684  69.169  1.00  0.00    -0.053 C  
BRANCH  11  12
HETATM   12  C   UNL     1      -8.225   3.836  67.835  1.00  0.00    -0.088 A  
HETATM   13  N   UNL     1      -8.623   2.659  67.274  1.00  0.00    -0.098 NA 
HETATM   14  C   UNL     1      -9.139   2.700  66.033  1.00  0.00    -0.110 A  
HETATM   15  C   UNL     1      -9.293   3.864  65.311  1.00  0.00    -0.159 A  
HETATM   16  C   UNL     1      -8.880   5.072  65.884  1.00  0.00    -0.134 A  
HETATM   17  C   UNL     1      -8.986   6.267  65.157  1.00  0.00     0.216 A  
HETATM   18  C   UNL     1      -8.516   7.493  65.658  1.00  0.00    -0.132 A  
HETATM   19  C   UNL     1      -8.336   5.088  67.176  1.00  0.00    -0.106 A  
HETATM   20  C   UNL     1      -7.998   7.537  66.953  1.00  0.00    -0.115 A  
HETATM   21  C   UNL     1      -7.920   6.340  67.692  1.00  0.00    -0.113 A  
BRANCH  18  22
HETATM   22  O   UNL     1      -8.577   8.632  64.890  1.00  0.00    -0.179 OA 
HETATM   23  C   UNL     1      -7.338   9.067  64.325  1.00  0.00    -0.103 C  
ENDBRANCH  18  22
BRANCH  20  24
HETATM   24  O   UNL     1      -7.467   8.582  67.658  1.00  0.00    -0.091 OA 
HETATM   25  C   UNL     1      -8.037   9.040  68.870  1.00  0.00    -0.104 C  
ENDBRANCH  20  24
ENDBRANCH  11  12
ENDBRANCH   7  11
ENDBRANCH   2   3
TORSDOF 6
ENDMDL
MODEL      253
REMARK 921   NORMALIZED FREE ENERGY PREDICTED BY IDOCK:   -2.14 KCAL/MOL
REMARK 922        TOTAL FREE ENERGY PREDICTED BY IDOCK:   -3.70 KCAL/MOL
REMARK 923 INTER-LIGAND FREE ENERGY PREDICTED BY IDOCK:   -3.58 KCAL/MOL
REMARK 924 INTRA-LIGAND FREE ENERGY PREDICTED BY IDOCK:   -0.12 KCAL/MOL
REMARK 927      BINDING AFFINITY PREDICTED BY RF-SCORE:    0.00 PKD
ROOT
HETATM    1  C   UNL     1      -6.150  15.058  70.092  1.00  0.00    -0.156 C  
HETATM    2  O   UNL     1      -6.225  14.853  68.682  1.00  0.00    -0.081 OA 
ENDROOT
BRANCH   2   3
HETATM    3  C   UNL     1      -6.734  13.645  68.278  1.00  0.00    -0.108 A  
HETATM    4  C   UNL     1      -8.131  13.491  68.336  1.00  0.00    -0.145 A  
HETATM    5  C   UNL     1      -5.941  12.559  67.903  1.00  0.00    -0.101 A  
HETATM    6  C   UNL     1      -8.698  12.255  67.994  1.00  0.00    -0.181 A  
HETATM    7  C   UNL     1      -7.895  11.144  67.680  1.00  0.00    -0.115 A  
HETATM    8  C   UNL     1      -6.510  11.320  67.608  1.00  0.00    -0.067 A  
BRANCH   4   9
HETATM    9  O   UNL     1      -8.851  14.587  68.746  1.00  0.00    -0.183 OA 
HETATM   10  C   UNL     1     -10.259  14.562  68.524  1.00  0.00    -0.240 C  
ENDBRANCH   4   9
BRANCH   7  11
HETATM   11  C   UNL     1      -8.492   9.779  67.419  1.00  0.00    -0.121 C  
BRANCH  11  12
HETATM   12  C   UNL     1      -8.799   8.987  68.676  1.00  0.00    -0.137 A  
HETATM   13  N   UNL     1      -8.739   9.716  69.827  1.00  0.00    -0.191 NA 
HETATM   14  C   UNL     1      -8.869   9.059  70.993  1.00  0.00    -0.230 A  
HETATM   15  C   UNL     1      -9.069   7.697  71.080  1.00  0.00    -0.150 A  
HETATM   16  C   UNL     1      -9.127   6.948  69.900  1.00  0.00    -0.144 A  
HETATM   17  C   UNL     1      -9.288   5.555  69.959  1.00  0.00    -0.187 A  
HETATM   18  C   UNL     1      -9.275   4.749  68.808  1.00  0.00    -0.124 A  
HETATM   19  C   UNL     1      -8.998   7.582  68.656  1.00  0.00    -0.132 A  
HETATM   20  C   UNL     1      -9.178   5.364  67.558  1.00  0.00    -0.112 A  
HETATM   21  C   UNL     1      -9.045   6.764  67.500  1.00  0.00    -0.117 A  
BRANCH  18  22
HETATM   22  O   UNL     1      -9.371   3.382  68.909  1.00  0.00    -0.154 OA 
HETATM   23  C   UNL     1      -8.181   2.652  68.600  1.00  0.00    -0.059 C  
ENDBRANCH  18  22
BRANCH  20  24
HETATM   24  O   UNL     1      -9.126   4.815  66.305  1.00  0.00    -0.116 OA 
HETATM   25  C   UNL     1     -10.296   4.507  65.570  1.00  0.00    -0.229 C  
ENDBRANCH  20  24
ENDBRANCH  11  12
ENDBRANCH   7  11
ENDBRANCH   2   3
TORSDOF 6
ENDMDL
MODEL      254
REMARK 921   NORMALIZED FREE ENERGY PREDICTED BY IDOCK:   -2.06 KCAL/MOL
REMARK 922        TOTAL FREE ENERGY PREDICTED BY IDOCK:   -3.58 KCAL/MOL
REMARK 923 INTER-LIGAND FREE ENERGY PREDICTED BY IDOCK:   -3.51 KCAL/MOL
REMARK 924 INTRA-LIGAND FREE ENERGY PREDICTED BY IDOCK:   -0.07 KCAL/MOL
REMARK 927      BINDING AFFINITY PREDICTED BY RF-SCORE:    0.00 PKD
ROOT
HETATM    1  C   UNL     1      -6.439   6.290  65.702  1.00  0.00    -0.039 C  
HETATM    2  O   UNL     1      -7.104   7.552  65.726  1.00  0.00    -0.063 OA 
ENDROOT
BRANCH   2   3
HETATM    3  C   UNL     1      -8.163   7.655  66.592  1.00  0.00    -0.124 A  
HETATM    4  C   UNL     1      -7.941   8.359  67.789  1.00  0.00    -0.111 A  
HETATM    5  C   UNL     1      -9.396   7.033  66.383  1.00  0.00    -0.182 A  
HETATM    6  C   UNL     1      -8.970   8.441  68.737  1.00  0.00    -0.140 A  
HETATM    7  C   UNL     1     -10.187   7.760  68.554  1.00  0.00    -0.227 A  
HETATM    8  C   UNL     1     -10.399   7.082  67.351  1.00  0.00    -0.313 A  
BRANCH   4   9
HETATM    9  O   UNL     1      -6.695   8.917  67.949  1.00  0.00    -0.067 OA 
HETATM   10  C   UNL     1      -6.027   8.678  69.185  1.00  0.00    -0.042 C  
ENDBRANCH   4   9
BRANCH   7  11
HETATM   11  C   UNL     1     -11.261   7.750  69.620  1.00  0.00     0.041 C  
BRANCH  11  12
HETATM   12  C   UNL     1     -10.788   7.245  70.970  1.00  0.00    -0.239 A  
HETATM   13  N   UNL     1     -11.164   8.024  72.024  1.00  0.00    -0.277 NA 
HETATM   14  C   UNL     1     -10.676   7.716  73.238  1.00  0.00    -0.350 A  
HETATM   15  C   UNL     1      -9.828   6.653  73.468  1.00  0.00    -0.229 A  
HETATM   16  C   UNL     1      -9.437   5.856  72.388  1.00  0.00    -0.155 A  
HETATM   17  C   UNL     1      -8.543   4.793  72.585  1.00  0.00    -0.115 A  
HETATM   18  C   UNL     1      -8.061   4.011  71.522  1.00  0.00    -0.077 A  
HETATM   19  C   UNL     1      -9.918   6.131  71.100  1.00  0.00    -0.218 A  
HETATM   20  C   UNL     1      -8.550   4.249  70.236  1.00  0.00    -0.069 A  
HETATM   21  C   UNL     1      -9.470   5.298  70.045  1.00  0.00    -0.216 A  
BRANCH  18  22
HETATM   22  O   UNL     1      -7.135   3.020  71.745  1.00  0.00    -0.036 OA 
HETATM   23  C   UNL     1      -5.956   3.077  70.938  1.00  0.00    -0.018 C  
ENDBRANCH  18  22
BRANCH  20  24
HETATM   24  O   UNL     1      -8.235   3.652  69.046  1.00  0.00    -0.060 OA 
HETATM   25  C   UNL     1      -9.208   3.403  68.048  1.00  0.00    -0.187 C  
ENDBRANCH  20  24
ENDBRANCH  11  12
ENDBRANCH   7  11
ENDBRANCH   2   3
TORSDOF 6
ENDMDL
MODEL      255
REMARK 921   NORMALIZED FREE ENERGY PREDICTED BY IDOCK:   -2.05 KCAL/MOL
REMARK 922        TOTAL FREE ENERGY PREDICTED BY IDOCK:   -3.58 KCAL/MOL
REMARK 923 INTER-LIGAND FREE ENERGY PREDICTED BY IDOCK:   -4.64 KCAL/MOL
REMARK 924 INTRA-LIGAND FREE ENERGY PREDICTED BY IDOCK:    1.06 KCAL/MOL
REMARK 927      BINDING AFFINITY PREDICTED BY RF-SCORE:    0.00 PKD
ROOT
HETATM    1  C   UNL     1      -6.758  19.652  70.777  1.00  0.00     0.326 C  
HETATM    2  O   UNL     1      -7.723  20.011  69.790  1.00  0.00     0.085 OA 
ENDROOT
BRANCH   2   3
HETATM    3  C   UNL     1      -7.991  19.059  68.839  1.00  0.00    -0.287 A  
HETATM    4  C   UNL     1      -7.090  17.984  68.743  1.00  0.00    -0.276 A  
HETATM    5  C   UNL     1      -9.045  19.153  67.928  1.00  0.00    -0.349 A  
HETATM    6  C   UNL     1      -7.281  17.017  67.746  1.00  0.00    -0.165 A  
HETATM    7  C   UNL     1      -8.304  17.146  66.789  1.00  0.00    -0.266 A  
HETATM    8  C   UNL     1      -9.203  18.210  66.912  1.00  0.00    -0.278 A  
BRANCH   4   9
HETATM    9  O   UNL     1      -6.055  17.970  69.647  1.00  0.00    -0.240 OA 
HETATM   10  C   UNL     1      -5.596  16.696  70.094  1.00  0.00    -0.207 C  
ENDBRANCH   4   9
BRANCH   7  11
HETATM   11  C   UNL     1      -8.451  16.169  65.644  1.00  0.00     0.762 C  
BRANCH  11  12
HETATM   12  C   UNL     1      -9.735  15.362  65.681  1.00  0.00    -0.331 A  
HETATM   13  N   UNL     1     -10.752  15.892  64.944  1.00  0.00    -0.584 NA 
HETATM   14  C   UNL     1     -11.959  15.307  65.029  1.00  0.00    -0.029 A  
HETATM   15  C   UNL     1     -12.214  14.200  65.810  1.00  0.00    -0.458 A  
HETATM   16  C   UNL     1     -11.173  13.657  66.570  1.00  0.00    -0.321 A  
HETATM   17  C   UNL     1     -11.412  12.557  67.407  1.00  0.00    -0.404 A  
HETATM   18  C   UNL     1     -10.420  12.023  68.247  1.00  0.00    -0.204 A  
HETATM   19  C   UNL     1      -9.892  14.227  66.518  1.00  0.00    -0.299 A  
HETATM   20  C   UNL     1      -9.131  12.557  68.189  1.00  0.00    -0.204 A  
HETATM   21  C   UNL     1      -8.886  13.643  67.327  1.00  0.00    -0.227 A  
BRANCH  18  22
HETATM   22  O   UNL     1     -10.710  10.986  69.101  1.00  0.00    -0.214 OA 
HETATM   23  C   UNL     1     -12.002  11.027  69.712  1.00  0.00    -0.356 C  
ENDBRANCH  18  22
BRANCH  20  24
HETATM   24  O   UNL     1      -8.009  12.235  68.902  1.00  0.00    -0.022 OA 
HETATM   25  C   UNL     1      -6.907  13.118  69.010  1.00  0.00    -0.090 C  
ENDBRANCH  20  24
ENDBRANCH  11  12
ENDBRANCH   7  11
ENDBRANCH   2   3
TORSDOF 6
ENDMDL
MODEL      256
REMARK 921   NORMALIZED FREE ENERGY PREDICTED BY IDOCK:   -1.86 KCAL/MOL
REMARK 922        TOTAL FREE ENERGY PREDICTED BY IDOCK:   -3.31 KCAL/MOL
REMARK 923 INTER-LIGAND FREE ENERGY PREDICTED BY IDOCK:   -4.08 KCAL/MOL
REMARK 924 INTRA-LIGAND FREE ENERGY PREDICTED BY IDOCK:    0.77 KCAL/MOL
REMARK 927      BINDING AFFINITY PREDICTED BY RF-SCORE:    0.00 PKD
ROOT
HETATM    1  C   UNL     1      -7.081   5.539  70.729  1.00  0.00    -0.069 C  
HETATM    2  O   UNL     1      -8.138   5.933  71.603  1.00  0.00    -0.115 OA 
ENDROOT
BRANCH   2   3
HETATM    3  C   UNL     1      -8.731   7.138  71.321  1.00  0.00    -0.128 A  
HETATM    4  C   UNL     1     -10.125   7.133  71.136  1.00  0.00    -0.187 A  
HETATM    5  C   UNL     1      -8.019   8.324  71.129  1.00  0.00    -0.112 A  
HETATM    6  C   UNL     1     -10.773   8.325  70.784  1.00  0.00    -0.244 A  
HETATM    7  C   UNL     1     -10.048   9.503  70.528  1.00  0.00    -0.347 A  
HETATM    8  C   UNL     1      -8.666   9.495  70.736  1.00  0.00    -0.108 A  
BRANCH   4   9
HETATM    9  O   UNL     1     -10.761   5.927  71.305  1.00  0.00    -0.244 OA 
HETATM   10  C   UNL     1     -11.636   5.802  72.424  1.00  0.00    -0.264 C  
ENDBRANCH   4   9
BRANCH   7  11
HETATM   11  C   UNL     1     -10.726  10.764  70.039  1.00  0.00    -0.140 C  
BRANCH  11  12
HETATM   12  C   UNL     1     -10.440  11.098  68.587  1.00  0.00    -0.197 A  
HETATM   13  N   UNL     1     -11.551  11.182  67.802  1.00  0.00    -0.555 NA 
HETATM   14  C   UNL     1     -11.373  11.346  66.479  1.00  0.00    -0.122 A  
HETATM   15  C   UNL     1     -10.133  11.441  65.885  1.00  0.00    -0.286 A  
HETATM   16  C   UNL     1      -8.992  11.350  66.689  1.00  0.00    -0.183 A  
HETATM   17  C   UNL     1      -7.716  11.402  66.108  1.00  0.00     0.073 A  
HETATM   18  C   UNL     1      -6.541  11.240  66.862  1.00  0.00    -0.130 A  
HETATM   19  C   UNL     1      -9.119  11.181  68.076  1.00  0.00    -0.153 A  
HETATM   20  C   UNL     1      -6.644  11.100  68.247  1.00  0.00    -0.058 A  
HETATM   21  C   UNL     1      -7.925  11.077  68.831  1.00  0.00    -0.138 A  
BRANCH  18  22
HETATM   22  O   UNL     1      -5.311  11.231  66.248  1.00  0.00    -0.127 OA 
HETATM   23  C   UNL     1      -5.129  10.238  65.235  1.00  0.00    -0.077 C  
ENDBRANCH  18  22
BRANCH  20  24
HETATM   24  O   UNL     1      -5.672  10.911  69.191  1.00  0.00    -0.041 OA 
HETATM   25  C   UNL     1      -5.503  11.795  70.284  1.00  0.00    -0.128 C  
ENDBRANCH  20  24
ENDBRANCH  11  12
ENDBRANCH   7  11
ENDBRANCH   2   3
TORSDOF 6
ENDMDL
MODEL      257
REMARK 921   NORMALIZED FREE ENERGY PREDICTED BY IDOCK:   -1.48 KCAL/MOL
REMARK 922        TOTAL FREE ENERGY PREDICTED BY IDOCK:   -2.81 KCAL/MOL
REMARK 923 INTER-LIGAND FREE ENERGY PREDICTED BY IDOCK:   -2.63 KCAL/MOL
REMARK 924 INTRA-LIGAND FREE ENERGY PREDICTED BY IDOCK:   -0.18 KCAL/MOL
REMARK 927      BINDING AFFINITY PREDICTED BY RF-SCORE:    0.00 PKD
ROOT
HETATM    1  C   UNL     1     -11.929   5.832  72.632  1.00  0.00    -0.072 C  
HETATM    2  O   UNL     1     -10.523   5.615  72.729  1.00  0.00    -0.191 OA 
ENDROOT
BRANCH   2   3
HETATM    3  C   UNL     1      -9.731   6.505  72.048  1.00  0.00    -0.149 A  
HETATM    4  C   UNL     1      -9.600   6.309  70.662  1.00  0.00    -0.172 A  
HETATM    5  C   UNL     1      -8.998   7.519  72.669  1.00  0.00    -0.188 A  
HETATM    6  C   UNL     1      -8.753   7.152  69.928  1.00  0.00    -0.142 A  
HETATM    7  C   UNL     1      -7.966   8.130  70.563  1.00  0.00    -0.095 A  
HETATM    8  C   UNL     1      -8.124   8.324  71.938  1.00  0.00    -0.184 A  
BRANCH   4   9
HETATM    9  O   UNL     1     -10.321   5.273  70.119  1.00  0.00    -0.261 OA 
HETATM   10  C   UNL     1     -10.629   5.350  68.730  1.00  0.00    -0.109 C  
ENDBRANCH   4   9
BRANCH   7  11
HETATM   11  C   UNL     1      -6.967   8.968  69.797  1.00  0.00    -0.054 C  
BRANCH  11  12
HETATM   12  C   UNL     1      -6.682   8.463  68.395  1.00  0.00    -0.064 A  
HETATM   13  N   UNL     1      -5.679   7.541  68.324  1.00  0.00    -0.026 NA 
HETATM   14  C   UNL     1      -5.280   7.143  67.104  1.00  0.00    -0.013 A  
HETATM   15  C   UNL     1      -5.835   7.610  65.932  1.00  0.00    -0.037 A  
HETATM   16  C   UNL     1      -6.861   8.558  66.003  1.00  0.00    -0.061 A  
HETATM   17  C   UNL     1      -7.417   9.082  64.826  1.00  0.00    -0.102 A  
HETATM   18  C   UNL     1      -8.395  10.092  64.843  1.00  0.00    -0.157 A  
HETATM   19  C   UNL     1      -7.318   9.008  67.250  1.00  0.00    -0.084 A  
HETATM   20  C   UNL     1      -8.885  10.533  66.074  1.00  0.00    -0.165 A  
HETATM   21  C   UNL     1      -8.345   9.984  67.253  1.00  0.00    -0.121 A  
BRANCH  18  22
HETATM   22  O   UNL     1      -8.869  10.626  63.670  1.00  0.00    -0.182 OA 
HETATM   23  C   UNL     1      -9.736   9.782  62.908  1.00  0.00     0.484 C  
ENDBRANCH  18  22
BRANCH  20  24
HETATM   24  O   UNL     1      -9.809  11.500  66.362  1.00  0.00    -0.197 OA 
HETATM   25  C   UNL     1     -10.165  12.502  65.427  1.00  0.00    -0.283 C  
ENDBRANCH  20  24
ENDBRANCH  11  12
ENDBRANCH   7  11
ENDBRANCH   2   3
TORSDOF 6
ENDMDL
MODEL      258
REMARK 921   NORMALIZED FREE ENERGY PREDICTED BY IDOCK:   -1.39 KCAL/MOL
REMARK 922        TOTAL FREE ENERGY PREDICTED BY IDOCK:   -2.68 KCAL/MOL
REMARK 923 INTER-LIGAND FREE ENERGY PREDICTED BY IDOCK:   -3.00 KCAL/MOL
REMARK 924 INTRA-LIGAND FREE ENERGY PREDICTED BY IDOCK:    0.32 KCAL/MOL
REMARK 927      BINDING AFFINITY PREDICTED BY RF-SCORE:    0.00 PKD
ROOT
HETATM    1  C   UNL     1      -8.959   4.723  66.028  1.00  0.00    -0.126 C  
HETATM    2  O   UNL     1      -8.705   5.141  67.368  1.00  0.00    -0.105 OA 
ENDROOT
BRANCH   2   3
HETATM    3  C   UNL     1      -8.062   6.345  67.509  1.00  0.00    -0.117 A  
HETATM    4  C   UNL     1      -7.339   6.545  68.698  1.00  0.00    -0.087 A  
HETATM    5  C   UNL     1      -8.162   7.387  66.584  1.00  0.00    -0.125 A  
HETATM    6  C   UNL     1      -6.715   7.781  68.920  1.00  0.00    -0.050 A  
HETATM    7  C   UNL     1      -6.871   8.851  68.020  1.00  0.00    -0.070 A  
HETATM    8  C   UNL     1      -7.575   8.628  66.833  1.00  0.00    -0.084 A  
BRANCH   4   9
HETATM    9  O   UNL     1      -7.309   5.493  69.581  1.00  0.00    -0.063 OA 
HETATM   10  C   UNL     1      -8.483   5.256  70.354  1.00  0.00    -0.115 C  
ENDBRANCH   4   9
BRANCH   7  11
HETATM   11  C   UNL     1      -6.295  10.220  68.305  1.00  0.00    -0.048 C  
BRANCH  11  12
HETATM   12  C   UNL     1      -7.226  11.367  67.959  1.00  0.00    -0.084 A  
HETATM   13  N   UNL     1      -6.605  12.446  67.402  1.00  0.00    -0.150 NA 
HETATM   14  C   UNL     1      -7.341  13.550  67.187  1.00  0.00     0.139 A  
HETATM   15  C   UNL     1      -8.682  13.642  67.491  1.00  0.00    -0.198 A  
HETATM   16  C   UNL     1      -9.320  12.538  68.067  1.00  0.00    -0.205 A  
HETATM   17  C   UNL     1     -10.674  12.615  68.425  1.00  0.00    -0.260 A  
HETATM   18  C   UNL     1     -11.340  11.561  69.074  1.00  0.00    -0.276 A  
HETATM   19  C   UNL     1      -8.601  11.358  68.311  1.00  0.00    -0.156 A  
HETATM   20  C   UNL     1     -10.651  10.368  69.300  1.00  0.00    -0.232 A  
HETATM   21  C   UNL     1      -9.300  10.283  68.914  1.00  0.00    -0.180 A  
BRANCH  18  22
HETATM   22  O   UNL     1     -12.649  11.698  69.469  1.00  0.00    -0.028 OA 
HETATM   23  C   UNL     1     -12.880  12.601  70.554  1.00  0.00     0.145 C  
ENDBRANCH  18  22
BRANCH  20  24
HETATM   24  O   UNL     1     -11.057   9.217  69.919  1.00  0.00    -0.236 OA 
HETATM   25  C   UNL     1     -10.791   8.964  71.286  1.00  0.00    -0.290 C  
ENDBRANCH  20  24
ENDBRANCH  11  12
ENDBRANCH   7  11
ENDBRANCH   2   3
TORSDOF 6
ENDMDL
MODEL      259
REMARK 921   NORMALIZED FREE ENERGY PREDICTED BY IDOCK:   -1.33 KCAL/MOL
REMARK 922        TOTAL FREE ENERGY PREDICTED BY IDOCK:   -2.60 KCAL/MOL
REMARK 923 INTER-LIGAND FREE ENERGY PREDICTED BY IDOCK:   -1.96 KCAL/MOL
REMARK 924 INTRA-LIGAND FREE ENERGY PREDICTED BY IDOCK:   -0.64 KCAL/MOL
REMARK 927      BINDING AFFINITY PREDICTED BY RF-SCORE:    0.00 PKD
ROOT
HETATM    1  C   UNL     1      -7.393  11.946  66.475  1.00  0.00     0.175 C  
HETATM    2  O   UNL     1      -6.316  11.050  66.207  1.00  0.00    -0.127 OA 
ENDROOT
BRANCH   2   3
HETATM    3  C   UNL     1      -6.297   9.897  66.949  1.00  0.00    -0.065 A  
HETATM    4  C   UNL     1      -6.341   8.683  66.241  1.00  0.00    -0.061 A  
HETATM    5  C   UNL     1      -6.322   9.876  68.345  1.00  0.00    -0.050 A  
HETATM    6  C   UNL     1      -6.388   7.476  66.952  1.00  0.00    -0.049 A  
HETATM    7  C   UNL     1      -6.479   7.458  68.356  1.00  0.00    -0.045 A  
HETATM    8  C   UNL     1      -6.413   8.672  69.045  1.00  0.00    -0.048 A  
BRANCH   4   9
HETATM    9  O   UNL     1      -6.350   8.774  64.870  1.00  0.00    -0.064 OA 
HETATM   10  C   UNL     1      -7.575   8.478  64.204  1.00  0.00    -0.123 C  
ENDBRANCH   4   9
BRANCH   7  11
HETATM   11  C   UNL     1      -6.642   6.166  69.126  1.00  0.00    -0.047 C  
BRANCH  11  12
HETATM   12  C   UNL     1      -6.599   4.920  68.262  1.00  0.00    -0.045 A  
HETATM   13  N   UNL     1      -5.398   4.273  68.270  1.00  0.00    -0.011 NA 
HETATM   14  C   UNL     1      -5.240   3.236  67.429  1.00  0.00    -0.008 A  
HETATM   15  C   UNL     1      -6.227   2.793  66.575  1.00  0.00    -0.024 A  
HETATM   16  C   UNL     1      -7.457   3.458  66.562  1.00  0.00    -0.076 A  
HETATM   17  C   UNL     1      -8.465   3.056  65.674  1.00  0.00    -0.105 A  
HETATM   18  C   UNL     1      -9.690   3.738  65.569  1.00  0.00    -0.151 A  
HETATM   19  C   UNL     1      -7.677   4.546  67.420  1.00  0.00    -0.089 A  
HETATM   20  C   UNL     1      -9.941   4.805  66.434  1.00  0.00    -0.241 A  
HETATM   21  C   UNL     1      -8.938   5.189  67.345  1.00  0.00    -0.109 A  
BRANCH  18  22
HETATM   22  O   UNL     1     -10.628   3.354  64.641  1.00  0.00    -0.024 OA 
HETATM   23  C   UNL     1     -10.189   2.396  63.674  1.00  0.00    -0.149 C  
ENDBRANCH  18  22
BRANCH  20  24
HETATM   24  O   UNL     1     -11.026   5.633  66.524  1.00  0.00    -0.252 OA 
HETATM   25  C   UNL     1     -11.255   6.454  67.654  1.00  0.00    -0.166 C  
ENDBRANCH  20  24
ENDBRANCH  11  12
ENDBRANCH   7  11
ENDBRANCH   2   3
TORSDOF 6
ENDMDL
MODEL      260
REMARK 921   NORMALIZED FREE ENERGY PREDICTED BY IDOCK:   -1.27 KCAL/MOL
REMARK 922        TOTAL FREE ENERGY PREDICTED BY IDOCK:   -2.52 KCAL/MOL
REMARK 923 INTER-LIGAND FREE ENERGY PREDICTED BY IDOCK:   -3.21 KCAL/MOL
REMARK 924 INTRA-LIGAND FREE ENERGY PREDICTED BY IDOCK:    0.69 KCAL/MOL
REMARK 927      BINDING AFFINITY PREDICTED BY RF-SCORE:    0.00 PKD
ROOT
HETATM    1  C   UNL     1      -9.338   5.872  66.215  1.00  0.00    -0.152 C  
HETATM    2  O   UNL     1     -10.363   6.637  66.847  1.00  0.00    -0.219 OA 
ENDROOT
BRANCH   2   3
HETATM    3  C   UNL     1     -10.144   7.989  66.918  1.00  0.00    -0.292 A  
HETATM    4  C   UNL     1      -9.916   8.532  68.195  1.00  0.00    -0.181 A  
HETATM    5  C   UNL     1     -10.222   8.844  65.816  1.00  0.00     0.423 A  
HETATM    6  C   UNL     1      -9.749   9.917  68.332  1.00  0.00    -0.161 A  
HETATM    7  C   UNL     1      -9.892  10.782  67.232  1.00  0.00    -0.208 A  
HETATM    8  C   UNL     1     -10.099  10.225  65.966  1.00  0.00    -0.311 A  
BRANCH   4   9
HETATM    9  O   UNL     1      -9.886   7.642  69.242  1.00  0.00    -0.164 OA 
HETATM   10  C   UNL     1     -10.988   7.662  70.147  1.00  0.00    -0.246 C  
ENDBRANCH   4   9
BRANCH   7  11
HETATM   11  C   UNL     1      -9.825  12.285  67.387  1.00  0.00    -0.199 C  
BRANCH  11  12
HETATM   12  C   UNL     1      -8.578  12.779  68.095  1.00  0.00    -0.185 A  
HETATM   13  N   UNL     1      -8.023  11.874  68.951  1.00  0.00    -0.027 NA 
HETATM   14  C   UNL     1      -6.993  12.281  69.713  1.00  0.00     0.344 A  
HETATM   15  C   UNL     1      -6.468  13.555  69.663  1.00  0.00    -0.072 A  
HETATM   16  C   UNL     1      -7.039  14.486  68.789  1.00  0.00    -0.112 A  
HETATM   17  C   UNL     1      -6.553  15.801  68.747  1.00  0.00    -0.113 A  
HETATM   18  C   UNL     1      -7.140  16.793  67.943  1.00  0.00    -0.141 A  
HETATM   19  C   UNL     1      -8.115  14.114  67.970  1.00  0.00    -0.149 A  
HETATM   20  C   UNL     1      -8.194  16.437  67.098  1.00  0.00    -0.180 A  
HETATM   21  C   UNL     1      -8.661  15.109  67.121  1.00  0.00    -0.247 A  
BRANCH  18  22
HETATM   22  O   UNL     1      -6.678  18.087  67.977  1.00  0.00    -0.191 OA 
HETATM   23  C   UNL     1      -6.731  18.799  66.738  1.00  0.00    -0.192 C  
ENDBRANCH  18  22
BRANCH  20  24
HETATM   24  O   UNL     1      -8.938  17.203  66.244  1.00  0.00    -0.321 OA 
HETATM   25  C   UNL     1      -9.964  16.652  65.438  1.00  0.00     0.083 C  
ENDBRANCH  20  24
ENDBRANCH  11  12
ENDBRANCH   7  11
ENDBRANCH   2   3
TORSDOF 6
ENDMDL
MODEL      261
REMARK 921   NORMALIZED FREE ENERGY PREDICTED BY IDOCK:   -1.22 KCAL/MOL
REMARK 922        TOTAL FREE ENERGY PREDICTED BY IDOCK:   -2.46 KCAL/MOL
REMARK 923 INTER-LIGAND FREE ENERGY PREDICTED BY IDOCK:   -4.31 KCAL/MOL
REMARK 924 INTRA-LIGAND FREE ENERGY PREDICTED BY IDOCK:    1.85 KCAL/MOL
REMARK 927      BINDING AFFINITY PREDICTED BY RF-SCORE:    0.00 PKD
ROOT
HETATM    1  C   UNL     1      -8.144   7.746  70.382  1.00  0.00    -0.115 C  
HETATM    2  O   UNL     1      -9.056   8.431  69.525  1.00  0.00    -0.151 OA 
ENDROOT
BRANCH   2   3
HETATM    3  C   UNL     1      -8.694   9.702  69.157  1.00  0.00    -0.151 A  
HETATM    4  C   UNL     1      -9.671  10.705  69.286  1.00  0.00    -0.160 A  
HETATM    5  C   UNL     1      -7.456  10.020  68.594  1.00  0.00    -0.083 A  
HETATM    6  C   UNL     1      -9.373  12.009  68.865  1.00  0.00     0.159 A  
HETATM    7  C   UNL     1      -8.151  12.313  68.238  1.00  0.00    -0.166 A  
HETATM    8  C   UNL     1      -7.184  11.310  68.137  1.00  0.00    -0.081 A  
BRANCH   4   9
HETATM    9  O   UNL     1     -10.879  10.319  69.815  1.00  0.00    -0.247 OA 
HETATM   10  C   UNL     1     -11.968  10.163  68.909  1.00  0.00     0.403 C  
ENDBRANCH   4   9
BRANCH   7  11
HETATM   11  C   UNL     1      -7.864  13.690  67.681  1.00  0.00    -0.178 C  
BRANCH  11  12
HETATM   12  C   UNL     1      -9.058  14.350  67.017  1.00  0.00    -0.236 A  
HETATM   13  N   UNL     1      -9.988  13.475  66.537  1.00  0.00    -0.280 NA 
HETATM   14  C   UNL     1     -11.010  13.977  65.822  1.00  0.00    -0.294 A  
HETATM   15  C   UNL     1     -11.167  15.321  65.560  1.00  0.00    -0.277 A  
HETATM   16  C   UNL     1     -10.211  16.219  66.047  1.00  0.00    -0.376 A  
HETATM   17  C   UNL     1     -10.323  17.588  65.761  1.00  0.00    -0.217 A  
HETATM   18  C   UNL     1      -9.350  18.519  66.162  1.00  0.00    -0.143 A  
HETATM   19  C   UNL     1      -9.126  15.751  66.801  1.00  0.00    -0.276 A  
HETATM   20  C   UNL     1      -8.276  18.079  66.938  1.00  0.00    -0.242 A  
HETATM   21  C   UNL     1      -8.183  16.709  67.248  1.00  0.00    -0.197 A  
BRANCH  18  22
HETATM   22  O   UNL     1      -9.460  19.843  65.807  1.00  0.00    -0.336 OA 
HETATM   23  C   UNL     1      -9.516  20.774  66.891  1.00  0.00    -0.173 C  
ENDBRANCH  18  22
BRANCH  20  24
HETATM   24  O   UNL     1      -7.203  18.768  67.434  1.00  0.00    -0.206 OA 
HETATM   25  C   UNL     1      -7.305  20.115  67.859  1.00  0.00    -0.291 C  
ENDBRANCH  20  24
ENDBRANCH  11  12
ENDBRANCH   7  11
ENDBRANCH   2   3
TORSDOF 6
ENDMDL
MODEL      262
REMARK 921   NORMALIZED FREE ENERGY PREDICTED BY IDOCK:   -0.31 KCAL/MOL
REMARK 922        TOTAL FREE ENERGY PREDICTED BY IDOCK:   -1.23 KCAL/MOL
REMARK 923 INTER-LIGAND FREE ENERGY PREDICTED BY IDOCK:   -1.90 KCAL/MOL
REMARK 924 INTRA-LIGAND FREE ENERGY PREDICTED BY IDOCK:    0.67 KCAL/MOL
REMARK 927      BINDING AFFINITY PREDICTED BY RF-SCORE:    0.00 PKD
ROOT
HETATM    1  C   UNL     1     -12.223   4.954  72.932  1.00  0.00     0.335 C  
HETATM    2  O   UNL     1     -11.084   4.190  73.324  1.00  0.00    -0.225 OA 
ENDROOT
BRANCH   2   3
HETATM    3  C   UNL     1      -9.864   4.715  72.983  1.00  0.00    -0.143 A  
HETATM    4  C   UNL     1      -9.788   5.412  71.765  1.00  0.00    -0.174 A  
HETATM    5  C   UNL     1      -8.702   4.519  73.733  1.00  0.00    -0.105 A  
HETATM    6  C   UNL     1      -8.550   5.915  71.338  1.00  0.00    -0.129 A  
HETATM    7  C   UNL     1      -7.371   5.661  72.061  1.00  0.00    -0.093 A  
HETATM    8  C   UNL     1      -7.467   4.984  73.280  1.00  0.00    -0.088 A  
BRANCH   4   9
HETATM    9  O   UNL     1     -10.960   5.540  71.058  1.00  0.00    -0.222 OA 
HETATM   10  C   UNL     1     -11.191   6.782  70.398  1.00  0.00    -0.328 C  
ENDBRANCH   4   9
BRANCH   7  11
HETATM   11  C   UNL     1      -6.016   6.102  71.553  1.00  0.00    -0.035 C  
BRANCH  11  12
HETATM   12  C   UNL     1      -5.959   6.323  70.054  1.00  0.00    -0.026 A  
HETATM   13  N   UNL     1      -5.696   5.197  69.330  1.00  0.00    -0.015 NA 
HETATM   14  C   UNL     1      -5.501   5.334  68.007  1.00  0.00    -0.012 A  
HETATM   15  C   UNL     1      -5.562   6.544  67.351  1.00  0.00    -0.012 A  
HETATM   16  C   UNL     1      -5.827   7.701  68.092  1.00  0.00    -0.039 A  
HETATM   17  C   UNL     1      -5.854   8.951  67.457  1.00  0.00    -0.043 A  
HETATM   18  C   UNL     1      -6.040  10.149  68.169  1.00  0.00    -0.048 A  
HETATM   19  C   UNL     1      -6.040   7.616  69.475  1.00  0.00    -0.030 A  
HETATM   20  C   UNL     1      -6.283  10.086  69.542  1.00  0.00    -0.046 A  
HETATM   21  C   UNL     1      -6.284   8.826  70.171  1.00  0.00    -0.034 A  
BRANCH  18  22
HETATM   22  O   UNL     1      -5.995  11.361  67.522  1.00  0.00    -0.053 OA 
HETATM   23  C   UNL     1      -6.245  11.324  66.114  1.00  0.00    -0.014 C  
ENDBRANCH  18  22
BRANCH  20  24
HETATM   24  O   UNL     1      -6.475  11.088  70.453  1.00  0.00    -0.260 OA 
HETATM   25  C   UNL     1      -5.405  11.650  71.190  1.00  0.00    -0.061 C  
ENDBRANCH  20  24
ENDBRANCH  11  12
ENDBRANCH   7  11
ENDBRANCH   2   3
TORSDOF 6
ENDMDL
MODEL      263
REMARK 921   NORMALIZED FREE ENERGY PREDICTED BY IDOCK:    0.72 KCAL/MOL
REMARK 922        TOTAL FREE ENERGY PREDICTED BY IDOCK:    0.17 KCAL/MOL
REMARK 923 INTER-LIGAND FREE ENERGY PREDICTED BY IDOCK:   -0.41 KCAL/MOL
REMARK 924 INTRA-LIGAND FREE ENERGY PREDICTED BY IDOCK:    0.57 KCAL/MOL
REMARK 927      BINDING AFFINITY PREDICTED BY RF-SCORE:    0.00 PKD
ROOT
HETATM    1  C   UNL     1      -9.259   5.990  64.649  1.00  0.00     0.717 C  
HETATM    2  O   UNL     1      -9.875   7.088  65.321  1.00  0.00     1.150 OA 
ENDROOT
BRANCH   2   3
HETATM    3  C   UNL     1      -9.024   8.051  65.801  1.00  0.00    -0.102 A  
HETATM    4  C   UNL     1      -8.589   7.911  67.130  1.00  0.00    -0.128 A  
HETATM    5  C   UNL     1      -8.648   9.182  65.072  1.00  0.00    -0.204 A  
HETATM    6  C   UNL     1      -7.769   8.901  67.690  1.00  0.00    -0.101 A  
HETATM    7  C   UNL     1      -7.444  10.070  66.978  1.00  0.00    -0.092 A  
HETATM    8  C   UNL     1      -7.868  10.183  65.651  1.00  0.00    -0.145 A  
BRANCH   4   9
HETATM    9  O   UNL     1      -9.023   6.794  67.803  1.00  0.00    -0.118 OA 
HETATM   10  C   UNL     1      -8.720   6.711  69.193  1.00  0.00    -0.130 C  
ENDBRANCH   4   9
BRANCH   7  11
HETATM   11  C   UNL     1      -6.654  11.193  67.611  1.00  0.00    -0.070 C  
BRANCH  11  12
HETATM   12  C   UNL     1      -6.037  10.838  68.951  1.00  0.00    -0.040 A  
HETATM   13  N   UNL     1      -5.856   9.501  69.148  1.00  0.00    -0.035 NA 
HETATM   14  C   UNL     1      -5.436   9.097  70.360  1.00  0.00    -0.030 A  
HETATM   15  C   UNL     1      -5.172   9.962  71.400  1.00  0.00    -0.075 A  
HETATM   16  C   UNL     1      -5.360  11.334  71.201  1.00  0.00    -0.064 A  
HETATM   17  C   UNL     1      -5.139  12.234  72.253  1.00  0.00     0.195 A  
HETATM   18  C   UNL     1      -5.387  13.612  72.126  1.00  0.00    -0.140 A  
HETATM   19  C   UNL     1      -5.796  11.810  69.956  1.00  0.00    -0.148 A  
HETATM   20  C   UNL     1      -5.793  14.111  70.887  1.00  0.00    -0.213 A  
HETATM   21  C   UNL     1      -5.987  13.208  69.824  1.00  0.00    -0.127 A  
BRANCH  18  22
HETATM   22  O   UNL     1      -5.221  14.455  73.199  1.00  0.00    -0.265 OA 
HETATM   23  C   UNL     1      -5.219  13.830  74.485  1.00  0.00     0.011 C  
ENDBRANCH  18  22
BRANCH  20  24
HETATM   24  O   UNL     1      -6.112  15.387  70.510  1.00  0.00    -0.098 OA 
HETATM   25  C   UNL     1      -7.183  15.665  69.626  1.00  0.00    -0.153 C  
ENDBRANCH  20  24
ENDBRANCH  11  12
ENDBRANCH   7  11
ENDBRANCH   2   3
TORSDOF 6
ENDMDL
MODEL      264
REMARK 921   NORMALIZED FREE ENERGY PREDICTED BY IDOCK:    0.83 KCAL/MOL
REMARK 922        TOTAL FREE ENERGY PREDICTED BY IDOCK:    0.31 KCAL/MOL
REMARK 923 INTER-LIGAND FREE ENERGY PREDICTED BY IDOCK:   -0.17 KCAL/MOL
REMARK 924 INTRA-LIGAND FREE ENERGY PREDICTED BY IDOCK:    0.48 KCAL/MOL
REMARK 927      BINDING AFFINITY PREDICTED BY RF-SCORE:    0.00 PKD
ROOT
HETATM    1  C   UNL     1     -12.678   4.620  72.961  1.00  0.00     1.063 C  
HETATM    2  O   UNL     1     -11.740   3.808  73.664  1.00  0.00    -0.105 OA 
ENDROOT
BRANCH   2   3
HETATM    3  C   UNL     1     -10.416   4.056  73.401  1.00  0.00    -0.176 A  
HETATM    4  C   UNL     1     -10.083   4.399  72.079  1.00  0.00    -0.186 A  
HETATM    5  C   UNL     1      -9.399   3.904  74.345  1.00  0.00    -0.121 A  
HETATM    6  C   UNL     1      -8.738   4.601  71.741  1.00  0.00    -0.134 A  
HETATM    7  C   UNL     1      -7.709   4.383  72.676  1.00  0.00    -0.085 A  
HETATM    8  C   UNL     1      -8.059   4.063  73.991  1.00  0.00    -0.088 A  
BRANCH   4   9
HETATM    9  O   UNL     1     -11.127   4.499  71.190  1.00  0.00     0.591 OA 
HETATM   10  C   UNL     1     -10.903   5.253  70.002  1.00  0.00    -0.004 C  
ENDBRANCH   4   9
BRANCH   7  11
HETATM   11  C   UNL     1      -6.250   4.490  72.293  1.00  0.00    -0.021 C  
BRANCH  11  12
HETATM   12  C   UNL     1      -5.989   5.375  71.089  1.00  0.00    -0.025 A  
HETATM   13  N   UNL     1      -5.622   4.698  69.964  1.00  0.00    -0.012 NA 
HETATM   14  C   UNL     1      -5.248   5.419  68.892  1.00  0.00     0.000 A  
HETATM   15  C   UNL     1      -5.227   6.798  68.873  1.00  0.00    -0.013 A  
HETATM   16  C   UNL     1      -5.599   7.494  70.028  1.00  0.00    -0.023 A  
HETATM   17  C   UNL     1      -5.548   8.895  70.052  1.00  0.00    -0.028 A  
HETATM   18  C   UNL     1      -5.838   9.637  71.210  1.00  0.00    -0.068 A  
HETATM   19  C   UNL     1      -5.999   6.792  71.175  1.00  0.00    -0.036 A  
HETATM   20  C   UNL     1      -6.266   8.960  72.353  1.00  0.00    -0.018 A  
HETATM   21  C   UNL     1      -6.345   7.555  72.317  1.00  0.00    -0.043 A  
BRANCH  18  22
HETATM   22  O   UNL     1      -5.713  11.006  71.213  1.00  0.00    -0.334 OA 
HETATM   23  C   UNL     1      -5.707  11.633  69.928  1.00  0.00    -0.115 C  
ENDBRANCH  18  22
BRANCH  20  24
HETATM   24  O   UNL     1      -6.588   9.437  73.594  1.00  0.00    -0.175 OA 
HETATM   25  C   UNL     1      -7.472   8.749  74.459  1.00  0.00    -0.011 C  
ENDBRANCH  20  24
ENDBRANCH  11  12
ENDBRANCH   7  11
ENDBRANCH   2   3
TORSDOF 6
ENDMDL
MODEL      265
REMARK 921   NORMALIZED FREE ENERGY PREDICTED BY IDOCK:    0.84 KCAL/MOL
REMARK 922        TOTAL FREE ENERGY PREDICTED BY IDOCK:    0.33 KCAL/MOL
REMARK 923 INTER-LIGAND FREE ENERGY PREDICTED BY IDOCK:    0.12 KCAL/MOL
REMARK 924 INTRA-LIGAND FREE ENERGY PREDICTED BY IDOCK:    0.21 KCAL/MOL
REMARK 927      BINDING AFFINITY PREDICTED BY RF-SCORE:    0.00 PKD
ROOT
HETATM    1  C   UNL     1      -7.753  10.315  62.393  1.00  0.00    -0.143 C  
HETATM    2  O   UNL     1      -7.857  10.302  63.816  1.00  0.00    -0.154 OA 
ENDROOT
BRANCH   2   3
HETATM    3  C   UNL     1      -8.823  11.114  64.354  1.00  0.00     0.102 A  
HETATM    4  C   UNL     1      -8.913  11.153  65.756  1.00  0.00    -0.196 A  
HETATM    5  C   UNL     1      -9.754  11.819  63.588  1.00  0.00    -0.293 A  
HETATM    6  C   UNL     1      -9.923  11.917  66.357  1.00  0.00    -0.237 A  
HETATM    7  C   UNL     1     -10.900  12.574  65.585  1.00  0.00    -0.311 A  
HETATM    8  C   UNL     1     -10.783  12.541  64.193  1.00  0.00    -0.423 A  
BRANCH   4   9
HETATM    9  O   UNL     1      -7.989  10.410  66.451  1.00  0.00    -0.120 OA 
HETATM   10  C   UNL     1      -8.403   9.849  67.694  1.00  0.00    -0.114 C  
ENDBRANCH   4   9
BRANCH   7  11
HETATM   11  C   UNL     1     -12.058  13.308  66.224  1.00  0.00    -0.472 C  
BRANCH  11  12
HETATM   12  C   UNL     1     -11.760  13.846  67.611  1.00  0.00    -0.368 A  
HETATM   13  N   UNL     1     -11.069  15.021  67.620  1.00  0.00    -0.306 NA 
HETATM   14  C   UNL     1     -10.654  15.495  68.808  1.00  0.00    -0.242 A  
HETATM   15  C   UNL     1     -10.900  14.862  70.007  1.00  0.00    -0.202 A  
HETATM   16  C   UNL     1     -11.605  13.654  69.999  1.00  0.00    -0.250 A  
HETATM   17  C   UNL     1     -11.835  12.965  71.199  1.00  0.00     0.618 A  
HETATM   18  C   UNL     1     -12.470  11.712  71.236  1.00  0.00    -0.266 A  
HETATM   19  C   UNL     1     -12.063  13.114  68.788  1.00  0.00    -0.226 A  
HETATM   20  C   UNL     1     -12.960  11.171  70.046  1.00  0.00     0.189 A  
HETATM   21  C   UNL     1     -12.753  11.878  68.846  1.00  0.00     1.153 A  
BRANCH  18  22
HETATM   22  O   UNL     1     -12.619  11.037  72.424  1.00  0.00     0.269 OA 
HETATM   23  C   UNL     1     -11.987   9.757  72.495  1.00  0.00     0.941 C  
ENDBRANCH  18  22
BRANCH  20  24
HETATM   24  O   UNL     1     -13.590   9.980  69.810  1.00  0.00     0.566 OA 
HETATM   25  C   UNL     1     -14.405   9.354  70.784  1.00  0.00     0.603 C  
ENDBRANCH  20  24
ENDBRANCH  11  12
ENDBRANCH   7  11
ENDBRANCH   2   3
TORSDOF 6
ENDMDL
MODEL      266
REMARK 921   NORMALIZED FREE ENERGY PREDICTED BY IDOCK:    1.21 KCAL/MOL
REMARK 922        TOTAL FREE ENERGY PREDICTED BY IDOCK:    0.83 KCAL/MOL
REMARK 923 INTER-LIGAND FREE ENERGY PREDICTED BY IDOCK:    0.58 KCAL/MOL
REMARK 924 INTRA-LIGAND FREE ENERGY PREDICTED BY IDOCK:    0.25 KCAL/MOL
REMARK 927      BINDING AFFINITY PREDICTED BY RF-SCORE:    0.00 PKD
ROOT
HETATM    1  C   UNL     1     -11.657  10.091  66.357  1.00  0.00     2.041 C  
HETATM    2  O   UNL     1     -10.856   8.911  66.380  1.00  0.00     0.117 OA 
ENDROOT
BRANCH   2   3
HETATM    3  C   UNL     1      -9.755   8.951  67.199  1.00  0.00    -0.184 A  
HETATM    4  C   UNL     1      -8.822   7.908  67.061  1.00  0.00    -0.130 A  
HETATM    5  C   UNL     1      -9.569   9.909  68.197  1.00  0.00    -0.153 A  
HETATM    6  C   UNL     1      -7.711   7.866  67.916  1.00  0.00    -0.125 A  
HETATM    7  C   UNL     1      -7.559   8.793  68.962  1.00  0.00    -0.090 A  
HETATM    8  C   UNL     1      -8.485   9.834  69.073  1.00  0.00    -0.137 A  
BRANCH   4   9
HETATM    9  O   UNL     1      -9.082   6.979  66.083  1.00  0.00    -0.162 OA 
HETATM   10  C   UNL     1      -8.007   6.628  65.214  1.00  0.00    -0.123 C  
ENDBRANCH   4   9
BRANCH   7  11
HETATM   11  C   UNL     1      -6.425   8.690  69.958  1.00  0.00    -0.038 C  
BRANCH  11  12
HETATM   12  C   UNL     1      -5.918  10.028  70.460  1.00  0.00    -0.092 A  
HETATM   13  N   UNL     1      -5.769  10.101  71.813  1.00  0.00    -0.295 NA 
HETATM   14  C   UNL     1      -5.448  11.293  72.345  1.00  0.00     0.788 A  
HETATM   15  C   UNL     1      -5.255  12.434  71.595  1.00  0.00     0.004 A  
HETATM   16  C   UNL     1      -5.412  12.362  70.207  1.00  0.00    -0.139 A  
HETATM   17  C   UNL     1      -5.262  13.515  69.422  1.00  0.00    -0.082 A  
HETATM   18  C   UNL     1      -5.483  13.511  68.034  1.00  0.00    -0.117 A  
HETATM   19  C   UNL     1      -5.744  11.143  69.598  1.00  0.00    -0.061 A  
HETATM   20  C   UNL     1      -5.786  12.302  67.404  1.00  0.00    -0.143 A  
HETATM   21  C   UNL     1      -5.908  11.141  68.191  1.00  0.00    -0.045 A  
BRANCH  18  22
HETATM   22  O   UNL     1      -5.391  14.674  67.307  1.00  0.00    -0.290 OA 
HETATM   23  C   UNL     1      -6.584  15.459  67.237  1.00  0.00    -0.013 C  
ENDBRANCH  18  22
BRANCH  20  24
HETATM   24  O   UNL     1      -6.060  12.035  66.091  1.00  0.00     0.143 OA 
HETATM   25  C   UNL     1      -5.453  10.959  65.399  1.00  0.00    -0.094 C  
ENDBRANCH  20  24
ENDBRANCH  11  12
ENDBRANCH   7  11
ENDBRANCH   2   3
TORSDOF 6
ENDMDL
MODEL      267
REMARK 921   NORMALIZED FREE ENERGY PREDICTED BY IDOCK:    1.35 KCAL/MOL
REMARK 922        TOTAL FREE ENERGY PREDICTED BY IDOCK:    1.01 KCAL/MOL
REMARK 923 INTER-LIGAND FREE ENERGY PREDICTED BY IDOCK:    0.88 KCAL/MOL
REMARK 924 INTRA-LIGAND FREE ENERGY PREDICTED BY IDOCK:    0.13 KCAL/MOL
REMARK 927      BINDING AFFINITY PREDICTED BY RF-SCORE:    0.00 PKD
ROOT
HETATM    1  C   UNL     1     -13.287   1.873  74.144  1.00  0.00     1.486 C  
HETATM    2  O   UNL     1     -12.555   1.692  72.933  1.00  0.00     0.294 OA 
ENDROOT
BRANCH   2   3
HETATM    3  C   UNL     1     -11.281   2.203  72.921  1.00  0.00     0.064 A  
HETATM    4  C   UNL     1     -11.131   3.548  73.298  1.00  0.00    -0.141 A  
HETATM    5  C   UNL     1     -10.167   1.487  72.478  1.00  0.00    -0.209 A  
HETATM    6  C   UNL     1      -9.860   4.138  73.242  1.00  0.00    -0.169 A  
HETATM    7  C   UNL     1      -8.751   3.436  72.735  1.00  0.00    -0.093 A  
HETATM    8  C   UNL     1      -8.914   2.093  72.383  1.00  0.00    -0.101 A  
BRANCH   4   9
HETATM    9  O   UNL     1     -12.272   4.206  73.690  1.00  0.00     0.141 OA 
HETATM   10  C   UNL     1     -12.937   5.000  72.710  1.00  0.00     1.270 C  
ENDBRANCH   4   9
BRANCH   7  11
HETATM   11  C   UNL     1      -7.401   4.097  72.566  1.00  0.00    -0.068 C  
BRANCH  11  12
HETATM   12  C   UNL     1      -7.455   5.612  72.514  1.00  0.00    -0.097 A  
HETATM   13  N   UNL     1      -7.409   6.217  73.736  1.00  0.00    -0.087 NA 
HETATM   14  C   UNL     1      -7.584   7.549  73.782  1.00  0.00    -0.112 A  
HETATM   15  C   UNL     1      -7.795   8.328  72.664  1.00  0.00    -0.184 A  
HETATM   16  C   UNL     1      -7.847   7.708  71.411  1.00  0.00    -0.089 A  
HETATM   17  C   UNL     1      -8.101   8.469  70.260  1.00  0.00    -0.106 A  
HETATM   18  C   UNL     1      -8.238   7.885  68.990  1.00  0.00    -0.126 A  
HETATM   19  C   UNL     1      -7.670   6.321  71.304  1.00  0.00    -0.103 A  
HETATM   20  C   UNL     1      -8.037   6.509  68.857  1.00  0.00    -0.115 A  
HETATM   21  C   UNL     1      -7.753   5.752  70.009  1.00  0.00    -0.087 A  
BRANCH  18  22
HETATM   22  O   UNL     1      -8.553   8.655  67.895  1.00  0.00    -0.135 OA 
HETATM   23  C   UNL     1      -9.922   9.050  67.787  1.00  0.00    -0.187 C  
ENDBRANCH  18  22
BRANCH  20  24
HETATM   24  O   UNL     1      -8.128   5.706  67.753  1.00  0.00    -0.101 OA 
HETATM   25  C   UNL     1      -7.315   4.558  67.589  1.00  0.00    -0.069 C  
ENDBRANCH  20  24
ENDBRANCH  11  12
ENDBRANCH   7  11
ENDBRANCH   2   3
TORSDOF 6
ENDMDL
MODEL      268
REMARK 921   NORMALIZED FREE ENERGY PREDICTED BY IDOCK:    2.38 KCAL/MOL
REMARK 922        TOTAL FREE ENERGY PREDICTED BY IDOCK:    2.41 KCAL/MOL
REMARK 923 INTER-LIGAND FREE ENERGY PREDICTED BY IDOCK:    2.40 KCAL/MOL
REMARK 924 INTRA-LIGAND FREE ENERGY PREDICTED BY IDOCK:    0.01 KCAL/MOL
REMARK 927      BINDING AFFINITY PREDICTED BY RF-SCORE:    0.00 PKD
ROOT
HETATM    1  C   UNL     1     -11.487  20.980  69.602  1.00  0.00     2.983 C  
HETATM    2  O   UNL     1     -10.660  20.701  68.475  1.00  0.00     0.018 OA 
ENDROOT
BRANCH   2   3
HETATM    3  C   UNL     1     -10.177  19.420  68.387  1.00  0.00    -0.418 A  
HETATM    4  C   UNL     1      -9.655  19.019  67.145  1.00  0.00    -0.312 A  
HETATM    5  C   UNL     1     -10.259  18.491  69.427  1.00  0.00     0.185 A  
HETATM    6  C   UNL     1      -9.207  17.701  66.983  1.00  0.00    -0.254 A  
HETATM    7  C   UNL     1      -9.350  16.749  68.009  1.00  0.00    -0.229 A  
HETATM    8  C   UNL     1      -9.852  17.169  69.244  1.00  0.00    -0.100 A  
BRANCH   4   9
HETATM    9  O   UNL     1      -9.636  19.971  66.153  1.00  0.00    -0.402 OA 
HETATM   10  C   UNL     1     -10.893  20.400  65.636  1.00  0.00     0.281 C  
ENDBRANCH   4   9
BRANCH   7  11
HETATM   11  C   UNL     1      -8.973  15.298  67.808  1.00  0.00    -0.177 C  
BRANCH  11  12
HETATM   12  C   UNL     1      -7.785  14.847  68.636  1.00  0.00    -0.127 A  
HETATM   13  N   UNL     1      -6.783  15.767  68.728  1.00  0.00    -0.114 NA 
HETATM   14  C   UNL     1      -5.643  15.393  69.335  1.00  0.00    -0.100 A  
HETATM   15  C   UNL     1      -5.443  14.140  69.872  1.00  0.00    -0.099 A  
HETATM   16  C   UNL     1      -6.469  13.193  69.775  1.00  0.00    -0.009 A  
HETATM   17  C   UNL     1      -6.279  11.897  70.276  1.00  0.00    -0.027 A  
HETATM   18  C   UNL     1      -7.248  10.889  70.135  1.00  0.00     0.308 A  
HETATM   19  C   UNL     1      -7.680  13.530  69.153  1.00  0.00     0.223 A  
HETATM   20  C   UNL     1      -8.472  11.210  69.545  1.00  0.00     0.436 A  
HETATM   21  C   UNL     1      -8.671  12.520  69.069  1.00  0.00     0.482 A  
BRANCH  18  22
HETATM   22  O   UNL     1      -7.000   9.612  70.581  1.00  0.00    -0.112 OA 
HETATM   23  C   UNL     1      -6.416   9.511  71.882  1.00  0.00     0.312 C  
ENDBRANCH  18  22
BRANCH  20  24
HETATM   24  O   UNL     1      -9.558  10.422  69.277  1.00  0.00    -0.207 OA 
HETATM   25  C   UNL     1      -9.434   9.158  68.652  1.00  0.00    -0.143 C  
ENDBRANCH  20  24
ENDBRANCH  11  12
ENDBRANCH   7  11
ENDBRANCH   2   3
TORSDOF 6
ENDMDL
MODEL      269
REMARK 921   NORMALIZED FREE ENERGY PREDICTED BY IDOCK:    2.79 KCAL/MOL
REMARK 922        TOTAL FREE ENERGY PREDICTED BY IDOCK:    2.97 KCAL/MOL
REMARK 923 INTER-LIGAND FREE ENERGY PREDICTED BY IDOCK:   -0.55 KCAL/MOL
REMARK 924 INTRA-LIGAND FREE ENERGY PREDICTED BY IDOCK:    3.52 KCAL/MOL
REMARK 927      BINDING AFFINITY PREDICTED BY RF-SCORE:    0.00 PKD
ROOT
HETATM    1  C   UNL     1     -12.257   3.587  72.756  1.00  0.00     1.413 C  
HETATM    2  O   UNL     1     -10.852   3.830  72.765  1.00  0.00    -0.120 OA 
ENDROOT
BRANCH   2   3
HETATM    3  C   UNL     1     -10.392   4.725  71.833  1.00  0.00    -0.172 A  
HETATM    4  C   UNL     1     -10.673   6.083  72.061  1.00  0.00    -0.235 A  
HETATM    5  C   UNL     1      -9.748   4.348  70.652  1.00  0.00    -0.283 A  
HETATM    6  C   UNL     1     -10.282   7.034  71.107  1.00  0.00    -0.208 A  
HETATM    7  C   UNL     1      -9.693   6.647  69.890  1.00  0.00    -0.167 A  
HETATM    8  C   UNL     1      -9.402   5.295  69.688  1.00  0.00    -0.174 A  
BRANCH   4   9
HETATM    9  O   UNL     1     -11.340   6.384  73.224  1.00  0.00    -0.100 OA 
HETATM   10  C   UNL     1     -10.557   6.830  74.329  1.00  0.00     0.145 C  
ENDBRANCH   4   9
BRANCH   7  11
HETATM   11  C   UNL     1      -9.368   7.654  68.808  1.00  0.00    -0.148 C  
BRANCH  11  12
HETATM   12  C   UNL     1      -8.866   7.035  67.517  1.00  0.00    -0.119 A  
HETATM   13  N   UNL     1      -9.436   7.548  66.390  1.00  0.00    -0.174 NA 
HETATM   14  C   UNL     1      -9.141   6.964  65.216  1.00  0.00     0.424 A  
HETATM   15  C   UNL     1      -8.290   5.886  65.096  1.00  0.00    -0.143 A  
HETATM   16  C   UNL     1      -7.708   5.355  66.252  1.00  0.00    -0.099 A  
HETATM   17  C   UNL     1      -6.870   4.233  66.166  1.00  0.00    -0.057 A  
HETATM   18  C   UNL     1      -6.322   3.616  67.305  1.00  0.00    -0.037 A  
HETATM   19  C   UNL     1      -7.980   5.927  67.504  1.00  0.00    -0.102 A  
HETATM   20  C   UNL     1      -6.557   4.187  68.557  1.00  0.00    -0.045 A  
HETATM   21  C   UNL     1      -7.375   5.330  68.637  1.00  0.00    -0.070 A  
BRANCH  18  22
HETATM   22  O   UNL     1      -5.559   2.479  67.186  1.00  0.00    -0.017 OA 
HETATM   23  C   UNL     1      -5.787   1.472  68.175  1.00  0.00    -0.019 C  
ENDBRANCH  18  22
BRANCH  20  24
HETATM   24  O   UNL     1      -6.161   3.780  69.801  1.00  0.00    -0.026 OA 
HETATM   25  C   UNL     1      -5.811   4.700  70.819  1.00  0.00    -0.017 C  
ENDBRANCH  20  24
ENDBRANCH  11  12
ENDBRANCH   7  11
ENDBRANCH   2   3
TORSDOF 6
ENDMDL
MODEL      270
REMARK 921   NORMALIZED FREE ENERGY PREDICTED BY IDOCK:    3.89 KCAL/MOL
REMARK 922        TOTAL FREE ENERGY PREDICTED BY IDOCK:    4.45 KCAL/MOL
REMARK 923 INTER-LIGAND FREE ENERGY PREDICTED BY IDOCK:    4.04 KCAL/MOL
REMARK 924 INTRA-LIGAND FREE ENERGY PREDICTED BY IDOCK:    0.41 KCAL/MOL
REMARK 927      BINDING AFFINITY PREDICTED BY RF-SCORE:    0.00 PKD
ROOT
HETATM    1  C   UNL     1      -9.231   5.282  62.643  1.00  0.00     0.208 C  
HETATM    2  O   UNL     1      -9.939   6.429  63.110  1.00  0.00     3.139 OA 
ENDROOT
BRANCH   2   3
HETATM    3  C   UNL     1      -9.166   7.465  63.570  1.00  0.00     2.116 A  
HETATM    4  C   UNL     1      -8.734   7.393  64.906  1.00  0.00     0.278 A  
HETATM    5  C   UNL     1      -8.868   8.601  62.814  1.00  0.00     0.111 A  
HETATM    6  C   UNL     1      -7.994   8.455  65.445  1.00  0.00    -0.122 A  
HETATM    7  C   UNL     1      -7.751   9.626  64.703  1.00  0.00    -0.130 A  
HETATM    8  C   UNL     1      -8.169   9.672  63.371  1.00  0.00    -0.160 A  
BRANCH   4   9
HETATM    9  O   UNL     1      -9.090   6.265  65.605  1.00  0.00    -0.090 OA 
HETATM   10  C   UNL     1      -8.074   5.625  66.373  1.00  0.00    -0.106 C  
ENDBRANCH   4   9
BRANCH   7  11
HETATM   11  C   UNL     1      -7.051  10.821  65.311  1.00  0.00     0.120 C  
BRANCH  11  12
HETATM   12  C   UNL     1      -6.399  10.541  66.652  1.00  0.00    -0.084 A  
HETATM   13  N   UNL     1      -5.961   9.259  66.806  1.00  0.00    -0.059 NA 
HETATM   14  C   UNL     1      -5.491   8.898  68.013  1.00  0.00    -0.035 A  
HETATM   15  C   UNL     1      -5.420   9.756  69.089  1.00  0.00    -0.035 A  
HETATM   16  C   UNL     1      -5.872  11.071  68.934  1.00  0.00    -0.040 A  
HETATM   17  C   UNL     1      -5.851  11.955  70.023  1.00  0.00    -0.150 A  
HETATM   18  C   UNL     1      -6.364  13.261  69.939  1.00  0.00    -0.051 A  
HETATM   19  C   UNL     1      -6.372  11.501  67.696  1.00  0.00    -0.066 A  
HETATM   20  C   UNL     1      -6.839  13.719  68.709  1.00  0.00    -0.106 A  
HETATM   21  C   UNL     1      -6.832  12.839  67.610  1.00  0.00    -0.147 A  
BRANCH  18  22
HETATM   22  O   UNL     1      -6.386  14.076  71.045  1.00  0.00    -0.098 OA 
HETATM   23  C   UNL     1      -5.157  14.740  71.352  1.00  0.00    -0.147 C  
ENDBRANCH  18  22
BRANCH  20  24
HETATM   24  O   UNL     1      -7.397  14.921  68.370  1.00  0.00    -0.105 OA 
HETATM   25  C   UNL     1      -6.829  15.763  67.383  1.00  0.00    -0.201 C  
ENDBRANCH  20  24
ENDBRANCH  11  12
ENDBRANCH   7  11
ENDBRANCH   2   3
TORSDOF 6
ENDMDL
MODEL      271
REMARK 921   NORMALIZED FREE ENERGY PREDICTED BY IDOCK:    4.52 KCAL/MOL
REMARK 922        TOTAL FREE ENERGY PREDICTED BY IDOCK:    5.30 KCAL/MOL
REMARK 923 INTER-LIGAND FREE ENERGY PREDICTED BY IDOCK:    4.87 KCAL/MOL
REMARK 924 INTRA-LIGAND FREE ENERGY PREDICTED BY IDOCK:    0.43 KCAL/MOL
REMARK 927      BINDING AFFINITY PREDICTED BY RF-SCORE:    0.00 PKD
ROOT
HETATM    1  C   UNL     1     -10.930  19.061  73.074  1.00  0.00     3.598 C  
HETATM    2  O   UNL     1     -11.556  17.838  72.690  1.00  0.00     1.064 OA 
ENDROOT
BRANCH   2   3
HETATM    3  C   UNL     1     -11.171  17.323  71.478  1.00  0.00     1.421 A  
HETATM    4  C   UNL     1     -11.642  16.039  71.154  1.00  0.00    -0.443 A  
HETATM    5  C   UNL     1     -10.284  17.966  70.612  1.00  0.00     2.199 A  
HETATM    6  C   UNL     1     -11.228  15.439  69.956  1.00  0.00    -0.314 A  
HETATM    7  C   UNL     1     -10.284  16.059  69.116  1.00  0.00    -0.242 A  
HETATM    8  C   UNL     1      -9.842  17.344  69.443  1.00  0.00     0.042 A  
BRANCH   4   9
HETATM    9  O   UNL     1     -12.483  15.447  72.064  1.00  0.00    -0.318 OA 
HETATM   10  C   UNL     1     -13.779  15.068  71.606  1.00  0.00    -0.462 C  
ENDBRANCH   4   9
BRANCH   7  11
HETATM   11  C   UNL     1      -9.747  15.374  67.880  1.00  0.00    -0.207 C  
BRANCH  11  12
HETATM   12  C   UNL     1      -8.466  14.595  68.111  1.00  0.00    -0.156 A  
HETATM   13  N   UNL     1      -7.328  15.336  67.984  1.00  0.00    -0.114 NA 
HETATM   14  C   UNL     1      -6.150  14.691  68.046  1.00  0.00    -0.156 A  
HETATM   15  C   UNL     1      -6.037  13.331  68.239  1.00  0.00    -0.093 A  
HETATM   16  C   UNL     1      -7.203  12.569  68.365  1.00  0.00    -0.111 A  
HETATM   17  C   UNL     1      -7.120  11.177  68.520  1.00  0.00    -0.080 A  
HETATM   18  C   UNL     1      -8.262  10.359  68.575  1.00  0.00    -0.119 A  
HETATM   19  C   UNL     1      -8.459  13.190  68.310  1.00  0.00    -0.161 A  
HETATM   20  C   UNL     1      -9.522  10.960  68.551  1.00  0.00    -0.185 A  
HETATM   21  C   UNL     1      -9.602  12.360  68.424  1.00  0.00    -0.180 A  
BRANCH  18  22
HETATM   22  O   UNL     1      -8.140   8.993  68.662  1.00  0.00    -0.104 OA 
HETATM   23  C   UNL     1      -9.147   8.327  69.429  1.00  0.00    -0.154 C  
ENDBRANCH  18  22
BRANCH  20  24
HETATM   24  O   UNL     1     -10.769  10.398  68.573  1.00  0.00    -0.194 OA 
HETATM   25  C   UNL     1     -11.177   9.434  67.619  1.00  0.00     0.341 C  
ENDBRANCH  20  24
ENDBRANCH  11  12
ENDBRANCH   7  11
ENDBRANCH   2   3
TORSDOF 6
ENDMDL
MODEL      272
REMARK 921   NORMALIZED FREE ENERGY PREDICTED BY IDOCK:    4.96 KCAL/MOL
REMARK 922        TOTAL FREE ENERGY PREDICTED BY IDOCK:    5.90 KCAL/MOL
REMARK 923 INTER-LIGAND FREE ENERGY PREDICTED BY IDOCK:    4.63 KCAL/MOL
REMARK 924 INTRA-LIGAND FREE ENERGY PREDICTED BY IDOCK:    1.27 KCAL/MOL
REMARK 927      BINDING AFFINITY PREDICTED BY RF-SCORE:    0.00 PKD
ROOT
HETATM    1  C   UNL     1     -10.117  19.849  72.469  1.00  0.00     3.467 C  
HETATM    2  O   UNL     1     -10.879  18.980  71.633  1.00  0.00     2.364 OA 
ENDROOT
BRANCH   2   3
HETATM    3  C   UNL     1     -10.585  19.026  70.294  1.00  0.00     1.857 A  
HETATM    4  C   UNL     1     -10.321  17.801  69.657  1.00  0.00     0.333 A  
HETATM    5  C   UNL     1     -10.455  20.215  69.572  1.00  0.00     0.222 A  
HETATM    6  C   UNL     1      -9.953  17.797  68.304  1.00  0.00    -0.355 A  
HETATM    7  C   UNL     1      -9.759  18.997  67.596  1.00  0.00    -0.373 A  
HETATM    8  C   UNL     1     -10.046  20.205  68.238  1.00  0.00    -0.471 A  
BRANCH   4   9
HETATM    9  O   UNL     1     -10.431  16.671  70.432  1.00  0.00     0.076 OA 
HETATM   10  C   UNL     1     -11.663  15.957  70.371  1.00  0.00    -0.354 C  
ENDBRANCH   4   9
BRANCH   7  11
HETATM   11  C   UNL     1      -9.256  19.008  66.170  1.00  0.00    -0.216 C  
BRANCH  11  12
HETATM   12  C   UNL     1      -7.772  18.721  66.035  1.00  0.00    -0.199 A  
HETATM   13  N   UNL     1      -7.098  19.607  65.248  1.00  0.00    -0.402 NA 
HETATM   14  C   UNL     1      -5.808  19.348  64.974  1.00  0.00    -0.233 A  
HETATM   15  C   UNL     1      -5.136  18.244  65.455  1.00  0.00    -0.211 A  
HETATM   16  C   UNL     1      -5.827  17.332  66.259  1.00  0.00    -0.170 A  
HETATM   17  C   UNL     1      -5.181  16.178  66.728  1.00  0.00     0.471 A  
HETATM   18  C   UNL     1      -5.851  15.194  67.475  1.00  0.00     0.038 A  
HETATM   19  C   UNL     1      -7.174  17.554  66.578  1.00  0.00    -0.298 A  
HETATM   20  C   UNL     1      -7.185  15.410  67.828  1.00  0.00    -0.163 A  
HETATM   21  C   UNL     1      -7.823  16.582  67.380  1.00  0.00    -0.181 A  
BRANCH  18  22
HETATM   22  O   UNL     1      -5.202  14.046  67.862  1.00  0.00    -0.165 OA 
HETATM   23  C   UNL     1      -5.640  13.471  69.096  1.00  0.00    -0.075 C  
ENDBRANCH  18  22
BRANCH  20  24
HETATM   24  O   UNL     1      -8.055  14.614  68.523  1.00  0.00    -0.133 OA 
HETATM   25  C   UNL     1      -9.341  14.292  68.026  1.00  0.00    -0.200 C  
ENDBRANCH  20  24
ENDBRANCH  11  12
ENDBRANCH   7  11
ENDBRANCH   2   3
TORSDOF 6
ENDMDL
MODEL      273
REMARK 921   NORMALIZED FREE ENERGY PREDICTED BY IDOCK:    5.05 KCAL/MOL
REMARK 922        TOTAL FREE ENERGY PREDICTED BY IDOCK:    6.02 KCAL/MOL
REMARK 923 INTER-LIGAND FREE ENERGY PREDICTED BY IDOCK:    6.08 KCAL/MOL
REMARK 924 INTRA-LIGAND FREE ENERGY PREDICTED BY IDOCK:   -0.06 KCAL/MOL
REMARK 927      BINDING AFFINITY PREDICTED BY RF-SCORE:    0.00 PKD
ROOT
HETATM    1  C   UNL     1     -11.966  16.317  72.818  1.00  0.00    -0.537 C  
HETATM    2  O   UNL     1     -11.303  15.066  72.646  1.00  0.00    -0.298 OA 
ENDROOT
BRANCH   2   3
HETATM    3  C   UNL     1     -10.493  14.963  71.544  1.00  0.00     1.248 A  
HETATM    4  C   UNL     1     -10.996  14.240  70.449  1.00  0.00     0.282 A  
HETATM    5  C   UNL     1      -9.188  15.458  71.496  1.00  0.00     3.833 A  
HETATM    6  C   UNL     1     -10.185  14.050  69.321  1.00  0.00     0.070 A  
HETATM    7  C   UNL     1      -8.850  14.493  69.299  1.00  0.00     0.113 A  
HETATM    8  C   UNL     1      -8.371  15.227  70.388  1.00  0.00     1.089 A  
BRANCH   4   9
HETATM    9  O   UNL     1     -12.274  13.749  70.574  1.00  0.00    -0.332 OA 
HETATM   10  C   UNL     1     -13.184  14.019  69.510  1.00  0.00     1.506 C  
ENDBRANCH   4   9
BRANCH   7  11
HETATM   11  C   UNL     1      -7.932  14.196  68.134  1.00  0.00    -0.143 C  
BRANCH  11  12
HETATM   12  C   UNL     1      -8.658  13.896  66.836  1.00  0.00    -0.117 A  
HETATM   13  N   UNL     1      -9.104  15.002  66.174  1.00  0.00    -0.257 NA 
HETATM   14  C   UNL     1      -9.869  14.814  65.084  1.00  0.00    -0.129 A  
HETATM   15  C   UNL     1     -10.212  13.569  64.602  1.00  0.00    -0.341 A  
HETATM   16  C   UNL     1      -9.758  12.434  65.282  1.00  0.00    -0.104 A  
HETATM   17  C   UNL     1     -10.125  11.155  64.838  1.00  0.00    -0.345 A  
HETATM   18  C   UNL     1      -9.759   9.987  65.529  1.00  0.00    -0.289 A  
HETATM   19  C   UNL     1      -8.956  12.571  66.424  1.00  0.00    -0.077 A  
HETATM   20  C   UNL     1      -8.937  10.100  66.652  1.00  0.00    -0.140 A  
HETATM   21  C   UNL     1      -8.546  11.384  67.078  1.00  0.00    -0.157 A  
BRANCH  18  22
HETATM   22  O   UNL     1     -10.193   8.755  65.100  1.00  0.00     1.033 OA 
HETATM   23  C   UNL     1      -9.531   7.628  65.680  1.00  0.00     0.400 C  
ENDBRANCH  18  22
BRANCH  20  24
HETATM   24  O   UNL     1      -8.460   9.136  67.498  1.00  0.00    -0.115 OA 
HETATM   25  C   UNL     1      -8.248   9.383  68.876  1.00  0.00    -0.111 C  
ENDBRANCH  20  24
ENDBRANCH  11  12
ENDBRANCH   7  11
ENDBRANCH   2   3
TORSDOF 6
ENDMDL
MODEL      274
REMARK 921   NORMALIZED FREE ENERGY PREDICTED BY IDOCK:    5.69 KCAL/MOL
REMARK 922        TOTAL FREE ENERGY PREDICTED BY IDOCK:    6.89 KCAL/MOL
REMARK 923 INTER-LIGAND FREE ENERGY PREDICTED BY IDOCK:    2.59 KCAL/MOL
REMARK 924 INTRA-LIGAND FREE ENERGY PREDICTED BY IDOCK:    4.29 KCAL/MOL
REMARK 927      BINDING AFFINITY PREDICTED BY RF-SCORE:    0.00 PKD
ROOT
HETATM    1  C   UNL     1     -11.113  16.497  69.306  1.00  0.00    -0.260 C  
HETATM    2  O   UNL     1     -11.026  15.764  68.085  1.00  0.00    -0.303 OA 
ENDROOT
BRANCH   2   3
HETATM    3  C   UNL     1     -10.235  14.643  68.114  1.00  0.00    -0.231 A  
HETATM    4  C   UNL     1      -9.236  14.594  69.102  1.00  0.00    -0.037 A  
HETATM    5  C   UNL     1     -10.320  13.614  67.174  1.00  0.00    -0.250 A  
HETATM    6  C   UNL     1      -8.359  13.500  69.136  1.00  0.00     0.459 A  
HETATM    7  C   UNL     1      -8.404  12.498  68.150  1.00  0.00    -0.175 A  
HETATM    8  C   UNL     1      -9.416  12.551  67.187  1.00  0.00    -0.208 A  
BRANCH   4   9
HETATM    9  O   UNL     1      -9.184  15.655  69.974  1.00  0.00    -0.086 OA 
HETATM   10  C   UNL     1      -9.856  15.507  71.222  1.00  0.00     1.926 C  
ENDBRANCH   4   9
BRANCH   7  11
HETATM   11  C   UNL     1      -7.392  11.373  68.112  1.00  0.00    -0.092 C  
BRANCH  11  12
HETATM   12  C   UNL     1      -7.022  10.828  69.479  1.00  0.00    -0.130 A  
HETATM   13  N   UNL     1      -6.732  11.786  70.405  1.00  0.00     0.150 NA 
HETATM   14  C   UNL     1      -6.269  11.381  71.601  1.00  0.00     1.843 A  
HETATM   15  C   UNL     1      -6.085  10.057  71.936  1.00  0.00     0.442 A  
HETATM   16  C   UNL     1      -6.378   9.073  70.986  1.00  0.00    -0.061 A  
HETATM   17  C   UNL     1      -6.162   7.720  71.284  1.00  0.00    -0.035 A  
HETATM   18  C   UNL     1      -6.368   6.701  70.338  1.00  0.00    -0.043 A  
HETATM   19  C   UNL     1      -6.865   9.439  69.722  1.00  0.00    -0.055 A  
HETATM   20  C   UNL     1      -6.880   7.040  69.085  1.00  0.00    -0.061 A  
HETATM   21  C   UNL     1      -7.124   8.397  68.798  1.00  0.00    -0.068 A  
BRANCH  18  22
HETATM   22  O   UNL     1      -6.083   5.392  70.646  1.00  0.00    -0.020 OA 
HETATM   23  C   UNL     1      -5.512   4.616  69.590  1.00  0.00    -0.008 C  
ENDBRANCH  18  22
BRANCH  20  24
HETATM   24  O   UNL     1      -7.151   6.254  67.998  1.00  0.00    -0.077 OA 
HETATM   25  C   UNL     1      -6.176   5.975  67.010  1.00  0.00    -0.026 C  
ENDBRANCH  20  24
ENDBRANCH  11  12
ENDBRANCH   7  11
ENDBRANCH   2   3
TORSDOF 6
ENDMDL
MODEL      275
REMARK 921   NORMALIZED FREE ENERGY PREDICTED BY IDOCK:    6.42 KCAL/MOL
REMARK 922        TOTAL FREE ENERGY PREDICTED BY IDOCK:    7.87 KCAL/MOL
REMARK 923 INTER-LIGAND FREE ENERGY PREDICTED BY IDOCK:    6.07 KCAL/MOL
REMARK 924 INTRA-LIGAND FREE ENERGY PREDICTED BY IDOCK:    1.80 KCAL/MOL
REMARK 927      BINDING AFFINITY PREDICTED BY RF-SCORE:    0.00 PKD
ROOT
HETATM    1  C   UNL     1      -6.627  19.349  72.827  1.00  0.00     2.603 C  
HETATM    2  O   UNL     1      -7.494  20.294  72.203  1.00  0.00     0.636 OA 
ENDROOT
BRANCH   2   3
HETATM    3  C   UNL     1      -7.697  20.123  70.857  1.00  0.00     1.436 A  
HETATM    4  C   UNL     1      -6.742  19.363  70.160  1.00  0.00     0.040 A  
HETATM    5  C   UNL     1      -8.738  20.729  70.150  1.00  0.00     2.490 A  
HETATM    6  C   UNL     1      -6.867  19.210  68.772  1.00  0.00    -0.342 A  
HETATM    7  C   UNL     1      -7.878  19.874  68.053  1.00  0.00    -0.317 A  
HETATM    8  C   UNL     1      -8.831  20.609  68.763  1.00  0.00     0.882 A  
BRANCH   4   9
HETATM    9  O   UNL     1      -5.724  18.823  70.909  1.00  0.00    -0.172 OA 
HETATM   10  C   UNL     1      -5.343  17.480  70.621  1.00  0.00    -0.253 C  
ENDBRANCH   4   9
BRANCH   7  11
HETATM   11  C   UNL     1      -7.956  19.806  66.543  1.00  0.00    -0.339 C  
BRANCH  11  12
HETATM   12  C   UNL     1      -9.058  18.905  66.020  1.00  0.00    -0.016 A  
HETATM   13  N   UNL     1     -10.132  19.572  65.509  1.00  0.00    -0.339 NA 
HETATM   14  C   UNL     1     -11.205  18.848  65.145  1.00  0.00     1.454 A  
HETATM   15  C   UNL     1     -11.267  17.475  65.254  1.00  0.00     0.643 A  
HETATM   16  C   UNL     1     -10.168  16.790  65.782  1.00  0.00    -0.311 A  
HETATM   17  C   UNL     1     -10.219  15.397  65.943  1.00  0.00    -0.365 A  
HETATM   18  C   UNL     1      -9.172  14.672  66.538  1.00  0.00    -0.266 A  
HETATM   19  C   UNL     1      -9.022  17.495  66.176  1.00  0.00    -0.156 A  
HETATM   20  C   UNL     1      -8.011  15.351  66.911  1.00  0.00    -0.195 A  
HETATM   21  C   UNL     1      -7.951  16.745  66.722  1.00  0.00    -0.275 A  
BRANCH  18  22
HETATM   22  O   UNL     1      -9.285  13.317  66.739  1.00  0.00    -0.238 OA 
HETATM   23  C   UNL     1     -10.594  12.844  67.064  1.00  0.00    -0.252 C  
ENDBRANCH  18  22
BRANCH  20  24
HETATM   24  O   UNL     1      -6.874  14.890  67.517  1.00  0.00    -0.174 OA 
HETATM   25  C   UNL     1      -6.368  15.467  68.707  1.00  0.00    -0.103 C  
ENDBRANCH  20  24
ENDBRANCH  11  12
ENDBRANCH   7  11
ENDBRANCH   2   3
TORSDOF 6
ENDMDL
MODEL      276
REMARK 921   NORMALIZED FREE ENERGY PREDICTED BY IDOCK:    6.93 KCAL/MOL
REMARK 922        TOTAL FREE ENERGY PREDICTED BY IDOCK:    8.56 KCAL/MOL
REMARK 923 INTER-LIGAND FREE ENERGY PREDICTED BY IDOCK:    6.32 KCAL/MOL
REMARK 924 INTRA-LIGAND FREE ENERGY PREDICTED BY IDOCK:    2.25 KCAL/MOL
REMARK 927      BINDING AFFINITY PREDICTED BY RF-SCORE:    0.00 PKD
ROOT
HETATM    1  C   UNL     1     -12.240   8.641  66.399  1.00  0.00     9.298 C  
HETATM    2  O   UNL     1     -10.835   8.481  66.586  1.00  0.00    -0.090 OA 
ENDROOT
BRANCH   2   3
HETATM    3  C   UNL     1     -10.400   8.481  67.887  1.00  0.00    -0.223 A  
HETATM    4  C   UNL     1     -10.597   7.300  68.624  1.00  0.00    -0.168 A  
HETATM    5  C   UNL     1      -9.862   9.602  68.523  1.00  0.00    -0.170 A  
HETATM    6  C   UNL     1     -10.229   7.266  69.977  1.00  0.00    -0.206 A  
HETATM    7  C   UNL     1      -9.748   8.414  70.632  1.00  0.00    -0.203 A  
HETATM    8  C   UNL     1      -9.539   9.574  69.880  1.00  0.00    -0.250 A  
BRANCH   4   9
HETATM    9  O   UNL     1     -11.163   6.244  67.950  1.00  0.00    -0.323 OA 
HETATM   10  C   UNL     1     -10.373   5.067  67.800  1.00  0.00    -0.053 C  
ENDBRANCH   4   9
BRANCH   7  11
HETATM   11  C   UNL     1      -9.453   8.420  72.115  1.00  0.00    -0.360 C  
BRANCH  11  12
HETATM   12  C   UNL     1      -8.474   7.348  72.555  1.00  0.00    -0.109 A  
HETATM   13  N   UNL     1      -8.298   7.269  73.905  1.00  0.00    -0.139 NA 
HETATM   14  C   UNL     1      -7.351   6.433  74.366  1.00  0.00    -0.096 A  
HETATM   15  C   UNL     1      -6.563   5.652  73.547  1.00  0.00    -0.074 A  
HETATM   16  C   UNL     1      -6.739   5.735  72.162  1.00  0.00    -0.067 A  
HETATM   17  C   UNL     1      -5.924   4.984  71.303  1.00  0.00    -0.017 A  
HETATM   18  C   UNL     1      -6.010   5.089  69.904  1.00  0.00    -0.021 A  
HETATM   19  C   UNL     1      -7.714   6.590  71.627  1.00  0.00    -0.099 A  
HETATM   20  C   UNL     1      -6.993   5.911  69.351  1.00  0.00    -0.064 A  
HETATM   21  C   UNL     1      -7.829   6.643  70.216  1.00  0.00    -0.107 A  
BRANCH  18  22
HETATM   22  O   UNL     1      -5.150   4.386  69.095  1.00  0.00     0.000 OA 
HETATM   23  C   UNL     1      -5.218   2.962  69.205  1.00  0.00    -0.012 C  
ENDBRANCH  18  22
BRANCH  20  24
HETATM   24  O   UNL     1      -7.271   6.198  68.043  1.00  0.00    -0.079 OA 
HETATM   25  C   UNL     1      -6.441   7.039  67.263  1.00  0.00    -0.053 C  
ENDBRANCH  20  24
ENDBRANCH  11  12
ENDBRANCH   7  11
ENDBRANCH   2   3
TORSDOF 6
ENDMDL
MODEL      277
REMARK 921   NORMALIZED FREE ENERGY PREDICTED BY IDOCK:   15.12 KCAL/MOL
REMARK 922        TOTAL FREE ENERGY PREDICTED BY IDOCK:   19.62 KCAL/MOL
REMARK 923 INTER-LIGAND FREE ENERGY PREDICTED BY IDOCK:   10.79 KCAL/MOL
REMARK 924 INTRA-LIGAND FREE ENERGY PREDICTED BY IDOCK:    8.83 KCAL/MOL
REMARK 927      BINDING AFFINITY PREDICTED BY RF-SCORE:    0.00 PKD
ROOT
HETATM    1  C   UNL     1     -13.463  10.630  68.476  1.00  0.00     6.483 C  
HETATM    2  O   UNL     1     -12.932  11.407  67.404  1.00  0.00     2.837 OA 
ENDROOT
BRANCH   2   3
HETATM    3  C   UNL     1     -11.565  11.523  67.368  1.00  0.00    -0.228 A  
HETATM    4  C   UNL     1     -10.827  10.600  68.129  1.00  0.00    -0.245 A  
HETATM    5  C   UNL     1     -10.895  12.546  66.694  1.00  0.00    -0.277 A  
HETATM    6  C   UNL     1      -9.430  10.713  68.178  1.00  0.00    -0.158 A  
HETATM    7  C   UNL     1      -8.762  11.781  67.552  1.00  0.00    -0.159 A  
HETATM    8  C   UNL     1      -9.509  12.678  66.783  1.00  0.00    -0.237 A  
BRANCH   4   9
HETATM    9  O   UNL     1     -11.549   9.640  68.797  1.00  0.00     0.155 OA 
HETATM   10  C   UNL     1     -11.322   8.281  68.431  1.00  0.00     0.884 C  
ENDBRANCH   4   9
BRANCH   7  11
HETATM   11  C   UNL     1      -7.268  11.976  67.691  1.00  0.00    -0.117 C  
BRANCH  11  12
HETATM   12  C   UNL     1      -6.826  13.426  67.651  1.00  0.00    -0.165 A  
HETATM   13  N   UNL     1      -5.770  13.714  68.463  1.00  0.00    -0.083 NA 
HETATM   14  C   UNL     1      -5.403  15.002  68.582  1.00  0.00    -0.094 A  
HETATM   15  C   UNL     1      -6.031  16.036  67.920  1.00  0.00    -0.150 A  
HETATM   16  C   UNL     1      -7.118  15.743  67.090  1.00  0.00    -0.225 A  
HETATM   17  C   UNL     1      -7.802  16.778  66.436  1.00  0.00    -0.353 A  
HETATM   18  C   UNL     1      -8.946  16.544  65.653  1.00  0.00     0.264 A  
HETATM   19  C   UNL     1      -7.542  14.416  66.928  1.00  0.00     0.370 A  
HETATM   20  C   UNL     1      -9.368  15.228  65.455  1.00  0.00     0.201 A  
HETATM   21  C   UNL     1      -8.661  14.188  66.089  1.00  0.00     0.677 A  
BRANCH  18  22
HETATM   22  O   UNL     1      -9.629  17.591  65.081  1.00  0.00     0.399 OA 
HETATM   23  C   UNL     1      -9.319  18.889  65.594  1.00  0.00     0.645 C  
ENDBRANCH  18  22
BRANCH  20  24
HETATM   24  O   UNL     1     -10.442  14.739  64.763  1.00  0.00    -0.406 OA 
HETATM   25  C   UNL     1     -10.319  13.678  63.833  1.00  0.00     0.775 C  
ENDBRANCH  20  24
ENDBRANCH  11  12
ENDBRANCH   7  11
ENDBRANCH   2   3
TORSDOF 6
ENDMDL
MODEL      278
REMARK 921   NORMALIZED FREE ENERGY PREDICTED BY IDOCK:   17.76 KCAL/MOL
REMARK 922        TOTAL FREE ENERGY PREDICTED BY IDOCK:   23.18 KCAL/MOL
REMARK 923 INTER-LIGAND FREE ENERGY PREDICTED BY IDOCK:   21.60 KCAL/MOL
REMARK 924 INTRA-LIGAND FREE ENERGY PREDICTED BY IDOCK:    1.58 KCAL/MOL
REMARK 927      BINDING AFFINITY PREDICTED BY RF-SCORE:    0.00 PKD
ROOT
HETATM    1  C   UNL     1     -12.141   9.328  65.405  1.00  0.00    10.448 C  
HETATM    2  O   UNL     1     -11.819   7.947  65.564  1.00  0.00     7.565 OA 
ENDROOT
BRANCH   2   3
HETATM    3  C   UNL     1     -10.944   7.648  66.577  1.00  0.00     0.873 A  
HETATM    4  C   UNL     1     -10.639   6.290  66.775  1.00  0.00    -0.265 A  
HETATM    5  C   UNL     1     -10.423   8.602  67.455  1.00  0.00    -0.351 A  
HETATM    6  C   UNL     1      -9.799   5.924  67.837  1.00  0.00    -0.139 A  
HETATM    7  C   UNL     1      -9.329   6.878  68.758  1.00  0.00    -0.129 A  
HETATM    8  C   UNL     1      -9.625   8.225  68.535  1.00  0.00    -0.154 A  
BRANCH   4   9
HETATM    9  O   UNL     1     -11.211   5.400  65.899  1.00  0.00     0.097 OA 
HETATM   10  C   UNL     1     -11.495   4.092  66.390  1.00  0.00     4.013 C  
ENDBRANCH   4   9
BRANCH   7  11
HETATM   11  C   UNL     1      -8.515   6.479  69.970  1.00  0.00    -0.135 C  
BRANCH  11  12
HETATM   12  C   UNL     1      -7.753   7.625  70.607  1.00  0.00    -0.088 A  
HETATM   13  N   UNL     1      -7.796   7.638  71.970  1.00  0.00    -0.091 NA 
HETATM   14  C   UNL     1      -7.255   8.693  72.604  1.00  0.00     0.057 A  
HETATM   15  C   UNL     1      -6.656   9.749  71.950  1.00  0.00     0.622 A  
HETATM   16  C   UNL     1      -6.615   9.739  70.552  1.00  0.00    -0.117 A  
HETATM   17  C   UNL     1      -6.050  10.819  69.857  1.00  0.00    -0.094 A  
HETATM   18  C   UNL     1      -6.052  10.892  68.454  1.00  0.00    -0.046 A  
HETATM   19  C   UNL     1      -7.163   8.662  69.839  1.00  0.00    -0.051 A  
HETATM   20  C   UNL     1      -6.566   9.818  67.725  1.00  0.00    -0.068 A  
HETATM   21  C   UNL     1      -7.107   8.723  68.425  1.00  0.00    -0.077 A  
BRANCH  18  22
HETATM   22  O   UNL     1      -5.547  11.996  67.810  1.00  0.00    -0.053 OA 
HETATM   23  C   UNL     1      -5.877  13.260  68.392  1.00  0.00    -0.087 C  
ENDBRANCH  18  22
BRANCH  20  24
HETATM   24  O   UNL     1      -6.700   9.651  66.374  1.00  0.00    -0.073 OA 
HETATM   25  C   UNL     1      -6.299   8.461  65.719  1.00  0.00    -0.052 C  
ENDBRANCH  20  24
ENDBRANCH  11  12
ENDBRANCH   7  11
ENDBRANCH   2   3
TORSDOF 6
ENDMDL
MODEL      279
REMARK 921   NORMALIZED FREE ENERGY PREDICTED BY IDOCK:   18.30 KCAL/MOL
REMARK 922        TOTAL FREE ENERGY PREDICTED BY IDOCK:   23.91 KCAL/MOL
REMARK 923 INTER-LIGAND FREE ENERGY PREDICTED BY IDOCK:   17.06 KCAL/MOL
REMARK 924 INTRA-LIGAND FREE ENERGY PREDICTED BY IDOCK:    6.85 KCAL/MOL
REMARK 927      BINDING AFFINITY PREDICTED BY RF-SCORE:    0.00 PKD
ROOT
HETATM    1  C   UNL     1      -9.496  13.530  64.049  1.00  0.00     2.407 C  
HETATM    2  O   UNL     1      -9.186  13.446  65.439  1.00  0.00     0.321 OA 
ENDROOT
BRANCH   2   3
HETATM    3  C   UNL     1      -9.844  14.332  66.254  1.00  0.00    -0.307 A  
HETATM    4  C   UNL     1     -11.135  14.722  65.860  1.00  0.00    -0.340 A  
HETATM    5  C   UNL     1      -9.268  14.915  67.385  1.00  0.00    -0.198 A  
HETATM    6  C   UNL     1     -11.827  15.674  66.623  1.00  0.00     0.544 A  
HETATM    7  C   UNL     1     -11.221  16.308  67.723  1.00  0.00    -0.163 A  
HETATM    8  C   UNL     1      -9.945  15.894  68.114  1.00  0.00    -0.222 A  
BRANCH   4   9
HETATM    9  O   UNL     1     -11.630  14.138  64.719  1.00  0.00    -0.360 OA 
HETATM   10  C   UNL     1     -12.184  15.002  63.730  1.00  0.00     0.295 C  
ENDBRANCH   4   9
BRANCH   7  11
HETATM   11  C   UNL     1     -11.916  17.415  68.485  1.00  0.00     2.075 C  
BRANCH  11  12
HETATM   12  C   UNL     1     -11.160  18.730  68.493  1.00  0.00     0.937 A  
HETATM   13  N   UNL     1     -11.785  19.741  67.827  1.00  0.00     1.160 NA 
HETATM   14  C   UNL     1     -11.120  20.900  67.678  1.00  0.00     2.285 A  
HETATM   15  C   UNL     1      -9.851  21.117  68.170  1.00  0.00     0.422 A  
HETATM   16  C   UNL     1      -9.205  20.078  68.851  1.00  0.00    -0.009 A  
HETATM   17  C   UNL     1      -7.898  20.256  69.327  1.00  0.00     0.427 A  
HETATM   18  C   UNL     1      -7.179  19.220  69.949  1.00  0.00     0.218 A  
HETATM   19  C   UNL     1      -9.854  18.849  69.036  1.00  0.00    -0.379 A  
HETATM   20  C   UNL     1      -7.816  17.998  70.169  1.00  0.00     2.153 A  
HETATM   21  C   UNL     1      -9.139  17.832  69.716  1.00  0.00     1.193 A  
BRANCH  18  22
HETATM   22  O   UNL     1      -5.877  19.412  70.344  1.00  0.00    -0.239 OA 
HETATM   23  C   UNL     1      -5.200  18.252  70.835  1.00  0.00    -0.275 C  
ENDBRANCH  18  22
BRANCH  20  24
HETATM   24  O   UNL     1      -7.342  16.843  70.728  1.00  0.00     2.612 OA 
HETATM   25  C   UNL     1      -6.223  16.830  71.596  1.00  0.00     2.505 C  
ENDBRANCH  20  24
ENDBRANCH  11  12
ENDBRANCH   7  11
ENDBRANCH   2   3
TORSDOF 6
ENDMDL
MODEL      280
REMARK 921   NORMALIZED FREE ENERGY PREDICTED BY IDOCK:   19.83 KCAL/MOL
REMARK 922        TOTAL FREE ENERGY PREDICTED BY IDOCK:   25.98 KCAL/MOL
REMARK 923 INTER-LIGAND FREE ENERGY PREDICTED BY IDOCK:   23.58 KCAL/MOL
REMARK 924 INTRA-LIGAND FREE ENERGY PREDICTED BY IDOCK:    2.40 KCAL/MOL
REMARK 927      BINDING AFFINITY PREDICTED BY RF-SCORE:    0.00 PKD
ROOT
HETATM    1  C   UNL     1     -11.560  11.629  73.739  1.00  0.00    15.272 C  
HETATM    2  O   UNL     1     -12.693  11.267  72.952  1.00  0.00     1.505 OA 
ENDROOT
BRANCH   2   3
HETATM    3  C   UNL     1     -12.432  10.905  71.655  1.00  0.00    -0.242 A  
HETATM    4  C   UNL     1     -13.185  11.541  70.652  1.00  0.00     0.431 A  
HETATM    5  C   UNL     1     -11.534   9.896  71.300  1.00  0.00    -0.435 A  
HETATM    6  C   UNL     1     -13.003  11.164  69.314  1.00  0.00     1.094 A  
HETATM    7  C   UNL     1     -12.147  10.103  68.965  1.00  0.00     0.410 A  
HETATM    8  C   UNL     1     -11.391   9.496  69.971  1.00  0.00    -0.204 A  
BRANCH   4   9
HETATM    9  O   UNL     1     -14.076  12.500  71.071  1.00  0.00     1.614 OA 
HETATM   10  C   UNL     1     -13.542  13.766  71.452  1.00  0.00    -0.179 C  
ENDBRANCH   4   9
BRANCH   7  11
HETATM   11  C   UNL     1     -12.027   9.615  67.538  1.00  0.00     3.212 C  
BRANCH  11  12
HETATM   12  C   UNL     1     -10.951  10.316  66.732  1.00  0.00    -0.012 A  
HETATM   13  N   UNL     1     -10.656   9.713  65.546  1.00  0.00     0.417 NA 
HETATM   14  C   UNL     1      -9.624  10.199  64.835  1.00  0.00    -0.306 A  
HETATM   15  C   UNL     1      -8.863  11.276  65.238  1.00  0.00    -0.015 A  
HETATM   16  C   UNL     1      -9.162  11.894  66.457  1.00  0.00    -0.216 A  
HETATM   17  C   UNL     1      -8.380  12.965  66.914  1.00  0.00    -0.047 A  
HETATM   18  C   UNL     1      -8.592  13.569  68.165  1.00  0.00    -0.173 A  
HETATM   19  C   UNL     1     -10.229  11.428  67.239  1.00  0.00    -0.229 A  
HETATM   20  C   UNL     1      -9.667  13.140  68.945  1.00  0.00     0.179 A  
HETATM   21  C   UNL     1     -10.468  12.084  68.471  1.00  0.00    -0.244 A  
BRANCH  18  22
HETATM   22  O   UNL     1      -7.763  14.573  68.606  1.00  0.00    -0.124 OA 
HETATM   23  C   UNL     1      -7.454  14.554  70.002  1.00  0.00     0.290 C  
ENDBRANCH  18  22
BRANCH  20  24
HETATM   24  O   UNL     1     -10.073  13.544  70.187  1.00  0.00     1.492 OA 
HETATM   25  C   UNL     1     -10.907  14.673  70.376  1.00  0.00     0.092 C  
ENDBRANCH  20  24
ENDBRANCH  11  12
ENDBRANCH   7  11
ENDBRANCH   2   3
TORSDOF 6
ENDMDL
MODEL      281
REMARK 921   NORMALIZED FREE ENERGY PREDICTED BY IDOCK:   60.89 KCAL/MOL
REMARK 922        TOTAL FREE ENERGY PREDICTED BY IDOCK:   81.44 KCAL/MOL
REMARK 923 INTER-LIGAND FREE ENERGY PREDICTED BY IDOCK:   48.68 KCAL/MOL
REMARK 924 INTRA-LIGAND FREE ENERGY PREDICTED BY IDOCK:   32.76 KCAL/MOL
REMARK 927      BINDING AFFINITY PREDICTED BY RF-SCORE:    0.00 PKD
ROOT
HETATM    1  C   UNL     1     -12.570   9.535  65.040  1.00  0.00    14.070 C  
HETATM    2  O   UNL     1     -12.733   8.837  66.273  1.00  0.00    10.701 OA 
ENDROOT
BRANCH   2   3
HETATM    3  C   UNL     1     -11.593   8.297  66.813  1.00  0.00     3.155 A  
HETATM    4  C   UNL     1     -11.261   6.988  66.423  1.00  0.00     1.255 A  
HETATM    5  C   UNL     1     -10.813   8.943  67.774  1.00  0.00    -0.106 A  
HETATM    6  C   UNL     1     -10.141   6.366  66.992  1.00  0.00    -0.227 A  
HETATM    7  C   UNL     1      -9.395   6.992  68.007  1.00  0.00    -0.127 A  
HETATM    8  C   UNL     1      -9.726   8.301  68.369  1.00  0.00    -0.170 A  
BRANCH   4   9
HETATM    9  O   UNL     1     -12.089   6.396  65.499  1.00  0.00     4.232 OA 
HETATM   10  C   UNL     1     -11.559   6.173  64.195  1.00  0.00     9.149 C  
ENDBRANCH   4   9
BRANCH   7  11
HETATM   11  C   UNL     1      -8.254   6.287  68.706  1.00  0.00    -0.120 C  
BRANCH  11  12
HETATM   12  C   UNL     1      -7.846   4.977  68.059  1.00  0.00    -0.087 A  
HETATM   13  N   UNL     1      -6.654   4.482  68.496  1.00  0.00    -0.044 NA 
HETATM   14  C   UNL     1      -6.162   3.395  67.878  1.00  0.00    -0.032 A  
HETATM   15  C   UNL     1      -6.803   2.756  66.838  1.00  0.00    -0.045 A  
HETATM   16  C   UNL     1      -8.024   3.265  66.385  1.00  0.00    -0.081 A  
HETATM   17  C   UNL     1      -8.680   2.661  65.302  1.00  0.00    -0.115 A  
HETATM   18  C   UNL     1      -9.869   3.179  64.760  1.00  0.00    -0.060 A  
HETATM   19  C   UNL     1      -8.585   4.397  66.995  1.00  0.00    -0.104 A  
HETATM   20  C   UNL     1     -10.459   4.287  65.371  1.00  0.00    -0.168 A  
HETATM   21  C   UNL     1      -9.814   4.874  66.476  1.00  0.00    -0.225 A  
BRANCH  18  22
HETATM   22  O   UNL     1     -10.447   2.598  63.657  1.00  0.00    -0.180 OA 
HETATM   23  C   UNL     1     -11.411   1.577  63.927  1.00  0.00     0.677 C  
ENDBRANCH  18  22
BRANCH  20  24
HETATM   24  O   UNL     1     -11.587   4.984  65.036  1.00  0.00     0.512 OA 
HETATM   25  C   UNL     1     -11.636   5.841  63.909  1.00  0.00     6.815 C  
ENDBRANCH  20  24
ENDBRANCH  11  12
ENDBRANCH   7  11
ENDBRANCH   2   3
TORSDOF 6
ENDMDL
