MODEL        1
REMARK 921   NORMALIZED FREE ENERGY PREDICTED BY IDOCK:   -4.41 KCAL/MOL
REMARK 922        TOTAL FREE ENERGY PREDICTED BY IDOCK:   -4.69 KCAL/MOL
REMARK 923 INTER-LIGAND FREE ENERGY PREDICTED BY IDOCK:   -4.67 KCAL/MOL
REMARK 924 INTRA-LIGAND FREE ENERGY PREDICTED BY IDOCK:   -0.02 KCAL/MOL
REMARK 927      BINDING AFFINITY PREDICTED BY RF-SCORE:    0.00 PKD
ROOT
HETATM    1  C   UNL     1     -12.750  16.019  73.897  1.00  0.00    -0.706 C  
HETATM    2  C   UNL     1     -12.098  15.045  72.921  1.00  0.00    -0.428 C  
ENDROOT
BRANCH   2   3
HETATM    3  C   UNL     1     -12.808  14.933  71.569  1.00  0.00    -0.335 C  
HETATM    4  C   UNL     1     -14.317  15.118  71.713  1.00  0.00    -0.696 C  
HETATM    5  O   UNL     1     -12.326  15.924  70.649  1.00  0.00    -0.395 OA 
HETATM    6  C   UNL     1     -12.019  15.315  69.465  1.00  0.00    -0.330 C  
HETATM    7  N   UNL     1     -12.133  13.974  69.584  1.00  0.00    -0.340 N  
HETATM    8  O   UNL     1     -11.680  15.934  68.470  1.00  0.00    -0.383 OA 
HETATM    9  C   UNL     1     -12.516  13.641  70.840  1.00  0.00    -0.371 C  
HETATM   10  C   UNL     1     -11.783  13.024  68.561  1.00  0.00    -0.342 C  
HETATM   11  O   UNL     1     -12.628  12.513  71.300  1.00  0.00    -0.345 OA 
ENDBRANCH   2   3
TORSDOF 1
ENDMDL
MODEL        2
REMARK 921   NORMALIZED FREE ENERGY PREDICTED BY IDOCK:   -4.38 KCAL/MOL
REMARK 922        TOTAL FREE ENERGY PREDICTED BY IDOCK:   -4.66 KCAL/MOL
REMARK 923 INTER-LIGAND FREE ENERGY PREDICTED BY IDOCK:   -4.61 KCAL/MOL
REMARK 924 INTRA-LIGAND FREE ENERGY PREDICTED BY IDOCK:   -0.05 KCAL/MOL
REMARK 927      BINDING AFFINITY PREDICTED BY RF-SCORE:    0.00 PKD
ROOT
HETATM    1  C   UNL     1     -11.930  12.935  63.368  1.00  0.00    -0.612 C  
HETATM    2  C   UNL     1     -10.817  13.462  64.268  1.00  0.00    -0.383 C  
ENDROOT
BRANCH   2   3
HETATM    3  C   UNL     1     -11.296  14.375  65.400  1.00  0.00    -0.339 C  
HETATM    4  C   UNL     1     -12.781  14.171  65.692  1.00  0.00    -0.469 C  
HETATM    5  O   UNL     1     -10.567  14.121  66.611  1.00  0.00    -0.275 OA 
HETATM    6  C   UNL     1     -10.128  15.311  67.119  1.00  0.00    -0.240 C  
HETATM    7  N   UNL     1     -10.396  16.316  66.258  1.00  0.00    -0.316 N  
HETATM    8  O   UNL     1      -9.564  15.402  68.197  1.00  0.00    -0.201 OA 
HETATM    9  C   UNL     1     -11.017  15.840  65.152  1.00  0.00    -0.382 C  
HETATM   10  C   UNL     1      -9.976  17.682  66.430  1.00  0.00    -0.334 C  
HETATM   11  O   UNL     1     -11.319  16.471  64.149  1.00  0.00    -1.060 OA 
ENDBRANCH   2   3
TORSDOF 1
ENDMDL
MODEL        3
REMARK 921   NORMALIZED FREE ENERGY PREDICTED BY IDOCK:   -4.30 KCAL/MOL
REMARK 922        TOTAL FREE ENERGY PREDICTED BY IDOCK:   -4.57 KCAL/MOL
REMARK 923 INTER-LIGAND FREE ENERGY PREDICTED BY IDOCK:   -4.55 KCAL/MOL
REMARK 924 INTRA-LIGAND FREE ENERGY PREDICTED BY IDOCK:   -0.02 KCAL/MOL
REMARK 927      BINDING AFFINITY PREDICTED BY RF-SCORE:    0.00 PKD
ROOT
HETATM    1  C   UNL     1     -12.109  12.590  63.500  1.00  0.00    -0.653 C  
HETATM    2  C   UNL     1     -12.637  12.790  64.917  1.00  0.00    -0.541 C  
ENDROOT
BRANCH   2   3
HETATM    3  C   UNL     1     -11.568  13.180  65.942  1.00  0.00    -0.354 C  
HETATM    4  C   UNL     1     -10.161  12.903  65.415  1.00  0.00    -0.301 C  
HETATM    5  O   UNL     1     -11.651  14.575  66.268  1.00  0.00    -0.357 OA 
HETATM    6  C   UNL     1     -11.646  14.711  67.628  1.00  0.00    -0.361 C  
HETATM    7  N   UNL     1     -11.705  13.499  68.221  1.00  0.00    -0.339 N  
HETATM    8  O   UNL     1     -11.608  15.796  68.185  1.00  0.00    -0.344 OA 
HETATM    9  C   UNL     1     -11.752  12.517  67.288  1.00  0.00    -0.362 C  
HETATM   10  C   UNL     1     -11.823  13.280  69.638  1.00  0.00    -0.327 C  
HETATM   11  O   UNL     1     -11.896  11.319  67.488  1.00  0.00    -0.613 OA 
ENDBRANCH   2   3
TORSDOF 1
ENDMDL
MODEL        4
REMARK 921   NORMALIZED FREE ENERGY PREDICTED BY IDOCK:   -4.29 KCAL/MOL
REMARK 922        TOTAL FREE ENERGY PREDICTED BY IDOCK:   -4.56 KCAL/MOL
REMARK 923 INTER-LIGAND FREE ENERGY PREDICTED BY IDOCK:   -4.54 KCAL/MOL
REMARK 924 INTRA-LIGAND FREE ENERGY PREDICTED BY IDOCK:   -0.03 KCAL/MOL
REMARK 927      BINDING AFFINITY PREDICTED BY RF-SCORE:    0.00 PKD
ROOT
HETATM    1  C   UNL     1     -12.419  12.144  63.515  1.00  0.00    -0.666 C  
HETATM    2  C   UNL     1     -12.535  12.645  64.951  1.00  0.00    -0.564 C  
ENDROOT
BRANCH   2   3
HETATM    3  C   UNL     1     -11.273  13.328  65.487  1.00  0.00    -0.287 C  
HETATM    4  C   UNL     1     -10.082  12.372  65.496  1.00  0.00    -0.287 C  
HETATM    5  O   UNL     1     -10.922  14.466  64.686  1.00  0.00    -0.390 OA 
HETATM    6  C   UNL     1     -10.698  15.534  65.509  1.00  0.00    -0.381 C  
HETATM    7  N   UNL     1     -11.012  15.216  66.784  1.00  0.00    -0.321 N  
HETATM    8  O   UNL     1     -10.287  16.608  65.103  1.00  0.00    -0.630 OA 
HETATM    9  C   UNL     1     -11.453  13.937  66.859  1.00  0.00    -0.351 C  
HETATM   10  C   UNL     1     -10.997  16.137  67.890  1.00  0.00    -0.318 C  
HETATM   11  O   UNL     1     -11.895  13.368  67.847  1.00  0.00    -0.339 OA 
ENDBRANCH   2   3
TORSDOF 1
ENDMDL
MODEL        5
REMARK 921   NORMALIZED FREE ENERGY PREDICTED BY IDOCK:   -4.28 KCAL/MOL
REMARK 922        TOTAL FREE ENERGY PREDICTED BY IDOCK:   -4.55 KCAL/MOL
REMARK 923 INTER-LIGAND FREE ENERGY PREDICTED BY IDOCK:   -4.47 KCAL/MOL
REMARK 924 INTRA-LIGAND FREE ENERGY PREDICTED BY IDOCK:   -0.08 KCAL/MOL
REMARK 927      BINDING AFFINITY PREDICTED BY RF-SCORE:    0.00 PKD
ROOT
HETATM    1  C   UNL     1     -12.395  13.404  67.242  1.00  0.00    -0.157 C  
HETATM    2  C   UNL     1     -11.744  12.687  66.064  1.00  0.00    -0.470 C  
ENDROOT
BRANCH   2   3
HETATM    3  C   UNL     1     -10.843  13.575  65.201  1.00  0.00    -0.330 C  
HETATM    4  C   UNL     1     -10.178  12.776  64.083  1.00  0.00    -0.344 C  
HETATM    5  O   UNL     1     -11.593  14.640  64.599  1.00  0.00    -0.394 OA 
HETATM    6  C   UNL     1     -10.936  15.819  64.816  1.00  0.00    -0.393 C  
HETATM    7  N   UNL     1      -9.880  15.624  65.635  1.00  0.00    -0.339 N  
HETATM    8  O   UNL     1     -11.297  16.878  64.328  1.00  0.00    -1.202 OA 
HETATM    9  C   UNL     1      -9.794  14.320  65.994  1.00  0.00    -0.314 C  
HETATM   10  C   UNL     1      -9.036  16.668  66.153  1.00  0.00    -0.286 C  
HETATM   11  O   UNL     1      -9.007  13.828  66.791  1.00  0.00    -0.238 OA 
ENDBRANCH   2   3
TORSDOF 1
ENDMDL
MODEL        6
REMARK 921   NORMALIZED FREE ENERGY PREDICTED BY IDOCK:   -4.23 KCAL/MOL
REMARK 922        TOTAL FREE ENERGY PREDICTED BY IDOCK:   -4.50 KCAL/MOL
REMARK 923 INTER-LIGAND FREE ENERGY PREDICTED BY IDOCK:   -4.47 KCAL/MOL
REMARK 924 INTRA-LIGAND FREE ENERGY PREDICTED BY IDOCK:   -0.03 KCAL/MOL
REMARK 927      BINDING AFFINITY PREDICTED BY RF-SCORE:    0.00 PKD
ROOT
HETATM    1  C   UNL     1     -11.901  11.458  69.248  1.00  0.00    -0.417 C  
HETATM    2  C   UNL     1     -11.764  12.833  68.601  1.00  0.00    -0.360 C  
ENDROOT
BRANCH   2   3
HETATM    3  C   UNL     1     -11.268  12.805  67.152  1.00  0.00    -0.292 C  
HETATM    4  C   UNL     1      -9.862  12.217  67.055  1.00  0.00    -0.212 C  
HETATM    5  O   UNL     1     -12.136  12.016  66.325  1.00  0.00    -0.596 OA 
HETATM    6  C   UNL     1     -12.445  12.732  65.202  1.00  0.00    -0.501 C  
HETATM    7  N   UNL     1     -11.956  13.987  65.297  1.00  0.00    -0.360 N  
HETATM    8  O   UNL     1     -13.089  12.266  64.276  1.00  0.00    -0.746 OA 
HETATM    9  C   UNL     1     -11.308  14.156  66.475  1.00  0.00    -0.341 C  
HETATM   10  C   UNL     1     -12.190  15.037  64.340  1.00  0.00    -0.337 C  
HETATM   11  O   UNL     1     -10.826  15.193  66.908  1.00  0.00    -0.307 OA 
ENDBRANCH   2   3
TORSDOF 1
ENDMDL
MODEL        7
REMARK 921   NORMALIZED FREE ENERGY PREDICTED BY IDOCK:   -4.22 KCAL/MOL
REMARK 922        TOTAL FREE ENERGY PREDICTED BY IDOCK:   -4.49 KCAL/MOL
REMARK 923 INTER-LIGAND FREE ENERGY PREDICTED BY IDOCK:   -4.47 KCAL/MOL
REMARK 924 INTRA-LIGAND FREE ENERGY PREDICTED BY IDOCK:   -0.02 KCAL/MOL
REMARK 927      BINDING AFFINITY PREDICTED BY RF-SCORE:    0.00 PKD
ROOT
HETATM    1  C   UNL     1      -9.918  19.203  66.309  1.00  0.00    -0.462 C  
HETATM    2  C   UNL     1     -10.635  17.993  66.899  1.00  0.00    -0.291 C  
ENDROOT
BRANCH   2   3
HETATM    3  C   UNL     1     -10.208  16.649  66.301  1.00  0.00    -0.334 C  
HETATM    4  C   UNL     1      -8.714  16.628  65.986  1.00  0.00    -0.239 C  
HETATM    5  O   UNL     1     -10.485  15.571  67.207  1.00  0.00    -0.268 OA 
HETATM    6  C   UNL     1     -11.142  14.582  66.529  1.00  0.00    -0.332 C  
HETATM    7  N   UNL     1     -11.440  14.992  65.277  1.00  0.00    -0.336 N  
HETATM    8  O   UNL     1     -11.413  13.504  67.030  1.00  0.00    -0.311 OA 
HETATM    9  C   UNL     1     -10.998  16.257  65.074  1.00  0.00    -0.298 C  
HETATM   10  C   UNL     1     -12.222  14.242  64.329  1.00  0.00    -0.423 C  
HETATM   11  O   UNL     1     -11.181  16.949  64.083  1.00  0.00    -1.176 OA 
ENDBRANCH   2   3
TORSDOF 1
ENDMDL
MODEL        8
REMARK 921   NORMALIZED FREE ENERGY PREDICTED BY IDOCK:   -4.20 KCAL/MOL
REMARK 922        TOTAL FREE ENERGY PREDICTED BY IDOCK:   -4.47 KCAL/MOL
REMARK 923 INTER-LIGAND FREE ENERGY PREDICTED BY IDOCK:   -4.41 KCAL/MOL
REMARK 924 INTRA-LIGAND FREE ENERGY PREDICTED BY IDOCK:   -0.06 KCAL/MOL
REMARK 927      BINDING AFFINITY PREDICTED BY RF-SCORE:    0.00 PKD
ROOT
HETATM    1  C   UNL     1      -8.919  15.514  66.369  1.00  0.00    -0.359 C  
HETATM    2  C   UNL     1      -9.514  14.221  66.916  1.00  0.00    -0.272 C  
ENDROOT
BRANCH   2   3
HETATM    3  C   UNL     1     -10.975  13.981  66.523  1.00  0.00    -0.306 C  
HETATM    4  C   UNL     1     -11.882  13.932  67.751  1.00  0.00    -0.415 C  
HETATM    5  O   UNL     1     -11.455  15.021  65.659  1.00  0.00    -0.331 OA 
HETATM    6  C   UNL     1     -12.064  14.449  64.577  1.00  0.00    -0.481 C  
HETATM    7  N   UNL     1     -11.898  13.109  64.599  1.00  0.00    -0.351 N  
HETATM    8  O   UNL     1     -12.652  15.099  63.728  1.00  0.00    -0.752 OA 
HETATM    9  C   UNL     1     -11.177  12.739  65.686  1.00  0.00    -0.301 C  
HETATM   10  C   UNL     1     -12.319  12.209  63.558  1.00  0.00    -0.574 C  
HETATM   11  O   UNL     1     -10.780  11.614  65.956  1.00  0.00    -0.264 OA 
ENDBRANCH   2   3
TORSDOF 1
ENDMDL
MODEL        9
REMARK 921   NORMALIZED FREE ENERGY PREDICTED BY IDOCK:   -4.18 KCAL/MOL
REMARK 922        TOTAL FREE ENERGY PREDICTED BY IDOCK:   -4.44 KCAL/MOL
REMARK 923 INTER-LIGAND FREE ENERGY PREDICTED BY IDOCK:   -4.35 KCAL/MOL
REMARK 924 INTRA-LIGAND FREE ENERGY PREDICTED BY IDOCK:   -0.10 KCAL/MOL
REMARK 927      BINDING AFFINITY PREDICTED BY RF-SCORE:    0.00 PKD
ROOT
HETATM    1  C   UNL     1     -11.675  11.685  68.578  1.00  0.00    -0.378 C  
HETATM    2  C   UNL     1     -11.093  10.990  67.351  1.00  0.00    -0.370 C  
ENDROOT
BRANCH   2   3
HETATM    3  C   UNL     1     -11.078  11.850  66.084  1.00  0.00    -0.326 C  
HETATM    4  C   UNL     1     -10.511  11.080  64.894  1.00  0.00    -0.371 C  
HETATM    5  O   UNL     1     -12.402  12.284  65.739  1.00  0.00    -0.622 OA 
HETATM    6  C   UNL     1     -12.379  13.631  65.507  1.00  0.00    -0.482 C  
HETATM    7  N   UNL     1     -11.164  14.137  65.808  1.00  0.00    -0.307 N  
HETATM    8  O   UNL     1     -13.348  14.249  65.099  1.00  0.00    -0.626 OA 
HETATM    9  C   UNL     1     -10.338  13.157  66.250  1.00  0.00    -0.287 C  
HETATM   10  C   UNL     1     -10.825  15.536  65.782  1.00  0.00    -0.331 C  
HETATM   11  O   UNL     1      -9.202  13.292  66.683  1.00  0.00    -0.250 OA 
ENDBRANCH   2   3
TORSDOF 1
ENDMDL
MODEL       10
REMARK 921   NORMALIZED FREE ENERGY PREDICTED BY IDOCK:   -4.18 KCAL/MOL
REMARK 922        TOTAL FREE ENERGY PREDICTED BY IDOCK:   -4.44 KCAL/MOL
REMARK 923 INTER-LIGAND FREE ENERGY PREDICTED BY IDOCK:   -4.35 KCAL/MOL
REMARK 924 INTRA-LIGAND FREE ENERGY PREDICTED BY IDOCK:   -0.09 KCAL/MOL
REMARK 927      BINDING AFFINITY PREDICTED BY RF-SCORE:    0.00 PKD
ROOT
HETATM    1  C   UNL     1     -10.667  15.692  65.340  1.00  0.00    -0.424 C  
HETATM    2  C   UNL     1     -11.061  14.966  66.622  1.00  0.00    -0.329 C  
ENDROOT
BRANCH   2   3
HETATM    3  C   UNL     1     -11.501  13.513  66.418  1.00  0.00    -0.331 C  
HETATM    4  C   UNL     1     -11.865  12.849  67.744  1.00  0.00    -0.391 C  
HETATM    5  O   UNL     1     -12.646  13.438  65.555  1.00  0.00    -0.475 OA 
HETATM    6  C   UNL     1     -12.409  12.502  64.588  1.00  0.00    -0.474 C  
HETATM    7  N   UNL     1     -11.136  12.056  64.670  1.00  0.00    -0.312 N  
HETATM    8  O   UNL     1     -13.253  12.159  63.777  1.00  0.00    -0.763 OA 
HETATM    9  C   UNL     1     -10.482  12.672  65.684  1.00  0.00    -0.275 C  
HETATM   10  C   UNL     1     -10.521  11.145  63.740  1.00  0.00    -0.381 C  
HETATM   11  O   UNL     1      -9.299  12.559  65.972  1.00  0.00    -0.195 OA 
ENDBRANCH   2   3
TORSDOF 1
ENDMDL
MODEL       11
REMARK 921   NORMALIZED FREE ENERGY PREDICTED BY IDOCK:   -4.16 KCAL/MOL
REMARK 922        TOTAL FREE ENERGY PREDICTED BY IDOCK:   -4.42 KCAL/MOL
REMARK 923 INTER-LIGAND FREE ENERGY PREDICTED BY IDOCK:   -4.40 KCAL/MOL
REMARK 924 INTRA-LIGAND FREE ENERGY PREDICTED BY IDOCK:   -0.02 KCAL/MOL
REMARK 927      BINDING AFFINITY PREDICTED BY RF-SCORE:    0.00 PKD
ROOT
HETATM    1  C   UNL     1      -8.403  18.611  67.019  1.00  0.00    -0.274 C  
HETATM    2  C   UNL     1      -8.452  17.318  66.211  1.00  0.00    -0.278 C  
ENDROOT
BRANCH   2   3
HETATM    3  C   UNL     1      -9.794  16.583  66.273  1.00  0.00    -0.316 C  
HETATM    4  C   UNL     1     -10.505  16.830  67.602  1.00  0.00    -0.328 C  
HETATM    5  O   UNL     1     -10.667  17.011  65.217  1.00  0.00    -0.616 OA 
HETATM    6  C   UNL     1     -11.174  15.909  64.589  1.00  0.00    -0.351 C  
HETATM    7  N   UNL     1     -10.590  14.788  65.066  1.00  0.00    -0.414 N  
HETATM    8  O   UNL     1     -12.022  15.976  63.715  1.00  0.00    -0.844 OA 
HETATM    9  C   UNL     1      -9.680  15.097  66.021  1.00  0.00    -0.330 C  
HETATM   10  C   UNL     1     -10.812  13.461  64.553  1.00  0.00    -0.406 C  
HETATM   11  O   UNL     1      -8.921  14.325  66.590  1.00  0.00    -0.245 OA 
ENDBRANCH   2   3
TORSDOF 1
ENDMDL
MODEL       12
REMARK 921   NORMALIZED FREE ENERGY PREDICTED BY IDOCK:   -4.16 KCAL/MOL
REMARK 922        TOTAL FREE ENERGY PREDICTED BY IDOCK:   -4.42 KCAL/MOL
REMARK 923 INTER-LIGAND FREE ENERGY PREDICTED BY IDOCK:   -4.37 KCAL/MOL
REMARK 924 INTRA-LIGAND FREE ENERGY PREDICTED BY IDOCK:   -0.05 KCAL/MOL
REMARK 927      BINDING AFFINITY PREDICTED BY RF-SCORE:    0.00 PKD
ROOT
HETATM    1  C   UNL     1      -7.427  19.826  65.977  1.00  0.00    -0.330 C  
HETATM    2  C   UNL     1      -7.941  19.215  67.276  1.00  0.00    -0.277 C  
ENDROOT
BRANCH   2   3
HETATM    3  C   UNL     1      -9.412  18.791  67.238  1.00  0.00    -0.301 C  
HETATM    4  C   UNL     1     -10.298  19.785  67.986  1.00  0.00    -0.567 C  
HETATM    5  O   UNL     1      -9.889  18.702  65.887  1.00  0.00    -0.510 OA 
HETATM    6  C   UNL     1     -10.527  17.505  65.722  1.00  0.00    -0.207 C  
HETATM    7  N   UNL     1     -10.384  16.742  66.827  1.00  0.00    -0.300 N  
HETATM    8  O   UNL     1     -11.118  17.206  64.698  1.00  0.00    -1.036 OA 
HETATM    9  C   UNL     1      -9.651  17.393  67.762  1.00  0.00    -0.264 C  
HETATM   10  C   UNL     1     -10.839  15.382  66.953  1.00  0.00    -0.313 C  
HETATM   11  O   UNL     1      -9.268  16.951  68.836  1.00  0.00    -0.263 OA 
ENDBRANCH   2   3
TORSDOF 1
ENDMDL
MODEL       13
REMARK 921   NORMALIZED FREE ENERGY PREDICTED BY IDOCK:   -4.15 KCAL/MOL
REMARK 922        TOTAL FREE ENERGY PREDICTED BY IDOCK:   -4.42 KCAL/MOL
REMARK 923 INTER-LIGAND FREE ENERGY PREDICTED BY IDOCK:   -4.38 KCAL/MOL
REMARK 924 INTRA-LIGAND FREE ENERGY PREDICTED BY IDOCK:   -0.03 KCAL/MOL
REMARK 927      BINDING AFFINITY PREDICTED BY RF-SCORE:    0.00 PKD
ROOT
HETATM    1  C   UNL     1     -10.815  15.801  67.760  1.00  0.00    -0.316 C  
HETATM    2  C   UNL     1     -11.083  14.433  67.143  1.00  0.00    -0.318 C  
ENDROOT
BRANCH   2   3
HETATM    3  C   UNL     1     -11.114  14.423  65.612  1.00  0.00    -0.321 C  
HETATM    4  C   UNL     1     -10.986  15.834  65.042  1.00  0.00    -0.431 C  
HETATM    5  O   UNL     1     -10.041  13.632  65.079  1.00  0.00    -0.328 OA 
HETATM    6  C   UNL     1     -10.549  12.771  64.146  1.00  0.00    -0.415 C  
HETATM    7  N   UNL     1     -11.897  12.844  64.126  1.00  0.00    -0.384 N  
HETATM    8  O   UNL     1      -9.845  12.048  63.461  1.00  0.00    -0.368 OA 
HETATM    9  C   UNL     1     -12.337  13.746  65.037  1.00  0.00    -0.428 C  
HETATM   10  C   UNL     1     -12.756  11.999  63.339  1.00  0.00    -0.398 C  
HETATM   11  O   UNL     1     -13.499  13.987  65.331  1.00  0.00    -0.679 OA 
ENDBRANCH   2   3
TORSDOF 1
ENDMDL
MODEL       14
REMARK 921   NORMALIZED FREE ENERGY PREDICTED BY IDOCK:   -4.13 KCAL/MOL
REMARK 922        TOTAL FREE ENERGY PREDICTED BY IDOCK:   -4.40 KCAL/MOL
REMARK 923 INTER-LIGAND FREE ENERGY PREDICTED BY IDOCK:   -4.37 KCAL/MOL
REMARK 924 INTRA-LIGAND FREE ENERGY PREDICTED BY IDOCK:   -0.03 KCAL/MOL
REMARK 927      BINDING AFFINITY PREDICTED BY RF-SCORE:    0.00 PKD
ROOT
HETATM    1  C   UNL     1     -12.030  12.913  67.264  1.00  0.00    -0.371 C  
HETATM    2  C   UNL     1     -11.680  14.334  67.693  1.00  0.00    -0.421 C  
ENDROOT
BRANCH   2   3
HETATM    3  C   UNL     1     -10.672  15.041  66.782  1.00  0.00    -0.308 C  
HETATM    4  C   UNL     1      -9.373  14.247  66.665  1.00  0.00    -0.302 C  
HETATM    5  O   UNL     1     -11.205  15.216  65.461  1.00  0.00    -0.345 OA 
HETATM    6  C   UNL     1     -11.020  16.515  65.079  1.00  0.00    -0.210 C  
HETATM    7  N   UNL     1     -10.530  17.241  66.107  1.00  0.00    -0.318 N  
HETATM    8  O   UNL     1     -11.289  16.921  63.961  1.00  0.00    -1.109 OA 
HETATM    9  C   UNL     1     -10.371  16.461  67.205  1.00  0.00    -0.290 C  
HETATM   10  C   UNL     1     -10.318  18.664  66.084  1.00  0.00    -0.443 C  
HETATM   11  O   UNL     1     -10.029  16.824  68.321  1.00  0.00    -0.252 OA 
ENDBRANCH   2   3
TORSDOF 1
ENDMDL
MODEL       15
REMARK 921   NORMALIZED FREE ENERGY PREDICTED BY IDOCK:   -4.06 KCAL/MOL
REMARK 922        TOTAL FREE ENERGY PREDICTED BY IDOCK:   -4.31 KCAL/MOL
REMARK 923 INTER-LIGAND FREE ENERGY PREDICTED BY IDOCK:   -4.27 KCAL/MOL
REMARK 924 INTRA-LIGAND FREE ENERGY PREDICTED BY IDOCK:   -0.04 KCAL/MOL
REMARK 927      BINDING AFFINITY PREDICTED BY RF-SCORE:    0.00 PKD
ROOT
HETATM    1  C   UNL     1     -10.158  20.143  67.071  1.00  0.00    -0.599 C  
HETATM    2  C   UNL     1     -10.898  18.829  67.303  1.00  0.00    -0.408 C  
ENDROOT
BRANCH   2   3
HETATM    3  C   UNL     1     -10.114  17.579  66.892  1.00  0.00    -0.324 C  
HETATM    4  C   UNL     1      -8.655  17.910  66.587  1.00  0.00    -0.283 C  
HETATM    5  O   UNL     1     -10.136  16.591  67.932  1.00  0.00    -0.244 OA 
HETATM    6  C   UNL     1     -10.488  15.387  67.390  1.00  0.00    -0.277 C  
HETATM    7  N   UNL     1     -10.834  15.540  66.093  1.00  0.00    -0.317 N  
HETATM    8  O   UNL     1     -10.489  14.348  68.029  1.00  0.00    -0.232 OA 
HETATM    9  C   UNL     1     -10.728  16.840  65.725  1.00  0.00    -0.180 C  
HETATM   10  C   UNL     1     -11.357  14.496  65.252  1.00  0.00    -0.353 C  
HETATM   11  O   UNL     1     -11.046  17.327  64.649  1.00  0.00    -1.052 OA 
ENDBRANCH   2   3
TORSDOF 1
ENDMDL
MODEL       16
REMARK 921   NORMALIZED FREE ENERGY PREDICTED BY IDOCK:   -4.02 KCAL/MOL
REMARK 922        TOTAL FREE ENERGY PREDICTED BY IDOCK:   -4.27 KCAL/MOL
REMARK 923 INTER-LIGAND FREE ENERGY PREDICTED BY IDOCK:   -4.19 KCAL/MOL
REMARK 924 INTRA-LIGAND FREE ENERGY PREDICTED BY IDOCK:   -0.08 KCAL/MOL
REMARK 927      BINDING AFFINITY PREDICTED BY RF-SCORE:    0.00 PKD
ROOT
HETATM    1  C   UNL     1     -10.410  11.709  63.607  1.00  0.00    -0.466 C  
HETATM    2  C   UNL     1     -11.536  12.723  63.781  1.00  0.00    -0.533 C  
ENDROOT
BRANCH   2   3
HETATM    3  C   UNL     1     -11.807  13.127  65.233  1.00  0.00    -0.365 C  
HETATM    4  C   UNL     1     -12.908  14.181  65.323  1.00  0.00    -0.370 C  
HETATM    5  O   UNL     1     -12.214  11.995  66.016  1.00  0.00    -0.546 OA 
HETATM    6  C   UNL     1     -11.472  11.962  67.164  1.00  0.00    -0.319 C  
HETATM    7  N   UNL     1     -10.512  12.911  67.128  1.00  0.00    -0.237 N  
HETATM    8  O   UNL     1     -11.676  11.162  68.061  1.00  0.00    -0.517 OA 
HETATM    9  C   UNL     1     -10.575  13.606  65.966  1.00  0.00    -0.290 C  
HETATM   10  C   UNL     1      -9.488  13.086  68.125  1.00  0.00    -0.218 C  
HETATM   11  O   UNL     1      -9.800  14.471  65.583  1.00  0.00    -0.327 OA 
ENDBRANCH   2   3
TORSDOF 1
ENDMDL
MODEL       17
REMARK 921   NORMALIZED FREE ENERGY PREDICTED BY IDOCK:   -3.99 KCAL/MOL
REMARK 922        TOTAL FREE ENERGY PREDICTED BY IDOCK:   -4.25 KCAL/MOL
REMARK 923 INTER-LIGAND FREE ENERGY PREDICTED BY IDOCK:   -4.15 KCAL/MOL
REMARK 924 INTRA-LIGAND FREE ENERGY PREDICTED BY IDOCK:   -0.10 KCAL/MOL
REMARK 927      BINDING AFFINITY PREDICTED BY RF-SCORE:    0.00 PKD
ROOT
HETATM    1  C   UNL     1     -10.073  11.107  63.707  1.00  0.00    -0.416 C  
HETATM    2  C   UNL     1     -10.653  10.921  65.106  1.00  0.00    -0.268 C  
ENDROOT
BRANCH   2   3
HETATM    3  C   UNL     1     -11.065  12.224  65.799  1.00  0.00    -0.323 C  
HETATM    4  C   UNL     1     -11.533  11.970  67.230  1.00  0.00    -0.403 C  
HETATM    5  O   UNL     1      -9.969  13.150  65.849  1.00  0.00    -0.280 OA 
HETATM    6  C   UNL     1     -10.400  14.367  65.402  1.00  0.00    -0.378 C  
HETATM    7  N   UNL     1     -11.662  14.274  64.931  1.00  0.00    -0.377 N  
HETATM    8  O   UNL     1      -9.703  15.368  65.430  1.00  0.00    -0.307 OA 
HETATM    9  C   UNL     1     -12.118  13.002  65.044  1.00  0.00    -0.427 C  
HETATM   10  C   UNL     1     -12.383  15.341  64.288  1.00  0.00    -0.121 C  
HETATM   11  O   UNL     1     -13.183  12.563  64.635  1.00  0.00    -0.848 OA 
ENDBRANCH   2   3
TORSDOF 1
ENDMDL
MODEL       18
REMARK 921   NORMALIZED FREE ENERGY PREDICTED BY IDOCK:   -3.93 KCAL/MOL
REMARK 922        TOTAL FREE ENERGY PREDICTED BY IDOCK:   -4.18 KCAL/MOL
REMARK 923 INTER-LIGAND FREE ENERGY PREDICTED BY IDOCK:   -4.14 KCAL/MOL
REMARK 924 INTRA-LIGAND FREE ENERGY PREDICTED BY IDOCK:   -0.05 KCAL/MOL
REMARK 927      BINDING AFFINITY PREDICTED BY RF-SCORE:    0.00 PKD
ROOT
HETATM    1  C   UNL     1     -11.307  15.004  69.290  1.00  0.00    -0.311 C  
HETATM    2  C   UNL     1     -10.853  16.450  69.466  1.00  0.00    -0.338 C  
ENDROOT
BRANCH   2   3
HETATM    3  C   UNL     1      -9.951  16.972  68.343  1.00  0.00    -0.289 C  
HETATM    4  C   UNL     1      -8.475  16.755  68.667  1.00  0.00    -0.259 C  
HETATM    5  O   UNL     1     -10.235  16.307  67.103  1.00  0.00    -0.265 OA 
HETATM    6  C   UNL     1     -10.388  17.248  66.123  1.00  0.00    -0.317 C  
HETATM    7  N   UNL     1     -10.363  18.489  66.657  1.00  0.00    -0.390 N  
HETATM    8  O   UNL     1     -10.538  16.961  64.947  1.00  0.00    -0.702 OA 
HETATM    9  C   UNL     1     -10.195  18.424  68.000  1.00  0.00    -0.381 C  
HETATM   10  C   UNL     1     -10.602  19.705  65.925  1.00  0.00    -0.466 C  
HETATM   11  O   UNL     1     -10.214  19.357  68.789  1.00  0.00    -0.419 OA 
ENDBRANCH   2   3
TORSDOF 1
ENDMDL
MODEL       19
REMARK 921   NORMALIZED FREE ENERGY PREDICTED BY IDOCK:   -3.91 KCAL/MOL
REMARK 922        TOTAL FREE ENERGY PREDICTED BY IDOCK:   -4.16 KCAL/MOL
REMARK 923 INTER-LIGAND FREE ENERGY PREDICTED BY IDOCK:   -4.12 KCAL/MOL
REMARK 924 INTRA-LIGAND FREE ENERGY PREDICTED BY IDOCK:   -0.05 KCAL/MOL
REMARK 927      BINDING AFFINITY PREDICTED BY RF-SCORE:    0.00 PKD
ROOT
HETATM    1  C   UNL     1      -9.763  14.451  68.471  1.00  0.00    -0.225 C  
HETATM    2  C   UNL     1      -9.675  13.164  67.658  1.00  0.00    -0.213 C  
ENDROOT
BRANCH   2   3
HETATM    3  C   UNL     1     -11.020  12.648  67.139  1.00  0.00    -0.261 C  
HETATM    4  C   UNL     1     -11.650  11.655  68.113  1.00  0.00    -0.389 C  
HETATM    5  O   UNL     1     -11.947  13.727  66.945  1.00  0.00    -0.388 OA 
HETATM    6  C   UNL     1     -12.503  13.613  65.702  1.00  0.00    -0.496 C  
HETATM    7  N   UNL     1     -11.908  12.616  65.012  1.00  0.00    -0.373 N  
HETATM    8  O   UNL     1     -13.400  14.340  65.309  1.00  0.00    -0.660 OA 
HETATM    9  C   UNL     1     -10.940  12.034  65.760  1.00  0.00    -0.307 C  
HETATM   10  C   UNL     1     -12.176  12.294  63.635  1.00  0.00    -0.567 C  
HETATM   11  O   UNL     1     -10.159  11.163  65.404  1.00  0.00    -0.238 OA 
ENDBRANCH   2   3
TORSDOF 1
ENDMDL
MODEL       20
REMARK 921   NORMALIZED FREE ENERGY PREDICTED BY IDOCK:   -3.87 KCAL/MOL
REMARK 922        TOTAL FREE ENERGY PREDICTED BY IDOCK:   -4.12 KCAL/MOL
REMARK 923 INTER-LIGAND FREE ENERGY PREDICTED BY IDOCK:   -4.07 KCAL/MOL
REMARK 924 INTRA-LIGAND FREE ENERGY PREDICTED BY IDOCK:   -0.05 KCAL/MOL
REMARK 927      BINDING AFFINITY PREDICTED BY RF-SCORE:    0.00 PKD
ROOT
HETATM    1  C   UNL     1     -11.183  15.821  69.247  1.00  0.00    -0.324 C  
HETATM    2  C   UNL     1     -10.817  16.285  67.841  1.00  0.00    -0.330 C  
ENDROOT
BRANCH   2   3
HETATM    3  C   UNL     1     -10.379  15.162  66.897  1.00  0.00    -0.272 C  
HETATM    4  C   UNL     1      -8.862  14.989  66.902  1.00  0.00    -0.285 C  
HETATM    5  O   UNL     1     -10.969  13.910  67.276  1.00  0.00    -0.283 OA 
HETATM    6  C   UNL     1     -11.524  13.331  66.169  1.00  0.00    -0.328 C  
HETATM    7  N   UNL     1     -11.463  14.176  65.118  1.00  0.00    -0.323 N  
HETATM    8  O   UNL     1     -12.008  12.211  66.181  1.00  0.00    -0.593 OA 
HETATM    9  C   UNL     1     -10.871  15.340  65.479  1.00  0.00    -0.372 C  
HETATM   10  C   UNL     1     -12.049  13.928  63.827  1.00  0.00    -0.285 C  
HETATM   11  O   UNL     1     -10.738  16.342  64.790  1.00  0.00    -0.680 OA 
ENDBRANCH   2   3
TORSDOF 1
ENDMDL
MODEL       21
REMARK 921   NORMALIZED FREE ENERGY PREDICTED BY IDOCK:   -3.85 KCAL/MOL
REMARK 922        TOTAL FREE ENERGY PREDICTED BY IDOCK:   -4.10 KCAL/MOL
REMARK 923 INTER-LIGAND FREE ENERGY PREDICTED BY IDOCK:   -4.00 KCAL/MOL
REMARK 924 INTRA-LIGAND FREE ENERGY PREDICTED BY IDOCK:   -0.10 KCAL/MOL
REMARK 927      BINDING AFFINITY PREDICTED BY RF-SCORE:    0.00 PKD
ROOT
HETATM    1  C   UNL     1     -10.211  14.755  65.403  1.00  0.00    -0.415 C  
HETATM    2  C   UNL     1     -11.373  14.206  64.583  1.00  0.00    -0.374 C  
ENDROOT
BRANCH   2   3
HETATM    3  C   UNL     1     -11.365  12.684  64.411  1.00  0.00    -0.344 C  
HETATM    4  C   UNL     1     -12.534  12.213  63.549  1.00  0.00    -0.666 C  
HETATM    5  O   UNL     1     -10.149  12.242  63.789  1.00  0.00    -0.385 OA 
HETATM    6  C   UNL     1      -9.631  11.208  64.518  1.00  0.00    -0.250 C  
HETATM    7  N   UNL     1     -10.344  11.030  65.651  1.00  0.00    -0.253 N  
HETATM    8  O   UNL     1      -8.651  10.574  64.163  1.00  0.00    -0.178 OA 
HETATM    9  C   UNL     1     -11.355  11.930  65.721  1.00  0.00    -0.299 C  
HETATM   10  C   UNL     1     -10.010  10.099  66.697  1.00  0.00    -0.216 C  
HETATM   11  O   UNL     1     -12.130  12.094  66.653  1.00  0.00    -0.622 OA 
ENDBRANCH   2   3
TORSDOF 1
ENDMDL
MODEL       22
REMARK 921   NORMALIZED FREE ENERGY PREDICTED BY IDOCK:   -3.83 KCAL/MOL
REMARK 922        TOTAL FREE ENERGY PREDICTED BY IDOCK:   -4.08 KCAL/MOL
REMARK 923 INTER-LIGAND FREE ENERGY PREDICTED BY IDOCK:   -4.05 KCAL/MOL
REMARK 924 INTRA-LIGAND FREE ENERGY PREDICTED BY IDOCK:   -0.02 KCAL/MOL
REMARK 927      BINDING AFFINITY PREDICTED BY RF-SCORE:    0.00 PKD
ROOT
HETATM    1  C   UNL     1     -14.054  15.405  72.575  1.00  0.00    -0.593 C  
HETATM    2  C   UNL     1     -13.752  15.244  71.089  1.00  0.00    -0.519 C  
ENDROOT
BRANCH   2   3
HETATM    3  C   UNL     1     -12.388  14.618  70.783  1.00  0.00    -0.328 C  
HETATM    4  C   UNL     1     -11.289  15.221  71.655  1.00  0.00    -0.440 C  
HETATM    5  O   UNL     1     -12.408  13.201  71.012  1.00  0.00    -0.358 OA 
HETATM    6  C   UNL     1     -11.877  12.570  69.922  1.00  0.00    -0.303 C  
HETATM    7  N   UNL     1     -11.637  13.462  68.936  1.00  0.00    -0.291 N  
HETATM    8  O   UNL     1     -11.679  11.367  69.884  1.00  0.00    -0.294 OA 
HETATM    9  C   UNL     1     -11.996  14.709  69.326  1.00  0.00    -0.302 C  
HETATM   10  C   UNL     1     -11.179  13.124  67.614  1.00  0.00    -0.282 C  
HETATM   11  O   UNL     1     -11.988  15.723  68.644  1.00  0.00    -0.344 OA 
ENDBRANCH   2   3
TORSDOF 1
ENDMDL
MODEL       23
REMARK 921   NORMALIZED FREE ENERGY PREDICTED BY IDOCK:   -3.82 KCAL/MOL
REMARK 922        TOTAL FREE ENERGY PREDICTED BY IDOCK:   -4.06 KCAL/MOL
REMARK 923 INTER-LIGAND FREE ENERGY PREDICTED BY IDOCK:   -4.04 KCAL/MOL
REMARK 924 INTRA-LIGAND FREE ENERGY PREDICTED BY IDOCK:   -0.03 KCAL/MOL
REMARK 927      BINDING AFFINITY PREDICTED BY RF-SCORE:    0.00 PKD
ROOT
HETATM    1  C   UNL     1      -8.859  14.655  68.227  1.00  0.00    -0.176 C  
HETATM    2  C   UNL     1      -9.501  13.720  67.208  1.00  0.00    -0.236 C  
ENDROOT
BRANCH   2   3
HETATM    3  C   UNL     1     -10.851  14.200  66.668  1.00  0.00    -0.299 C  
HETATM    4  C   UNL     1     -11.849  14.443  67.799  1.00  0.00    -0.402 C  
HETATM    5  O   UNL     1     -10.707  15.425  65.934  1.00  0.00    -0.315 OA 
HETATM    6  C   UNL     1     -11.349  15.298  64.734  1.00  0.00    -0.391 C  
HETATM    7  N   UNL     1     -11.786  14.031  64.568  1.00  0.00    -0.414 N  
HETATM    8  O   UNL     1     -11.472  16.223  63.948  1.00  0.00    -0.940 OA 
HETATM    9  C   UNL     1     -11.455  13.271  65.641  1.00  0.00    -0.318 C  
HETATM   10  C   UNL     1     -12.408  13.524  63.373  1.00  0.00    -0.194 C  
HETATM   11  O   UNL     1     -11.627  12.067  65.770  1.00  0.00    -0.352 OA 
ENDBRANCH   2   3
TORSDOF 1
ENDMDL
MODEL       24
REMARK 921   NORMALIZED FREE ENERGY PREDICTED BY IDOCK:   -3.80 KCAL/MOL
REMARK 922        TOTAL FREE ENERGY PREDICTED BY IDOCK:   -4.04 KCAL/MOL
REMARK 923 INTER-LIGAND FREE ENERGY PREDICTED BY IDOCK:   -3.99 KCAL/MOL
REMARK 924 INTRA-LIGAND FREE ENERGY PREDICTED BY IDOCK:   -0.05 KCAL/MOL
REMARK 927      BINDING AFFINITY PREDICTED BY RF-SCORE:    0.00 PKD
ROOT
HETATM    1  C   UNL     1     -10.747  11.267  63.431  1.00  0.00    -0.349 C  
HETATM    2  C   UNL     1     -10.514  11.359  64.936  1.00  0.00    -0.363 C  
ENDROOT
BRANCH   2   3
HETATM    3  C   UNL     1     -11.436  12.342  65.662  1.00  0.00    -0.367 C  
HETATM    4  C   UNL     1     -12.646  12.709  64.805  1.00  0.00    -0.530 C  
HETATM    5  O   UNL     1     -11.919  11.784  66.893  1.00  0.00    -0.605 OA 
HETATM    6  C   UNL     1     -11.733  12.697  67.893  1.00  0.00    -0.358 C  
HETATM    7  N   UNL     1     -11.038  13.760  67.435  1.00  0.00    -0.290 N  
HETATM    8  O   UNL     1     -12.143  12.526  69.030  1.00  0.00    -0.259 OA 
HETATM    9  C   UNL     1     -10.734  13.598  66.124  1.00  0.00    -0.286 C  
HETATM   10  C   UNL     1     -10.576  14.855  68.248  1.00  0.00    -0.240 C  
HETATM   11  O   UNL     1     -10.043  14.333  65.433  1.00  0.00    -0.346 OA 
ENDBRANCH   2   3
TORSDOF 1
ENDMDL
MODEL       25
REMARK 921   NORMALIZED FREE ENERGY PREDICTED BY IDOCK:   -3.77 KCAL/MOL
REMARK 922        TOTAL FREE ENERGY PREDICTED BY IDOCK:   -4.01 KCAL/MOL
REMARK 923 INTER-LIGAND FREE ENERGY PREDICTED BY IDOCK:   -3.97 KCAL/MOL
REMARK 924 INTRA-LIGAND FREE ENERGY PREDICTED BY IDOCK:   -0.04 KCAL/MOL
REMARK 927      BINDING AFFINITY PREDICTED BY RF-SCORE:    0.00 PKD
ROOT
HETATM    1  C   UNL     1     -11.391   6.259  69.940  1.00  0.00    -0.504 C  
HETATM    2  C   UNL     1     -12.223   6.966  71.004  1.00  0.00    -0.427 C  
ENDROOT
BRANCH   2   3
HETATM    3  C   UNL     1     -11.605   8.264  71.534  1.00  0.00    -0.279 C  
HETATM    4  C   UNL     1     -10.595   7.987  72.646  1.00  0.00    -0.419 C  
HETATM    5  O   UNL     1     -10.928   8.977  70.488  1.00  0.00    -0.234 OA 
HETATM    6  C   UNL     1     -11.335  10.282  70.510  1.00  0.00    -0.341 C  
HETATM    7  N   UNL     1     -12.333  10.447  71.404  1.00  0.00    -0.390 N  
HETATM    8  O   UNL     1     -10.846  11.139  69.793  1.00  0.00    -0.204 OA 
HETATM    9  C   UNL     1     -12.628   9.270  72.008  1.00  0.00    -0.390 C  
HETATM   10  C   UNL     1     -13.065  11.670  71.606  1.00  0.00    -0.351 C  
HETATM   11  O   UNL     1     -13.535   9.057  72.801  1.00  0.00    -0.428 OA 
ENDBRANCH   2   3
TORSDOF 1
ENDMDL
MODEL       26
REMARK 921   NORMALIZED FREE ENERGY PREDICTED BY IDOCK:   -3.72 KCAL/MOL
REMARK 922        TOTAL FREE ENERGY PREDICTED BY IDOCK:   -3.95 KCAL/MOL
REMARK 923 INTER-LIGAND FREE ENERGY PREDICTED BY IDOCK:   -3.91 KCAL/MOL
REMARK 924 INTRA-LIGAND FREE ENERGY PREDICTED BY IDOCK:   -0.04 KCAL/MOL
REMARK 927      BINDING AFFINITY PREDICTED BY RF-SCORE:    0.00 PKD
ROOT
HETATM    1  C   UNL     1     -12.137  13.974  64.278  1.00  0.00    -0.476 C  
HETATM    2  C   UNL     1     -12.754  14.029  65.672  1.00  0.00    -0.515 C  
ENDROOT
BRANCH   2   3
HETATM    3  C   UNL     1     -11.743  13.928  66.817  1.00  0.00    -0.399 C  
HETATM    4  C   UNL     1     -10.387  14.505  66.418  1.00  0.00    -0.296 C  
HETATM    5  O   UNL     1     -12.202  14.638  67.976  1.00  0.00    -0.225 OA 
HETATM    6  C   UNL     1     -12.085  13.825  69.068  1.00  0.00    -0.322 C  
HETATM    7  N   UNL     1     -11.711  12.584  68.690  1.00  0.00    -0.311 N  
HETATM    8  O   UNL     1     -12.311  14.206  70.205  1.00  0.00    -0.322 OA 
HETATM    9  C   UNL     1     -11.567  12.521  67.344  1.00  0.00    -0.370 C  
HETATM   10  C   UNL     1     -11.598  11.452  69.573  1.00  0.00    -0.331 C  
HETATM   11  O   UNL     1     -11.322  11.527  66.676  1.00  0.00    -0.344 OA 
ENDBRANCH   2   3
TORSDOF 1
ENDMDL
MODEL       27
REMARK 921   NORMALIZED FREE ENERGY PREDICTED BY IDOCK:   -3.69 KCAL/MOL
REMARK 922        TOTAL FREE ENERGY PREDICTED BY IDOCK:   -3.93 KCAL/MOL
REMARK 923 INTER-LIGAND FREE ENERGY PREDICTED BY IDOCK:   -3.88 KCAL/MOL
REMARK 924 INTRA-LIGAND FREE ENERGY PREDICTED BY IDOCK:   -0.05 KCAL/MOL
REMARK 927      BINDING AFFINITY PREDICTED BY RF-SCORE:    0.00 PKD
ROOT
HETATM    1  C   UNL     1     -11.170   6.047  72.691  1.00  0.00    -0.326 C  
HETATM    2  C   UNL     1     -11.205   7.566  72.819  1.00  0.00    -0.403 C  
ENDROOT
BRANCH   2   3
HETATM    3  C   UNL     1     -12.234   8.255  71.917  1.00  0.00    -0.337 C  
HETATM    4  C   UNL     1     -13.325   7.284  71.473  1.00  0.00    -0.435 C  
HETATM    5  O   UNL     1     -12.865   9.350  72.598  1.00  0.00    -0.303 OA 
HETATM    6  C   UNL     1     -12.831  10.451  71.789  1.00  0.00    -0.456 C  
HETATM    7  N   UNL     1     -12.100  10.197  70.682  1.00  0.00    -0.304 N  
HETATM    8  O   UNL     1     -13.386  11.499  72.074  1.00  0.00    -0.476 OA 
HETATM    9  C   UNL     1     -11.622   8.929  70.710  1.00  0.00    -0.259 C  
HETATM   10  C   UNL     1     -11.771  11.167  69.671  1.00  0.00    -0.339 C  
HETATM   11  O   UNL     1     -10.859   8.413  69.906  1.00  0.00    -0.240 OA 
ENDBRANCH   2   3
TORSDOF 1
ENDMDL
MODEL       28
REMARK 921   NORMALIZED FREE ENERGY PREDICTED BY IDOCK:   -3.69 KCAL/MOL
REMARK 922        TOTAL FREE ENERGY PREDICTED BY IDOCK:   -3.93 KCAL/MOL
REMARK 923 INTER-LIGAND FREE ENERGY PREDICTED BY IDOCK:   -3.84 KCAL/MOL
REMARK 924 INTRA-LIGAND FREE ENERGY PREDICTED BY IDOCK:   -0.09 KCAL/MOL
REMARK 927      BINDING AFFINITY PREDICTED BY RF-SCORE:    0.00 PKD
ROOT
HETATM    1  C   UNL     1     -10.436  16.919  68.652  1.00  0.00    -0.352 C  
HETATM    2  C   UNL     1     -10.622  17.960  67.554  1.00  0.00    -0.386 C  
ENDROOT
BRANCH   2   3
HETATM    3  C   UNL     1      -9.459  18.947  67.412  1.00  0.00    -0.297 C  
HETATM    4  C   UNL     1      -9.864  20.175  66.601  1.00  0.00    -0.588 C  
HETATM    5  O   UNL     1      -9.003  19.395  68.697  1.00  0.00    -0.365 OA 
HETATM    6  C   UNL     1      -7.643  19.272  68.751  1.00  0.00    -0.358 C  
HETATM    7  N   UNL     1      -7.185  18.645  67.646  1.00  0.00    -0.215 N  
HETATM    8  O   UNL     1      -6.978  19.672  69.692  1.00  0.00    -0.330 OA 
HETATM    9  C   UNL     1      -8.212  18.328  66.820  1.00  0.00    -0.253 C  
HETATM   10  C   UNL     1      -5.816  18.257  67.426  1.00  0.00    -0.146 C  
HETATM   11  O   UNL     1      -8.151  17.684  65.783  1.00  0.00    -0.550 OA 
ENDBRANCH   2   3
TORSDOF 1
ENDMDL
MODEL       29
REMARK 921   NORMALIZED FREE ENERGY PREDICTED BY IDOCK:   -3.68 KCAL/MOL
REMARK 922        TOTAL FREE ENERGY PREDICTED BY IDOCK:   -3.92 KCAL/MOL
REMARK 923 INTER-LIGAND FREE ENERGY PREDICTED BY IDOCK:   -3.88 KCAL/MOL
REMARK 924 INTRA-LIGAND FREE ENERGY PREDICTED BY IDOCK:   -0.04 KCAL/MOL
REMARK 927      BINDING AFFINITY PREDICTED BY RF-SCORE:    0.00 PKD
ROOT
HETATM    1  C   UNL     1     -11.749   9.860  71.130  1.00  0.00    -0.478 C  
HETATM    2  C   UNL     1     -12.451  10.761  70.118  1.00  0.00    -0.357 C  
ENDROOT
BRANCH   2   3
HETATM    3  C   UNL     1     -11.516  11.412  69.095  1.00  0.00    -0.299 C  
HETATM    4  C   UNL     1     -10.076  10.937  69.272  1.00  0.00    -0.164 C  
HETATM    5  O   UNL     1     -11.923  11.102  67.754  1.00  0.00    -0.630 OA 
HETATM    6  C   UNL     1     -11.971  12.259  67.028  1.00  0.00    -0.143 C  
HETATM    7  N   UNL     1     -11.759  13.324  67.830  1.00  0.00    -0.339 N  
HETATM    8  O   UNL     1     -12.192  12.279  65.828  1.00  0.00    -0.622 OA 
HETATM    9  C   UNL     1     -11.565  12.923  69.110  1.00  0.00    -0.322 C  
HETATM   10  C   UNL     1     -11.846  14.700  67.414  1.00  0.00    -0.348 C  
HETATM   11  O   UNL     1     -11.432  13.638  70.093  1.00  0.00    -0.179 OA 
ENDBRANCH   2   3
TORSDOF 1
ENDMDL
MODEL       30
REMARK 921   NORMALIZED FREE ENERGY PREDICTED BY IDOCK:   -3.67 KCAL/MOL
REMARK 922        TOTAL FREE ENERGY PREDICTED BY IDOCK:   -3.91 KCAL/MOL
REMARK 923 INTER-LIGAND FREE ENERGY PREDICTED BY IDOCK:   -3.81 KCAL/MOL
REMARK 924 INTRA-LIGAND FREE ENERGY PREDICTED BY IDOCK:   -0.10 KCAL/MOL
REMARK 927      BINDING AFFINITY PREDICTED BY RF-SCORE:    0.00 PKD
ROOT
HETATM    1  C   UNL     1     -12.579  12.496  64.280  1.00  0.00    -0.485 C  
HETATM    2  C   UNL     1     -12.632  13.440  65.476  1.00  0.00    -0.520 C  
ENDROOT
BRANCH   2   3
HETATM    3  C   UNL     1     -11.765  13.010  66.663  1.00  0.00    -0.381 C  
HETATM    4  C   UNL     1     -12.031  13.876  67.892  1.00  0.00    -0.393 C  
HETATM    5  O   UNL     1     -12.021  11.643  67.020  1.00  0.00    -0.593 OA 
HETATM    6  C   UNL     1     -10.828  10.986  67.133  1.00  0.00    -0.282 C  
HETATM    7  N   UNL     1      -9.813  11.786  66.741  1.00  0.00    -0.196 N  
HETATM    8  O   UNL     1     -10.742   9.834  67.524  1.00  0.00    -0.264 OA 
HETATM    9  C   UNL     1     -10.285  12.996  66.354  1.00  0.00    -0.280 C  
HETATM   10  C   UNL     1      -8.437  11.378  66.633  1.00  0.00    -0.171 C  
HETATM   11  O   UNL     1      -9.642  13.915  65.867  1.00  0.00    -0.245 OA 
ENDBRANCH   2   3
TORSDOF 1
ENDMDL
MODEL       31
REMARK 921   NORMALIZED FREE ENERGY PREDICTED BY IDOCK:   -3.65 KCAL/MOL
REMARK 922        TOTAL FREE ENERGY PREDICTED BY IDOCK:   -3.88 KCAL/MOL
REMARK 923 INTER-LIGAND FREE ENERGY PREDICTED BY IDOCK:   -3.80 KCAL/MOL
REMARK 924 INTRA-LIGAND FREE ENERGY PREDICTED BY IDOCK:   -0.08 KCAL/MOL
REMARK 927      BINDING AFFINITY PREDICTED BY RF-SCORE:    0.00 PKD
ROOT
HETATM    1  C   UNL     1     -11.868  11.202  68.618  1.00  0.00    -0.357 C  
HETATM    2  C   UNL     1     -11.341  12.613  68.381  1.00  0.00    -0.329 C  
ENDROOT
BRANCH   2   3
HETATM    3  C   UNL     1     -10.762  12.848  66.983  1.00  0.00    -0.257 C  
HETATM    4  C   UNL     1      -9.758  13.998  66.980  1.00  0.00    -0.256 C  
HETATM    5  O   UNL     1     -10.092  11.674  66.499  1.00  0.00    -0.201 OA 
HETATM    6  C   UNL     1     -10.531  11.405  65.233  1.00  0.00    -0.283 C  
HETATM    7  N   UNL     1     -11.543  12.236  64.903  1.00  0.00    -0.340 N  
HETATM    8  O   UNL     1     -10.056  10.520  64.542  1.00  0.00    -0.334 OA 
HETATM    9  C   UNL     1     -11.816  13.082  65.925  1.00  0.00    -0.416 C  
HETATM   10  C   UNL     1     -12.308  12.159  63.685  1.00  0.00    -0.568 C  
HETATM   11  O   UNL     1     -12.725  13.898  65.983  1.00  0.00    -0.463 OA 
ENDBRANCH   2   3
TORSDOF 1
ENDMDL
MODEL       32
REMARK 921   NORMALIZED FREE ENERGY PREDICTED BY IDOCK:   -3.64 KCAL/MOL
REMARK 922        TOTAL FREE ENERGY PREDICTED BY IDOCK:   -3.87 KCAL/MOL
REMARK 923 INTER-LIGAND FREE ENERGY PREDICTED BY IDOCK:   -3.85 KCAL/MOL
REMARK 924 INTRA-LIGAND FREE ENERGY PREDICTED BY IDOCK:   -0.02 KCAL/MOL
REMARK 927      BINDING AFFINITY PREDICTED BY RF-SCORE:    0.00 PKD
ROOT
HETATM    1  C   UNL     1      -8.703  14.276  68.544  1.00  0.00    -0.175 C  
HETATM    2  C   UNL     1      -8.885  15.266  67.398  1.00  0.00    -0.191 C  
ENDROOT
BRANCH   2   3
HETATM    3  C   UNL     1     -10.070  16.221  67.568  1.00  0.00    -0.258 C  
HETATM    4  C   UNL     1     -11.360  15.461  67.868  1.00  0.00    -0.328 C  
HETATM    5  O   UNL     1      -9.839  17.144  68.642  1.00  0.00    -0.272 OA 
HETATM    6  C   UNL     1     -10.108  18.410  68.202  1.00  0.00    -0.382 C  
HETATM    7  N   UNL     1     -10.366  18.400  66.876  1.00  0.00    -0.374 N  
HETATM    8  O   UNL     1     -10.092  19.384  68.936  1.00  0.00    -0.428 OA 
HETATM    9  C   UNL     1     -10.278  17.140  66.385  1.00  0.00    -0.328 C  
HETATM   10  C   UNL     1     -10.583  19.573  66.070  1.00  0.00    -0.491 C  
HETATM   11  O   UNL     1     -10.370  16.798  65.215  1.00  0.00    -0.622 OA 
ENDBRANCH   2   3
TORSDOF 1
ENDMDL
MODEL       33
REMARK 921   NORMALIZED FREE ENERGY PREDICTED BY IDOCK:   -3.64 KCAL/MOL
REMARK 922        TOTAL FREE ENERGY PREDICTED BY IDOCK:   -3.87 KCAL/MOL
REMARK 923 INTER-LIGAND FREE ENERGY PREDICTED BY IDOCK:   -3.84 KCAL/MOL
REMARK 924 INTRA-LIGAND FREE ENERGY PREDICTED BY IDOCK:   -0.03 KCAL/MOL
REMARK 927      BINDING AFFINITY PREDICTED BY RF-SCORE:    0.00 PKD
ROOT
HETATM    1  C   UNL     1     -12.614  13.493  65.559  1.00  0.00    -0.531 C  
HETATM    2  C   UNL     1     -12.346  14.206  66.880  1.00  0.00    -0.293 C  
ENDROOT
BRANCH   2   3
HETATM    3  C   UNL     1     -11.005  14.943  66.943  1.00  0.00    -0.327 C  
HETATM    4  C   UNL     1      -9.830  13.970  66.886  1.00  0.00    -0.267 C  
HETATM    5  O   UNL     1     -10.871  15.864  65.851  1.00  0.00    -0.305 OA 
HETATM    6  C   UNL     1     -10.478  17.077  66.342  1.00  0.00    -0.252 C  
HETATM    7  N   UNL     1     -10.479  17.059  67.692  1.00  0.00    -0.336 N  
HETATM    8  O   UNL     1     -10.192  18.021  65.624  1.00  0.00    -0.584 OA 
HETATM    9  C   UNL     1     -10.869  15.844  68.150  1.00  0.00    -0.317 C  
HETATM   10  C   UNL     1     -10.220  18.199  68.532  1.00  0.00    -0.384 C  
HETATM   11  O   UNL     1     -11.057  15.522  69.314  1.00  0.00    -0.248 OA 
ENDBRANCH   2   3
TORSDOF 1
ENDMDL
MODEL       34
REMARK 921   NORMALIZED FREE ENERGY PREDICTED BY IDOCK:   -3.64 KCAL/MOL
REMARK 922        TOTAL FREE ENERGY PREDICTED BY IDOCK:   -3.87 KCAL/MOL
REMARK 923 INTER-LIGAND FREE ENERGY PREDICTED BY IDOCK:   -3.83 KCAL/MOL
REMARK 924 INTRA-LIGAND FREE ENERGY PREDICTED BY IDOCK:   -0.04 KCAL/MOL
REMARK 927      BINDING AFFINITY PREDICTED BY RF-SCORE:    0.00 PKD
ROOT
HETATM    1  C   UNL     1     -11.593  11.440  68.265  1.00  0.00    -0.376 C  
HETATM    2  C   UNL     1     -11.036  12.173  67.049  1.00  0.00    -0.347 C  
ENDROOT
BRANCH   2   3
HETATM    3  C   UNL     1     -11.320  13.677  67.030  1.00  0.00    -0.324 C  
HETATM    4  C   UNL     1     -12.029  14.127  68.306  1.00  0.00    -0.367 C  
HETATM    5  O   UNL     1     -10.104  14.431  66.910  1.00  0.00    -0.252 OA 
HETATM    6  C   UNL     1     -10.255  15.355  65.915  1.00  0.00    -0.344 C  
HETATM    7  N   UNL     1     -11.432  15.172  65.279  1.00  0.00    -0.307 N  
HETATM    8  O   UNL     1      -9.411  16.199  65.662  1.00  0.00    -0.420 OA 
HETATM    9  C   UNL     1     -12.106  14.128  65.820  1.00  0.00    -0.420 C  
HETATM   10  C   UNL     1     -11.862  15.901  64.115  1.00  0.00     0.028 C  
HETATM   11  O   UNL     1     -13.158  13.648  65.424  1.00  0.00    -0.704 OA 
ENDBRANCH   2   3
TORSDOF 1
ENDMDL
MODEL       35
REMARK 921   NORMALIZED FREE ENERGY PREDICTED BY IDOCK:   -3.62 KCAL/MOL
REMARK 922        TOTAL FREE ENERGY PREDICTED BY IDOCK:   -3.86 KCAL/MOL
REMARK 923 INTER-LIGAND FREE ENERGY PREDICTED BY IDOCK:   -3.76 KCAL/MOL
REMARK 924 INTRA-LIGAND FREE ENERGY PREDICTED BY IDOCK:   -0.10 KCAL/MOL
REMARK 927      BINDING AFFINITY PREDICTED BY RF-SCORE:    0.00 PKD
ROOT
HETATM    1  C   UNL     1      -8.924  15.342  66.270  1.00  0.00    -0.341 C  
HETATM    2  C   UNL     1     -10.249  15.599  65.560  1.00  0.00    -0.414 C  
ENDROOT
BRANCH   2   3
HETATM    3  C   UNL     1     -11.081  14.340  65.296  1.00  0.00    -0.335 C  
HETATM    4  C   UNL     1     -12.347  14.664  64.506  1.00  0.00    -0.416 C  
HETATM    5  O   UNL     1     -10.329  13.372  64.549  1.00  0.00    -0.413 OA 
HETATM    6  C   UNL     1     -10.435  12.158  65.168  1.00  0.00    -0.281 C  
HETATM    7  N   UNL     1     -11.088  12.287  66.343  1.00  0.00    -0.287 N  
HETATM    8  O   UNL     1      -9.975  11.132  64.695  1.00  0.00    -0.249 OA 
HETATM    9  C   UNL     1     -11.439  13.579  66.552  1.00  0.00    -0.339 C  
HETATM   10  C   UNL     1     -11.281  11.228  67.299  1.00  0.00    -0.296 C  
HETATM   11  O   UNL     1     -11.963  14.046  67.553  1.00  0.00    -0.386 OA 
ENDBRANCH   2   3
TORSDOF 1
ENDMDL
MODEL       36
REMARK 921   NORMALIZED FREE ENERGY PREDICTED BY IDOCK:   -3.62 KCAL/MOL
REMARK 922        TOTAL FREE ENERGY PREDICTED BY IDOCK:   -3.85 KCAL/MOL
REMARK 923 INTER-LIGAND FREE ENERGY PREDICTED BY IDOCK:   -3.79 KCAL/MOL
REMARK 924 INTRA-LIGAND FREE ENERGY PREDICTED BY IDOCK:   -0.06 KCAL/MOL
REMARK 927      BINDING AFFINITY PREDICTED BY RF-SCORE:    0.00 PKD
ROOT
HETATM    1  C   UNL     1     -14.386   7.987  71.581  1.00  0.00    -0.581 C  
HETATM    2  C   UNL     1     -13.144   8.615  72.205  1.00  0.00    -0.423 C  
ENDROOT
BRANCH   2   3
HETATM    3  C   UNL     1     -11.826   7.943  71.806  1.00  0.00    -0.293 C  
HETATM    4  C   UNL     1     -10.963   7.640  73.028  1.00  0.00    -0.457 C  
HETATM    5  O   UNL     1     -12.065   6.708  71.115  1.00  0.00    -0.360 OA 
HETATM    6  C   UNL     1     -11.317   6.691  69.971  1.00  0.00    -0.382 C  
HETATM    7  N   UNL     1     -10.710   7.884  69.790  1.00  0.00    -0.246 N  
HETATM    8  O   UNL     1     -11.249   5.718  69.239  1.00  0.00    -0.300 OA 
HETATM    9  C   UNL     1     -11.027   8.735  70.796  1.00  0.00    -0.247 C  
HETATM   10  C   UNL     1      -9.934   8.247  68.633  1.00  0.00    -0.190 C  
HETATM   11  O   UNL     1     -10.715   9.914  70.889  1.00  0.00    -0.311 OA 
ENDBRANCH   2   3
TORSDOF 1
ENDMDL
MODEL       37
REMARK 921   NORMALIZED FREE ENERGY PREDICTED BY IDOCK:   -3.59 KCAL/MOL
REMARK 922        TOTAL FREE ENERGY PREDICTED BY IDOCK:   -3.82 KCAL/MOL
REMARK 923 INTER-LIGAND FREE ENERGY PREDICTED BY IDOCK:   -3.73 KCAL/MOL
REMARK 924 INTRA-LIGAND FREE ENERGY PREDICTED BY IDOCK:   -0.09 KCAL/MOL
REMARK 927      BINDING AFFINITY PREDICTED BY RF-SCORE:    0.00 PKD
ROOT
HETATM    1  C   UNL     1      -8.294  14.078  67.213  1.00  0.00    -0.209 C  
HETATM    2  C   UNL     1      -9.663  13.677  66.672  1.00  0.00    -0.287 C  
ENDROOT
BRANCH   2   3
HETATM    3  C   UNL     1     -10.791  14.654  67.016  1.00  0.00    -0.304 C  
HETATM    4  C   UNL     1     -12.131  14.177  66.461  1.00  0.00    -0.481 C  
HETATM    5  O   UNL     1     -10.928  14.804  68.437  1.00  0.00    -0.238 OA 
HETATM    6  C   UNL     1     -10.970  16.137  68.738  1.00  0.00    -0.330 C  
HETATM    7  N   UNL     1     -10.731  16.874  67.632  1.00  0.00    -0.321 N  
HETATM    8  O   UNL     1     -11.182  16.554  69.864  1.00  0.00    -0.303 OA 
HETATM    9  C   UNL     1     -10.521  16.070  66.562  1.00  0.00    -0.302 C  
HETATM   10  C   UNL     1     -10.596  18.308  67.612  1.00  0.00    -0.405 C  
HETATM   11  O   UNL     1     -10.197  16.416  65.435  1.00  0.00    -0.546 OA 
ENDBRANCH   2   3
TORSDOF 1
ENDMDL
MODEL       38
REMARK 921   NORMALIZED FREE ENERGY PREDICTED BY IDOCK:   -3.57 KCAL/MOL
REMARK 922        TOTAL FREE ENERGY PREDICTED BY IDOCK:   -3.80 KCAL/MOL
REMARK 923 INTER-LIGAND FREE ENERGY PREDICTED BY IDOCK:   -3.78 KCAL/MOL
REMARK 924 INTRA-LIGAND FREE ENERGY PREDICTED BY IDOCK:   -0.03 KCAL/MOL
REMARK 927      BINDING AFFINITY PREDICTED BY RF-SCORE:    0.00 PKD
ROOT
HETATM    1  C   UNL     1     -14.398   7.229  71.694  1.00  0.00    -0.583 C  
HETATM    2  C   UNL     1     -13.540   8.443  71.351  1.00  0.00    -0.263 C  
ENDROOT
BRANCH   2   3
HETATM    3  C   UNL     1     -12.033   8.219  71.506  1.00  0.00    -0.296 C  
HETATM    4  C   UNL     1     -11.232   9.361  70.886  1.00  0.00    -0.393 C  
HETATM    5  O   UNL     1     -11.666   8.121  72.891  1.00  0.00    -0.373 OA 
HETATM    6  C   UNL     1     -10.885   7.013  73.063  1.00  0.00    -0.309 C  
HETATM    7  N   UNL     1     -10.826   6.299  71.919  1.00  0.00    -0.233 N  
HETATM    8  O   UNL     1     -10.349   6.740  74.124  1.00  0.00    -0.368 OA 
HETATM    9  C   UNL     1     -11.560   6.896  70.948  1.00  0.00    -0.337 C  
HETATM   10  C   UNL     1     -10.178   5.021  71.777  1.00  0.00    -0.207 C  
HETATM   11  O   UNL     1     -11.784   6.466  69.826  1.00  0.00    -0.414 OA 
ENDBRANCH   2   3
TORSDOF 1
ENDMDL
MODEL       39
REMARK 921   NORMALIZED FREE ENERGY PREDICTED BY IDOCK:   -3.55 KCAL/MOL
REMARK 922        TOTAL FREE ENERGY PREDICTED BY IDOCK:   -3.78 KCAL/MOL
REMARK 923 INTER-LIGAND FREE ENERGY PREDICTED BY IDOCK:   -3.72 KCAL/MOL
REMARK 924 INTRA-LIGAND FREE ENERGY PREDICTED BY IDOCK:   -0.06 KCAL/MOL
REMARK 927      BINDING AFFINITY PREDICTED BY RF-SCORE:    0.00 PKD
ROOT
HETATM    1  C   UNL     1     -10.093   8.638  67.274  1.00  0.00    -0.310 C  
HETATM    2  C   UNL     1     -10.550  10.072  67.519  1.00  0.00    -0.336 C  
ENDROOT
BRANCH   2   3
HETATM    3  C   UNL     1     -10.128  11.066  66.433  1.00  0.00    -0.229 C  
HETATM    4  C   UNL     1      -9.069  12.039  66.947  1.00  0.00    -0.196 C  
HETATM    5  O   UNL     1      -9.587  10.385  65.292  1.00  0.00    -0.216 OA 
HETATM    6  C   UNL     1     -10.188  10.867  64.163  1.00  0.00    -0.359 C  
HETATM    7  N   UNL     1     -11.184  11.718  64.491  1.00  0.00    -0.321 N  
HETATM    8  O   UNL     1      -9.849  10.536  63.039  1.00  0.00    -0.315 OA 
HETATM    9  C   UNL     1     -11.286  11.834  65.837  1.00  0.00    -0.290 C  
HETATM   10  C   UNL     1     -12.091  12.325  63.552  1.00  0.00    -0.553 C  
HETATM   11  O   UNL     1     -12.135  12.456  66.460  1.00  0.00    -0.599 OA 
ENDBRANCH   2   3
TORSDOF 1
ENDMDL
MODEL       40
REMARK 921   NORMALIZED FREE ENERGY PREDICTED BY IDOCK:   -3.55 KCAL/MOL
REMARK 922        TOTAL FREE ENERGY PREDICTED BY IDOCK:   -3.78 KCAL/MOL
REMARK 923 INTER-LIGAND FREE ENERGY PREDICTED BY IDOCK:   -4.14 KCAL/MOL
REMARK 924 INTRA-LIGAND FREE ENERGY PREDICTED BY IDOCK:    0.36 KCAL/MOL
REMARK 927      BINDING AFFINITY PREDICTED BY RF-SCORE:    0.00 PKD
ROOT
HETATM    1  C   UNL     1     -11.218  13.870  68.652  1.00  0.00    -0.298 C  
HETATM    2  C   UNL     1     -11.570  13.242  67.308  1.00  0.00    -0.404 C  
ENDROOT
BRANCH   2   3
HETATM    3  C   UNL     1     -10.737  13.756  66.130  1.00  0.00    -0.283 C  
HETATM    4  C   UNL     1     -10.316  12.617  65.204  1.00  0.00    -0.312 C  
HETATM    5  O   UNL     1     -11.477  14.709  65.352  1.00  0.00    -0.340 OA 
HETATM    6  C   UNL     1     -10.699  15.815  65.153  1.00  0.00    -0.435 C  
HETATM    7  N   UNL     1      -9.552  15.715  65.860  1.00  0.00    -0.342 N  
HETATM    8  O   UNL     1     -11.039  16.744  64.439  1.00  0.00    -1.072 OA 
HETATM    9  C   UNL     1      -9.522  14.551  66.553  1.00  0.00    -0.289 C  
HETATM   10  C   UNL     1      -8.556  16.749  65.963  1.00  0.00    -0.178 C  
HETATM   11  O   UNL     1      -8.669  14.193  67.353  1.00  0.00    -0.186 OA 
ENDBRANCH   2   3
TORSDOF 1
ENDMDL
MODEL       41
REMARK 921   NORMALIZED FREE ENERGY PREDICTED BY IDOCK:   -3.54 KCAL/MOL
REMARK 922        TOTAL FREE ENERGY PREDICTED BY IDOCK:   -3.76 KCAL/MOL
REMARK 923 INTER-LIGAND FREE ENERGY PREDICTED BY IDOCK:   -3.73 KCAL/MOL
REMARK 924 INTRA-LIGAND FREE ENERGY PREDICTED BY IDOCK:   -0.04 KCAL/MOL
REMARK 927      BINDING AFFINITY PREDICTED BY RF-SCORE:    0.00 PKD
ROOT
HETATM    1  C   UNL     1     -10.055  15.179  65.423  1.00  0.00    -0.384 C  
HETATM    2  C   UNL     1      -9.970  14.490  66.782  1.00  0.00    -0.267 C  
ENDROOT
BRANCH   2   3
HETATM    3  C   UNL     1     -11.293  13.896  67.274  1.00  0.00    -0.323 C  
HETATM    4  C   UNL     1     -12.403  14.069  66.239  1.00  0.00    -0.482 C  
HETATM    5  O   UNL     1     -11.159  12.494  67.550  1.00  0.00    -0.243 OA 
HETATM    6  C   UNL     1     -11.680  12.235  68.787  1.00  0.00    -0.340 C  
HETATM    7  N   UNL     1     -12.021  13.388  69.402  1.00  0.00    -0.321 N  
HETATM    8  O   UNL     1     -11.788  11.107  69.236  1.00  0.00    -0.301 OA 
HETATM    9  C   UNL     1     -11.743  14.450  68.607  1.00  0.00    -0.332 C  
HETATM   10  C   UNL     1     -12.500  13.489  70.756  1.00  0.00    -0.353 C  
HETATM   11  O   UNL     1     -11.852  15.633  68.896  1.00  0.00    -0.379 OA 
ENDBRANCH   2   3
TORSDOF 1
ENDMDL
MODEL       42
REMARK 921   NORMALIZED FREE ENERGY PREDICTED BY IDOCK:   -3.51 KCAL/MOL
REMARK 922        TOTAL FREE ENERGY PREDICTED BY IDOCK:   -3.73 KCAL/MOL
REMARK 923 INTER-LIGAND FREE ENERGY PREDICTED BY IDOCK:   -3.69 KCAL/MOL
REMARK 924 INTRA-LIGAND FREE ENERGY PREDICTED BY IDOCK:   -0.04 KCAL/MOL
REMARK 927      BINDING AFFINITY PREDICTED BY RF-SCORE:    0.00 PKD
ROOT
HETATM    1  C   UNL     1      -9.263  10.034  69.229  1.00  0.00    -0.212 C  
HETATM    2  C   UNL     1     -10.073   8.824  69.682  1.00  0.00    -0.204 C  
ENDROOT
BRANCH   2   3
HETATM    3  C   UNL     1     -10.745   8.987  71.049  1.00  0.00    -0.269 C  
HETATM    4  C   UNL     1      -9.756   8.749  72.188  1.00  0.00    -0.335 C  
HETATM    5  O   UNL     1     -11.288  10.307  71.203  1.00  0.00    -0.314 OA 
HETATM    6  C   UNL     1     -12.578  10.204  71.645  1.00  0.00    -0.434 C  
HETATM    7  N   UNL     1     -12.966   8.910  71.660  1.00  0.00    -0.339 N  
HETATM    8  O   UNL     1     -13.250  11.173  71.956  1.00  0.00    -0.493 OA 
HETATM    9  C   UNL     1     -11.961   8.108  71.232  1.00  0.00    -0.291 C  
HETATM   10  C   UNL     1     -14.295   8.453  71.969  1.00  0.00    -0.464 C  
HETATM   11  O   UNL     1     -12.012   6.901  71.046  1.00  0.00    -0.339 OA 
ENDBRANCH   2   3
TORSDOF 1
ENDMDL
MODEL       43
REMARK 921   NORMALIZED FREE ENERGY PREDICTED BY IDOCK:   -3.49 KCAL/MOL
REMARK 922        TOTAL FREE ENERGY PREDICTED BY IDOCK:   -3.72 KCAL/MOL
REMARK 923 INTER-LIGAND FREE ENERGY PREDICTED BY IDOCK:   -3.66 KCAL/MOL
REMARK 924 INTRA-LIGAND FREE ENERGY PREDICTED BY IDOCK:   -0.06 KCAL/MOL
REMARK 927      BINDING AFFINITY PREDICTED BY RF-SCORE:    0.00 PKD
ROOT
HETATM    1  C   UNL     1     -10.380  16.600  67.796  1.00  0.00    -0.306 C  
HETATM    2  C   UNL     1     -10.014  15.163  68.151  1.00  0.00    -0.221 C  
ENDROOT
BRANCH   2   3
HETATM    3  C   UNL     1     -10.947  14.105  67.555  1.00  0.00    -0.283 C  
HETATM    4  C   UNL     1     -11.707  13.353  68.645  1.00  0.00    -0.384 C  
HETATM    5  O   UNL     1     -11.911  14.704  66.677  1.00  0.00    -0.368 OA 
HETATM    6  C   UNL     1     -11.928  14.009  65.500  1.00  0.00    -0.384 C  
HETATM    7  N   UNL     1     -10.946  13.082  65.490  1.00  0.00    -0.272 N  
HETATM    8  O   UNL     1     -12.726  14.239  64.606  1.00  0.00    -0.655 OA 
HETATM    9  C   UNL     1     -10.243  13.123  66.647  1.00  0.00    -0.259 C  
HETATM   10  C   UNL     1     -10.612  12.248  64.365  1.00  0.00    -0.327 C  
HETATM   11  O   UNL     1      -9.241  12.477  66.923  1.00  0.00    -0.200 OA 
ENDBRANCH   2   3
TORSDOF 1
ENDMDL
MODEL       44
REMARK 921   NORMALIZED FREE ENERGY PREDICTED BY IDOCK:   -3.49 KCAL/MOL
REMARK 922        TOTAL FREE ENERGY PREDICTED BY IDOCK:   -3.72 KCAL/MOL
REMARK 923 INTER-LIGAND FREE ENERGY PREDICTED BY IDOCK:   -3.69 KCAL/MOL
REMARK 924 INTRA-LIGAND FREE ENERGY PREDICTED BY IDOCK:   -0.02 KCAL/MOL
REMARK 927      BINDING AFFINITY PREDICTED BY RF-SCORE:    0.00 PKD
ROOT
HETATM    1  C   UNL     1      -5.224  18.495  65.236  1.00  0.00    -0.210 C  
HETATM    2  C   UNL     1      -6.267  18.270  66.326  1.00  0.00    -0.234 C  
ENDROOT
BRANCH   2   3
HETATM    3  C   UNL     1      -7.157  19.482  66.612  1.00  0.00    -0.215 C  
HETATM    4  C   UNL     1      -6.381  20.790  66.472  1.00  0.00    -0.313 C  
HETATM    5  O   UNL     1      -8.271  19.529  65.709  1.00  0.00    -0.427 OA 
HETATM    6  C   UNL     1      -9.417  19.715  66.430  1.00  0.00    -0.395 C  
HETATM    7  N   UNL     1      -9.153  19.656  67.753  1.00  0.00    -0.318 N  
HETATM    8  O   UNL     1     -10.506  19.892  65.909  1.00  0.00    -0.503 OA 
HETATM    9  C   UNL     1      -7.833  19.429  67.963  1.00  0.00    -0.302 C  
HETATM   10  C   UNL     1     -10.145  19.704  68.795  1.00  0.00    -0.437 C  
HETATM   11  O   UNL     1      -7.282  19.237  69.038  1.00  0.00    -0.340 OA 
ENDBRANCH   2   3
TORSDOF 1
ENDMDL
MODEL       45
REMARK 921   NORMALIZED FREE ENERGY PREDICTED BY IDOCK:   -3.49 KCAL/MOL
REMARK 922        TOTAL FREE ENERGY PREDICTED BY IDOCK:   -3.71 KCAL/MOL
REMARK 923 INTER-LIGAND FREE ENERGY PREDICTED BY IDOCK:   -3.65 KCAL/MOL
REMARK 924 INTRA-LIGAND FREE ENERGY PREDICTED BY IDOCK:   -0.06 KCAL/MOL
REMARK 927      BINDING AFFINITY PREDICTED BY RF-SCORE:    0.00 PKD
ROOT
HETATM    1  C   UNL     1     -11.248  11.600  67.642  1.00  0.00    -0.345 C  
HETATM    2  C   UNL     1     -11.638  12.049  66.238  1.00  0.00    -0.378 C  
ENDROOT
BRANCH   2   3
HETATM    3  C   UNL     1     -11.827  13.561  66.085  1.00  0.00    -0.389 C  
HETATM    4  C   UNL     1     -13.074  13.887  65.266  1.00  0.00    -0.205 C  
HETATM    5  O   UNL     1     -11.959  14.196  67.365  1.00  0.00    -0.395 OA 
HETATM    6  C   UNL     1     -11.113  15.268  67.415  1.00  0.00    -0.326 C  
HETATM    7  N   UNL     1     -10.333  15.301  66.313  1.00  0.00    -0.281 N  
HETATM    8  O   UNL     1     -11.089  16.050  68.351  1.00  0.00    -0.318 OA 
HETATM    9  C   UNL     1     -10.626  14.262  65.493  1.00  0.00    -0.340 C  
HETATM   10  C   UNL     1      -9.259  16.234  66.091  1.00  0.00    -0.341 C  
HETATM   11  O   UNL     1     -10.049  13.955  64.460  1.00  0.00    -0.331 OA 
ENDBRANCH   2   3
TORSDOF 1
ENDMDL
MODEL       46
REMARK 921   NORMALIZED FREE ENERGY PREDICTED BY IDOCK:   -3.48 KCAL/MOL
REMARK 922        TOTAL FREE ENERGY PREDICTED BY IDOCK:   -3.71 KCAL/MOL
REMARK 923 INTER-LIGAND FREE ENERGY PREDICTED BY IDOCK:   -3.61 KCAL/MOL
REMARK 924 INTRA-LIGAND FREE ENERGY PREDICTED BY IDOCK:   -0.10 KCAL/MOL
REMARK 927      BINDING AFFINITY PREDICTED BY RF-SCORE:    0.00 PKD
ROOT
HETATM    1  C   UNL     1      -8.539  16.294  68.889  1.00  0.00    -0.260 C  
HETATM    2  C   UNL     1      -9.717  17.237  68.666  1.00  0.00    -0.301 C  
ENDROOT
BRANCH   2   3
HETATM    3  C   UNL     1      -9.336  18.596  68.071  1.00  0.00    -0.312 C  
HETATM    4  C   UNL     1     -10.529  19.549  68.047  1.00  0.00    -0.528 C  
HETATM    5  O   UNL     1      -8.289  19.217  68.831  1.00  0.00    -0.360 OA 
HETATM    6  C   UNL     1      -7.311  19.637  67.973  1.00  0.00    -0.285 C  
HETATM    7  N   UNL     1      -7.575  19.213  66.718  1.00  0.00    -0.232 N  
HETATM    8  O   UNL     1      -6.345  20.287  68.337  1.00  0.00    -0.273 OA 
HETATM    9  C   UNL     1      -8.728  18.500  66.691  1.00  0.00    -0.287 C  
HETATM   10  C   UNL     1      -6.699  19.386  65.588  1.00  0.00    -0.275 C  
HETATM   11  O   UNL     1      -9.203  17.908  65.733  1.00  0.00    -0.498 OA 
ENDBRANCH   2   3
TORSDOF 1
ENDMDL
MODEL       47
REMARK 921   NORMALIZED FREE ENERGY PREDICTED BY IDOCK:   -3.47 KCAL/MOL
REMARK 922        TOTAL FREE ENERGY PREDICTED BY IDOCK:   -3.70 KCAL/MOL
REMARK 923 INTER-LIGAND FREE ENERGY PREDICTED BY IDOCK:   -3.60 KCAL/MOL
REMARK 924 INTRA-LIGAND FREE ENERGY PREDICTED BY IDOCK:   -0.10 KCAL/MOL
REMARK 927      BINDING AFFINITY PREDICTED BY RF-SCORE:    0.00 PKD
ROOT
HETATM    1  C   UNL     1      -9.571  15.163  67.640  1.00  0.00    -0.206 C  
HETATM    2  C   UNL     1      -8.270  15.685  67.038  1.00  0.00    -0.268 C  
ENDROOT
BRANCH   2   3
HETATM    3  C   UNL     1      -8.318  17.152  66.602  1.00  0.00    -0.251 C  
HETATM    4  C   UNL     1      -6.994  17.592  65.980  1.00  0.00    -0.318 C  
HETATM    5  O   UNL     1      -9.355  17.369  65.634  1.00  0.00    -0.496 OA 
HETATM    6  C   UNL     1     -10.099  18.449  66.019  1.00  0.00    -0.279 C  
HETATM    7  N   UNL     1      -9.711  18.874  67.241  1.00  0.00    -0.304 N  
HETATM    8  O   UNL     1     -10.988  18.921  65.329  1.00  0.00    -0.521 OA 
HETATM    9  C   UNL     1      -8.704  18.100  67.714  1.00  0.00    -0.255 C  
HETATM   10  C   UNL     1     -10.352  19.922  67.991  1.00  0.00    -0.408 C  
HETATM   11  O   UNL     1      -8.186  18.162  68.820  1.00  0.00    -0.296 OA 
ENDBRANCH   2   3
TORSDOF 1
ENDMDL
MODEL       48
REMARK 921   NORMALIZED FREE ENERGY PREDICTED BY IDOCK:   -3.46 KCAL/MOL
REMARK 922        TOTAL FREE ENERGY PREDICTED BY IDOCK:   -3.69 KCAL/MOL
REMARK 923 INTER-LIGAND FREE ENERGY PREDICTED BY IDOCK:   -3.64 KCAL/MOL
REMARK 924 INTRA-LIGAND FREE ENERGY PREDICTED BY IDOCK:   -0.05 KCAL/MOL
REMARK 927      BINDING AFFINITY PREDICTED BY RF-SCORE:    0.00 PKD
ROOT
HETATM    1  C   UNL     1     -11.357  11.801  63.633  1.00  0.00    -0.525 C  
HETATM    2  C   UNL     1     -10.513  12.875  64.311  1.00  0.00    -0.430 C  
ENDROOT
BRANCH   2   3
HETATM    3  C   UNL     1     -10.605  12.883  65.840  1.00  0.00    -0.269 C  
HETATM    4  C   UNL     1     -10.978  11.506  66.384  1.00  0.00    -0.336 C  
HETATM    5  O   UNL     1      -9.355  13.269  66.430  1.00  0.00    -0.245 OA 
HETATM    6  C   UNL     1      -9.588  14.242  67.361  1.00  0.00    -0.214 C  
HETATM    7  N   UNL     1     -10.884  14.622  67.327  1.00  0.00    -0.298 N  
HETATM    8  O   UNL     1      -8.715  14.685  68.088  1.00  0.00    -0.156 OA 
HETATM    9  C   UNL     1     -11.558  13.925  66.381  1.00  0.00    -0.367 C  
HETATM   10  C   UNL     1     -11.447  15.699  68.099  1.00  0.00    -0.322 C  
HETATM   11  O   UNL     1     -12.720  14.086  66.038  1.00  0.00    -0.475 OA 
ENDBRANCH   2   3
TORSDOF 1
ENDMDL
MODEL       49
REMARK 921   NORMALIZED FREE ENERGY PREDICTED BY IDOCK:   -3.46 KCAL/MOL
REMARK 922        TOTAL FREE ENERGY PREDICTED BY IDOCK:   -3.68 KCAL/MOL
REMARK 923 INTER-LIGAND FREE ENERGY PREDICTED BY IDOCK:   -3.64 KCAL/MOL
REMARK 924 INTRA-LIGAND FREE ENERGY PREDICTED BY IDOCK:   -0.04 KCAL/MOL
REMARK 927      BINDING AFFINITY PREDICTED BY RF-SCORE:    0.00 PKD
ROOT
HETATM    1  C   UNL     1      -8.876   6.809  71.748  1.00  0.00    -0.128 C  
HETATM    2  C   UNL     1     -10.054   7.384  72.529  1.00  0.00    -0.237 C  
ENDROOT
BRANCH   2   3
HETATM    3  C   UNL     1     -11.266   7.751  71.668  1.00  0.00    -0.248 C  
HETATM    4  C   UNL     1     -11.392   6.828  70.458  1.00  0.00    -0.394 C  
HETATM    5  O   UNL     1     -12.483   7.659  72.424  1.00  0.00    -0.201 OA 
HETATM    6  C   UNL     1     -13.204   8.805  72.242  1.00  0.00    -0.412 C  
HETATM    7  N   UNL     1     -12.486   9.702  71.531  1.00  0.00    -0.359 N  
HETATM    8  O   UNL     1     -14.328   8.958  72.689  1.00  0.00    -0.613 OA 
HETATM    9  C   UNL     1     -11.270   9.194  71.216  1.00  0.00    -0.337 C  
HETATM   10  C   UNL     1     -12.900  11.052  71.250  1.00  0.00    -0.425 C  
HETATM   11  O   UNL     1     -10.352   9.776  70.656  1.00  0.00    -0.289 OA 
ENDBRANCH   2   3
TORSDOF 1
ENDMDL
MODEL       50
REMARK 921   NORMALIZED FREE ENERGY PREDICTED BY IDOCK:   -3.41 KCAL/MOL
REMARK 922        TOTAL FREE ENERGY PREDICTED BY IDOCK:   -3.63 KCAL/MOL
REMARK 923 INTER-LIGAND FREE ENERGY PREDICTED BY IDOCK:   -3.58 KCAL/MOL
REMARK 924 INTRA-LIGAND FREE ENERGY PREDICTED BY IDOCK:   -0.05 KCAL/MOL
REMARK 927      BINDING AFFINITY PREDICTED BY RF-SCORE:    0.00 PKD
ROOT
HETATM    1  C   UNL     1     -11.568  12.233  66.704  1.00  0.00    -0.438 C  
HETATM    2  C   UNL     1     -11.904  13.655  67.140  1.00  0.00    -0.435 C  
ENDROOT
BRANCH   2   3
HETATM    3  C   UNL     1     -10.965  14.231  68.204  1.00  0.00    -0.246 C  
HETATM    4  C   UNL     1      -9.649  13.458  68.263  1.00  0.00    -0.220 C  
HETATM    5  O   UNL     1     -10.658  15.606  67.931  1.00  0.00    -0.264 OA 
HETATM    6  C   UNL     1     -10.850  16.335  69.071  1.00  0.00    -0.315 C  
HETATM    7  N   UNL     1     -11.393  15.562  70.036  1.00  0.00    -0.291 N  
HETATM    8  O   UNL     1     -10.569  17.520  69.155  1.00  0.00    -0.297 OA 
HETATM    9  C   UNL     1     -11.583  14.300  69.581  1.00  0.00    -0.296 C  
HETATM   10  C   UNL     1     -11.822  16.034  71.327  1.00  0.00    -0.449 C  
HETATM   11  O   UNL     1     -12.131  13.380  70.172  1.00  0.00    -0.333 OA 
ENDBRANCH   2   3
TORSDOF 1
ENDMDL
MODEL       51
REMARK 921   NORMALIZED FREE ENERGY PREDICTED BY IDOCK:   -3.40 KCAL/MOL
REMARK 922        TOTAL FREE ENERGY PREDICTED BY IDOCK:   -3.62 KCAL/MOL
REMARK 923 INTER-LIGAND FREE ENERGY PREDICTED BY IDOCK:   -3.60 KCAL/MOL
REMARK 924 INTRA-LIGAND FREE ENERGY PREDICTED BY IDOCK:   -0.02 KCAL/MOL
REMARK 927      BINDING AFFINITY PREDICTED BY RF-SCORE:    0.00 PKD
ROOT
HETATM    1  C   UNL     1     -12.503  13.884  70.934  1.00  0.00    -0.447 C  
HETATM    2  C   UNL     1     -12.055  14.658  69.698  1.00  0.00    -0.355 C  
ENDROOT
BRANCH   2   3
HETATM    3  C   UNL     1     -11.674  13.779  68.503  1.00  0.00    -0.356 C  
HETATM    4  C   UNL     1     -11.281  12.372  68.949  1.00  0.00    -0.330 C  
HETATM    5  O   UNL     1     -12.766  13.662  67.579  1.00  0.00     0.215 OA 
HETATM    6  C   UNL     1     -12.306  13.923  66.318  1.00  0.00    -0.449 C  
HETATM    7  N   UNL     1     -11.022  14.337  66.364  1.00  0.00    -0.307 N  
HETATM    8  O   UNL     1     -13.000  13.798  65.323  1.00  0.00    -0.731 OA 
HETATM    9  C   UNL     1     -10.579  14.370  67.645  1.00  0.00    -0.260 C  
HETATM   10  C   UNL     1     -10.264  14.796  65.230  1.00  0.00    -0.384 C  
HETATM   11  O   UNL     1      -9.496  14.779  68.038  1.00  0.00    -0.197 OA 
ENDBRANCH   2   3
TORSDOF 1
ENDMDL
MODEL       52
REMARK 921   NORMALIZED FREE ENERGY PREDICTED BY IDOCK:   -3.40 KCAL/MOL
REMARK 922        TOTAL FREE ENERGY PREDICTED BY IDOCK:   -3.62 KCAL/MOL
REMARK 923 INTER-LIGAND FREE ENERGY PREDICTED BY IDOCK:   -3.57 KCAL/MOL
REMARK 924 INTRA-LIGAND FREE ENERGY PREDICTED BY IDOCK:   -0.05 KCAL/MOL
REMARK 927      BINDING AFFINITY PREDICTED BY RF-SCORE:    0.00 PKD
ROOT
HETATM    1  C   UNL     1      -6.114  20.238  70.151  1.00  0.00    -0.369 C  
HETATM    2  C   UNL     1      -6.633  18.988  69.448  1.00  0.00    -0.320 C  
ENDROOT
BRANCH   2   3
HETATM    3  C   UNL     1      -7.422  19.264  68.165  1.00  0.00    -0.289 C  
HETATM    4  C   UNL     1      -7.075  20.631  67.579  1.00  0.00    -0.391 C  
HETATM    5  O   UNL     1      -7.145  18.271  67.166  1.00  0.00    -0.192 OA 
HETATM    6  C   UNL     1      -8.329  17.809  66.663  1.00  0.00    -0.259 C  
HETATM    7  N   UNL     1      -9.366  18.326  67.356  1.00  0.00    -0.260 N  
HETATM    8  O   UNL     1      -8.391  17.029  65.727  1.00  0.00    -0.500 OA 
HETATM    9  C   UNL     1      -8.919  19.144  68.339  1.00  0.00    -0.349 C  
HETATM   10  C   UNL     1     -10.747  17.970  67.161  1.00  0.00    -0.262 C  
HETATM   11  O   UNL     1      -9.591  19.701  69.196  1.00  0.00    -0.377 OA 
ENDBRANCH   2   3
TORSDOF 1
ENDMDL
MODEL       53
REMARK 921   NORMALIZED FREE ENERGY PREDICTED BY IDOCK:   -3.37 KCAL/MOL
REMARK 922        TOTAL FREE ENERGY PREDICTED BY IDOCK:   -3.59 KCAL/MOL
REMARK 923 INTER-LIGAND FREE ENERGY PREDICTED BY IDOCK:   -3.52 KCAL/MOL
REMARK 924 INTRA-LIGAND FREE ENERGY PREDICTED BY IDOCK:   -0.06 KCAL/MOL
REMARK 927      BINDING AFFINITY PREDICTED BY RF-SCORE:    0.00 PKD
ROOT
HETATM    1  C   UNL     1      -9.583  20.455  66.838  1.00  0.00    -0.546 C  
HETATM    2  C   UNL     1     -10.583  19.305  66.788  1.00  0.00    -0.543 C  
ENDROOT
BRANCH   2   3
HETATM    3  C   UNL     1      -9.952  17.927  66.568  1.00  0.00    -0.357 C  
HETATM    4  C   UNL     1     -10.784  17.079  65.608  1.00  0.00    -0.150 C  
HETATM    5  O   UNL     1      -8.630  18.045  66.022  1.00  0.00    -0.500 OA 
HETATM    6  C   UNL     1      -7.779  17.264  66.752  1.00  0.00    -0.244 C  
HETATM    7  N   UNL     1      -8.420  16.748  67.824  1.00  0.00    -0.191 N  
HETATM    8  O   UNL     1      -6.610  17.097  66.449  1.00  0.00    -0.222 OA 
HETATM    9  C   UNL     1      -9.710  17.163  67.850  1.00  0.00    -0.270 C  
HETATM   10  C   UNL     1      -7.795  15.968  68.860  1.00  0.00    -0.202 C  
HETATM   11  O   UNL     1     -10.534  16.947  68.727  1.00  0.00    -0.300 OA 
ENDBRANCH   2   3
TORSDOF 1
ENDMDL
MODEL       54
REMARK 921   NORMALIZED FREE ENERGY PREDICTED BY IDOCK:   -3.36 KCAL/MOL
REMARK 922        TOTAL FREE ENERGY PREDICTED BY IDOCK:   -3.57 KCAL/MOL
REMARK 923 INTER-LIGAND FREE ENERGY PREDICTED BY IDOCK:   -3.51 KCAL/MOL
REMARK 924 INTRA-LIGAND FREE ENERGY PREDICTED BY IDOCK:   -0.07 KCAL/MOL
REMARK 927      BINDING AFFINITY PREDICTED BY RF-SCORE:    0.00 PKD
ROOT
HETATM    1  C   UNL     1     -11.522  14.380  64.700  1.00  0.00    -0.390 C  
HETATM    2  C   UNL     1     -11.150  15.207  65.925  1.00  0.00    -0.319 C  
ENDROOT
BRANCH   2   3
HETATM    3  C   UNL     1     -11.216  14.443  67.251  1.00  0.00    -0.323 C  
HETATM    4  C   UNL     1     -11.709  15.336  68.387  1.00  0.00    -0.340 C  
HETATM    5  O   UNL     1     -12.105  13.320  67.154  1.00  0.00    -0.361 OA 
HETATM    6  C   UNL     1     -11.471  12.212  67.643  1.00  0.00    -0.331 C  
HETATM    7  N   UNL     1     -10.181  12.497  67.925  1.00  0.00    -0.213 N  
HETATM    8  O   UNL     1     -12.027  11.134  67.773  1.00  0.00    -0.630 OA 
HETATM    9  C   UNL     1      -9.908  13.793  67.638  1.00  0.00    -0.234 C  
HETATM   10  C   UNL     1      -9.201  11.535  68.356  1.00  0.00    -0.190 C  
HETATM   11  O   UNL     1      -8.819  14.345  67.698  1.00  0.00    -0.176 OA 
ENDBRANCH   2   3
TORSDOF 1
ENDMDL
MODEL       55
REMARK 921   NORMALIZED FREE ENERGY PREDICTED BY IDOCK:   -3.30 KCAL/MOL
REMARK 922        TOTAL FREE ENERGY PREDICTED BY IDOCK:   -3.51 KCAL/MOL
REMARK 923 INTER-LIGAND FREE ENERGY PREDICTED BY IDOCK:   -3.49 KCAL/MOL
REMARK 924 INTRA-LIGAND FREE ENERGY PREDICTED BY IDOCK:   -0.02 KCAL/MOL
REMARK 927      BINDING AFFINITY PREDICTED BY RF-SCORE:    0.00 PKD
ROOT
HETATM    1  C   UNL     1     -12.180  14.122  64.912  1.00  0.00    -0.451 C  
HETATM    2  C   UNL     1     -12.017  12.735  65.525  1.00  0.00    -0.497 C  
ENDROOT
BRANCH   2   3
HETATM    3  C   UNL     1     -11.149  12.697  66.786  1.00  0.00    -0.277 C  
HETATM    4  C   UNL     1      -9.821  13.420  66.571  1.00  0.00    -0.286 C  
HETATM    5  O   UNL     1     -11.818  13.319  67.892  1.00  0.00    -0.337 OA 
HETATM    6  C   UNL     1     -11.752  12.486  68.974  1.00  0.00    -0.318 C  
HETATM    7  N   UNL     1     -11.209  11.301  68.620  1.00  0.00    -0.226 N  
HETATM    8  O   UNL     1     -12.154  12.805  70.081  1.00  0.00    -0.342 OA 
HETATM    9  C   UNL     1     -10.895  11.298  67.301  1.00  0.00    -0.267 C  
HETATM   10  C   UNL     1     -11.089  10.158  69.487  1.00  0.00    -0.250 C  
HETATM   11  O   UNL     1     -10.469  10.356  66.649  1.00  0.00    -0.240 OA 
ENDBRANCH   2   3
TORSDOF 1
ENDMDL
MODEL       56
REMARK 921   NORMALIZED FREE ENERGY PREDICTED BY IDOCK:   -3.29 KCAL/MOL
REMARK 922        TOTAL FREE ENERGY PREDICTED BY IDOCK:   -3.51 KCAL/MOL
REMARK 923 INTER-LIGAND FREE ENERGY PREDICTED BY IDOCK:   -3.46 KCAL/MOL
REMARK 924 INTRA-LIGAND FREE ENERGY PREDICTED BY IDOCK:   -0.05 KCAL/MOL
REMARK 927      BINDING AFFINITY PREDICTED BY RF-SCORE:    0.00 PKD
ROOT
HETATM    1  C   UNL     1     -10.988   6.651  68.684  1.00  0.00    -0.317 C  
HETATM    2  C   UNL     1     -11.105   6.948  70.175  1.00  0.00    -0.344 C  
ENDROOT
BRANCH   2   3
HETATM    3  C   UNL     1     -10.788   8.396  70.560  1.00  0.00    -0.232 C  
HETATM    4  C   UNL     1      -9.383   8.524  71.144  1.00  0.00    -0.249 C  
HETATM    5  O   UNL     1     -10.873   9.264  69.419  1.00  0.00    -0.223 OA 
HETATM    6  C   UNL     1     -11.639  10.348  69.745  1.00  0.00    -0.269 C  
HETATM    7  N   UNL     1     -12.177  10.189  70.974  1.00  0.00    -0.342 N  
HETATM    8  O   UNL     1     -11.797  11.296  68.995  1.00  0.00    -0.310 OA 
HETATM    9  C   UNL     1     -11.796   9.003  71.509  1.00  0.00    -0.345 C  
HETATM   10  C   UNL     1     -13.119  11.090  71.583  1.00  0.00    -0.438 C  
HETATM   11  O   UNL     1     -12.174   8.518  72.566  1.00  0.00    -0.389 OA 
ENDBRANCH   2   3
TORSDOF 1
ENDMDL
MODEL       57
REMARK 921   NORMALIZED FREE ENERGY PREDICTED BY IDOCK:   -3.28 KCAL/MOL
REMARK 922        TOTAL FREE ENERGY PREDICTED BY IDOCK:   -3.49 KCAL/MOL
REMARK 923 INTER-LIGAND FREE ENERGY PREDICTED BY IDOCK:   -3.45 KCAL/MOL
REMARK 924 INTRA-LIGAND FREE ENERGY PREDICTED BY IDOCK:   -0.04 KCAL/MOL
REMARK 927      BINDING AFFINITY PREDICTED BY RF-SCORE:    0.00 PKD
ROOT
HETATM    1  C   UNL     1     -10.565  19.638  65.702  1.00  0.00    -0.462 C  
HETATM    2  C   UNL     1      -9.725  20.335  66.767  1.00  0.00    -0.571 C  
ENDROOT
BRANCH   2   3
HETATM    3  C   UNL     1      -8.318  19.756  66.944  1.00  0.00    -0.311 C  
HETATM    4  C   UNL     1      -8.024  18.677  65.905  1.00  0.00    -0.041 C  
HETATM    5  O   UNL     1      -7.319  20.779  66.815  1.00  0.00    -0.272 OA 
HETATM    6  C   UNL     1      -6.457  20.689  67.871  1.00  0.00    -0.312 C  
HETATM    7  N   UNL     1      -6.896  19.771  68.758  1.00  0.00    -0.318 N  
HETATM    8  O   UNL     1      -5.451  21.374  67.964  1.00  0.00    -0.296 OA 
HETATM    9  C   UNL     1      -8.058  19.218  68.332  1.00  0.00    -0.343 C  
HETATM   10  C   UNL     1      -6.286  19.499  70.033  1.00  0.00    -0.266 C  
HETATM   11  O   UNL     1      -8.758  18.420  68.939  1.00  0.00    -0.258 OA 
ENDBRANCH   2   3
TORSDOF 1
ENDMDL
MODEL       58
REMARK 921   NORMALIZED FREE ENERGY PREDICTED BY IDOCK:   -3.27 KCAL/MOL
REMARK 922        TOTAL FREE ENERGY PREDICTED BY IDOCK:   -3.48 KCAL/MOL
REMARK 923 INTER-LIGAND FREE ENERGY PREDICTED BY IDOCK:   -3.42 KCAL/MOL
REMARK 924 INTRA-LIGAND FREE ENERGY PREDICTED BY IDOCK:   -0.06 KCAL/MOL
REMARK 927      BINDING AFFINITY PREDICTED BY RF-SCORE:    0.00 PKD
ROOT
HETATM    1  C   UNL     1     -10.877   6.631  68.026  1.00  0.00    -0.345 C  
HETATM    2  C   UNL     1     -11.208   6.153  69.436  1.00  0.00    -0.466 C  
ENDROOT
BRANCH   2   3
HETATM    3  C   UNL     1     -10.972   7.196  70.531  1.00  0.00    -0.262 C  
HETATM    4  C   UNL     1      -9.949   6.709  71.555  1.00  0.00    -0.189 C  
HETATM    5  O   UNL     1     -10.489   8.428  69.975  1.00  0.00    -0.214 OA 
HETATM    6  C   UNL     1     -11.231   9.460  70.478  1.00  0.00    -0.275 C  
HETATM    7  N   UNL     1     -12.256   8.984  71.217  1.00  0.00    -0.309 N  
HETATM    8  O   UNL     1     -10.975  10.631  70.251  1.00  0.00    -0.273 OA 
HETATM    9  C   UNL     1     -12.238   7.629  71.235  1.00  0.00    -0.315 C  
HETATM   10  C   UNL     1     -13.293   9.791  71.804  1.00  0.00    -0.413 C  
HETATM   11  O   UNL     1     -13.070   6.889  71.740  1.00  0.00    -0.356 OA 
ENDBRANCH   2   3
TORSDOF 1
ENDMDL
MODEL       59
REMARK 921   NORMALIZED FREE ENERGY PREDICTED BY IDOCK:   -3.26 KCAL/MOL
REMARK 922        TOTAL FREE ENERGY PREDICTED BY IDOCK:   -3.47 KCAL/MOL
REMARK 923 INTER-LIGAND FREE ENERGY PREDICTED BY IDOCK:   -3.37 KCAL/MOL
REMARK 924 INTRA-LIGAND FREE ENERGY PREDICTED BY IDOCK:   -0.10 KCAL/MOL
REMARK 927      BINDING AFFINITY PREDICTED BY RF-SCORE:    0.00 PKD
ROOT
HETATM    1  C   UNL     1      -9.103  14.440  66.965  1.00  0.00    -0.250 C  
HETATM    2  C   UNL     1     -10.288  14.462  66.006  1.00  0.00    -0.319 C  
ENDROOT
BRANCH   2   3
HETATM    3  C   UNL     1     -11.277  13.308  66.194  1.00  0.00    -0.296 C  
HETATM    4  C   UNL     1     -12.412  13.373  65.175  1.00  0.00    -0.509 C  
HETATM    5  O   UNL     1     -10.623  12.039  66.048  1.00  0.00    -0.251 OA 
HETATM    6  C   UNL     1     -10.962  11.243  67.107  1.00  0.00    -0.291 C  
HETATM    7  N   UNL     1     -11.681  11.946  68.009  1.00  0.00    -0.326 N  
HETATM    8  O   UNL     1     -10.628  10.073  67.190  1.00  0.00    -0.241 OA 
HETATM    9  C   UNL     1     -11.847  13.224  67.592  1.00  0.00    -0.357 C  
HETATM   10  C   UNL     1     -12.109  11.446  69.290  1.00  0.00    -0.289 C  
HETATM   11  O   UNL     1     -12.373  14.138  68.212  1.00  0.00    -0.246 OA 
ENDBRANCH   2   3
TORSDOF 1
ENDMDL
MODEL       60
REMARK 921   NORMALIZED FREE ENERGY PREDICTED BY IDOCK:   -3.24 KCAL/MOL
REMARK 922        TOTAL FREE ENERGY PREDICTED BY IDOCK:   -3.45 KCAL/MOL
REMARK 923 INTER-LIGAND FREE ENERGY PREDICTED BY IDOCK:   -3.38 KCAL/MOL
REMARK 924 INTRA-LIGAND FREE ENERGY PREDICTED BY IDOCK:   -0.07 KCAL/MOL
REMARK 927      BINDING AFFINITY PREDICTED BY RF-SCORE:    0.00 PKD
ROOT
HETATM    1  C   UNL     1     -10.597  19.621  65.740  1.00  0.00    -0.537 C  
HETATM    2  C   UNL     1     -10.043  20.191  67.042  1.00  0.00    -0.599 C  
ENDROOT
BRANCH   2   3
HETATM    3  C   UNL     1      -8.777  19.494  67.550  1.00  0.00    -0.307 C  
HETATM    4  C   UNL     1      -8.775  19.381  69.073  1.00  0.00    -0.250 C  
HETATM    5  O   UNL     1      -8.664  18.170  67.008  1.00  0.00    -0.246 OA 
HETATM    6  C   UNL     1      -7.404  18.006  66.503  1.00  0.00    -0.238 C  
HETATM    7  N   UNL     1      -6.725  19.173  66.550  1.00  0.00    -0.189 N  
HETATM    8  O   UNL     1      -6.998  16.941  66.069  1.00  0.00    -0.095 OA 
HETATM    9  C   UNL     1      -7.499  20.151  67.082  1.00  0.00    -0.290 C  
HETATM   10  C   UNL     1      -5.410  19.383  66.004  1.00  0.00    -0.154 C  
HETATM   11  O   UNL     1      -7.217  21.336  67.186  1.00  0.00    -0.475 OA 
ENDBRANCH   2   3
TORSDOF 1
ENDMDL
MODEL       61
REMARK 921   NORMALIZED FREE ENERGY PREDICTED BY IDOCK:   -3.23 KCAL/MOL
REMARK 922        TOTAL FREE ENERGY PREDICTED BY IDOCK:   -3.44 KCAL/MOL
REMARK 923 INTER-LIGAND FREE ENERGY PREDICTED BY IDOCK:   -3.42 KCAL/MOL
REMARK 924 INTRA-LIGAND FREE ENERGY PREDICTED BY IDOCK:   -0.03 KCAL/MOL
REMARK 927      BINDING AFFINITY PREDICTED BY RF-SCORE:    0.00 PKD
ROOT
HETATM    1  C   UNL     1     -11.798  13.892  69.104  1.00  0.00    -0.401 C  
HETATM    2  C   UNL     1     -11.204  15.246  69.477  1.00  0.00    -0.289 C  
ENDROOT
BRANCH   2   3
HETATM    3  C   UNL     1     -10.512  15.975  68.322  1.00  0.00    -0.269 C  
HETATM    4  C   UNL     1     -10.327  15.058  67.114  1.00  0.00    -0.257 C  
HETATM    5  O   UNL     1     -11.276  17.114  67.899  1.00  0.00    -0.200 OA 
HETATM    6  C   UNL     1     -10.446  18.198  67.823  1.00  0.00    -0.404 C  
HETATM    7  N   UNL     1      -9.221  17.885  68.297  1.00  0.00    -0.275 N  
HETATM    8  O   UNL     1     -10.809  19.280  67.393  1.00  0.00    -0.486 OA 
HETATM    9  C   UNL     1      -9.187  16.593  68.706  1.00  0.00    -0.253 C  
HETATM   10  C   UNL     1      -8.137  18.818  68.461  1.00  0.00    -0.346 C  
HETATM   11  O   UNL     1      -8.259  16.021  69.261  1.00  0.00    -0.236 OA 
ENDBRANCH   2   3
TORSDOF 1
ENDMDL
MODEL       62
REMARK 921   NORMALIZED FREE ENERGY PREDICTED BY IDOCK:   -3.23 KCAL/MOL
REMARK 922        TOTAL FREE ENERGY PREDICTED BY IDOCK:   -3.44 KCAL/MOL
REMARK 923 INTER-LIGAND FREE ENERGY PREDICTED BY IDOCK:   -3.42 KCAL/MOL
REMARK 924 INTRA-LIGAND FREE ENERGY PREDICTED BY IDOCK:   -0.01 KCAL/MOL
REMARK 927      BINDING AFFINITY PREDICTED BY RF-SCORE:    0.00 PKD
ROOT
HETATM    1  C   UNL     1      -9.349  19.084  68.017  1.00  0.00    -0.365 C  
HETATM    2  C   UNL     1     -10.527  18.316  68.606  1.00  0.00    -0.185 C  
ENDROOT
BRANCH   2   3
HETATM    3  C   UNL     1     -10.321  16.800  68.683  1.00  0.00    -0.318 C  
HETATM    4  C   UNL     1      -8.879  16.451  69.043  1.00  0.00    -0.240 C  
HETATM    5  O   UNL     1     -11.179  16.212  69.671  1.00  0.00    -0.313 OA 
HETATM    6  C   UNL     1     -11.819  15.139  69.118  1.00  0.00    -0.313 C  
HETATM    7  N   UNL     1     -11.549  15.062  67.797  1.00  0.00    -0.336 N  
HETATM    8  O   UNL     1     -12.536  14.391  69.762  1.00  0.00    -0.312 OA 
HETATM    9  C   UNL     1     -10.727  16.072  67.421  1.00  0.00    -0.306 C  
HETATM   10  C   UNL     1     -12.142  14.116  66.888  1.00  0.00    -0.432 C  
HETATM   11  O   UNL     1     -10.361  16.339  66.286  1.00  0.00    -0.304 OA 
ENDBRANCH   2   3
TORSDOF 1
ENDMDL
MODEL       63
REMARK 921   NORMALIZED FREE ENERGY PREDICTED BY IDOCK:   -3.22 KCAL/MOL
REMARK 922        TOTAL FREE ENERGY PREDICTED BY IDOCK:   -3.42 KCAL/MOL
REMARK 923 INTER-LIGAND FREE ENERGY PREDICTED BY IDOCK:   -3.34 KCAL/MOL
REMARK 924 INTRA-LIGAND FREE ENERGY PREDICTED BY IDOCK:   -0.08 KCAL/MOL
REMARK 927      BINDING AFFINITY PREDICTED BY RF-SCORE:    0.00 PKD
ROOT
HETATM    1  C   UNL     1      -9.296   7.628  73.151  1.00  0.00    -0.289 C  
HETATM    2  C   UNL     1     -10.817   7.679  73.058  1.00  0.00    -0.457 C  
ENDROOT
BRANCH   2   3
HETATM    3  C   UNL     1     -11.353   8.342  71.786  1.00  0.00    -0.300 C  
HETATM    4  C   UNL     1     -12.793   8.816  71.967  1.00  0.00    -0.442 C  
HETATM    5  O   UNL     1     -10.556   9.478  71.420  1.00  0.00    -0.336 OA 
HETATM    6  C   UNL     1     -10.235   9.384  70.095  1.00  0.00    -0.231 C  
HETATM    7  N   UNL     1     -10.647   8.199  69.596  1.00  0.00    -0.228 N  
HETATM    8  O   UNL     1      -9.645  10.266  69.493  1.00  0.00    -0.224 OA 
HETATM    9  C   UNL     1     -11.252   7.463  70.560  1.00  0.00    -0.274 C  
HETATM   10  C   UNL     1     -10.378   7.728  68.262  1.00  0.00    -0.198 C  
HETATM   11  O   UNL     1     -11.660   6.315  70.461  1.00  0.00    -0.363 OA 
ENDBRANCH   2   3
TORSDOF 1
ENDMDL
MODEL       64
REMARK 921   NORMALIZED FREE ENERGY PREDICTED BY IDOCK:   -3.21 KCAL/MOL
REMARK 922        TOTAL FREE ENERGY PREDICTED BY IDOCK:   -3.42 KCAL/MOL
REMARK 923 INTER-LIGAND FREE ENERGY PREDICTED BY IDOCK:   -3.35 KCAL/MOL
REMARK 924 INTRA-LIGAND FREE ENERGY PREDICTED BY IDOCK:   -0.07 KCAL/MOL
REMARK 927      BINDING AFFINITY PREDICTED BY RF-SCORE:    0.00 PKD
ROOT
HETATM    1  C   UNL     1     -13.637   8.541  71.824  1.00  0.00    -0.419 C  
HETATM    2  C   UNL     1     -13.230   7.199  71.223  1.00  0.00    -0.340 C  
ENDROOT
BRANCH   2   3
HETATM    3  C   UNL     1     -11.724   6.922  71.252  1.00  0.00    -0.328 C  
HETATM    4  C   UNL     1     -11.268   6.185  69.995  1.00  0.00    -0.471 C  
HETATM    5  O   UNL     1     -10.977   8.144  71.344  1.00  0.00    -0.228 OA 
HETATM    6  C   UNL     1     -10.053   8.022  72.345  1.00  0.00    -0.266 C  
HETATM    7  N   UNL     1     -10.233   6.859  73.008  1.00  0.00    -0.199 N  
HETATM    8  O   UNL     1      -9.214   8.875  72.578  1.00  0.00    -0.334 OA 
HETATM    9  C   UNL     1     -11.273   6.168  72.482  1.00  0.00    -0.287 C  
HETATM   10  C   UNL     1      -9.504   6.461  74.184  1.00  0.00    -0.199 C  
HETATM   11  O   UNL     1     -11.749   5.123  72.902  1.00  0.00    -0.283 OA 
ENDBRANCH   2   3
TORSDOF 1
ENDMDL
MODEL       65
REMARK 921   NORMALIZED FREE ENERGY PREDICTED BY IDOCK:   -3.21 KCAL/MOL
REMARK 922        TOTAL FREE ENERGY PREDICTED BY IDOCK:   -3.42 KCAL/MOL
REMARK 923 INTER-LIGAND FREE ENERGY PREDICTED BY IDOCK:   -3.36 KCAL/MOL
REMARK 924 INTRA-LIGAND FREE ENERGY PREDICTED BY IDOCK:   -0.06 KCAL/MOL
REMARK 927      BINDING AFFINITY PREDICTED BY RF-SCORE:    0.00 PKD
ROOT
HETATM    1  C   UNL     1     -10.437  18.411  67.138  1.00  0.00    -0.434 C  
HETATM    2  C   UNL     1      -9.740  17.334  66.312  1.00  0.00    -0.282 C  
ENDROOT
BRANCH   2   3
HETATM    3  C   UNL     1      -9.688  15.957  66.981  1.00  0.00    -0.228 C  
HETATM    4  C   UNL     1      -8.261  15.581  67.373  1.00  0.00    -0.199 C  
HETATM    5  O   UNL     1     -10.495  15.929  68.167  1.00  0.00    -0.255 OA 
HETATM    6  C   UNL     1     -11.299  14.824  68.128  1.00  0.00    -0.307 C  
HETATM    7  N   UNL     1     -11.178  14.199  66.937  1.00  0.00    -0.308 N  
HETATM    8  O   UNL     1     -12.019  14.496  69.056  1.00  0.00    -0.315 OA 
HETATM    9  C   UNL     1     -10.298  14.857  66.143  1.00  0.00    -0.301 C  
HETATM   10  C   UNL     1     -11.960  13.065  66.519  1.00  0.00    -0.391 C  
HETATM   11  O   UNL     1     -10.027  14.604  64.978  1.00  0.00    -0.339 OA 
ENDBRANCH   2   3
TORSDOF 1
ENDMDL
MODEL       66
REMARK 921   NORMALIZED FREE ENERGY PREDICTED BY IDOCK:   -3.19 KCAL/MOL
REMARK 922        TOTAL FREE ENERGY PREDICTED BY IDOCK:   -3.40 KCAL/MOL
REMARK 923 INTER-LIGAND FREE ENERGY PREDICTED BY IDOCK:   -3.37 KCAL/MOL
REMARK 924 INTRA-LIGAND FREE ENERGY PREDICTED BY IDOCK:   -0.03 KCAL/MOL
REMARK 927      BINDING AFFINITY PREDICTED BY RF-SCORE:    0.00 PKD
ROOT
HETATM    1  C   UNL     1     -12.228  15.469  69.858  1.00  0.00    -0.351 C  
HETATM    2  C   UNL     1     -12.094  14.203  69.019  1.00  0.00    -0.348 C  
ENDROOT
BRANCH   2   3
HETATM    3  C   UNL     1     -11.128  14.325  67.836  1.00  0.00    -0.278 C  
HETATM    4  C   UNL     1     -10.632  15.759  67.667  1.00  0.00    -0.301 C  
HETATM    5  O   UNL     1      -9.983  13.478  68.015  1.00  0.00    -0.233 OA 
HETATM    6  C   UNL     1      -9.787  12.754  66.873  1.00  0.00    -0.236 C  
HETATM    7  N   UNL     1     -10.801  12.962  66.006  1.00  0.00    -0.276 N  
HETATM    8  O   UNL     1      -8.823  12.025  66.709  1.00  0.00    -0.191 OA 
HETATM    9  C   UNL     1     -11.706  13.823  66.532  1.00  0.00    -0.385 C  
HETATM   10  C   UNL     1     -10.966  12.276  64.751  1.00  0.00    -0.303 C  
HETATM   11  O   UNL     1     -12.777  14.154  66.044  1.00  0.00    -0.469 OA 
ENDBRANCH   2   3
TORSDOF 1
ENDMDL
MODEL       67
REMARK 921   NORMALIZED FREE ENERGY PREDICTED BY IDOCK:   -3.19 KCAL/MOL
REMARK 922        TOTAL FREE ENERGY PREDICTED BY IDOCK:   -3.40 KCAL/MOL
REMARK 923 INTER-LIGAND FREE ENERGY PREDICTED BY IDOCK:   -3.33 KCAL/MOL
REMARK 924 INTRA-LIGAND FREE ENERGY PREDICTED BY IDOCK:   -0.07 KCAL/MOL
REMARK 927      BINDING AFFINITY PREDICTED BY RF-SCORE:    0.00 PKD
ROOT
HETATM    1  C   UNL     1     -11.468  15.075  67.511  1.00  0.00    -0.339 C  
HETATM    2  C   UNL     1     -12.105  13.905  66.768  1.00  0.00    -0.476 C  
ENDROOT
BRANCH   2   3
HETATM    3  C   UNL     1     -11.140  12.763  66.437  1.00  0.00    -0.285 C  
HETATM    4  C   UNL     1     -11.432  12.165  65.063  1.00  0.00    -0.377 C  
HETATM    5  O   UNL     1      -9.779  13.220  66.441  1.00  0.00    -0.269 OA 
HETATM    6  C   UNL     1      -9.028  12.364  67.198  1.00  0.00    -0.195 C  
HETATM    7  N   UNL     1      -9.822  11.455  67.805  1.00  0.00    -0.172 N  
HETATM    8  O   UNL     1      -7.816  12.455  67.294  1.00  0.00    -0.163 OA 
HETATM    9  C   UNL     1     -11.121  11.669  67.481  1.00  0.00    -0.276 C  
HETATM   10  C   UNL     1      -9.373  10.474  68.757  1.00  0.00    -0.180 C  
HETATM   11  O   UNL     1     -12.096  11.080  67.925  1.00  0.00    -0.600 OA 
ENDBRANCH   2   3
TORSDOF 1
ENDMDL
MODEL       68
REMARK 921   NORMALIZED FREE ENERGY PREDICTED BY IDOCK:   -3.18 KCAL/MOL
REMARK 922        TOTAL FREE ENERGY PREDICTED BY IDOCK:   -3.38 KCAL/MOL
REMARK 923 INTER-LIGAND FREE ENERGY PREDICTED BY IDOCK:   -3.36 KCAL/MOL
REMARK 924 INTRA-LIGAND FREE ENERGY PREDICTED BY IDOCK:   -0.02 KCAL/MOL
REMARK 927      BINDING AFFINITY PREDICTED BY RF-SCORE:    0.00 PKD
ROOT
HETATM    1  C   UNL     1     -11.689  14.407  67.572  1.00  0.00    -0.416 C  
HETATM    2  C   UNL     1     -10.721  15.514  67.168  1.00  0.00    -0.315 C  
ENDROOT
BRANCH   2   3
HETATM    3  C   UNL     1     -10.212  16.368  68.332  1.00  0.00    -0.259 C  
HETATM    4  C   UNL     1     -11.098  16.213  69.567  1.00  0.00    -0.344 C  
HETATM    5  O   UNL     1      -8.875  15.999  68.698  1.00  0.00    -0.189 OA 
HETATM    6  C   UNL     1      -8.111  17.129  68.782  1.00  0.00    -0.252 C  
HETATM    7  N   UNL     1      -8.816  18.203  68.363  1.00  0.00    -0.289 N  
HETATM    8  O   UNL     1      -6.956  17.121  69.172  1.00  0.00    -0.232 OA 
HETATM    9  C   UNL     1     -10.065  17.833  67.986  1.00  0.00    -0.355 C  
HETATM   10  C   UNL     1      -8.285  19.533  68.221  1.00  0.00    -0.338 C  
HETATM   11  O   UNL     1     -10.922  18.544  67.482  1.00  0.00    -0.371 OA 
ENDBRANCH   2   3
TORSDOF 1
ENDMDL
MODEL       69
REMARK 921   NORMALIZED FREE ENERGY PREDICTED BY IDOCK:   -3.17 KCAL/MOL
REMARK 922        TOTAL FREE ENERGY PREDICTED BY IDOCK:   -3.37 KCAL/MOL
REMARK 923 INTER-LIGAND FREE ENERGY PREDICTED BY IDOCK:   -3.34 KCAL/MOL
REMARK 924 INTRA-LIGAND FREE ENERGY PREDICTED BY IDOCK:   -0.03 KCAL/MOL
REMARK 927      BINDING AFFINITY PREDICTED BY RF-SCORE:    0.00 PKD
ROOT
HETATM    1  C   UNL     1      -9.390  13.156  67.132  1.00  0.00    -0.235 C  
HETATM    2  C   UNL     1     -10.114  12.824  68.433  1.00  0.00    -0.226 C  
ENDROOT
BRANCH   2   3
HETATM    3  C   UNL     1     -11.295  13.745  68.754  1.00  0.00    -0.283 C  
HETATM    4  C   UNL     1     -12.001  14.210  67.482  1.00  0.00    -0.419 C  
HETATM    5  O   UNL     1     -12.262  13.076  69.578  1.00  0.00    -0.248 OA 
HETATM    6  C   UNL     1     -12.574  13.884  70.635  1.00  0.00    -0.335 C  
HETATM    7  N   UNL     1     -11.780  14.977  70.640  1.00  0.00    -0.287 N  
HETATM    8  O   UNL     1     -13.445  13.609  71.443  1.00  0.00    -0.292 OA 
HETATM    9  C   UNL     1     -10.915  14.940  69.598  1.00  0.00    -0.274 C  
HETATM   10  C   UNL     1     -11.768  15.981  71.672  1.00  0.00    -0.506 C  
HETATM   11  O   UNL     1     -10.011  15.729  69.364  1.00  0.00    -0.239 OA 
ENDBRANCH   2   3
TORSDOF 1
ENDMDL
MODEL       70
REMARK 921   NORMALIZED FREE ENERGY PREDICTED BY IDOCK:   -3.12 KCAL/MOL
REMARK 922        TOTAL FREE ENERGY PREDICTED BY IDOCK:   -3.33 KCAL/MOL
REMARK 923 INTER-LIGAND FREE ENERGY PREDICTED BY IDOCK:   -3.23 KCAL/MOL
REMARK 924 INTRA-LIGAND FREE ENERGY PREDICTED BY IDOCK:   -0.09 KCAL/MOL
REMARK 927      BINDING AFFINITY PREDICTED BY RF-SCORE:    0.00 PKD
ROOT
HETATM    1  C   UNL     1      -9.813   9.232  71.078  1.00  0.00    -0.355 C  
HETATM    2  C   UNL     1     -11.307   8.984  71.260  1.00  0.00    -0.389 C  
ENDROOT
BRANCH   2   3
HETATM    3  C   UNL     1     -11.705   7.505  71.291  1.00  0.00    -0.287 C  
HETATM    4  C   UNL     1     -13.211   7.337  71.484  1.00  0.00    -0.434 C  
HETATM    5  O   UNL     1     -11.338   6.846  70.070  1.00  0.00    -0.298 OA 
HETATM    6  C   UNL     1     -10.674   5.691  70.374  1.00  0.00    -0.282 C  
HETATM    7  N   UNL     1     -10.456   5.613  71.705  1.00  0.00    -0.222 N  
HETATM    8  O   UNL     1     -10.332   4.882  69.528  1.00  0.00    -0.224 OA 
HETATM    9  C   UNL     1     -10.961   6.702  72.333  1.00  0.00    -0.244 C  
HETATM   10  C   UNL     1      -9.691   4.581  72.355  1.00  0.00    -0.159 C  
HETATM   11  O   UNL     1     -10.857   6.981  73.519  1.00  0.00    -0.341 OA 
ENDBRANCH   2   3
TORSDOF 1
ENDMDL
MODEL       71
REMARK 921   NORMALIZED FREE ENERGY PREDICTED BY IDOCK:   -3.10 KCAL/MOL
REMARK 922        TOTAL FREE ENERGY PREDICTED BY IDOCK:   -3.30 KCAL/MOL
REMARK 923 INTER-LIGAND FREE ENERGY PREDICTED BY IDOCK:   -3.23 KCAL/MOL
REMARK 924 INTRA-LIGAND FREE ENERGY PREDICTED BY IDOCK:   -0.07 KCAL/MOL
REMARK 927      BINDING AFFINITY PREDICTED BY RF-SCORE:    0.00 PKD
ROOT
HETATM    1  C   UNL     1      -9.655  10.777  68.687  1.00  0.00    -0.187 C  
HETATM    2  C   UNL     1     -10.983  11.522  68.776  1.00  0.00    -0.271 C  
ENDROOT
BRANCH   2   3
HETATM    3  C   UNL     1     -10.965  12.924  68.160  1.00  0.00    -0.248 C  
HETATM    4  C   UNL     1     -11.924  13.865  68.886  1.00  0.00    -0.393 C  
HETATM    5  O   UNL     1      -9.651  13.498  68.220  1.00  0.00    -0.214 OA 
HETATM    6  C   UNL     1      -9.326  13.987  66.986  1.00  0.00    -0.250 C  
HETATM    7  N   UNL     1     -10.275  13.653  66.085  1.00  0.00    -0.297 N  
HETATM    8  O   UNL     1      -8.305  14.619  66.772  1.00  0.00    -0.184 OA 
HETATM    9  C   UNL     1     -11.259  12.934  66.677  1.00  0.00    -0.304 C  
HETATM   10  C   UNL     1     -10.198  13.916  64.672  1.00  0.00    -0.247 C  
HETATM   11  O   UNL     1     -12.217  12.408  66.129  1.00  0.00    -0.635 OA 
ENDBRANCH   2   3
TORSDOF 1
ENDMDL
MODEL       72
REMARK 921   NORMALIZED FREE ENERGY PREDICTED BY IDOCK:   -3.09 KCAL/MOL
REMARK 922        TOTAL FREE ENERGY PREDICTED BY IDOCK:   -3.29 KCAL/MOL
REMARK 923 INTER-LIGAND FREE ENERGY PREDICTED BY IDOCK:   -3.24 KCAL/MOL
REMARK 924 INTRA-LIGAND FREE ENERGY PREDICTED BY IDOCK:   -0.05 KCAL/MOL
REMARK 927      BINDING AFFINITY PREDICTED BY RF-SCORE:    0.00 PKD
ROOT
HETATM    1  C   UNL     1      -7.041  19.354  69.000  1.00  0.00    -0.397 C  
HETATM    2  C   UNL     1      -8.155  19.274  67.962  1.00  0.00    -0.341 C  
ENDROOT
BRANCH   2   3
HETATM    3  C   UNL     1      -8.567  17.848  67.583  1.00  0.00    -0.242 C  
HETATM    4  C   UNL     1      -8.009  17.451  66.218  1.00  0.00    -0.314 C  
HETATM    5  O   UNL     1      -8.091  16.900  68.549  1.00  0.00    -0.223 OA 
HETATM    6  C   UNL     1      -9.125  16.083  68.912  1.00  0.00    -0.235 C  
HETATM    7  N   UNL     1     -10.279  16.514  68.358  1.00  0.00    -0.253 N  
HETATM    8  O   UNL     1      -8.981  15.120  69.647  1.00  0.00    -0.183 OA 
HETATM    9  C   UNL     1     -10.061  17.624  67.613  1.00  0.00    -0.339 C  
HETATM   10  C   UNL     1     -11.577  15.949  68.617  1.00  0.00    -0.380 C  
HETATM   11  O   UNL     1     -10.904  18.309  67.050  1.00  0.00    -0.329 OA 
ENDBRANCH   2   3
TORSDOF 1
ENDMDL
MODEL       73
REMARK 921   NORMALIZED FREE ENERGY PREDICTED BY IDOCK:   -3.06 KCAL/MOL
REMARK 922        TOTAL FREE ENERGY PREDICTED BY IDOCK:   -3.26 KCAL/MOL
REMARK 923 INTER-LIGAND FREE ENERGY PREDICTED BY IDOCK:   -3.22 KCAL/MOL
REMARK 924 INTRA-LIGAND FREE ENERGY PREDICTED BY IDOCK:   -0.04 KCAL/MOL
REMARK 927      BINDING AFFINITY PREDICTED BY RF-SCORE:    0.00 PKD
ROOT
HETATM    1  C   UNL     1     -11.045  13.440  66.363  1.00  0.00    -0.312 C  
HETATM    2  C   UNL     1     -11.160  14.947  66.154  1.00  0.00    -0.335 C  
ENDROOT
BRANCH   2   3
HETATM    3  C   UNL     1     -10.195  15.780  67.004  1.00  0.00    -0.280 C  
HETATM    4  C   UNL     1     -10.805  16.127  68.360  1.00  0.00    -0.318 C  
HETATM    5  O   UNL     1      -8.969  15.071  67.237  1.00  0.00    -0.181 OA 
HETATM    6  C   UNL     1      -7.920  15.897  66.946  1.00  0.00    -0.252 C  
HETATM    7  N   UNL     1      -8.368  17.051  66.406  1.00  0.00    -0.267 N  
HETATM    8  O   UNL     1      -6.758  15.587  67.149  1.00  0.00    -0.259 OA 
HETATM    9  C   UNL     1      -9.720  17.039  66.316  1.00  0.00    -0.283 C  
HETATM   10  C   UNL     1      -7.527  18.098  65.886  1.00  0.00    -0.170 C  
HETATM   11  O   UNL     1     -10.430  17.889  65.798  1.00  0.00    -0.564 OA 
ENDBRANCH   2   3
TORSDOF 1
ENDMDL
MODEL       74
REMARK 921   NORMALIZED FREE ENERGY PREDICTED BY IDOCK:   -3.05 KCAL/MOL
REMARK 922        TOTAL FREE ENERGY PREDICTED BY IDOCK:   -3.25 KCAL/MOL
REMARK 923 INTER-LIGAND FREE ENERGY PREDICTED BY IDOCK:   -3.23 KCAL/MOL
REMARK 924 INTRA-LIGAND FREE ENERGY PREDICTED BY IDOCK:   -0.03 KCAL/MOL
REMARK 927      BINDING AFFINITY PREDICTED BY RF-SCORE:    0.00 PKD
ROOT
HETATM    1  C   UNL     1     -10.203  20.060  68.211  1.00  0.00    -0.527 C  
HETATM    2  C   UNL     1     -10.224  18.685  67.551  1.00  0.00    -0.425 C  
ENDROOT
BRANCH   2   3
HETATM    3  C   UNL     1      -8.847  18.030  67.408  1.00  0.00    -0.245 C  
HETATM    4  C   UNL     1      -7.887  18.916  66.617  1.00  0.00    -0.271 C  
HETATM    5  O   UNL     1      -8.260  17.777  68.693  1.00  0.00    -0.291 OA 
HETATM    6  C   UNL     1      -7.816  16.484  68.728  1.00  0.00    -0.235 C  
HETATM    7  N   UNL     1      -8.193  15.828  67.610  1.00  0.00    -0.146 N  
HETATM    8  O   UNL     1      -7.184  16.027  69.666  1.00  0.00    -0.193 OA 
HETATM    9  C   UNL     1      -8.897  16.650  66.793  1.00  0.00    -0.231 C  
HETATM   10  C   UNL     1      -7.985  14.425  67.368  1.00  0.00    -0.201 C  
HETATM   11  O   UNL     1      -9.452  16.346  65.747  1.00  0.00    -0.464 OA 
ENDBRANCH   2   3
TORSDOF 1
ENDMDL
MODEL       75
REMARK 921   NORMALIZED FREE ENERGY PREDICTED BY IDOCK:   -3.05 KCAL/MOL
REMARK 922        TOTAL FREE ENERGY PREDICTED BY IDOCK:   -3.25 KCAL/MOL
REMARK 923 INTER-LIGAND FREE ENERGY PREDICTED BY IDOCK:   -3.18 KCAL/MOL
REMARK 924 INTRA-LIGAND FREE ENERGY PREDICTED BY IDOCK:   -0.07 KCAL/MOL
REMARK 927      BINDING AFFINITY PREDICTED BY RF-SCORE:    0.00 PKD
ROOT
HETATM    1  C   UNL     1      -6.954  19.659  69.404  1.00  0.00    -0.355 C  
HETATM    2  C   UNL     1      -8.129  19.077  68.623  1.00  0.00    -0.397 C  
ENDROOT
BRANCH   2   3
HETATM    3  C   UNL     1      -8.122  19.407  67.128  1.00  0.00    -0.266 C  
HETATM    4  C   UNL     1      -9.541  19.522  66.575  1.00  0.00    -0.462 C  
HETATM    5  O   UNL     1      -7.447  20.649  66.877  1.00  0.00    -0.296 OA 
HETATM    6  C   UNL     1      -6.543  20.464  65.869  1.00  0.00    -0.235 C  
HETATM    7  N   UNL     1      -6.476  19.157  65.533  1.00  0.00    -0.250 N  
HETATM    8  O   UNL     1      -5.898  21.378  65.382  1.00  0.00    -0.190 OA 
HETATM    9  C   UNL     1      -7.324  18.427  66.298  1.00  0.00    -0.258 C  
HETATM   10  C   UNL     1      -5.550  18.597  64.584  1.00  0.00    -0.194 C  
HETATM   11  O   UNL     1      -7.444  17.211  66.307  1.00  0.00    -0.280 OA 
ENDBRANCH   2   3
TORSDOF 1
ENDMDL
MODEL       76
REMARK 921   NORMALIZED FREE ENERGY PREDICTED BY IDOCK:   -3.04 KCAL/MOL
REMARK 922        TOTAL FREE ENERGY PREDICTED BY IDOCK:   -3.24 KCAL/MOL
REMARK 923 INTER-LIGAND FREE ENERGY PREDICTED BY IDOCK:   -3.19 KCAL/MOL
REMARK 924 INTRA-LIGAND FREE ENERGY PREDICTED BY IDOCK:   -0.05 KCAL/MOL
REMARK 927      BINDING AFFINITY PREDICTED BY RF-SCORE:    0.00 PKD
ROOT
HETATM    1  C   UNL     1     -11.170  10.586  67.664  1.00  0.00    -0.338 C  
HETATM    2  C   UNL     1     -10.500   9.320  68.188  1.00  0.00    -0.263 C  
ENDROOT
BRANCH   2   3
HETATM    3  C   UNL     1     -10.537   9.168  69.712  1.00  0.00    -0.229 C  
HETATM    4  C   UNL     1      -9.177   9.475  70.337  1.00  0.00    -0.305 C  
HETATM    5  O   UNL     1     -11.502  10.055  70.296  1.00  0.00    -0.265 OA 
HETATM    6  C   UNL     1     -12.289   9.345  71.159  1.00  0.00    -0.308 C  
HETATM    7  N   UNL     1     -11.999   8.028  71.081  1.00  0.00    -0.292 N  
HETATM    8  O   UNL     1     -13.131   9.868  71.870  1.00  0.00    -0.404 OA 
HETATM    9  C   UNL     1     -11.019   7.811  70.171  1.00  0.00    -0.241 C  
HETATM   10  C   UNL     1     -12.710   6.986  71.774  1.00  0.00    -0.340 C  
HETATM   11  O   UNL     1     -10.586   6.729  69.800  1.00  0.00    -0.206 OA 
ENDBRANCH   2   3
TORSDOF 1
ENDMDL
MODEL       77
REMARK 921   NORMALIZED FREE ENERGY PREDICTED BY IDOCK:   -3.03 KCAL/MOL
REMARK 922        TOTAL FREE ENERGY PREDICTED BY IDOCK:   -3.23 KCAL/MOL
REMARK 923 INTER-LIGAND FREE ENERGY PREDICTED BY IDOCK:   -3.14 KCAL/MOL
REMARK 924 INTRA-LIGAND FREE ENERGY PREDICTED BY IDOCK:   -0.09 KCAL/MOL
REMARK 927      BINDING AFFINITY PREDICTED BY RF-SCORE:    0.00 PKD
ROOT
HETATM    1  C   UNL     1     -10.378   8.055  68.595  1.00  0.00    -0.224 C  
HETATM    2  C   UNL     1     -10.706   9.377  69.282  1.00  0.00    -0.228 C  
ENDROOT
BRANCH   2   3
HETATM    3  C   UNL     1     -11.393   9.230  70.643  1.00  0.00    -0.275 C  
HETATM    4  C   UNL     1     -12.053  10.536  71.079  1.00  0.00    -0.492 C  
HETATM    5  O   UNL     1     -12.405   8.213  70.603  1.00  0.00    -0.032 OA 
HETATM    6  C   UNL     1     -12.230   7.374  71.668  1.00  0.00    -0.330 C  
HETATM    7  N   UNL     1     -11.093   7.684  72.327  1.00  0.00    -0.265 N  
HETATM    8  O   UNL     1     -13.010   6.476  71.938  1.00  0.00    -0.268 OA 
HETATM    9  C   UNL     1     -10.470   8.731  71.732  1.00  0.00    -0.346 C  
HETATM   10  C   UNL     1     -10.551   6.936  73.431  1.00  0.00    -0.344 C  
HETATM   11  O   UNL     1      -9.381   9.202  72.026  1.00  0.00    -0.337 OA 
ENDBRANCH   2   3
TORSDOF 1
ENDMDL
MODEL       78
REMARK 921   NORMALIZED FREE ENERGY PREDICTED BY IDOCK:   -3.03 KCAL/MOL
REMARK 922        TOTAL FREE ENERGY PREDICTED BY IDOCK:   -3.23 KCAL/MOL
REMARK 923 INTER-LIGAND FREE ENERGY PREDICTED BY IDOCK:   -3.17 KCAL/MOL
REMARK 924 INTRA-LIGAND FREE ENERGY PREDICTED BY IDOCK:   -0.06 KCAL/MOL
REMARK 927      BINDING AFFINITY PREDICTED BY RF-SCORE:    0.00 PKD
ROOT
HETATM    1  C   UNL     1     -11.436   5.198  73.118  1.00  0.00    -0.348 C  
HETATM    2  C   UNL     1     -11.874   6.157  72.015  1.00  0.00    -0.336 C  
ENDROOT
BRANCH   2   3
HETATM    3  C   UNL     1     -11.289   7.568  72.133  1.00  0.00    -0.283 C  
HETATM    4  C   UNL     1     -12.390   8.618  72.264  1.00  0.00    -0.449 C  
HETATM    5  O   UNL     1     -10.434   7.677  73.281  1.00  0.00    -0.348 OA 
HETATM    6  C   UNL     1      -9.254   8.250  72.898  1.00  0.00    -0.259 C  
HETATM    7  N   UNL     1      -9.218   8.398  71.556  1.00  0.00    -0.176 N  
HETATM    8  O   UNL     1      -8.378   8.555  73.691  1.00  0.00    -0.373 OA 
HETATM    9  C   UNL     1     -10.362   7.933  70.997  1.00  0.00    -0.201 C  
HETATM   10  C   UNL     1      -8.082   8.870  70.809  1.00  0.00    -0.156 C  
HETATM   11  O   UNL     1     -10.613   7.843  69.804  1.00  0.00    -0.237 OA 
ENDBRANCH   2   3
TORSDOF 1
ENDMDL
MODEL       79
REMARK 921   NORMALIZED FREE ENERGY PREDICTED BY IDOCK:   -3.01 KCAL/MOL
REMARK 922        TOTAL FREE ENERGY PREDICTED BY IDOCK:   -3.21 KCAL/MOL
REMARK 923 INTER-LIGAND FREE ENERGY PREDICTED BY IDOCK:   -3.17 KCAL/MOL
REMARK 924 INTRA-LIGAND FREE ENERGY PREDICTED BY IDOCK:   -0.04 KCAL/MOL
REMARK 927      BINDING AFFINITY PREDICTED BY RF-SCORE:    0.00 PKD
ROOT
HETATM    1  C   UNL     1     -12.217  13.731  70.524  1.00  0.00    -0.440 C  
HETATM    2  C   UNL     1     -12.277  14.621  69.287  1.00  0.00    -0.247 C  
ENDROOT
BRANCH   2   3
HETATM    3  C   UNL     1     -11.042  14.536  68.385  1.00  0.00    -0.256 C  
HETATM    4  C   UNL     1     -10.421  13.141  68.417  1.00  0.00    -0.261 C  
HETATM    5  O   UNL     1     -11.375  14.841  67.023  1.00  0.00    -0.338 OA 
HETATM    6  C   UNL     1     -10.485  15.761  66.545  1.00  0.00    -0.303 C  
HETATM    7  N   UNL     1      -9.674  16.187  67.538  1.00  0.00    -0.231 N  
HETATM    8  O   UNL     1     -10.471  16.127  65.382  1.00  0.00    -0.426 OA 
HETATM    9  C   UNL     1      -9.990  15.574  68.705  1.00  0.00    -0.208 C  
HETATM   10  C   UNL     1      -8.692  17.231  67.408  1.00  0.00    -0.206 C  
HETATM   11  O   UNL     1      -9.507  15.795  69.806  1.00  0.00    -0.254 OA 
ENDBRANCH   2   3
TORSDOF 1
ENDMDL
MODEL       80
REMARK 921   NORMALIZED FREE ENERGY PREDICTED BY IDOCK:   -3.00 KCAL/MOL
REMARK 922        TOTAL FREE ENERGY PREDICTED BY IDOCK:   -3.19 KCAL/MOL
REMARK 923 INTER-LIGAND FREE ENERGY PREDICTED BY IDOCK:   -3.17 KCAL/MOL
REMARK 924 INTRA-LIGAND FREE ENERGY PREDICTED BY IDOCK:   -0.02 KCAL/MOL
REMARK 927      BINDING AFFINITY PREDICTED BY RF-SCORE:    0.00 PKD
ROOT
HETATM    1  C   UNL     1      -6.081  19.318  69.740  1.00  0.00    -0.299 C  
HETATM    2  C   UNL     1      -7.297  19.747  68.927  1.00  0.00    -0.327 C  
ENDROOT
BRANCH   2   3
HETATM    3  C   UNL     1      -7.878  18.651  68.028  1.00  0.00    -0.271 C  
HETATM    4  C   UNL     1      -6.816  17.623  67.645  1.00  0.00    -0.185 C  
HETATM    5  O   UNL     1      -8.949  17.958  68.686  1.00  0.00    -0.291 OA 
HETATM    6  C   UNL     1     -10.019  17.894  67.839  1.00  0.00    -0.329 C  
HETATM    7  N   UNL     1      -9.778  18.616  66.723  1.00  0.00    -0.314 N  
HETATM    8  O   UNL     1     -11.035  17.272  68.102  1.00  0.00    -0.347 OA 
HETATM    9  C   UNL     1      -8.549  19.185  66.783  1.00  0.00    -0.309 C  
HETATM   10  C   UNL     1     -10.733  18.852  65.672  1.00  0.00    -0.151 C  
HETATM   11  O   UNL     1      -8.060  19.965  65.979  1.00  0.00    -0.348 OA 
ENDBRANCH   2   3
TORSDOF 1
ENDMDL
MODEL       81
REMARK 921   NORMALIZED FREE ENERGY PREDICTED BY IDOCK:   -2.99 KCAL/MOL
REMARK 922        TOTAL FREE ENERGY PREDICTED BY IDOCK:   -3.18 KCAL/MOL
REMARK 923 INTER-LIGAND FREE ENERGY PREDICTED BY IDOCK:   -3.15 KCAL/MOL
REMARK 924 INTRA-LIGAND FREE ENERGY PREDICTED BY IDOCK:   -0.03 KCAL/MOL
REMARK 927      BINDING AFFINITY PREDICTED BY RF-SCORE:    0.00 PKD
ROOT
HETATM    1  C   UNL     1      -8.108  16.624  68.788  1.00  0.00    -0.247 C  
HETATM    2  C   UNL     1      -8.885  15.651  69.669  1.00  0.00    -0.115 C  
ENDROOT
BRANCH   2   3
HETATM    3  C   UNL     1     -10.331  15.412  69.226  1.00  0.00    -0.253 C  
HETATM    4  C   UNL     1     -10.761  16.413  68.156  1.00  0.00    -0.336 C  
HETATM    5  O   UNL     1     -10.494  14.091  68.687  1.00  0.00    -0.239 OA 
HETATM    6  C   UNL     1     -11.581  13.506  69.274  1.00  0.00    -0.316 C  
HETATM    7  N   UNL     1     -12.062  14.294  70.260  1.00  0.00    -0.314 N  
HETATM    8  O   UNL     1     -12.011  12.417  68.933  1.00  0.00    -0.303 OA 
HETATM    9  C   UNL     1     -11.321  15.424  70.368  1.00  0.00    -0.327 C  
HETATM   10  C   UNL     1     -13.134  13.935  71.152  1.00  0.00    -0.281 C  
HETATM   11  O   UNL     1     -11.437  16.301  71.212  1.00  0.00    -0.423 OA 
ENDBRANCH   2   3
TORSDOF 1
ENDMDL
MODEL       82
REMARK 921   NORMALIZED FREE ENERGY PREDICTED BY IDOCK:   -2.98 KCAL/MOL
REMARK 922        TOTAL FREE ENERGY PREDICTED BY IDOCK:   -3.18 KCAL/MOL
REMARK 923 INTER-LIGAND FREE ENERGY PREDICTED BY IDOCK:   -3.15 KCAL/MOL
REMARK 924 INTRA-LIGAND FREE ENERGY PREDICTED BY IDOCK:   -0.02 KCAL/MOL
REMARK 927      BINDING AFFINITY PREDICTED BY RF-SCORE:    0.00 PKD
ROOT
HETATM    1  C   UNL     1      -9.734   3.515  71.346  1.00  0.00    -0.236 C  
HETATM    2  C   UNL     1     -10.159   4.883  70.820  1.00  0.00    -0.303 C  
ENDROOT
BRANCH   2   3
HETATM    3  C   UNL     1     -10.547   5.888  71.909  1.00  0.00    -0.231 C  
HETATM    4  C   UNL     1     -11.265   5.203  73.070  1.00  0.00    -0.390 C  
HETATM    5  O   UNL     1      -9.388   6.551  72.436  1.00  0.00    -0.138 OA 
HETATM    6  C   UNL     1      -9.618   7.899  72.444  1.00  0.00    -0.210 C  
HETATM    7  N   UNL     1     -10.789   8.179  71.833  1.00  0.00    -0.252 N  
HETATM    8  O   UNL     1      -8.838   8.700  72.934  1.00  0.00    -0.367 OA 
HETATM    9  C   UNL     1     -11.380   7.040  71.397  1.00  0.00    -0.265 C  
HETATM   10  C   UNL     1     -11.286   9.504  71.573  1.00  0.00    -0.385 C  
HETATM   11  O   UNL     1     -12.403   6.950  70.732  1.00  0.00    -0.376 OA 
ENDBRANCH   2   3
TORSDOF 1
ENDMDL
MODEL       83
REMARK 921   NORMALIZED FREE ENERGY PREDICTED BY IDOCK:   -2.97 KCAL/MOL
REMARK 922        TOTAL FREE ENERGY PREDICTED BY IDOCK:   -3.16 KCAL/MOL
REMARK 923 INTER-LIGAND FREE ENERGY PREDICTED BY IDOCK:   -3.14 KCAL/MOL
REMARK 924 INTRA-LIGAND FREE ENERGY PREDICTED BY IDOCK:   -0.02 KCAL/MOL
REMARK 927      BINDING AFFINITY PREDICTED BY RF-SCORE:    0.00 PKD
ROOT
HETATM    1  C   UNL     1     -13.344   7.421  71.750  1.00  0.00    -0.373 C  
HETATM    2  C   UNL     1     -13.588   8.771  71.082  1.00  0.00    -0.084 C  
ENDROOT
BRANCH   2   3
HETATM    3  C   UNL     1     -12.360   9.684  71.031  1.00  0.00    -0.310 C  
HETATM    4  C   UNL     1     -11.304   9.257  72.048  1.00  0.00    -0.235 C  
HETATM    5  O   UNL     1     -11.755   9.662  69.729  1.00  0.00    -0.068 OA 
HETATM    6  C   UNL     1     -11.546  10.949  69.318  1.00  0.00    -0.318 C  
HETATM    7  N   UNL     1     -12.097  11.816  70.195  1.00  0.00    -0.328 N  
HETATM    8  O   UNL     1     -10.954  11.227  68.289  1.00  0.00    -0.192 OA 
HETATM    9  C   UNL     1     -12.689  11.148  71.215  1.00  0.00    -0.426 C  
HETATM   10  C   UNL     1     -12.155  13.243  70.016  1.00  0.00    -0.315 C  
HETATM   11  O   UNL     1     -13.348  11.629  72.125  1.00  0.00    -0.491 OA 
ENDBRANCH   2   3
TORSDOF 1
ENDMDL
MODEL       84
REMARK 921   NORMALIZED FREE ENERGY PREDICTED BY IDOCK:   -2.96 KCAL/MOL
REMARK 922        TOTAL FREE ENERGY PREDICTED BY IDOCK:   -3.15 KCAL/MOL
REMARK 923 INTER-LIGAND FREE ENERGY PREDICTED BY IDOCK:   -3.13 KCAL/MOL
REMARK 924 INTRA-LIGAND FREE ENERGY PREDICTED BY IDOCK:   -0.02 KCAL/MOL
REMARK 927      BINDING AFFINITY PREDICTED BY RF-SCORE:    0.00 PKD
ROOT
HETATM    1  C   UNL     1      -8.158  11.483  68.547  1.00  0.00    -0.146 C  
HETATM    2  C   UNL     1      -9.599  11.838  68.193  1.00  0.00    -0.193 C  
ENDROOT
BRANCH   2   3
HETATM    3  C   UNL     1      -9.741  12.981  67.184  1.00  0.00    -0.230 C  
HETATM    4  C   UNL     1      -8.729  14.092  67.453  1.00  0.00    -0.212 C  
HETATM    5  O   UNL     1      -9.539  12.512  65.842  1.00  0.00    -0.240 OA 
HETATM    6  C   UNL     1     -10.564  12.964  65.058  1.00  0.00    -0.315 C  
HETATM    7  N   UNL     1     -11.498  13.578  65.816  1.00  0.00    -0.310 N  
HETATM    8  O   UNL     1     -10.595  12.798  63.850  1.00  0.00    -0.414 OA 
HETATM    9  C   UNL     1     -11.136  13.560  67.122  1.00  0.00    -0.293 C  
HETATM   10  C   UNL     1     -12.757  14.076  65.328  1.00  0.00    -0.439 C  
HETATM   11  O   UNL     1     -11.795  13.954  68.073  1.00  0.00    -0.341 OA 
ENDBRANCH   2   3
TORSDOF 1
ENDMDL
MODEL       85
REMARK 921   NORMALIZED FREE ENERGY PREDICTED BY IDOCK:   -2.96 KCAL/MOL
REMARK 922        TOTAL FREE ENERGY PREDICTED BY IDOCK:   -3.15 KCAL/MOL
REMARK 923 INTER-LIGAND FREE ENERGY PREDICTED BY IDOCK:   -3.11 KCAL/MOL
REMARK 924 INTRA-LIGAND FREE ENERGY PREDICTED BY IDOCK:   -0.05 KCAL/MOL
REMARK 927      BINDING AFFINITY PREDICTED BY RF-SCORE:    0.00 PKD
ROOT
HETATM    1  C   UNL     1      -8.129  10.736  65.698  1.00  0.00    -0.112 C  
HETATM    2  C   UNL     1      -9.628  10.970  65.545  1.00  0.00    -0.263 C  
ENDROOT
BRANCH   2   3
HETATM    3  C   UNL     1     -10.330  11.442  66.822  1.00  0.00    -0.234 C  
HETATM    4  C   UNL     1     -10.892  10.266  67.617  1.00  0.00    -0.363 C  
HETATM    5  O   UNL     1      -9.424  12.159  67.673  1.00  0.00    -0.178 OA 
HETATM    6  C   UNL     1     -10.012  13.333  68.053  1.00  0.00    -0.233 C  
HETATM    7  N   UNL     1     -11.183  13.503  67.402  1.00  0.00    -0.285 N  
HETATM    8  O   UNL     1      -9.506  14.096  68.860  1.00  0.00    -0.146 OA 
HETATM    9  C   UNL     1     -11.419  12.460  66.570  1.00  0.00    -0.371 C  
HETATM   10  C   UNL     1     -12.009  14.679  67.486  1.00  0.00    -0.278 C  
HETATM   11  O   UNL     1     -12.344  12.345  65.778  1.00  0.00    -0.644 OA 
ENDBRANCH   2   3
TORSDOF 1
ENDMDL
MODEL       86
REMARK 921   NORMALIZED FREE ENERGY PREDICTED BY IDOCK:   -2.95 KCAL/MOL
REMARK 922        TOTAL FREE ENERGY PREDICTED BY IDOCK:   -3.14 KCAL/MOL
REMARK 923 INTER-LIGAND FREE ENERGY PREDICTED BY IDOCK:   -3.08 KCAL/MOL
REMARK 924 INTRA-LIGAND FREE ENERGY PREDICTED BY IDOCK:   -0.06 KCAL/MOL
REMARK 927      BINDING AFFINITY PREDICTED BY RF-SCORE:    0.00 PKD
ROOT
HETATM    1  C   UNL     1      -8.424   8.683  71.626  1.00  0.00    -0.230 C  
HETATM    2  C   UNL     1      -9.124   9.406  70.479  1.00  0.00    -0.308 C  
ENDROOT
BRANCH   2   3
HETATM    3  C   UNL     1     -10.497   8.834  70.115  1.00  0.00    -0.213 C  
HETATM    4  C   UNL     1     -10.626   8.610  68.610  1.00  0.00    -0.165 C  
HETATM    5  O   UNL     1     -10.723   7.577  70.770  1.00  0.00    -0.222 OA 
HETATM    6  C   UNL     1     -11.952   7.606  71.368  1.00  0.00    -0.310 C  
HETATM    7  N   UNL     1     -12.492   8.841  71.270  1.00  0.00    -0.290 N  
HETATM    8  O   UNL     1     -12.446   6.634  71.914  1.00  0.00    -0.344 OA 
HETATM    9  C   UNL     1     -11.651   9.675  70.610  1.00  0.00    -0.299 C  
HETATM   10  C   UNL     1     -13.728   9.250  71.882  1.00  0.00    -0.398 C  
HETATM   11  O   UNL     1     -11.799  10.875  70.428  1.00  0.00    -0.302 OA 
ENDBRANCH   2   3
TORSDOF 1
ENDMDL
MODEL       87
REMARK 921   NORMALIZED FREE ENERGY PREDICTED BY IDOCK:   -2.95 KCAL/MOL
REMARK 922        TOTAL FREE ENERGY PREDICTED BY IDOCK:   -3.14 KCAL/MOL
REMARK 923 INTER-LIGAND FREE ENERGY PREDICTED BY IDOCK:   -3.14 KCAL/MOL
REMARK 924 INTRA-LIGAND FREE ENERGY PREDICTED BY IDOCK:   -0.00 KCAL/MOL
REMARK 927      BINDING AFFINITY PREDICTED BY RF-SCORE:    0.00 PKD
ROOT
HETATM    1  C   UNL     1     -10.985  15.516  64.822  1.00  0.00    -0.416 C  
HETATM    2  C   UNL     1     -10.540  14.062  64.705  1.00  0.00    -0.416 C  
ENDROOT
BRANCH   2   3
HETATM    3  C   UNL     1     -10.358  13.345  66.046  1.00  0.00    -0.297 C  
HETATM    4  C   UNL     1     -10.260  11.832  65.861  1.00  0.00    -0.272 C  
HETATM    5  O   UNL     1      -9.165  13.788  66.710  1.00  0.00    -0.246 OA 
HETATM    6  C   UNL     1      -9.472  14.104  68.004  1.00  0.00    -0.213 C  
HETATM    7  N   UNL     1     -10.806  14.033  68.200  1.00  0.00    -0.243 N  
HETATM    8  O   UNL     1      -8.627  14.415  68.827  1.00  0.00    -0.170 OA 
HETATM    9  C   UNL     1     -11.435  13.671  67.055  1.00  0.00    -0.343 C  
HETATM   10  C   UNL     1     -11.481  14.404  69.416  1.00  0.00    -0.288 C  
HETATM   11  O   UNL     1     -12.642  13.599  66.870  1.00  0.00    -0.233 OA 
ENDBRANCH   2   3
TORSDOF 1
ENDMDL
MODEL       88
REMARK 921   NORMALIZED FREE ENERGY PREDICTED BY IDOCK:   -2.93 KCAL/MOL
REMARK 922        TOTAL FREE ENERGY PREDICTED BY IDOCK:   -3.12 KCAL/MOL
REMARK 923 INTER-LIGAND FREE ENERGY PREDICTED BY IDOCK:   -3.09 KCAL/MOL
REMARK 924 INTRA-LIGAND FREE ENERGY PREDICTED BY IDOCK:   -0.03 KCAL/MOL
REMARK 927      BINDING AFFINITY PREDICTED BY RF-SCORE:    0.00 PKD
ROOT
HETATM    1  C   UNL     1      -9.541   7.300  73.814  1.00  0.00    -0.330 C  
HETATM    2  C   UNL     1      -9.476   8.398  72.757  1.00  0.00    -0.312 C  
ENDROOT
BRANCH   2   3
HETATM    3  C   UNL     1     -10.624   8.373  71.744  1.00  0.00    -0.282 C  
HETATM    4  C   UNL     1     -11.375   7.044  71.786  1.00  0.00    -0.291 C  
HETATM    5  O   UNL     1     -11.567   9.423  72.006  1.00  0.00    -0.342 OA 
HETATM    6  C   UNL     1     -11.818  10.091  70.840  1.00  0.00    -0.368 C  
HETATM    7  N   UNL     1     -11.004   9.644  69.860  1.00  0.00    -0.243 N  
HETATM    8  O   UNL     1     -12.659  10.970  70.750  1.00  0.00    -0.348 OA 
HETATM    9  C   UNL     1     -10.186   8.671  70.329  1.00  0.00    -0.194 C  
HETATM   10  C   UNL     1     -10.929  10.202  68.535  1.00  0.00    -0.232 C  
HETATM   11  O   UNL     1      -9.277   8.120  69.724  1.00  0.00    -0.151 OA 
ENDBRANCH   2   3
TORSDOF 1
ENDMDL
MODEL       89
REMARK 921   NORMALIZED FREE ENERGY PREDICTED BY IDOCK:   -2.93 KCAL/MOL
REMARK 922        TOTAL FREE ENERGY PREDICTED BY IDOCK:   -3.12 KCAL/MOL
REMARK 923 INTER-LIGAND FREE ENERGY PREDICTED BY IDOCK:   -3.07 KCAL/MOL
REMARK 924 INTRA-LIGAND FREE ENERGY PREDICTED BY IDOCK:   -0.05 KCAL/MOL
REMARK 927      BINDING AFFINITY PREDICTED BY RF-SCORE:    0.00 PKD
ROOT
HETATM    1  C   UNL     1     -12.373  13.720  70.279  1.00  0.00    -0.407 C  
HETATM    2  C   UNL     1     -12.191  15.187  69.903  1.00  0.00    -0.353 C  
ENDROOT
BRANCH   2   3
HETATM    3  C   UNL     1     -11.137  15.438  68.821  1.00  0.00    -0.283 C  
HETATM    4  C   UNL     1     -11.152  16.891  68.352  1.00  0.00    -0.216 C  
HETATM    5  O   UNL     1      -9.819  15.144  69.306  1.00  0.00    -0.222 OA 
HETATM    6  C   UNL     1      -9.182  14.344  68.399  1.00  0.00    -0.195 C  
HETATM    7  N   UNL     1     -10.035  13.978  67.418  1.00  0.00    -0.241 N  
HETATM    8  O   UNL     1      -8.011  14.020  68.509  1.00  0.00    -0.135 OA 
HETATM    9  C   UNL     1     -11.262  14.513  67.631  1.00  0.00    -0.322 C  
HETATM   10  C   UNL     1      -9.724  13.053  66.359  1.00  0.00    -0.268 C  
HETATM   11  O   UNL     1     -12.276  14.310  66.980  1.00  0.00    -0.424 OA 
ENDBRANCH   2   3
TORSDOF 1
ENDMDL
MODEL       90
REMARK 921   NORMALIZED FREE ENERGY PREDICTED BY IDOCK:   -2.91 KCAL/MOL
REMARK 922        TOTAL FREE ENERGY PREDICTED BY IDOCK:   -3.11 KCAL/MOL
REMARK 923 INTER-LIGAND FREE ENERGY PREDICTED BY IDOCK:   -3.06 KCAL/MOL
REMARK 924 INTRA-LIGAND FREE ENERGY PREDICTED BY IDOCK:   -0.05 KCAL/MOL
REMARK 927      BINDING AFFINITY PREDICTED BY RF-SCORE:    0.00 PKD
ROOT
HETATM    1  C   UNL     1      -7.841  13.228  67.047  1.00  0.00     0.051 C  
HETATM    2  C   UNL     1      -9.107  12.513  67.508  1.00  0.00    -0.187 C  
ENDROOT
BRANCH   2   3
HETATM    3  C   UNL     1     -10.403  13.285  67.243  1.00  0.00    -0.247 C  
HETATM    4  C   UNL     1     -11.632  12.426  67.531  1.00  0.00    -0.431 C  
HETATM    5  O   UNL     1     -10.481  14.460  68.064  1.00  0.00    -0.232 OA 
HETATM    6  C   UNL     1     -10.804  15.528  67.275  1.00  0.00    -0.313 C  
HETATM    7  N   UNL     1     -10.809  15.166  65.974  1.00  0.00    -0.329 N  
HETATM    8  O   UNL     1     -11.034  16.638  67.726  1.00  0.00    -0.320 OA 
HETATM    9  C   UNL     1     -10.490  13.855  65.846  1.00  0.00    -0.305 C  
HETATM   10  C   UNL     1     -11.004  16.067  64.868  1.00  0.00    -0.384 C  
HETATM   11  O   UNL     1     -10.324  13.237  64.804  1.00  0.00    -0.358 OA 
ENDBRANCH   2   3
TORSDOF 1
ENDMDL
MODEL       91
REMARK 921   NORMALIZED FREE ENERGY PREDICTED BY IDOCK:   -2.91 KCAL/MOL
REMARK 922        TOTAL FREE ENERGY PREDICTED BY IDOCK:   -3.10 KCAL/MOL
REMARK 923 INTER-LIGAND FREE ENERGY PREDICTED BY IDOCK:   -3.04 KCAL/MOL
REMARK 924 INTRA-LIGAND FREE ENERGY PREDICTED BY IDOCK:   -0.06 KCAL/MOL
REMARK 927      BINDING AFFINITY PREDICTED BY RF-SCORE:    0.00 PKD
ROOT
HETATM    1  C   UNL     1      -6.877  17.504  66.875  1.00  0.00    -0.220 C  
HETATM    2  C   UNL     1      -7.962  17.707  67.928  1.00  0.00    -0.231 C  
ENDROOT
BRANCH   2   3
HETATM    3  C   UNL     1      -9.328  17.127  67.550  1.00  0.00    -0.238 C  
HETATM    4  C   UNL     1     -10.430  18.179  67.657  1.00  0.00    -0.432 C  
HETATM    5  O   UNL     1      -9.322  16.628  66.204  1.00  0.00    -0.292 OA 
HETATM    6  C   UNL     1      -9.849  15.367  66.199  1.00  0.00    -0.311 C  
HETATM    7  N   UNL     1     -10.072  14.947  67.463  1.00  0.00    -0.228 N  
HETATM    8  O   UNL     1     -10.056  14.741  65.173  1.00  0.00    -0.372 OA 
HETATM    9  C   UNL     1      -9.706  15.903  68.351  1.00  0.00    -0.214 C  
HETATM   10  C   UNL     1     -10.521  13.629  67.826  1.00  0.00    -0.240 C  
HETATM   11  O   UNL     1      -9.699  15.809  69.571  1.00  0.00    -0.261 OA 
ENDBRANCH   2   3
TORSDOF 1
ENDMDL
MODEL       92
REMARK 921   NORMALIZED FREE ENERGY PREDICTED BY IDOCK:   -2.91 KCAL/MOL
REMARK 922        TOTAL FREE ENERGY PREDICTED BY IDOCK:   -3.10 KCAL/MOL
REMARK 923 INTER-LIGAND FREE ENERGY PREDICTED BY IDOCK:   -3.04 KCAL/MOL
REMARK 924 INTRA-LIGAND FREE ENERGY PREDICTED BY IDOCK:   -0.06 KCAL/MOL
REMARK 927      BINDING AFFINITY PREDICTED BY RF-SCORE:    0.00 PKD
ROOT
HETATM    1  C   UNL     1     -11.706  13.154  66.090  1.00  0.00    -0.428 C  
HETATM    2  C   UNL     1     -11.711  11.942  67.016  1.00  0.00    -0.304 C  
ENDROOT
BRANCH   2   3
HETATM    3  C   UNL     1     -11.147  12.212  68.415  1.00  0.00    -0.245 C  
HETATM    4  C   UNL     1      -9.854  11.437  68.654  1.00  0.00    -0.199 C  
HETATM    5  O   UNL     1     -10.867  13.608  68.598  1.00  0.00    -0.250 OA 
HETATM    6  C   UNL     1     -11.418  14.017  69.780  1.00  0.00    -0.230 C  
HETATM    7  N   UNL     1     -12.158  13.025  70.320  1.00  0.00    -0.350 N  
HETATM    8  O   UNL     1     -11.250  15.136  70.236  1.00  0.00    -0.250 OA 
HETATM    9  C   UNL     1     -12.131  11.927  69.527  1.00  0.00    -0.226 C  
HETATM   10  C   UNL     1     -12.962  13.150  71.508  1.00  0.00    -0.321 C  
HETATM   11  O   UNL     1     -12.761  10.891  69.683  1.00  0.00    -0.235 OA 
ENDBRANCH   2   3
TORSDOF 1
ENDMDL
MODEL       93
REMARK 921   NORMALIZED FREE ENERGY PREDICTED BY IDOCK:   -2.86 KCAL/MOL
REMARK 922        TOTAL FREE ENERGY PREDICTED BY IDOCK:   -3.05 KCAL/MOL
REMARK 923 INTER-LIGAND FREE ENERGY PREDICTED BY IDOCK:   -3.36 KCAL/MOL
REMARK 924 INTRA-LIGAND FREE ENERGY PREDICTED BY IDOCK:    0.31 KCAL/MOL
REMARK 927      BINDING AFFINITY PREDICTED BY RF-SCORE:    0.00 PKD
ROOT
HETATM    1  C   UNL     1      -8.227  16.928  66.251  1.00  0.00    -0.344 C  
HETATM    2  C   UNL     1      -8.603  15.456  66.383  1.00  0.00    -0.244 C  
ENDROOT
BRANCH   2   3
HETATM    3  C   UNL     1     -10.105  15.196  66.526  1.00  0.00    -0.269 C  
HETATM    4  C   UNL     1     -10.861  15.569  65.253  1.00  0.00    -0.425 C  
HETATM    5  O   UNL     1     -10.365  13.812  66.805  1.00  0.00    -0.266 OA 
HETATM    6  C   UNL     1     -11.216  13.729  67.872  1.00  0.00    -0.274 C  
HETATM    7  N   UNL     1     -11.424  14.954  68.402  1.00  0.00    -0.304 N  
HETATM    8  O   UNL     1     -11.684  12.673  68.265  1.00  0.00    -0.308 OA 
HETATM    9  C   UNL     1     -10.727  15.892  67.716  1.00  0.00    -0.320 C  
HETATM   10  C   UNL     1     -12.181  15.217  69.597  1.00  0.00    -0.257 C  
HETATM   11  O   UNL     1     -10.630  17.080  67.987  1.00  0.00    -0.346 OA 
ENDBRANCH   2   3
TORSDOF 1
ENDMDL
MODEL       94
REMARK 921   NORMALIZED FREE ENERGY PREDICTED BY IDOCK:   -2.84 KCAL/MOL
REMARK 922        TOTAL FREE ENERGY PREDICTED BY IDOCK:   -3.02 KCAL/MOL
REMARK 923 INTER-LIGAND FREE ENERGY PREDICTED BY IDOCK:   -2.94 KCAL/MOL
REMARK 924 INTRA-LIGAND FREE ENERGY PREDICTED BY IDOCK:   -0.09 KCAL/MOL
REMARK 927      BINDING AFFINITY PREDICTED BY RF-SCORE:    0.00 PKD
ROOT
HETATM    1  C   UNL     1     -10.974  13.435  66.412  1.00  0.00    -0.297 C  
HETATM    2  C   UNL     1     -10.955  14.854  65.853  1.00  0.00    -0.338 C  
ENDROOT
BRANCH   2   3
HETATM    3  C   UNL     1     -10.384  15.905  66.810  1.00  0.00    -0.298 C  
HETATM    4  C   UNL     1     -10.356  17.289  66.167  1.00  0.00    -0.320 C  
HETATM    5  O   UNL     1     -11.168  15.989  68.010  1.00  0.00    -0.344 OA 
HETATM    6  C   UNL     1     -10.330  15.934  69.089  1.00  0.00    -0.237 C  
HETATM    7  N   UNL     1      -9.066  15.680  68.688  1.00  0.00    -0.195 N  
HETATM    8  O   UNL     1     -10.718  16.084  70.235  1.00  0.00    -0.311 OA 
HETATM    9  C   UNL     1      -9.012  15.556  67.339  1.00  0.00    -0.192 C  
HETATM   10  C   UNL     1      -7.952  15.451  69.571  1.00  0.00    -0.204 C  
HETATM   11  O   UNL     1      -8.039  15.243  66.668  1.00  0.00    -0.200 OA 
ENDBRANCH   2   3
TORSDOF 1
ENDMDL
MODEL       95
REMARK 921   NORMALIZED FREE ENERGY PREDICTED BY IDOCK:   -2.83 KCAL/MOL
REMARK 922        TOTAL FREE ENERGY PREDICTED BY IDOCK:   -3.02 KCAL/MOL
REMARK 923 INTER-LIGAND FREE ENERGY PREDICTED BY IDOCK:   -2.99 KCAL/MOL
REMARK 924 INTRA-LIGAND FREE ENERGY PREDICTED BY IDOCK:   -0.03 KCAL/MOL
REMARK 927      BINDING AFFINITY PREDICTED BY RF-SCORE:    0.00 PKD
ROOT
HETATM    1  C   UNL     1      -9.367   9.675  64.836  1.00  0.00    -0.306 C  
HETATM    2  C   UNL     1     -10.490  10.672  65.101  1.00  0.00    -0.271 C  
ENDROOT
BRANCH   2   3
HETATM    3  C   UNL     1     -10.045  11.957  65.806  1.00  0.00    -0.241 C  
HETATM    4  C   UNL     1      -8.630  11.825  66.364  1.00  0.00    -0.113 C  
HETATM    5  O   UNL     1     -10.063  13.073  64.904  1.00  0.00    -0.278 OA 
HETATM    6  C   UNL     1     -10.729  14.109  65.498  1.00  0.00    -0.324 C  
HETATM    7  N   UNL     1     -11.269  13.708  66.669  1.00  0.00    -0.306 N  
HETATM    8  O   UNL     1     -10.810  15.218  64.997  1.00  0.00    -0.390 OA 
HETATM    9  C   UNL     1     -10.989  12.403  66.899  1.00  0.00    -0.265 C  
HETATM   10  C   UNL     1     -12.124  14.515  67.501  1.00  0.00    -0.249 C  
HETATM   11  O   UNL     1     -11.399  11.714  67.823  1.00  0.00    -0.248 OA 
ENDBRANCH   2   3
TORSDOF 1
ENDMDL
MODEL       96
REMARK 921   NORMALIZED FREE ENERGY PREDICTED BY IDOCK:   -2.83 KCAL/MOL
REMARK 922        TOTAL FREE ENERGY PREDICTED BY IDOCK:   -3.02 KCAL/MOL
REMARK 923 INTER-LIGAND FREE ENERGY PREDICTED BY IDOCK:   -2.97 KCAL/MOL
REMARK 924 INTRA-LIGAND FREE ENERGY PREDICTED BY IDOCK:   -0.05 KCAL/MOL
REMARK 927      BINDING AFFINITY PREDICTED BY RF-SCORE:    0.00 PKD
ROOT
HETATM    1  C   UNL     1      -9.772   4.396  70.497  1.00  0.00    -0.287 C  
HETATM    2  C   UNL     1     -10.594   5.574  69.983  1.00  0.00    -0.384 C  
ENDROOT
BRANCH   2   3
HETATM    3  C   UNL     1     -10.621   6.784  70.921  1.00  0.00    -0.220 C  
HETATM    4  C   UNL     1      -9.411   6.797  71.852  1.00  0.00    -0.146 C  
HETATM    5  O   UNL     1     -10.622   8.012  70.178  1.00  0.00    -0.228 OA 
HETATM    6  C   UNL     1     -11.616   8.818  70.658  1.00  0.00    -0.205 C  
HETATM    7  N   UNL     1     -12.359   8.154  71.569  1.00  0.00    -0.300 N  
HETATM    8  O   UNL     1     -11.781   9.965  70.276  1.00  0.00    -0.253 OA 
HETATM    9  C   UNL     1     -11.893   6.891  71.731  1.00  0.00    -0.316 C  
HETATM   10  C   UNL     1     -13.549   8.668  72.195  1.00  0.00    -0.406 C  
HETATM   11  O   UNL     1     -12.389   6.007  72.415  1.00  0.00    -0.221 OA 
ENDBRANCH   2   3
TORSDOF 1
ENDMDL
MODEL       97
REMARK 921   NORMALIZED FREE ENERGY PREDICTED BY IDOCK:   -2.81 KCAL/MOL
REMARK 922        TOTAL FREE ENERGY PREDICTED BY IDOCK:   -3.00 KCAL/MOL
REMARK 923 INTER-LIGAND FREE ENERGY PREDICTED BY IDOCK:   -2.95 KCAL/MOL
REMARK 924 INTRA-LIGAND FREE ENERGY PREDICTED BY IDOCK:   -0.05 KCAL/MOL
REMARK 927      BINDING AFFINITY PREDICTED BY RF-SCORE:    0.00 PKD
ROOT
HETATM    1  C   UNL     1     -10.406   7.917  66.845  1.00  0.00    -0.400 C  
HETATM    2  C   UNL     1      -9.357   8.968  66.498  1.00  0.00    -0.246 C  
ENDROOT
BRANCH   2   3
HETATM    3  C   UNL     1      -9.926  10.359  66.206  1.00  0.00    -0.226 C  
HETATM    4  C   UNL     1     -10.133  10.575  64.709  1.00  0.00    -0.406 C  
HETATM    5  O   UNL     1     -11.190  10.547  66.860  1.00  0.00    -0.193 OA 
HETATM    6  C   UNL     1     -11.168  11.740  67.527  1.00  0.00    -0.291 C  
HETATM    7  N   UNL     1      -9.933  12.284  67.474  1.00  0.00    -0.197 N  
HETATM    8  O   UNL     1     -12.147  12.201  68.090  1.00  0.00    -0.447 OA 
HETATM    9  C   UNL     1      -9.091  11.483  66.777  1.00  0.00    -0.181 C  
HETATM   10  C   UNL     1      -9.532  13.484  68.161  1.00  0.00    -0.214 C  
HETATM   11  O   UNL     1      -7.890  11.642  66.617  1.00  0.00    -0.149 OA 
ENDBRANCH   2   3
TORSDOF 1
ENDMDL
MODEL       98
REMARK 921   NORMALIZED FREE ENERGY PREDICTED BY IDOCK:   -2.81 KCAL/MOL
REMARK 922        TOTAL FREE ENERGY PREDICTED BY IDOCK:   -3.00 KCAL/MOL
REMARK 923 INTER-LIGAND FREE ENERGY PREDICTED BY IDOCK:   -3.40 KCAL/MOL
REMARK 924 INTRA-LIGAND FREE ENERGY PREDICTED BY IDOCK:    0.40 KCAL/MOL
REMARK 927      BINDING AFFINITY PREDICTED BY RF-SCORE:    0.00 PKD
ROOT
HETATM    1  C   UNL     1      -9.892  10.282  67.815  1.00  0.00    -0.195 C  
HETATM    2  C   UNL     1      -9.737  11.682  68.399  1.00  0.00    -0.199 C  
ENDROOT
BRANCH   2   3
HETATM    3  C   UNL     1     -11.024  12.513  68.403  1.00  0.00    -0.248 C  
HETATM    4  C   UNL     1     -11.997  12.031  69.477  1.00  0.00    -0.346 C  
HETATM    5  O   UNL     1     -10.742  13.898  68.650  1.00  0.00    -0.248 OA 
HETATM    6  C   UNL     1     -11.386  14.654  67.711  1.00  0.00    -0.322 C  
HETATM    7  N   UNL     1     -11.957  13.859  66.781  1.00  0.00    -0.421 N  
HETATM    8  O   UNL     1     -11.403  15.874  67.740  1.00  0.00    -0.299 OA 
HETATM    9  C   UNL     1     -11.719  12.554  67.061  1.00  0.00    -0.367 C  
HETATM   10  C   UNL     1     -12.623  14.327  65.593  1.00  0.00    -0.410 C  
HETATM   11  O   UNL     1     -12.021  11.588  66.376  1.00  0.00    -0.345 OA 
ENDBRANCH   2   3
TORSDOF 1
ENDMDL
MODEL       99
REMARK 921   NORMALIZED FREE ENERGY PREDICTED BY IDOCK:   -2.79 KCAL/MOL
REMARK 922        TOTAL FREE ENERGY PREDICTED BY IDOCK:   -2.97 KCAL/MOL
REMARK 923 INTER-LIGAND FREE ENERGY PREDICTED BY IDOCK:   -2.98 KCAL/MOL
REMARK 924 INTRA-LIGAND FREE ENERGY PREDICTED BY IDOCK:    0.01 KCAL/MOL
REMARK 927      BINDING AFFINITY PREDICTED BY RF-SCORE:    0.00 PKD
ROOT
HETATM    1  C   UNL     1      -9.646   5.555  69.725  1.00  0.00    -0.215 C  
HETATM    2  C   UNL     1     -11.104   5.933  69.966  1.00  0.00    -0.411 C  
ENDROOT
BRANCH   2   3
HETATM    3  C   UNL     1     -11.386   6.515  71.354  1.00  0.00    -0.294 C  
HETATM    4  C   UNL     1     -12.744   7.212  71.401  1.00  0.00    -0.433 C  
HETATM    5  O   UNL     1     -11.382   5.487  72.356  1.00  0.00    -0.271 OA 
HETATM    6  C   UNL     1     -10.590   5.887  73.395  1.00  0.00    -0.258 C  
HETATM    7  N   UNL     1      -9.963   7.043  73.089  1.00  0.00    -0.189 N  
HETATM    8  O   UNL     1     -10.483   5.249  74.430  1.00  0.00    -0.275 OA 
HETATM    9  C   UNL     1     -10.309   7.455  71.844  1.00  0.00    -0.192 C  
HETATM   10  C   UNL     1      -8.975   7.688  73.913  1.00  0.00    -0.267 C  
HETATM   11  O   UNL     1      -9.856   8.413  71.235  1.00  0.00    -0.176 OA 
ENDBRANCH   2   3
TORSDOF 1
ENDMDL
MODEL      100
REMARK 921   NORMALIZED FREE ENERGY PREDICTED BY IDOCK:   -2.78 KCAL/MOL
REMARK 922        TOTAL FREE ENERGY PREDICTED BY IDOCK:   -2.97 KCAL/MOL
REMARK 923 INTER-LIGAND FREE ENERGY PREDICTED BY IDOCK:   -2.92 KCAL/MOL
REMARK 924 INTRA-LIGAND FREE ENERGY PREDICTED BY IDOCK:   -0.04 KCAL/MOL
REMARK 927      BINDING AFFINITY PREDICTED BY RF-SCORE:    0.00 PKD
ROOT
HETATM    1  C   UNL     1      -5.782  20.098  71.069  1.00  0.00    -0.344 C  
HETATM    2  C   UNL     1      -5.854  18.846  70.200  1.00  0.00    -0.242 C  
ENDROOT
BRANCH   2   3
HETATM    3  C   UNL     1      -6.108  19.120  68.714  1.00  0.00    -0.229 C  
HETATM    4  C   UNL     1      -6.016  20.611  68.398  1.00  0.00    -0.368 C  
HETATM    5  O   UNL     1      -5.152  18.433  67.892  1.00  0.00    -0.158 OA 
HETATM    6  C   UNL     1      -5.820  17.764  66.905  1.00  0.00    -0.149 C  
HETATM    7  N   UNL     1      -7.154  17.849  67.101  1.00  0.00    -0.181 N  
HETATM    8  O   UNL     1      -5.249  17.175  66.002  1.00  0.00    -0.344 OA 
HETATM    9  C   UNL     1      -7.424  18.570  68.216  1.00  0.00    -0.281 C  
HETATM   10  C   UNL     1      -8.147  17.170  66.310  1.00  0.00    -0.290 C  
HETATM   11  O   UNL     1      -8.522  18.761  68.719  1.00  0.00    -0.337 OA 
ENDBRANCH   2   3
TORSDOF 1
ENDMDL
MODEL      101
REMARK 921   NORMALIZED FREE ENERGY PREDICTED BY IDOCK:   -2.78 KCAL/MOL
REMARK 922        TOTAL FREE ENERGY PREDICTED BY IDOCK:   -2.97 KCAL/MOL
REMARK 923 INTER-LIGAND FREE ENERGY PREDICTED BY IDOCK:   -2.87 KCAL/MOL
REMARK 924 INTRA-LIGAND FREE ENERGY PREDICTED BY IDOCK:   -0.10 KCAL/MOL
REMARK 927      BINDING AFFINITY PREDICTED BY RF-SCORE:    0.00 PKD
ROOT
HETATM    1  C   UNL     1     -10.195   8.086  66.788  1.00  0.00    -0.367 C  
HETATM    2  C   UNL     1      -8.963   8.983  66.851  1.00  0.00    -0.144 C  
ENDROOT
BRANCH   2   3
HETATM    3  C   UNL     1      -9.245  10.416  67.310  1.00  0.00    -0.142 C  
HETATM    4  C   UNL     1      -7.999  11.292  67.203  1.00  0.00    -0.151 C  
HETATM    5  O   UNL     1     -10.279  11.017  66.517  1.00  0.00    -0.218 OA 
HETATM    6  C   UNL     1     -11.204  11.581  67.351  1.00  0.00    -0.304 C  
HETATM    7  N   UNL     1     -10.924  11.274  68.636  1.00  0.00    -0.200 N  
HETATM    8  O   UNL     1     -12.141  12.248  66.946  1.00  0.00    -0.583 OA 
HETATM    9  C   UNL     1      -9.814  10.500  68.708  1.00  0.00    -0.186 C  
HETATM   10  C   UNL     1     -11.751  11.616  69.764  1.00  0.00    -0.352 C  
HETATM   11  O   UNL     1      -9.342   9.982  69.710  1.00  0.00    -0.220 OA 
ENDBRANCH   2   3
TORSDOF 1
ENDMDL
MODEL      102
REMARK 921   NORMALIZED FREE ENERGY PREDICTED BY IDOCK:   -2.78 KCAL/MOL
REMARK 922        TOTAL FREE ENERGY PREDICTED BY IDOCK:   -2.97 KCAL/MOL
REMARK 923 INTER-LIGAND FREE ENERGY PREDICTED BY IDOCK:   -2.91 KCAL/MOL
REMARK 924 INTRA-LIGAND FREE ENERGY PREDICTED BY IDOCK:   -0.05 KCAL/MOL
REMARK 927      BINDING AFFINITY PREDICTED BY RF-SCORE:    0.00 PKD
ROOT
HETATM    1  C   UNL     1     -10.222   6.683  66.967  1.00  0.00    -0.288 C  
HETATM    2  C   UNL     1     -10.998   6.176  68.178  1.00  0.00    -0.398 C  
ENDROOT
BRANCH   2   3
HETATM    3  C   UNL     1     -10.412   6.599  69.528  1.00  0.00    -0.218 C  
HETATM    4  C   UNL     1      -9.690   5.440  70.212  1.00  0.00    -0.254 C  
HETATM    5  O   UNL     1      -9.473   7.674  69.370  1.00  0.00    -0.153 OA 
HETATM    6  C   UNL     1      -9.775   8.659  70.267  1.00  0.00    -0.174 C  
HETATM    7  N   UNL     1     -10.927   8.371  70.910  1.00  0.00    -0.237 N  
HETATM    8  O   UNL     1      -9.080   9.650  70.421  1.00  0.00    -0.246 OA 
HETATM    9  C   UNL     1     -11.435   7.194  70.470  1.00  0.00    -0.295 C  
HETATM   10  C   UNL     1     -11.591   9.244  71.843  1.00  0.00    -0.334 C  
HETATM   11  O   UNL     1     -12.504   6.691  70.783  1.00  0.00    -0.314 OA 
ENDBRANCH   2   3
TORSDOF 1
ENDMDL
MODEL      103
REMARK 921   NORMALIZED FREE ENERGY PREDICTED BY IDOCK:   -2.77 KCAL/MOL
REMARK 922        TOTAL FREE ENERGY PREDICTED BY IDOCK:   -2.96 KCAL/MOL
REMARK 923 INTER-LIGAND FREE ENERGY PREDICTED BY IDOCK:   -2.91 KCAL/MOL
REMARK 924 INTRA-LIGAND FREE ENERGY PREDICTED BY IDOCK:   -0.04 KCAL/MOL
REMARK 927      BINDING AFFINITY PREDICTED BY RF-SCORE:    0.00 PKD
ROOT
HETATM    1  C   UNL     1     -10.728   6.486  67.383  1.00  0.00    -0.412 C  
HETATM    2  C   UNL     1     -10.978   6.286  68.874  1.00  0.00    -0.435 C  
ENDROOT
BRANCH   2   3
HETATM    3  C   UNL     1     -10.730   7.531  69.731  1.00  0.00    -0.242 C  
HETATM    4  C   UNL     1     -10.489   8.766  68.866  1.00  0.00    -0.217 C  
HETATM    5  O   UNL     1     -11.850   7.801  70.586  1.00  0.00    -0.239 OA 
HETATM    6  C   UNL     1     -11.396   8.000  71.860  1.00  0.00    -0.283 C  
HETATM    7  N   UNL     1     -10.072   7.744  71.930  1.00  0.00    -0.177 N  
HETATM    8  O   UNL     1     -12.123   8.346  72.776  1.00  0.00    -0.354 OA 
HETATM    9  C   UNL     1      -9.596   7.367  70.718  1.00  0.00    -0.170 C  
HETATM   10  C   UNL     1      -9.294   7.751  73.142  1.00  0.00    -0.255 C  
HETATM   11  O   UNL     1      -8.464   6.985  70.459  1.00  0.00    -0.130 OA 
ENDBRANCH   2   3
TORSDOF 1
ENDMDL
MODEL      104
REMARK 921   NORMALIZED FREE ENERGY PREDICTED BY IDOCK:   -2.77 KCAL/MOL
REMARK 922        TOTAL FREE ENERGY PREDICTED BY IDOCK:   -2.95 KCAL/MOL
REMARK 923 INTER-LIGAND FREE ENERGY PREDICTED BY IDOCK:   -2.89 KCAL/MOL
REMARK 924 INTRA-LIGAND FREE ENERGY PREDICTED BY IDOCK:   -0.06 KCAL/MOL
REMARK 927      BINDING AFFINITY PREDICTED BY RF-SCORE:    0.00 PKD
ROOT
HETATM    1  C   UNL     1      -6.290  18.296  65.554  1.00  0.00    -0.285 C  
HETATM    2  C   UNL     1      -5.915  18.502  67.018  1.00  0.00    -0.171 C  
ENDROOT
BRANCH   2   3
HETATM    3  C   UNL     1      -7.108  18.559  67.976  1.00  0.00    -0.236 C  
HETATM    4  C   UNL     1      -7.030  19.777  68.894  1.00  0.00    -0.367 C  
HETATM    5  O   UNL     1      -8.347  18.627  67.254  1.00  0.00    -0.256 OA 
HETATM    6  C   UNL     1      -9.204  17.690  67.759  1.00  0.00    -0.251 C  
HETATM    7  N   UNL     1      -8.571  16.917  68.667  1.00  0.00    -0.260 N  
HETATM    8  O   UNL     1     -10.365  17.592  67.398  1.00  0.00    -0.335 OA 
HETATM    9  C   UNL     1      -7.279  17.304  68.802  1.00  0.00    -0.245 C  
HETATM   10  C   UNL     1      -9.146  15.766  69.314  1.00  0.00    -0.263 C  
HETATM   11  O   UNL     1      -6.415  16.762  69.476  1.00  0.00    -0.221 OA 
ENDBRANCH   2   3
TORSDOF 1
ENDMDL
MODEL      105
REMARK 921   NORMALIZED FREE ENERGY PREDICTED BY IDOCK:   -2.75 KCAL/MOL
REMARK 922        TOTAL FREE ENERGY PREDICTED BY IDOCK:   -2.93 KCAL/MOL
REMARK 923 INTER-LIGAND FREE ENERGY PREDICTED BY IDOCK:   -2.90 KCAL/MOL
REMARK 924 INTRA-LIGAND FREE ENERGY PREDICTED BY IDOCK:   -0.03 KCAL/MOL
REMARK 927      BINDING AFFINITY PREDICTED BY RF-SCORE:    0.00 PKD
ROOT
HETATM    1  C   UNL     1     -10.918  16.884  65.028  1.00  0.00    -0.055 C  
HETATM    2  C   UNL     1     -10.524  17.954  66.041  1.00  0.00    -0.293 C  
ENDROOT
BRANCH   2   3
HETATM    3  C   UNL     1      -9.166  17.725  66.709  1.00  0.00    -0.273 C  
HETATM    4  C   UNL     1      -9.193  16.502  67.623  1.00  0.00    -0.200 C  
HETATM    5  O   UNL     1      -8.136  17.523  65.730  1.00  0.00    -0.551 OA 
HETATM    6  C   UNL     1      -7.077  18.334  66.029  1.00  0.00    -0.271 C  
HETATM    7  N   UNL     1      -7.391  19.155  67.055  1.00  0.00    -0.212 N  
HETATM    8  O   UNL     1      -6.022  18.297  65.419  1.00  0.00    -0.214 OA 
HETATM    9  C   UNL     1      -8.660  18.927  67.474  1.00  0.00    -0.275 C  
HETATM   10  C   UNL     1      -6.547  20.208  67.555  1.00  0.00    -0.224 C  
HETATM   11  O   UNL     1      -9.278  19.554  68.323  1.00  0.00    -0.331 OA 
ENDBRANCH   2   3
TORSDOF 1
ENDMDL
MODEL      106
REMARK 921   NORMALIZED FREE ENERGY PREDICTED BY IDOCK:   -2.74 KCAL/MOL
REMARK 922        TOTAL FREE ENERGY PREDICTED BY IDOCK:   -2.93 KCAL/MOL
REMARK 923 INTER-LIGAND FREE ENERGY PREDICTED BY IDOCK:   -2.91 KCAL/MOL
REMARK 924 INTRA-LIGAND FREE ENERGY PREDICTED BY IDOCK:   -0.02 KCAL/MOL
REMARK 927      BINDING AFFINITY PREDICTED BY RF-SCORE:    0.00 PKD
ROOT
HETATM    1  C   UNL     1     -11.003  12.580  68.769  1.00  0.00    -0.294 C  
HETATM    2  C   UNL     1     -11.501  11.139  68.762  1.00  0.00    -0.366 C  
ENDROOT
BRANCH   2   3
HETATM    3  C   UNL     1     -10.593  10.150  69.499  1.00  0.00    -0.245 C  
HETATM    4  C   UNL     1      -9.130  10.584  69.438  1.00  0.00    -0.123 C  
HETATM    5  O   UNL     1     -10.965  10.039  70.880  1.00  0.00    -0.327 OA 
HETATM    6  C   UNL     1     -11.069   8.715  71.204  1.00  0.00    -0.266 C  
HETATM    7  N   UNL     1     -10.929   7.950  70.100  1.00  0.00    -0.251 N  
HETATM    8  O   UNL     1     -11.276   8.326  72.342  1.00  0.00    -0.339 OA 
HETATM    9  C   UNL     1     -10.728   8.726  69.007  1.00  0.00    -0.112 C  
HETATM   10  C   UNL     1     -11.089   6.520  70.062  1.00  0.00    -0.363 C  
HETATM   11  O   UNL     1     -10.648   8.354  67.845  1.00  0.00    -0.220 OA 
ENDBRANCH   2   3
TORSDOF 1
ENDMDL
MODEL      107
REMARK 921   NORMALIZED FREE ENERGY PREDICTED BY IDOCK:   -2.74 KCAL/MOL
REMARK 922        TOTAL FREE ENERGY PREDICTED BY IDOCK:   -2.92 KCAL/MOL
REMARK 923 INTER-LIGAND FREE ENERGY PREDICTED BY IDOCK:   -3.20 KCAL/MOL
REMARK 924 INTRA-LIGAND FREE ENERGY PREDICTED BY IDOCK:    0.28 KCAL/MOL
REMARK 927      BINDING AFFINITY PREDICTED BY RF-SCORE:    0.00 PKD
ROOT
HETATM    1  C   UNL     1     -11.238  12.886  65.856  1.00  0.00    -0.323 C  
HETATM    2  C   UNL     1     -11.273  14.405  65.724  1.00  0.00    -0.326 C  
ENDROOT
BRANCH   2   3
HETATM    3  C   UNL     1     -10.328  15.146  66.675  1.00  0.00    -0.274 C  
HETATM    4  C   UNL     1      -8.866  14.820  66.376  1.00  0.00    -0.152 C  
HETATM    5  O   UNL     1     -10.496  16.567  66.566  1.00  0.00    -0.301 OA 
HETATM    6  C   UNL     1     -10.633  17.093  67.820  1.00  0.00    -0.360 C  
HETATM    7  N   UNL     1     -10.707  16.105  68.737  1.00  0.00    -0.275 N  
HETATM    8  O   UNL     1     -10.692  18.293  68.032  1.00  0.00    -0.368 OA 
HETATM    9  C   UNL     1     -10.623  14.893  68.136  1.00  0.00    -0.244 C  
HETATM   10  C   UNL     1     -10.959  16.300  70.141  1.00  0.00    -0.332 C  
HETATM   11  O   UNL     1     -10.741  13.798  68.668  1.00  0.00    -0.246 OA 
ENDBRANCH   2   3
TORSDOF 1
ENDMDL
MODEL      108
REMARK 921   NORMALIZED FREE ENERGY PREDICTED BY IDOCK:   -2.74 KCAL/MOL
REMARK 922        TOTAL FREE ENERGY PREDICTED BY IDOCK:   -2.92 KCAL/MOL
REMARK 923 INTER-LIGAND FREE ENERGY PREDICTED BY IDOCK:   -2.90 KCAL/MOL
REMARK 924 INTRA-LIGAND FREE ENERGY PREDICTED BY IDOCK:   -0.02 KCAL/MOL
REMARK 927      BINDING AFFINITY PREDICTED BY RF-SCORE:    0.00 PKD
ROOT
HETATM    1  C   UNL     1     -10.543   5.406  66.784  1.00  0.00    -0.339 C  
HETATM    2  C   UNL     1     -11.027   6.273  67.942  1.00  0.00    -0.421 C  
ENDROOT
BRANCH   2   3
HETATM    3  C   UNL     1     -10.272   7.596  68.102  1.00  0.00    -0.196 C  
HETATM    4  C   UNL     1      -8.780   7.423  67.826  1.00  0.00    -0.126 C  
HETATM    5  O   UNL     1     -10.777   8.591  67.199  1.00  0.00    -0.280 OA 
HETATM    6  C   UNL     1     -11.015   9.741  67.899  1.00  0.00    -0.188 C  
HETATM    7  N   UNL     1     -10.835   9.531  69.221  1.00  0.00    -0.218 N  
HETATM    8  O   UNL     1     -11.356  10.782  67.363  1.00  0.00    -0.416 OA 
HETATM    9  C   UNL     1     -10.473   8.245  69.452  1.00  0.00    -0.220 C  
HETATM   10  C   UNL     1     -11.104  10.498  70.252  1.00  0.00    -0.285 C  
HETATM   11  O   UNL     1     -10.317   7.710  70.540  1.00  0.00    -0.207 OA 
ENDBRANCH   2   3
TORSDOF 1
ENDMDL
MODEL      109
REMARK 921   NORMALIZED FREE ENERGY PREDICTED BY IDOCK:   -2.72 KCAL/MOL
REMARK 922        TOTAL FREE ENERGY PREDICTED BY IDOCK:   -2.91 KCAL/MOL
REMARK 923 INTER-LIGAND FREE ENERGY PREDICTED BY IDOCK:   -2.88 KCAL/MOL
REMARK 924 INTRA-LIGAND FREE ENERGY PREDICTED BY IDOCK:   -0.02 KCAL/MOL
REMARK 927      BINDING AFFINITY PREDICTED BY RF-SCORE:    0.00 PKD
ROOT
HETATM    1  C   UNL     1     -10.631   8.170  67.318  1.00  0.00    -0.344 C  
HETATM    2  C   UNL     1     -10.452   9.683  67.258  1.00  0.00    -0.323 C  
ENDROOT
BRANCH   2   3
HETATM    3  C   UNL     1     -10.284  10.356  68.624  1.00  0.00    -0.181 C  
HETATM    4  C   UNL     1      -9.823  11.804  68.480  1.00  0.00    -0.192 C  
HETATM    5  O   UNL     1     -11.520  10.355  69.354  1.00  0.00    -0.243 OA 
HETATM    6  C   UNL     1     -11.286   9.891  70.618  1.00  0.00    -0.344 C  
HETATM    7  N   UNL     1     -10.012   9.455  70.728  1.00  0.00    -0.284 N  
HETATM    8  O   UNL     1     -12.142   9.877  71.487  1.00  0.00    -0.377 OA 
HETATM    9  C   UNL     1      -9.354   9.610  69.553  1.00  0.00    -0.200 C  
HETATM   10  C   UNL     1      -9.461   8.806  71.889  1.00  0.00    -0.292 C  
HETATM   11  O   UNL     1      -8.219   9.240  69.292  1.00  0.00    -0.101 OA 
ENDBRANCH   2   3
TORSDOF 1
ENDMDL
MODEL      110
REMARK 921   NORMALIZED FREE ENERGY PREDICTED BY IDOCK:   -2.72 KCAL/MOL
REMARK 922        TOTAL FREE ENERGY PREDICTED BY IDOCK:   -2.90 KCAL/MOL
REMARK 923 INTER-LIGAND FREE ENERGY PREDICTED BY IDOCK:   -2.85 KCAL/MOL
REMARK 924 INTRA-LIGAND FREE ENERGY PREDICTED BY IDOCK:   -0.05 KCAL/MOL
REMARK 927      BINDING AFFINITY PREDICTED BY RF-SCORE:    0.00 PKD
ROOT
HETATM    1  C   UNL     1     -10.343   8.449  66.971  1.00  0.00    -0.385 C  
HETATM    2  C   UNL     1     -10.520   8.583  68.480  1.00  0.00    -0.205 C  
ENDROOT
BRANCH   2   3
HETATM    3  C   UNL     1     -10.127   9.951  69.045  1.00  0.00    -0.189 C  
HETATM    4  C   UNL     1      -8.682   9.959  69.537  1.00  0.00    -0.200 C  
HETATM    5  O   UNL     1     -10.262  10.978  68.051  1.00  0.00    -0.171 OA 
HETATM    6  C   UNL     1     -10.966  12.020  68.586  1.00  0.00    -0.240 C  
HETATM    7  N   UNL     1     -11.423  11.696  69.815  1.00  0.00    -0.282 N  
HETATM    8  O   UNL     1     -11.144  13.072  67.994  1.00  0.00    -0.239 OA 
HETATM    9  C   UNL     1     -11.046  10.436  70.143  1.00  0.00    -0.314 C  
HETATM   10  C   UNL     1     -12.289  12.520  70.616  1.00  0.00    -0.282 C  
HETATM   11  O   UNL     1     -11.366   9.810  71.144  1.00  0.00    -0.344 OA 
ENDBRANCH   2   3
TORSDOF 1
ENDMDL
MODEL      111
REMARK 921   NORMALIZED FREE ENERGY PREDICTED BY IDOCK:   -2.71 KCAL/MOL
REMARK 922        TOTAL FREE ENERGY PREDICTED BY IDOCK:   -2.89 KCAL/MOL
REMARK 923 INTER-LIGAND FREE ENERGY PREDICTED BY IDOCK:   -2.79 KCAL/MOL
REMARK 924 INTRA-LIGAND FREE ENERGY PREDICTED BY IDOCK:   -0.10 KCAL/MOL
REMARK 927      BINDING AFFINITY PREDICTED BY RF-SCORE:    0.00 PKD
ROOT
HETATM    1  C   UNL     1      -9.407   7.718  73.351  1.00  0.00    -0.346 C  
HETATM    2  C   UNL     1     -10.908   7.667  73.089  1.00  0.00    -0.440 C  
ENDROOT
BRANCH   2   3
HETATM    3  C   UNL     1     -11.299   6.986  71.774  1.00  0.00    -0.258 C  
HETATM    4  C   UNL     1     -12.807   7.042  71.543  1.00  0.00    -0.420 C  
HETATM    5  O   UNL     1     -10.656   7.615  70.656  1.00  0.00    -0.215 OA 
HETATM    6  C   UNL     1     -10.077   6.650  69.879  1.00  0.00    -0.176 C  
HETATM    7  N   UNL     1     -10.175   5.444  70.479  1.00  0.00    -0.236 N  
HETATM    8  O   UNL     1      -9.546   6.893  68.808  1.00  0.00    -0.135 OA 
HETATM    9  C   UNL     1     -10.816   5.557  71.668  1.00  0.00    -0.204 C  
HETATM   10  C   UNL     1      -9.580   4.229  69.988  1.00  0.00    -0.204 C  
HETATM   11  O   UNL     1     -10.992   4.674  72.495  1.00  0.00    -0.159 OA 
ENDBRANCH   2   3
TORSDOF 1
ENDMDL
MODEL      112
REMARK 921   NORMALIZED FREE ENERGY PREDICTED BY IDOCK:   -2.70 KCAL/MOL
REMARK 922        TOTAL FREE ENERGY PREDICTED BY IDOCK:   -2.88 KCAL/MOL
REMARK 923 INTER-LIGAND FREE ENERGY PREDICTED BY IDOCK:   -2.85 KCAL/MOL
REMARK 924 INTRA-LIGAND FREE ENERGY PREDICTED BY IDOCK:   -0.03 KCAL/MOL
REMARK 927      BINDING AFFINITY PREDICTED BY RF-SCORE:    0.00 PKD
ROOT
HETATM    1  C   UNL     1     -11.588  11.737  68.272  1.00  0.00    -0.373 C  
HETATM    2  C   UNL     1     -11.324  12.872  67.288  1.00  0.00    -0.356 C  
ENDROOT
BRANCH   2   3
HETATM    3  C   UNL     1     -10.673  14.111  67.910  1.00  0.00    -0.240 C  
HETATM    4  C   UNL     1     -11.607  14.792  68.907  1.00  0.00    -0.340 C  
HETATM    5  O   UNL     1      -9.463  13.766  68.601  1.00  0.00    -0.189 OA 
HETATM    6  C   UNL     1      -8.469  14.615  68.204  1.00  0.00    -0.156 C  
HETATM    7  N   UNL     1      -8.903  15.406  67.198  1.00  0.00    -0.199 N  
HETATM    8  O   UNL     1      -7.357  14.614  68.705  1.00  0.00    -0.111 OA 
HETATM    9  C   UNL     1     -10.191  15.116  66.888  1.00  0.00    -0.259 C  
HETATM   10  C   UNL     1      -8.083  16.340  66.472  1.00  0.00    -0.302 C  
HETATM   11  O   UNL     1     -10.851  15.587  65.973  1.00  0.00    -0.322 OA 
ENDBRANCH   2   3
TORSDOF 1
ENDMDL
MODEL      113
REMARK 921   NORMALIZED FREE ENERGY PREDICTED BY IDOCK:   -2.67 KCAL/MOL
REMARK 922        TOTAL FREE ENERGY PREDICTED BY IDOCK:   -2.85 KCAL/MOL
REMARK 923 INTER-LIGAND FREE ENERGY PREDICTED BY IDOCK:   -2.91 KCAL/MOL
REMARK 924 INTRA-LIGAND FREE ENERGY PREDICTED BY IDOCK:    0.06 KCAL/MOL
REMARK 927      BINDING AFFINITY PREDICTED BY RF-SCORE:    0.00 PKD
ROOT
HETATM    1  C   UNL     1      -9.492  17.301  67.716  1.00  0.00    -0.255 C  
HETATM    2  C   UNL     1      -8.962  15.946  67.257  1.00  0.00    -0.209 C  
ENDROOT
BRANCH   2   3
HETATM    3  C   UNL     1      -9.995  15.072  66.541  1.00  0.00    -0.263 C  
HETATM    4  C   UNL     1     -10.774  15.869  65.497  1.00  0.00    -0.386 C  
HETATM    5  O   UNL     1      -9.364  13.968  65.875  1.00  0.00    -0.137 OA 
HETATM    6  C   UNL     1     -10.025  12.818  66.204  1.00  0.00    -0.266 C  
HETATM    7  N   UNL     1     -10.959  13.067  67.147  1.00  0.00    -0.264 N  
HETATM    8  O   UNL     1      -9.763  11.737  65.702  1.00  0.00    -0.229 OA 
HETATM    9  C   UNL     1     -10.957  14.381  67.481  1.00  0.00    -0.293 C  
HETATM   10  C   UNL     1     -11.762  12.065  67.797  1.00  0.00    -0.309 C  
HETATM   11  O   UNL     1     -11.617  14.918  68.359  1.00  0.00    -0.301 OA 
ENDBRANCH   2   3
TORSDOF 1
ENDMDL
MODEL      114
REMARK 921   NORMALIZED FREE ENERGY PREDICTED BY IDOCK:   -2.67 KCAL/MOL
REMARK 922        TOTAL FREE ENERGY PREDICTED BY IDOCK:   -2.84 KCAL/MOL
REMARK 923 INTER-LIGAND FREE ENERGY PREDICTED BY IDOCK:   -2.80 KCAL/MOL
REMARK 924 INTRA-LIGAND FREE ENERGY PREDICTED BY IDOCK:   -0.04 KCAL/MOL
REMARK 927      BINDING AFFINITY PREDICTED BY RF-SCORE:    0.00 PKD
ROOT
HETATM    1  C   UNL     1     -11.143   6.743  67.027  1.00  0.00    -0.369 C  
HETATM    2  C   UNL     1     -10.575   5.759  68.045  1.00  0.00    -0.295 C  
ENDROOT
BRANCH   2   3
HETATM    3  C   UNL     1     -10.209   6.384  69.394  1.00  0.00    -0.192 C  
HETATM    4  C   UNL     1      -8.844   7.067  69.341  1.00  0.00    -0.136 C  
HETATM    5  O   UNL     1     -11.179   7.365  69.789  1.00  0.00    -0.202 OA 
HETATM    6  C   UNL     1     -11.555   7.120  71.080  1.00  0.00    -0.309 C  
HETATM    7  N   UNL     1     -11.004   5.967  71.517  1.00  0.00    -0.269 N  
HETATM    8  O   UNL     1     -12.296   7.860  71.705  1.00  0.00    -0.299 OA 
HETATM    9  C   UNL     1     -10.249   5.403  70.543  1.00  0.00    -0.256 C  
HETATM   10  C   UNL     1     -11.274   5.357  72.792  1.00  0.00    -0.300 C  
HETATM   11  O   UNL     1      -9.686   4.318  70.585  1.00  0.00    -0.178 OA 
ENDBRANCH   2   3
TORSDOF 1
ENDMDL
MODEL      115
REMARK 921   NORMALIZED FREE ENERGY PREDICTED BY IDOCK:   -2.63 KCAL/MOL
REMARK 922        TOTAL FREE ENERGY PREDICTED BY IDOCK:   -2.81 KCAL/MOL
REMARK 923 INTER-LIGAND FREE ENERGY PREDICTED BY IDOCK:   -2.71 KCAL/MOL
REMARK 924 INTRA-LIGAND FREE ENERGY PREDICTED BY IDOCK:   -0.09 KCAL/MOL
REMARK 927      BINDING AFFINITY PREDICTED BY RF-SCORE:    0.00 PKD
ROOT
HETATM    1  C   UNL     1      -9.580  16.462  68.976  1.00  0.00    -0.264 C  
HETATM    2  C   UNL     1      -8.433  16.047  68.060  1.00  0.00    -0.164 C  
ENDROOT
BRANCH   2   3
HETATM    3  C   UNL     1      -7.434  17.165  67.750  1.00  0.00    -0.174 C  
HETATM    4  C   UNL     1      -6.332  16.684  66.809  1.00  0.00    -0.157 C  
HETATM    5  O   UNL     1      -8.087  18.284  67.131  1.00  0.00    -0.219 OA 
HETATM    6  C   UNL     1      -7.712  19.427  67.779  1.00  0.00    -0.277 C  
HETATM    7  N   UNL     1      -6.968  19.128  68.866  1.00  0.00    -0.323 N  
HETATM    8  O   UNL     1      -8.039  20.540  67.401  1.00  0.00    -0.332 OA 
HETATM    9  C   UNL     1      -6.821  17.786  68.985  1.00  0.00    -0.244 C  
HETATM   10  C   UNL     1      -6.498  20.086  69.832  1.00  0.00    -0.327 C  
HETATM   11  O   UNL     1      -6.279  17.183  69.900  1.00  0.00    -0.233 OA 
ENDBRANCH   2   3
TORSDOF 1
ENDMDL
MODEL      116
REMARK 921   NORMALIZED FREE ENERGY PREDICTED BY IDOCK:   -2.63 KCAL/MOL
REMARK 922        TOTAL FREE ENERGY PREDICTED BY IDOCK:   -2.80 KCAL/MOL
REMARK 923 INTER-LIGAND FREE ENERGY PREDICTED BY IDOCK:   -2.75 KCAL/MOL
REMARK 924 INTRA-LIGAND FREE ENERGY PREDICTED BY IDOCK:   -0.05 KCAL/MOL
REMARK 927      BINDING AFFINITY PREDICTED BY RF-SCORE:    0.00 PKD
ROOT
HETATM    1  C   UNL     1      -8.367   8.874  71.006  1.00  0.00    -0.233 C  
HETATM    2  C   UNL     1      -8.498   9.480  69.613  1.00  0.00    -0.174 C  
ENDROOT
BRANCH   2   3
HETATM    3  C   UNL     1      -9.941   9.717  69.158  1.00  0.00    -0.185 C  
HETATM    4  C   UNL     1     -10.354   8.725  68.072  1.00  0.00    -0.273 C  
HETATM    5  O   UNL     1     -10.857   9.579  70.254  1.00  0.00    -0.232 OA 
HETATM    6  C   UNL     1     -11.692  10.662  70.271  1.00  0.00    -0.344 C  
HETATM    7  N   UNL     1     -11.301  11.568  69.349  1.00  0.00    -0.271 N  
HETATM    8  O   UNL     1     -12.635  10.759  71.039  1.00  0.00    -0.352 OA 
HETATM    9  C   UNL     1     -10.202  11.130  68.689  1.00  0.00    -0.205 C  
HETATM   10  C   UNL     1     -11.892  12.869  69.171  1.00  0.00    -0.303 C  
HETATM   11  O   UNL     1      -9.550  11.745  67.857  1.00  0.00    -0.175 OA 
ENDBRANCH   2   3
TORSDOF 1
ENDMDL
MODEL      117
REMARK 921   NORMALIZED FREE ENERGY PREDICTED BY IDOCK:   -2.62 KCAL/MOL
REMARK 922        TOTAL FREE ENERGY PREDICTED BY IDOCK:   -2.79 KCAL/MOL
REMARK 923 INTER-LIGAND FREE ENERGY PREDICTED BY IDOCK:   -2.73 KCAL/MOL
REMARK 924 INTRA-LIGAND FREE ENERGY PREDICTED BY IDOCK:   -0.06 KCAL/MOL
REMARK 927      BINDING AFFINITY PREDICTED BY RF-SCORE:    0.00 PKD
ROOT
HETATM    1  C   UNL     1      -9.782  19.750  69.102  1.00  0.00    -0.319 C  
HETATM    2  C   UNL     1      -9.058  18.595  68.417  1.00  0.00    -0.352 C  
ENDROOT
BRANCH   2   3
HETATM    3  C   UNL     1      -7.530  18.680  68.480  1.00  0.00    -0.302 C  
HETATM    4  C   UNL     1      -6.914  18.699  67.083  1.00  0.00    -0.211 C  
HETATM    5  O   UNL     1      -7.106  19.868  69.166  1.00  0.00    -0.327 OA 
HETATM    6  C   UNL     1      -6.175  19.526  70.107  1.00  0.00    -0.227 C  
HETATM    7  N   UNL     1      -6.058  18.182  70.183  1.00  0.00    -0.121 N  
HETATM    8  O   UNL     1      -5.571  20.351  70.771  1.00  0.00    -0.337 OA 
HETATM    9  C   UNL     1      -6.898  17.582  69.305  1.00  0.00    -0.196 C  
HETATM   10  C   UNL     1      -5.246  17.479  71.141  1.00  0.00    -0.134 C  
HETATM   11  O   UNL     1      -7.099  16.382  69.182  1.00  0.00    -0.203 OA 
ENDBRANCH   2   3
TORSDOF 1
ENDMDL
MODEL      118
REMARK 921   NORMALIZED FREE ENERGY PREDICTED BY IDOCK:   -2.62 KCAL/MOL
REMARK 922        TOTAL FREE ENERGY PREDICTED BY IDOCK:   -2.79 KCAL/MOL
REMARK 923 INTER-LIGAND FREE ENERGY PREDICTED BY IDOCK:   -2.72 KCAL/MOL
REMARK 924 INTRA-LIGAND FREE ENERGY PREDICTED BY IDOCK:   -0.07 KCAL/MOL
REMARK 927      BINDING AFFINITY PREDICTED BY RF-SCORE:    0.00 PKD
ROOT
HETATM    1  C   UNL     1     -11.865   6.941  71.026  1.00  0.00    -0.411 C  
HETATM    2  C   UNL     1     -12.269   8.409  71.108  1.00  0.00    -0.248 C  
ENDROOT
BRANCH   2   3
HETATM    3  C   UNL     1     -11.162   9.394  70.719  1.00  0.00    -0.302 C  
HETATM    4  C   UNL     1     -11.676  10.831  70.695  1.00  0.00    -0.442 C  
HETATM    5  O   UNL     1     -10.067   9.331  71.645  1.00  0.00    -0.311 OA 
HETATM    6  C   UNL     1      -8.901   9.217  70.942  1.00  0.00    -0.233 C  
HETATM    7  N   UNL     1      -9.160   9.061  69.626  1.00  0.00    -0.149 N  
HETATM    8  O   UNL     1      -7.802   9.242  71.473  1.00  0.00    -0.336 OA 
HETATM    9  C   UNL     1     -10.497   9.064  69.403  1.00  0.00    -0.222 C  
HETATM   10  C   UNL     1      -8.168   8.806  68.615  1.00  0.00    -0.117 C  
HETATM   11  O   UNL     1     -11.065   8.860  68.339  1.00  0.00     0.052 OA 
ENDBRANCH   2   3
TORSDOF 1
ENDMDL
MODEL      119
REMARK 921   NORMALIZED FREE ENERGY PREDICTED BY IDOCK:   -2.59 KCAL/MOL
REMARK 922        TOTAL FREE ENERGY PREDICTED BY IDOCK:   -2.77 KCAL/MOL
REMARK 923 INTER-LIGAND FREE ENERGY PREDICTED BY IDOCK:   -2.73 KCAL/MOL
REMARK 924 INTRA-LIGAND FREE ENERGY PREDICTED BY IDOCK:   -0.04 KCAL/MOL
REMARK 927      BINDING AFFINITY PREDICTED BY RF-SCORE:    0.00 PKD
ROOT
HETATM    1  C   UNL     1      -9.916   9.541  69.096  1.00  0.00    -0.185 C  
HETATM    2  C   UNL     1      -9.681  11.038  69.267  1.00  0.00    -0.033 C  
ENDROOT
BRANCH   2   3
HETATM    3  C   UNL     1      -9.758  11.844  67.967  1.00  0.00    -0.191 C  
HETATM    4  C   UNL     1      -8.465  11.732  67.163  1.00  0.00    -0.170 C  
HETATM    5  O   UNL     1     -10.836  11.385  67.139  1.00  0.00    -0.238 OA 
HETATM    6  C   UNL     1     -11.572  12.464  66.734  1.00  0.00    -0.379 C  
HETATM    7  N   UNL     1     -11.138  13.585  67.349  1.00  0.00    -0.275 N  
HETATM    8  O   UNL     1     -12.492  12.376  65.938  1.00  0.00    -0.583 OA 
HETATM    9  C   UNL     1     -10.106  13.300  68.180  1.00  0.00    -0.241 C  
HETATM   10  C   UNL     1     -11.756  14.880  67.234  1.00  0.00    -0.291 C  
HETATM   11  O   UNL     1      -9.544  14.071  68.945  1.00  0.00    -0.140 OA 
ENDBRANCH   2   3
TORSDOF 1
ENDMDL
MODEL      120
REMARK 921   NORMALIZED FREE ENERGY PREDICTED BY IDOCK:   -2.59 KCAL/MOL
REMARK 922        TOTAL FREE ENERGY PREDICTED BY IDOCK:   -2.77 KCAL/MOL
REMARK 923 INTER-LIGAND FREE ENERGY PREDICTED BY IDOCK:   -2.74 KCAL/MOL
REMARK 924 INTRA-LIGAND FREE ENERGY PREDICTED BY IDOCK:   -0.02 KCAL/MOL
REMARK 927      BINDING AFFINITY PREDICTED BY RF-SCORE:    0.00 PKD
ROOT
HETATM    1  C   UNL     1      -7.393   9.473  69.818  1.00  0.00    -0.092 C  
HETATM    2  C   UNL     1      -8.529   9.179  70.793  1.00  0.00    -0.256 C  
ENDROOT
BRANCH   2   3
HETATM    3  C   UNL     1      -9.849   8.782  70.126  1.00  0.00    -0.176 C  
HETATM    4  C   UNL     1     -10.246   9.777  69.038  1.00  0.00    -0.214 C  
HETATM    5  O   UNL     1      -9.753   7.482  69.524  1.00  0.00    -0.163 OA 
HETATM    6  C   UNL     1     -10.826   6.733  69.918  1.00  0.00    -0.266 C  
HETATM    7  N   UNL     1     -11.548   7.399  70.845  1.00  0.00    -0.286 N  
HETATM    8  O   UNL     1     -11.052   5.618  69.478  1.00  0.00    -0.310 OA 
HETATM    9  C   UNL     1     -10.989   8.606  71.103  1.00  0.00    -0.260 C  
HETATM   10  C   UNL     1     -12.681   6.860  71.549  1.00  0.00    -0.349 C  
HETATM   11  O   UNL     1     -11.344   9.415  71.949  1.00  0.00    -0.370 OA 
ENDBRANCH   2   3
TORSDOF 1
ENDMDL
MODEL      121
REMARK 921   NORMALIZED FREE ENERGY PREDICTED BY IDOCK:   -2.58 KCAL/MOL
REMARK 922        TOTAL FREE ENERGY PREDICTED BY IDOCK:   -2.75 KCAL/MOL
REMARK 923 INTER-LIGAND FREE ENERGY PREDICTED BY IDOCK:   -2.69 KCAL/MOL
REMARK 924 INTRA-LIGAND FREE ENERGY PREDICTED BY IDOCK:   -0.06 KCAL/MOL
REMARK 927      BINDING AFFINITY PREDICTED BY RF-SCORE:    0.00 PKD
ROOT
HETATM    1  C   UNL     1     -10.093  10.584  69.281  1.00  0.00    -0.244 C  
HETATM    2  C   UNL     1     -10.496   9.133  69.039  1.00  0.00    -0.238 C  
ENDROOT
BRANCH   2   3
HETATM    3  C   UNL     1      -9.827   8.125  69.979  1.00  0.00    -0.182 C  
HETATM    4  C   UNL     1      -9.058   7.060  69.200  1.00  0.00    -0.136 C  
HETATM    5  O   UNL     1      -8.906   8.778  70.864  1.00  0.00    -0.162 OA 
HETATM    6  C   UNL     1      -9.154   8.365  72.143  1.00  0.00    -0.239 C  
HETATM    7  N   UNL     1     -10.262   7.593  72.179  1.00  0.00    -0.198 N  
HETATM    8  O   UNL     1      -8.455   8.685  73.090  1.00  0.00    -0.398 OA 
HETATM    9  C   UNL     1     -10.791   7.464  70.938  1.00  0.00    -0.240 C  
HETATM   10  C   UNL     1     -10.869   7.078  73.379  1.00  0.00    -0.299 C  
HETATM   11  O   UNL     1     -11.836   6.905  70.639  1.00  0.00    -0.358 OA 
ENDBRANCH   2   3
TORSDOF 1
ENDMDL
MODEL      122
REMARK 921   NORMALIZED FREE ENERGY PREDICTED BY IDOCK:   -2.58 KCAL/MOL
REMARK 922        TOTAL FREE ENERGY PREDICTED BY IDOCK:   -2.75 KCAL/MOL
REMARK 923 INTER-LIGAND FREE ENERGY PREDICTED BY IDOCK:   -2.70 KCAL/MOL
REMARK 924 INTRA-LIGAND FREE ENERGY PREDICTED BY IDOCK:   -0.05 KCAL/MOL
REMARK 927      BINDING AFFINITY PREDICTED BY RF-SCORE:    0.00 PKD
ROOT
HETATM    1  C   UNL     1      -6.730   6.564  72.608  1.00  0.00    -0.064 C  
HETATM    2  C   UNL     1      -7.765   7.286  71.752  1.00  0.00    -0.087 C  
ENDROOT
BRANCH   2   3
HETATM    3  C   UNL     1      -9.041   7.682  72.499  1.00  0.00    -0.155 C  
HETATM    4  C   UNL     1      -8.817   7.713  74.009  1.00  0.00    -0.305 C  
HETATM    5  O   UNL     1      -9.496   8.981  72.092  1.00  0.00    -0.340 OA 
HETATM    6  C   UNL     1     -10.828   8.910  71.797  1.00  0.00    -0.365 C  
HETATM    7  N   UNL     1     -11.252   7.628  71.848  1.00  0.00    -0.249 N  
HETATM    8  O   UNL     1     -11.498   9.891  71.519  1.00  0.00    -0.365 OA 
HETATM    9  C   UNL     1     -10.228   6.803  72.174  1.00  0.00    -0.193 C  
HETATM   10  C   UNL     1     -12.573   7.183  71.489  1.00  0.00    -0.390 C  
HETATM   11  O   UNL     1     -10.254   5.581  72.220  1.00  0.00    -0.188 OA 
ENDBRANCH   2   3
TORSDOF 1
ENDMDL
MODEL      123
REMARK 921   NORMALIZED FREE ENERGY PREDICTED BY IDOCK:   -2.58 KCAL/MOL
REMARK 922        TOTAL FREE ENERGY PREDICTED BY IDOCK:   -2.75 KCAL/MOL
REMARK 923 INTER-LIGAND FREE ENERGY PREDICTED BY IDOCK:   -2.85 KCAL/MOL
REMARK 924 INTRA-LIGAND FREE ENERGY PREDICTED BY IDOCK:    0.10 KCAL/MOL
REMARK 927      BINDING AFFINITY PREDICTED BY RF-SCORE:    0.00 PKD
ROOT
HETATM    1  C   UNL     1     -10.415   7.125  68.200  1.00  0.00    -0.244 C  
HETATM    2  C   UNL     1     -10.657   8.023  66.991  1.00  0.00    -0.364 C  
ENDROOT
BRANCH   2   3
HETATM    3  C   UNL     1     -10.070   9.431  67.119  1.00  0.00    -0.231 C  
HETATM    4  C   UNL     1      -8.608   9.389  67.556  1.00  0.00    -0.122 C  
HETATM    5  O   UNL     1     -10.139  10.135  65.870  1.00  0.00    -0.258 OA 
HETATM    6  C   UNL     1     -10.679  11.371  66.088  1.00  0.00    -0.267 C  
HETATM    7  N   UNL     1     -11.099  11.479  67.367  1.00  0.00    -0.264 N  
HETATM    8  O   UNL     1     -10.764  12.220  65.216  1.00  0.00    -0.275 OA 
HETATM    9  C   UNL     1     -10.858  10.331  68.045  1.00  0.00    -0.275 C  
HETATM   10  C   UNL     1     -11.811  12.608  67.908  1.00  0.00    -0.332 C  
HETATM   11  O   UNL     1     -11.190  10.070  69.192  1.00  0.00    -0.216 OA 
ENDBRANCH   2   3
TORSDOF 1
ENDMDL
MODEL      124
REMARK 921   NORMALIZED FREE ENERGY PREDICTED BY IDOCK:   -2.57 KCAL/MOL
REMARK 922        TOTAL FREE ENERGY PREDICTED BY IDOCK:   -2.74 KCAL/MOL
REMARK 923 INTER-LIGAND FREE ENERGY PREDICTED BY IDOCK:   -2.75 KCAL/MOL
REMARK 924 INTRA-LIGAND FREE ENERGY PREDICTED BY IDOCK:    0.00 KCAL/MOL
REMARK 927      BINDING AFFINITY PREDICTED BY RF-SCORE:    0.00 PKD
ROOT
HETATM    1  C   UNL     1      -9.427   3.874  68.972  1.00  0.00    -0.240 C  
HETATM    2  C   UNL     1     -10.142   4.789  69.959  1.00  0.00    -0.308 C  
ENDROOT
BRANCH   2   3
HETATM    3  C   UNL     1     -10.528   6.158  69.390  1.00  0.00    -0.256 C  
HETATM    4  C   UNL     1     -11.014   6.045  67.947  1.00  0.00    -0.334 C  
HETATM    5  O   UNL     1     -11.575   6.762  70.163  1.00  0.00    -0.354 OA 
HETATM    6  C   UNL     1     -11.218   8.048  70.460  1.00  0.00    -0.250 C  
HETATM    7  N   UNL     1      -9.952   8.288  70.056  1.00  0.00    -0.186 N  
HETATM    8  O   UNL     1     -11.965   8.829  71.025  1.00  0.00    -0.290 OA 
HETATM    9  C   UNL     1      -9.420   7.182  69.480  1.00  0.00    -0.151 C  
HETATM   10  C   UNL     1      -9.223   9.504  70.307  1.00  0.00    -0.258 C  
HETATM   11  O   UNL     1      -8.271   7.038  69.087  1.00  0.00    -0.119 OA 
ENDBRANCH   2   3
TORSDOF 1
ENDMDL
MODEL      125
REMARK 921   NORMALIZED FREE ENERGY PREDICTED BY IDOCK:   -2.54 KCAL/MOL
REMARK 922        TOTAL FREE ENERGY PREDICTED BY IDOCK:   -2.70 KCAL/MOL
REMARK 923 INTER-LIGAND FREE ENERGY PREDICTED BY IDOCK:   -2.66 KCAL/MOL
REMARK 924 INTRA-LIGAND FREE ENERGY PREDICTED BY IDOCK:   -0.05 KCAL/MOL
REMARK 927      BINDING AFFINITY PREDICTED BY RF-SCORE:    0.00 PKD
ROOT
HETATM    1  C   UNL     1     -10.107   4.440  71.423  1.00  0.00    -0.210 C  
HETATM    2  C   UNL     1     -10.092   5.909  71.830  1.00  0.00    -0.222 C  
ENDROOT
BRANCH   2   3
HETATM    3  C   UNL     1     -10.478   6.881  70.711  1.00  0.00    -0.216 C  
HETATM    4  C   UNL     1     -11.207   6.165  69.577  1.00  0.00    -0.482 C  
HETATM    5  O   UNL     1     -11.338   7.920  71.204  1.00  0.00    -0.257 OA 
HETATM    6  C   UNL     1     -10.853   9.128  70.788  1.00  0.00    -0.268 C  
HETATM    7  N   UNL     1      -9.661   8.969  70.175  1.00  0.00    -0.181 N  
HETATM    8  O   UNL     1     -11.442  10.179  70.980  1.00  0.00    -0.354 OA 
HETATM    9  C   UNL     1      -9.307   7.661  70.159  1.00  0.00    -0.157 C  
HETATM   10  C   UNL     1      -8.823  10.043  69.710  1.00  0.00    -0.183 C  
HETATM   11  O   UNL     1      -8.252   7.189  69.757  1.00  0.00    -0.127 OA 
ENDBRANCH   2   3
TORSDOF 1
ENDMDL
MODEL      126
REMARK 921   NORMALIZED FREE ENERGY PREDICTED BY IDOCK:   -2.52 KCAL/MOL
REMARK 922        TOTAL FREE ENERGY PREDICTED BY IDOCK:   -2.69 KCAL/MOL
REMARK 923 INTER-LIGAND FREE ENERGY PREDICTED BY IDOCK:   -2.62 KCAL/MOL
REMARK 924 INTRA-LIGAND FREE ENERGY PREDICTED BY IDOCK:   -0.06 KCAL/MOL
REMARK 927      BINDING AFFINITY PREDICTED BY RF-SCORE:    0.00 PKD
ROOT
HETATM    1  C   UNL     1     -11.968  15.054  68.205  1.00  0.00    -0.195 C  
HETATM    2  C   UNL     1     -11.767  13.775  67.398  1.00  0.00    -0.417 C  
ENDROOT
BRANCH   2   3
HETATM    3  C   UNL     1     -10.483  13.748  66.564  1.00  0.00    -0.282 C  
HETATM    4  C   UNL     1     -10.786  13.578  65.077  1.00  0.00    -0.366 C  
HETATM    5  O   UNL     1      -9.735  14.962  66.728  1.00  0.00    -0.234 OA 
HETATM    6  C   UNL     1      -8.434  14.645  67.001  1.00  0.00    -0.210 C  
HETATM    7  N   UNL     1      -8.300  13.311  67.166  1.00  0.00    -0.167 N  
HETATM    8  O   UNL     1      -7.553  15.485  67.089  1.00  0.00    -0.200 OA 
HETATM    9  C   UNL     1      -9.496  12.693  67.011  1.00  0.00    -0.220 C  
HETATM   10  C   UNL     1      -7.088  12.648  67.567  1.00  0.00    -0.152 C  
HETATM   11  O   UNL     1      -9.737  11.506  67.179  1.00  0.00    -0.182 OA 
ENDBRANCH   2   3
TORSDOF 1
ENDMDL
MODEL      127
REMARK 921   NORMALIZED FREE ENERGY PREDICTED BY IDOCK:   -2.52 KCAL/MOL
REMARK 922        TOTAL FREE ENERGY PREDICTED BY IDOCK:   -2.68 KCAL/MOL
REMARK 923 INTER-LIGAND FREE ENERGY PREDICTED BY IDOCK:   -2.63 KCAL/MOL
REMARK 924 INTRA-LIGAND FREE ENERGY PREDICTED BY IDOCK:   -0.06 KCAL/MOL
REMARK 927      BINDING AFFINITY PREDICTED BY RF-SCORE:    0.00 PKD
ROOT
HETATM    1  C   UNL     1     -10.597   4.766  73.695  1.00  0.00    -0.321 C  
HETATM    2  C   UNL     1     -11.530   5.462  72.709  1.00  0.00    -0.333 C  
ENDROOT
BRANCH   2   3
HETATM    3  C   UNL     1     -10.938   6.711  72.050  1.00  0.00    -0.242 C  
HETATM    4  C   UNL     1     -11.615   7.983  72.556  1.00  0.00    -0.464 C  
HETATM    5  O   UNL     1      -9.533   6.820  72.321  1.00  0.00    -0.144 OA 
HETATM    6  C   UNL     1      -8.873   7.051  71.146  1.00  0.00    -0.141 C  
HETATM    7  N   UNL     1      -9.728   6.963  70.104  1.00  0.00    -0.171 N  
HETATM    8  O   UNL     1      -7.677   7.284  71.092  1.00  0.00    -0.089 OA 
HETATM    9  C   UNL     1     -10.979   6.673  70.539  1.00  0.00    -0.286 C  
HETATM   10  C   UNL     1      -9.349   7.046  68.718  1.00  0.00    -0.134 C  
HETATM   11  O   UNL     1     -11.962   6.443  69.851  1.00  0.00    -0.304 OA 
ENDBRANCH   2   3
TORSDOF 1
ENDMDL
MODEL      128
REMARK 921   NORMALIZED FREE ENERGY PREDICTED BY IDOCK:   -2.51 KCAL/MOL
REMARK 922        TOTAL FREE ENERGY PREDICTED BY IDOCK:   -2.68 KCAL/MOL
REMARK 923 INTER-LIGAND FREE ENERGY PREDICTED BY IDOCK:   -2.63 KCAL/MOL
REMARK 924 INTRA-LIGAND FREE ENERGY PREDICTED BY IDOCK:   -0.05 KCAL/MOL
REMARK 927      BINDING AFFINITY PREDICTED BY RF-SCORE:    0.00 PKD
ROOT
HETATM    1  C   UNL     1     -10.938   6.237  68.680  1.00  0.00    -0.423 C  
HETATM    2  C   UNL     1     -10.738   6.739  67.254  1.00  0.00    -0.423 C  
ENDROOT
BRANCH   2   3
HETATM    3  C   UNL     1      -9.628   7.782  67.099  1.00  0.00    -0.170 C  
HETATM    4  C   UNL     1      -8.657   7.744  68.277  1.00  0.00    -0.124 C  
HETATM    5  O   UNL     1      -8.875   7.560  65.897  1.00  0.00    -0.166 OA 
HETATM    6  C   UNL     1      -8.772   8.741  65.216  1.00  0.00    -0.182 C  
HETATM    7  N   UNL     1      -9.521   9.693  65.814  1.00  0.00    -0.226 N  
HETATM    8  O   UNL     1      -8.099   8.866  64.207  1.00  0.00    -0.142 OA 
HETATM    9  C   UNL     1     -10.147   9.189  66.905  1.00  0.00    -0.258 C  
HETATM   10  C   UNL     1      -9.725  11.023  65.301  1.00  0.00    -0.239 C  
HETATM   11  O   UNL     1     -10.960   9.762  67.616  1.00  0.00    -0.280 OA 
ENDBRANCH   2   3
TORSDOF 1
ENDMDL
MODEL      129
REMARK 921   NORMALIZED FREE ENERGY PREDICTED BY IDOCK:   -2.50 KCAL/MOL
REMARK 922        TOTAL FREE ENERGY PREDICTED BY IDOCK:   -2.67 KCAL/MOL
REMARK 923 INTER-LIGAND FREE ENERGY PREDICTED BY IDOCK:   -2.64 KCAL/MOL
REMARK 924 INTRA-LIGAND FREE ENERGY PREDICTED BY IDOCK:   -0.03 KCAL/MOL
REMARK 927      BINDING AFFINITY PREDICTED BY RF-SCORE:    0.00 PKD
ROOT
HETATM    1  C   UNL     1      -8.279   8.879  68.258  1.00  0.00    -0.121 C  
HETATM    2  C   UNL     1      -8.698   7.876  69.327  1.00  0.00    -0.138 C  
ENDROOT
BRANCH   2   3
HETATM    3  C   UNL     1      -9.740   8.404  70.318  1.00  0.00    -0.172 C  
HETATM    4  C   UNL     1     -10.095   9.861  70.031  1.00  0.00    -0.308 C  
HETATM    5  O   UNL     1     -10.949   7.633  70.255  1.00  0.00    -0.251 OA 
HETATM    6  C   UNL     1     -11.314   7.281  71.524  1.00  0.00    -0.251 C  
HETATM    7  N   UNL     1     -10.359   7.647  72.405  1.00  0.00    -0.220 N  
HETATM    8  O   UNL     1     -12.359   6.705  71.776  1.00  0.00    -0.345 OA 
HETATM    9  C   UNL     1      -9.328   8.250  71.764  1.00  0.00    -0.202 C  
HETATM   10  C   UNL     1     -10.371   7.335  73.811  1.00  0.00    -0.313 C  
HETATM   11  O   UNL     1      -8.272   8.622  72.257  1.00  0.00    -0.314 OA 
ENDBRANCH   2   3
TORSDOF 1
ENDMDL
MODEL      130
REMARK 921   NORMALIZED FREE ENERGY PREDICTED BY IDOCK:   -2.49 KCAL/MOL
REMARK 922        TOTAL FREE ENERGY PREDICTED BY IDOCK:   -2.66 KCAL/MOL
REMARK 923 INTER-LIGAND FREE ENERGY PREDICTED BY IDOCK:   -2.64 KCAL/MOL
REMARK 924 INTRA-LIGAND FREE ENERGY PREDICTED BY IDOCK:   -0.02 KCAL/MOL
REMARK 927      BINDING AFFINITY PREDICTED BY RF-SCORE:    0.00 PKD
ROOT
HETATM    1  C   UNL     1      -8.459   4.324  74.506  1.00  0.00    -0.092 C  
HETATM    2  C   UNL     1      -8.733   5.214  73.299  1.00  0.00    -0.115 C  
ENDROOT
BRANCH   2   3
HETATM    3  C   UNL     1     -10.199   5.249  72.857  1.00  0.00    -0.183 C  
HETATM    4  C   UNL     1     -10.995   4.102  73.474  1.00  0.00    -0.360 C  
HETATM    5  O   UNL     1     -10.825   6.481  73.243  1.00  0.00    -0.266 OA 
HETATM    6  C   UNL     1     -11.477   7.004  72.162  1.00  0.00    -0.274 C  
HETATM    7  N   UNL     1     -11.210   6.275  71.057  1.00  0.00    -0.302 N  
HETATM    8  O   UNL     1     -12.180   7.998  72.229  1.00  0.00    -0.327 OA 
HETATM    9  C   UNL     1     -10.376   5.249  71.355  1.00  0.00    -0.221 C  
HETATM   10  C   UNL     1     -11.647   6.606  69.726  1.00  0.00    -0.293 C  
HETATM   11  O   UNL     1      -9.874   4.457  70.571  1.00  0.00    -0.202 OA 
ENDBRANCH   2   3
TORSDOF 1
ENDMDL
MODEL      131
REMARK 921   NORMALIZED FREE ENERGY PREDICTED BY IDOCK:   -2.49 KCAL/MOL
REMARK 922        TOTAL FREE ENERGY PREDICTED BY IDOCK:   -2.66 KCAL/MOL
REMARK 923 INTER-LIGAND FREE ENERGY PREDICTED BY IDOCK:   -2.62 KCAL/MOL
REMARK 924 INTRA-LIGAND FREE ENERGY PREDICTED BY IDOCK:   -0.04 KCAL/MOL
REMARK 927      BINDING AFFINITY PREDICTED BY RF-SCORE:    0.00 PKD
ROOT
HETATM    1  C   UNL     1      -8.336   6.272  68.107  1.00  0.00    -0.115 C  
HETATM    2  C   UNL     1      -8.897   7.630  68.515  1.00  0.00    -0.130 C  
ENDROOT
BRANCH   2   3
HETATM    3  C   UNL     1     -10.004   8.159  67.599  1.00  0.00    -0.185 C  
HETATM    4  C   UNL     1     -10.818   7.019  66.991  1.00  0.00    -0.413 C  
HETATM    5  O   UNL     1     -10.907   9.012  68.319  1.00  0.00    -0.142 OA 
HETATM    6  C   UNL     1     -11.081  10.168  67.612  1.00  0.00    -0.206 C  
HETATM    7  N   UNL     1     -10.250  10.196  66.547  1.00  0.00    -0.229 N  
HETATM    8  O   UNL     1     -11.875  11.033  67.942  1.00  0.00    -0.600 OA 
HETATM    9  C   UNL     1      -9.497   9.070  66.504  1.00  0.00    -0.206 C  
HETATM   10  C   UNL     1     -10.096  11.312  65.651  1.00  0.00    -0.247 C  
HETATM   11  O   UNL     1      -8.592   8.820  65.721  1.00  0.00    -0.144 OA 
ENDBRANCH   2   3
TORSDOF 1
ENDMDL
MODEL      132
REMARK 921   NORMALIZED FREE ENERGY PREDICTED BY IDOCK:   -2.49 KCAL/MOL
REMARK 922        TOTAL FREE ENERGY PREDICTED BY IDOCK:   -2.65 KCAL/MOL
REMARK 923 INTER-LIGAND FREE ENERGY PREDICTED BY IDOCK:   -2.63 KCAL/MOL
REMARK 924 INTRA-LIGAND FREE ENERGY PREDICTED BY IDOCK:   -0.02 KCAL/MOL
REMARK 927      BINDING AFFINITY PREDICTED BY RF-SCORE:    0.00 PKD
ROOT
HETATM    1  C   UNL     1      -8.646  10.195  63.412  1.00  0.00    -0.199 C  
HETATM    2  C   UNL     1      -9.628   9.919  64.545  1.00  0.00    -0.290 C  
ENDROOT
BRANCH   2   3
HETATM    3  C   UNL     1      -9.364  10.721  65.823  1.00  0.00    -0.203 C  
HETATM    4  C   UNL     1      -7.898  10.636  66.241  1.00  0.00    -0.150 C  
HETATM    5  O   UNL     1      -9.692  12.106  65.639  1.00  0.00    -0.242 OA 
HETATM    6  C   UNL     1     -10.476  12.516  66.682  1.00  0.00    -0.233 C  
HETATM    7  N   UNL     1     -10.801  11.465  67.465  1.00  0.00    -0.228 N  
HETATM    8  O   UNL     1     -10.821  13.676  66.835  1.00  0.00    -0.280 OA 
HETATM    9  C   UNL     1     -10.252  10.324  66.979  1.00  0.00    -0.228 C  
HETATM   10  C   UNL     1     -11.700  11.520  68.588  1.00  0.00    -0.326 C  
HETATM   11  O   UNL     1     -10.422   9.189  67.401  1.00  0.00    -0.249 OA 
ENDBRANCH   2   3
TORSDOF 1
ENDMDL
MODEL      133
REMARK 921   NORMALIZED FREE ENERGY PREDICTED BY IDOCK:   -2.48 KCAL/MOL
REMARK 922        TOTAL FREE ENERGY PREDICTED BY IDOCK:   -2.64 KCAL/MOL
REMARK 923 INTER-LIGAND FREE ENERGY PREDICTED BY IDOCK:   -2.59 KCAL/MOL
REMARK 924 INTRA-LIGAND FREE ENERGY PREDICTED BY IDOCK:   -0.05 KCAL/MOL
REMARK 927      BINDING AFFINITY PREDICTED BY RF-SCORE:    0.00 PKD
ROOT
HETATM    1  C   UNL     1     -10.387   8.082  67.441  1.00  0.00    -0.354 C  
HETATM    2  C   UNL     1     -10.650   9.485  66.905  1.00  0.00    -0.241 C  
ENDROOT
BRANCH   2   3
HETATM    3  C   UNL     1      -9.515  10.063  66.055  1.00  0.00    -0.197 C  
HETATM    4  C   UNL     1      -8.772  11.172  66.797  1.00  0.00    -0.157 C  
HETATM    5  O   UNL     1      -8.562   9.047  65.708  1.00  0.00    -0.141 OA 
HETATM    6  C   UNL     1      -8.320   9.110  64.365  1.00  0.00    -0.174 C  
HETATM    7  N   UNL     1      -9.149  10.002  63.780  1.00  0.00    -0.251 N  
HETATM    8  O   UNL     1      -7.475   8.426  63.812  1.00  0.00    -0.107 OA 
HETATM    9  C   UNL     1      -9.968  10.563  64.703  1.00  0.00    -0.347 C  
HETATM   10  C   UNL     1      -9.237  10.239  62.363  1.00  0.00    -0.287 C  
HETATM   11  O   UNL     1     -10.887  11.341  64.493  1.00  0.00    -0.329 OA 
ENDBRANCH   2   3
TORSDOF 1
ENDMDL
MODEL      134
REMARK 921   NORMALIZED FREE ENERGY PREDICTED BY IDOCK:   -2.45 KCAL/MOL
REMARK 922        TOTAL FREE ENERGY PREDICTED BY IDOCK:   -2.61 KCAL/MOL
REMARK 923 INTER-LIGAND FREE ENERGY PREDICTED BY IDOCK:   -2.60 KCAL/MOL
REMARK 924 INTRA-LIGAND FREE ENERGY PREDICTED BY IDOCK:   -0.01 KCAL/MOL
REMARK 927      BINDING AFFINITY PREDICTED BY RF-SCORE:    0.00 PKD
ROOT
HETATM    1  C   UNL     1     -11.023   6.109  68.437  1.00  0.00    -0.391 C  
HETATM    2  C   UNL     1     -10.830   6.976  67.197  1.00  0.00    -0.427 C  
ENDROOT
BRANCH   2   3
HETATM    3  C   UNL     1     -10.126   8.310  67.461  1.00  0.00    -0.225 C  
HETATM    4  C   UNL     1      -9.684   8.976  66.160  1.00  0.00    -0.354 C  
HETATM    5  O   UNL     1     -10.991   9.222  68.154  1.00  0.00    -0.138 OA 
HETATM    6  C   UNL     1     -10.318   9.744  69.223  1.00  0.00    -0.215 C  
HETATM    7  N   UNL     1      -9.119   9.137  69.363  1.00  0.00    -0.144 N  
HETATM    8  O   UNL     1     -10.779  10.623  69.931  1.00  0.00    -0.259 OA 
HETATM    9  C   UNL     1      -8.949   8.195  68.404  1.00  0.00    -0.136 C  
HETATM   10  C   UNL     1      -8.201   9.368  70.448  1.00  0.00    -0.188 C  
HETATM   11  O   UNL     1      -8.017   7.411  68.300  1.00  0.00    -0.119 OA 
ENDBRANCH   2   3
TORSDOF 1
ENDMDL
MODEL      135
REMARK 921   NORMALIZED FREE ENERGY PREDICTED BY IDOCK:   -2.44 KCAL/MOL
REMARK 922        TOTAL FREE ENERGY PREDICTED BY IDOCK:   -2.61 KCAL/MOL
REMARK 923 INTER-LIGAND FREE ENERGY PREDICTED BY IDOCK:   -2.54 KCAL/MOL
REMARK 924 INTRA-LIGAND FREE ENERGY PREDICTED BY IDOCK:   -0.07 KCAL/MOL
REMARK 927      BINDING AFFINITY PREDICTED BY RF-SCORE:    0.00 PKD
ROOT
HETATM    1  C   UNL     1      -9.822   4.784  68.533  1.00  0.00    -0.198 C  
HETATM    2  C   UNL     1      -9.354   6.212  68.268  1.00  0.00    -0.116 C  
ENDROOT
BRANCH   2   3
HETATM    3  C   UNL     1     -10.163   7.289  68.996  1.00  0.00    -0.197 C  
HETATM    4  C   UNL     1     -10.355   8.528  68.123  1.00  0.00    -0.258 C  
HETATM    5  O   UNL     1     -11.461   6.800  69.363  1.00  0.00    -0.237 OA 
HETATM    6  C   UNL     1     -11.686   7.090  70.679  1.00  0.00    -0.338 C  
HETATM    7  N   UNL     1     -10.574   7.611  71.241  1.00  0.00    -0.218 N  
HETATM    8  O   UNL     1     -12.753   6.876  71.231  1.00  0.00    -0.370 OA 
HETATM    9  C   UNL     1      -9.573   7.687  70.330  1.00  0.00    -0.172 C  
HETATM   10  C   UNL     1     -10.427   7.929  72.637  1.00  0.00    -0.320 C  
HETATM   11  O   UNL     1      -8.418   8.031  70.533  1.00  0.00    -0.121 OA 
ENDBRANCH   2   3
TORSDOF 1
ENDMDL
MODEL      136
REMARK 921   NORMALIZED FREE ENERGY PREDICTED BY IDOCK:   -2.44 KCAL/MOL
REMARK 922        TOTAL FREE ENERGY PREDICTED BY IDOCK:   -2.61 KCAL/MOL
REMARK 923 INTER-LIGAND FREE ENERGY PREDICTED BY IDOCK:   -2.59 KCAL/MOL
REMARK 924 INTRA-LIGAND FREE ENERGY PREDICTED BY IDOCK:   -0.02 KCAL/MOL
REMARK 927      BINDING AFFINITY PREDICTED BY RF-SCORE:    0.00 PKD
ROOT
HETATM    1  C   UNL     1      -9.866  11.793  65.332  1.00  0.00    -0.261 C  
HETATM    2  C   UNL     1      -9.248  11.838  66.726  1.00  0.00    -0.196 C  
ENDROOT
BRANCH   2   3
HETATM    3  C   UNL     1      -9.327  10.517  67.497  1.00  0.00    -0.149 C  
HETATM    4  C   UNL     1      -9.178   9.317  66.564  1.00  0.00    -0.206 C  
HETATM    5  O   UNL     1      -8.294  10.436  68.490  1.00  0.00    -0.113 OA 
HETATM    6  C   UNL     1      -8.853  10.065  69.680  1.00  0.00    -0.199 C  
HETATM    7  N   UNL     1     -10.199  10.029  69.574  1.00  0.00    -0.219 N  
HETATM    8  O   UNL     1      -8.192   9.823  70.676  1.00  0.00    -0.246 OA 
HETATM    9  C   UNL     1     -10.586  10.374  68.321  1.00  0.00    -0.212 C  
HETATM   10  C   UNL     1     -11.106   9.780  70.664  1.00  0.00    -0.332 C  
HETATM   11  O   UNL     1     -11.731  10.523  67.920  1.00  0.00    -0.453 OA 
ENDBRANCH   2   3
TORSDOF 1
ENDMDL
MODEL      137
REMARK 921   NORMALIZED FREE ENERGY PREDICTED BY IDOCK:   -2.44 KCAL/MOL
REMARK 922        TOTAL FREE ENERGY PREDICTED BY IDOCK:   -2.60 KCAL/MOL
REMARK 923 INTER-LIGAND FREE ENERGY PREDICTED BY IDOCK:   -2.55 KCAL/MOL
REMARK 924 INTRA-LIGAND FREE ENERGY PREDICTED BY IDOCK:   -0.05 KCAL/MOL
REMARK 927      BINDING AFFINITY PREDICTED BY RF-SCORE:    0.00 PKD
ROOT
HETATM    1  C   UNL     1     -10.357  14.938  67.791  1.00  0.00    -0.244 C  
HETATM    2  C   UNL     1     -10.134  13.481  68.183  1.00  0.00    -0.250 C  
ENDROOT
BRANCH   2   3
HETATM    3  C   UNL     1     -10.660  12.464  67.167  1.00  0.00    -0.224 C  
HETATM    4  C   UNL     1     -12.004  11.885  67.601  1.00  0.00    -0.127 C  
HETATM    5  O   UNL     1     -10.834  13.066  65.876  1.00  0.00    -0.270 OA 
HETATM    6  C   UNL     1     -10.240  12.272  64.934  1.00  0.00    -0.281 C  
HETATM    7  N   UNL     1      -9.570  11.262  65.529  1.00  0.00    -0.221 N  
HETATM    8  O   UNL     1     -10.320  12.492  63.737  1.00  0.00    -0.418 OA 
HETATM    9  C   UNL     1      -9.687  11.343  66.877  1.00  0.00    -0.192 C  
HETATM   10  C   UNL     1      -8.745  10.303  64.841  1.00  0.00    -0.185 C  
HETATM   11  O   UNL     1      -9.134  10.636  67.707  1.00  0.00    -0.141 OA 
ENDBRANCH   2   3
TORSDOF 1
ENDMDL
MODEL      138
REMARK 921   NORMALIZED FREE ENERGY PREDICTED BY IDOCK:   -2.43 KCAL/MOL
REMARK 922        TOTAL FREE ENERGY PREDICTED BY IDOCK:   -2.59 KCAL/MOL
REMARK 923 INTER-LIGAND FREE ENERGY PREDICTED BY IDOCK:   -2.51 KCAL/MOL
REMARK 924 INTRA-LIGAND FREE ENERGY PREDICTED BY IDOCK:   -0.08 KCAL/MOL
REMARK 927      BINDING AFFINITY PREDICTED BY RF-SCORE:    0.00 PKD
ROOT
HETATM    1  C   UNL     1      -7.880   9.280  71.036  1.00  0.00    -0.109 C  
HETATM    2  C   UNL     1      -9.095   8.622  71.683  1.00  0.00    -0.318 C  
ENDROOT
BRANCH   2   3
HETATM    3  C   UNL     1     -10.342   8.583  70.796  1.00  0.00    -0.198 C  
HETATM    4  C   UNL     1     -11.611   8.391  71.624  1.00  0.00    -0.348 C  
HETATM    5  O   UNL     1     -10.482   9.800  70.047  1.00  0.00    -0.231 OA 
HETATM    6  C   UNL     1     -10.702   9.488  68.735  1.00  0.00    -0.190 C  
HETATM    7  N   UNL     1     -10.580   8.157  68.543  1.00  0.00    -0.151 N  
HETATM    8  O   UNL     1     -10.956  10.329  67.888  1.00  0.00    -0.267 OA 
HETATM    9  C   UNL     1     -10.275   7.535  69.708  1.00  0.00    -0.211 C  
HETATM   10  C   UNL     1     -10.644   7.500  67.264  1.00  0.00    -0.324 C  
HETATM   11  O   UNL     1     -10.015   6.351  69.864  1.00  0.00    -0.165 OA 
ENDBRANCH   2   3
TORSDOF 1
ENDMDL
MODEL      139
REMARK 921   NORMALIZED FREE ENERGY PREDICTED BY IDOCK:   -2.43 KCAL/MOL
REMARK 922        TOTAL FREE ENERGY PREDICTED BY IDOCK:   -2.59 KCAL/MOL
REMARK 923 INTER-LIGAND FREE ENERGY PREDICTED BY IDOCK:   -2.56 KCAL/MOL
REMARK 924 INTRA-LIGAND FREE ENERGY PREDICTED BY IDOCK:   -0.03 KCAL/MOL
REMARK 927      BINDING AFFINITY PREDICTED BY RF-SCORE:    0.00 PKD
ROOT
HETATM    1  C   UNL     1     -10.250  10.868  68.767  1.00  0.00    -0.210 C  
HETATM    2  C   UNL     1     -10.755   9.429  68.743  1.00  0.00    -0.200 C  
ENDROOT
BRANCH   2   3
HETATM    3  C   UNL     1     -10.385   8.606  69.980  1.00  0.00    -0.207 C  
HETATM    4  C   UNL     1      -9.416   9.364  70.885  1.00  0.00    -0.279 C  
HETATM    5  O   UNL     1     -11.551   8.282  70.752  1.00  0.00    -0.282 OA 
HETATM    6  C   UNL     1     -11.537   6.944  71.032  1.00  0.00    -0.328 C  
HETATM    7  N   UNL     1     -10.518   6.340  70.383  1.00  0.00    -0.210 N  
HETATM    8  O   UNL     1     -12.358   6.412  71.760  1.00  0.00    -0.333 OA 
HETATM    9  C   UNL     1      -9.821   7.243  69.651  1.00  0.00    -0.163 C  
HETATM   10  C   UNL     1     -10.276   4.921  70.369  1.00  0.00    -0.222 C  
HETATM   11  O   UNL     1      -8.897   7.011  68.884  1.00  0.00    -0.131 OA 
ENDBRANCH   2   3
TORSDOF 1
ENDMDL
MODEL      140
REMARK 921   NORMALIZED FREE ENERGY PREDICTED BY IDOCK:   -2.40 KCAL/MOL
REMARK 922        TOTAL FREE ENERGY PREDICTED BY IDOCK:   -2.56 KCAL/MOL
REMARK 923 INTER-LIGAND FREE ENERGY PREDICTED BY IDOCK:   -2.51 KCAL/MOL
REMARK 924 INTRA-LIGAND FREE ENERGY PREDICTED BY IDOCK:   -0.05 KCAL/MOL
REMARK 927      BINDING AFFINITY PREDICTED BY RF-SCORE:    0.00 PKD
ROOT
HETATM    1  C   UNL     1      -8.403   7.968  74.106  1.00  0.00    -0.311 C  
HETATM    2  C   UNL     1      -9.621   7.936  73.189  1.00  0.00    -0.352 C  
ENDROOT
BRANCH   2   3
HETATM    3  C   UNL     1      -9.335   7.430  71.772  1.00  0.00    -0.145 C  
HETATM    4  C   UNL     1      -7.988   6.716  71.696  1.00  0.00    -0.103 C  
HETATM    5  O   UNL     1     -10.349   6.511  71.338  1.00  0.00    -0.203 OA 
HETATM    6  C   UNL     1     -10.777   6.882  70.094  1.00  0.00    -0.237 C  
HETATM    7  N   UNL     1     -10.217   8.058  69.737  1.00  0.00    -0.201 N  
HETATM    8  O   UNL     1     -11.566   6.220  69.441  1.00  0.00    -0.403 OA 
HETATM    9  C   UNL     1      -9.403   8.514  70.720  1.00  0.00    -0.172 C  
HETATM   10  C   UNL     1     -10.531   8.789  68.537  1.00  0.00    -0.175 C  
HETATM   11  O   UNL     1      -8.815   9.585  70.750  1.00  0.00    -0.210 OA 
ENDBRANCH   2   3
TORSDOF 1
ENDMDL
MODEL      141
REMARK 921   NORMALIZED FREE ENERGY PREDICTED BY IDOCK:   -2.37 KCAL/MOL
REMARK 922        TOTAL FREE ENERGY PREDICTED BY IDOCK:   -2.53 KCAL/MOL
REMARK 923 INTER-LIGAND FREE ENERGY PREDICTED BY IDOCK:   -2.50 KCAL/MOL
REMARK 924 INTRA-LIGAND FREE ENERGY PREDICTED BY IDOCK:   -0.04 KCAL/MOL
REMARK 927      BINDING AFFINITY PREDICTED BY RF-SCORE:    0.00 PKD
ROOT
HETATM    1  C   UNL     1     -10.259   7.389  73.439  1.00  0.00    -0.402 C  
HETATM    2  C   UNL     1      -9.952   6.502  72.237  1.00  0.00    -0.176 C  
ENDROOT
BRANCH   2   3
HETATM    3  C   UNL     1      -9.863   7.250  70.904  1.00  0.00    -0.184 C  
HETATM    4  C   UNL     1     -10.077   8.750  71.090  1.00  0.00    -0.317 C  
HETATM    5  O   UNL     1      -8.580   7.059  70.290  1.00  0.00    -0.137 OA 
HETATM    6  C   UNL     1      -8.764   6.696  68.985  1.00  0.00    -0.129 C  
HETATM    7  N   UNL     1     -10.077   6.501  68.734  1.00  0.00    -0.153 N  
HETATM    8  O   UNL     1      -7.842   6.566  68.197  1.00  0.00    -0.103 OA 
HETATM    9  C   UNL     1     -10.811   6.722  69.852  1.00  0.00    -0.266 C  
HETATM   10  C   UNL     1     -10.614   6.010  67.492  1.00  0.00    -0.273 C  
HETATM   11  O   UNL     1     -12.014   6.550  69.987  1.00  0.00    -0.358 OA 
ENDBRANCH   2   3
TORSDOF 1
ENDMDL
MODEL      142
REMARK 921   NORMALIZED FREE ENERGY PREDICTED BY IDOCK:   -2.36 KCAL/MOL
REMARK 922        TOTAL FREE ENERGY PREDICTED BY IDOCK:   -2.52 KCAL/MOL
REMARK 923 INTER-LIGAND FREE ENERGY PREDICTED BY IDOCK:   -2.49 KCAL/MOL
REMARK 924 INTRA-LIGAND FREE ENERGY PREDICTED BY IDOCK:   -0.03 KCAL/MOL
REMARK 927      BINDING AFFINITY PREDICTED BY RF-SCORE:    0.00 PKD
ROOT
HETATM    1  C   UNL     1      -9.442   7.302  73.771  1.00  0.00    -0.313 C  
HETATM    2  C   UNL     1      -8.988   8.321  72.731  1.00  0.00    -0.323 C  
ENDROOT
BRANCH   2   3
HETATM    3  C   UNL     1      -9.826   8.333  71.449  1.00  0.00    -0.184 C  
HETATM    4  C   UNL     1     -10.741   7.114  71.368  1.00  0.00    -0.245 C  
HETATM    5  O   UNL     1     -10.647   9.508  71.381  1.00  0.00    -0.336 OA 
HETATM    6  C   UNL     1     -10.492  10.086  70.152  1.00  0.00    -0.284 C  
HETATM    7  N   UNL     1      -9.522   9.453  69.457  1.00  0.00    -0.170 N  
HETATM    8  O   UNL     1     -11.148  11.046  69.784  1.00  0.00    -0.259 OA 
HETATM    9  C   UNL     1      -8.998   8.440  70.188  1.00  0.00    -0.142 C  
HETATM   10  C   UNL     1      -9.028   9.866  68.170  1.00  0.00    -0.118 C  
HETATM   11  O   UNL     1      -8.051   7.728  69.886  1.00  0.00    -0.115 OA 
ENDBRANCH   2   3
TORSDOF 1
ENDMDL
MODEL      143
REMARK 921   NORMALIZED FREE ENERGY PREDICTED BY IDOCK:   -2.35 KCAL/MOL
REMARK 922        TOTAL FREE ENERGY PREDICTED BY IDOCK:   -2.50 KCAL/MOL
REMARK 923 INTER-LIGAND FREE ENERGY PREDICTED BY IDOCK:   -2.42 KCAL/MOL
REMARK 924 INTRA-LIGAND FREE ENERGY PREDICTED BY IDOCK:   -0.08 KCAL/MOL
REMARK 927      BINDING AFFINITY PREDICTED BY RF-SCORE:    0.00 PKD
ROOT
HETATM    1  C   UNL     1     -10.061   3.602  72.492  1.00  0.00    -0.237 C  
HETATM    2  C   UNL     1      -9.903   3.906  71.005  1.00  0.00    -0.219 C  
ENDROOT
BRANCH   2   3
HETATM    3  C   UNL     1     -10.109   5.378  70.634  1.00  0.00    -0.231 C  
HETATM    4  C   UNL     1     -10.450   5.538  69.154  1.00  0.00    -0.315 C  
HETATM    5  O   UNL     1     -11.175   5.959  71.400  1.00  0.00    -0.274 OA 
HETATM    6  C   UNL     1     -10.742   7.141  71.933  1.00  0.00    -0.216 C  
HETATM    7  N   UNL     1      -9.425   7.311  71.688  1.00  0.00    -0.152 N  
HETATM    8  O   UNL     1     -11.475   7.897  72.549  1.00  0.00    -0.348 OA 
HETATM    9  C   UNL     1      -8.933   6.259  70.989  1.00  0.00    -0.143 C  
HETATM   10  C   UNL     1      -8.626   8.394  72.197  1.00  0.00    -0.192 C  
HETATM   11  O   UNL     1      -7.766   6.061  70.682  1.00  0.00    -0.096 OA 
ENDBRANCH   2   3
TORSDOF 1
ENDMDL
MODEL      144
REMARK 921   NORMALIZED FREE ENERGY PREDICTED BY IDOCK:   -2.34 KCAL/MOL
REMARK 922        TOTAL FREE ENERGY PREDICTED BY IDOCK:   -2.50 KCAL/MOL
REMARK 923 INTER-LIGAND FREE ENERGY PREDICTED BY IDOCK:   -2.48 KCAL/MOL
REMARK 924 INTRA-LIGAND FREE ENERGY PREDICTED BY IDOCK:   -0.03 KCAL/MOL
REMARK 927      BINDING AFFINITY PREDICTED BY RF-SCORE:    0.00 PKD
ROOT
HETATM    1  C   UNL     1      -9.607   4.394  68.360  1.00  0.00    -0.203 C  
HETATM    2  C   UNL     1      -9.096   5.831  68.344  1.00  0.00    -0.118 C  
ENDROOT
BRANCH   2   3
HETATM    3  C   UNL     1      -9.920   6.806  69.191  1.00  0.00    -0.159 C  
HETATM    4  C   UNL     1     -11.264   6.201  69.589  1.00  0.00    -0.488 C  
HETATM    5  O   UNL     1      -9.222   7.163  70.393  1.00  0.00    -0.155 OA 
HETATM    6  C   UNL     1      -9.239   8.523  70.526  1.00  0.00    -0.156 C  
HETATM    7  N   UNL     1      -9.778   9.095  69.427  1.00  0.00    -0.166 N  
HETATM    8  O   UNL     1      -8.804   9.097  71.510  1.00  0.00    -0.330 OA 
HETATM    9  C   UNL     1     -10.137   8.147  68.527  1.00  0.00    -0.200 C  
HETATM   10  C   UNL     1      -9.852  10.512  69.189  1.00  0.00    -0.218 C  
HETATM   11  O   UNL     1     -10.572   8.331  67.400  1.00  0.00    -0.284 OA 
ENDBRANCH   2   3
TORSDOF 1
ENDMDL
MODEL      145
REMARK 921   NORMALIZED FREE ENERGY PREDICTED BY IDOCK:   -2.32 KCAL/MOL
REMARK 922        TOTAL FREE ENERGY PREDICTED BY IDOCK:   -2.48 KCAL/MOL
REMARK 923 INTER-LIGAND FREE ENERGY PREDICTED BY IDOCK:   -2.43 KCAL/MOL
REMARK 924 INTRA-LIGAND FREE ENERGY PREDICTED BY IDOCK:   -0.05 KCAL/MOL
REMARK 927      BINDING AFFINITY PREDICTED BY RF-SCORE:    0.00 PKD
ROOT
HETATM    1  C   UNL     1     -11.669  14.971  72.438  1.00  0.00    -0.412 C  
HETATM    2  C   UNL     1     -10.743  15.103  71.234  1.00  0.00     0.130 C  
ENDROOT
BRANCH   2   3
HETATM    3  C   UNL     1     -11.464  15.164  69.884  1.00  0.00    -0.288 C  
HETATM    4  C   UNL     1     -12.910  15.628  70.044  1.00  0.00     0.043 C  
HETATM    5  O   UNL     1     -10.805  16.071  68.987  1.00  0.00    -0.245 OA 
HETATM    6  C   UNL     1     -10.621  15.447  67.785  1.00  0.00    -0.274 C  
HETATM    7  N   UNL     1     -10.987  14.150  67.869  1.00  0.00    -0.247 N  
HETATM    8  O   UNL     1     -10.172  16.019  66.805  1.00  0.00    -0.261 OA 
HETATM    9  C   UNL     1     -11.423  13.861  69.119  1.00  0.00    -0.299 C  
HETATM   10  C   UNL     1     -10.825  13.179  66.819  1.00  0.00    -0.276 C  
HETATM   11  O   UNL     1     -11.745  12.762  69.550  1.00  0.00    -0.300 OA 
ENDBRANCH   2   3
TORSDOF 1
ENDMDL
MODEL      146
REMARK 921   NORMALIZED FREE ENERGY PREDICTED BY IDOCK:   -2.28 KCAL/MOL
REMARK 922        TOTAL FREE ENERGY PREDICTED BY IDOCK:   -2.44 KCAL/MOL
REMARK 923 INTER-LIGAND FREE ENERGY PREDICTED BY IDOCK:   -2.39 KCAL/MOL
REMARK 924 INTRA-LIGAND FREE ENERGY PREDICTED BY IDOCK:   -0.05 KCAL/MOL
REMARK 927      BINDING AFFINITY PREDICTED BY RF-SCORE:    0.00 PKD
ROOT
HETATM    1  C   UNL     1      -8.648   9.035  71.010  1.00  0.00    -0.264 C  
HETATM    2  C   UNL     1      -8.337   9.929  69.814  1.00  0.00    -0.196 C  
ENDROOT
BRANCH   2   3
HETATM    3  C   UNL     1      -9.558  10.305  68.969  1.00  0.00    -0.203 C  
HETATM    4  C   UNL     1     -10.856  10.128  69.753  1.00  0.00    -0.320 C  
HETATM    5  O   UNL     1      -9.485  11.671  68.536  1.00  0.00    -0.195 OA 
HETATM    6  C   UNL     1      -9.728  11.722  67.192  1.00  0.00    -0.183 C  
HETATM    7  N   UNL     1      -9.820  10.473  66.685  1.00  0.00    -0.192 N  
HETATM    8  O   UNL     1      -9.827  12.770  66.576  1.00  0.00    -0.245 OA 
HETATM    9  C   UNL     1      -9.641   9.551  67.661  1.00  0.00    -0.136 C  
HETATM   10  C   UNL     1      -9.965  10.160  65.287  1.00  0.00    -0.311 C  
HETATM   11  O   UNL     1      -9.578   8.337  67.524  1.00  0.00    -0.145 OA 
ENDBRANCH   2   3
TORSDOF 1
ENDMDL
MODEL      147
REMARK 921   NORMALIZED FREE ENERGY PREDICTED BY IDOCK:   -2.28 KCAL/MOL
REMARK 922        TOTAL FREE ENERGY PREDICTED BY IDOCK:   -2.43 KCAL/MOL
REMARK 923 INTER-LIGAND FREE ENERGY PREDICTED BY IDOCK:   -2.40 KCAL/MOL
REMARK 924 INTRA-LIGAND FREE ENERGY PREDICTED BY IDOCK:   -0.03 KCAL/MOL
REMARK 927      BINDING AFFINITY PREDICTED BY RF-SCORE:    0.00 PKD
ROOT
HETATM    1  C   UNL     1      -7.843   6.193  67.125  1.00  0.00    -0.102 C  
HETATM    2  C   UNL     1      -8.629   7.493  66.994  1.00  0.00    -0.122 C  
ENDROOT
BRANCH   2   3
HETATM    3  C   UNL     1      -9.943   7.521  67.781  1.00  0.00    -0.171 C  
HETATM    4  C   UNL     1     -11.010   6.653  67.117  1.00  0.00    -0.478 C  
HETATM    5  O   UNL     1      -9.753   7.042  69.120  1.00  0.00    -0.155 OA 
HETATM    6  C   UNL     1     -10.318   7.931  69.991  1.00  0.00    -0.221 C  
HETATM    7  N   UNL     1     -10.744   9.028  69.330  1.00  0.00    -0.210 N  
HETATM    8  O   UNL     1     -10.391   7.726  71.192  1.00  0.00    -0.200 OA 
HETATM    9  C   UNL     1     -10.482   8.916  68.005  1.00  0.00    -0.208 C  
HETATM   10  C   UNL     1     -11.290  10.206  69.953  1.00  0.00    -0.275 C  
HETATM   11  O   UNL     1     -10.662   9.765  67.145  1.00  0.00    -0.256 OA 
ENDBRANCH   2   3
TORSDOF 1
ENDMDL
MODEL      148
REMARK 921   NORMALIZED FREE ENERGY PREDICTED BY IDOCK:   -2.26 KCAL/MOL
REMARK 922        TOTAL FREE ENERGY PREDICTED BY IDOCK:   -2.41 KCAL/MOL
REMARK 923 INTER-LIGAND FREE ENERGY PREDICTED BY IDOCK:   -2.35 KCAL/MOL
REMARK 924 INTRA-LIGAND FREE ENERGY PREDICTED BY IDOCK:   -0.06 KCAL/MOL
REMARK 927      BINDING AFFINITY PREDICTED BY RF-SCORE:    0.00 PKD
ROOT
HETATM    1  C   UNL     1     -11.719  11.271  69.253  1.00  0.00    -0.403 C  
HETATM    2  C   UNL     1     -11.805  11.019  67.751  1.00  0.00    -0.006 C  
ENDROOT
BRANCH   2   3
HETATM    3  C   UNL     1     -10.779  11.794  66.919  1.00  0.00    -0.250 C  
HETATM    4  C   UNL     1     -11.460  12.756  65.948  1.00  0.00    -0.399 C  
HETATM    5  O   UNL     1      -9.905  12.559  67.760  1.00  0.00    -0.194 OA 
HETATM    6  C   UNL     1      -8.612  12.320  67.386  1.00  0.00    -0.178 C  
HETATM    7  N   UNL     1      -8.567  11.347  66.451  1.00  0.00    -0.178 N  
HETATM    8  O   UNL     1      -7.663  12.916  67.868  1.00  0.00    -0.115 OA 
HETATM    9  C   UNL     1      -9.816  10.903  66.169  1.00  0.00    -0.222 C  
HETATM   10  C   UNL     1      -7.359  10.775  65.915  1.00  0.00    -0.094 C  
HETATM   11  O   UNL     1     -10.116   9.974  65.433  1.00  0.00    -0.310 OA 
ENDBRANCH   2   3
TORSDOF 1
ENDMDL
MODEL      149
REMARK 921   NORMALIZED FREE ENERGY PREDICTED BY IDOCK:   -2.25 KCAL/MOL
REMARK 922        TOTAL FREE ENERGY PREDICTED BY IDOCK:   -2.41 KCAL/MOL
REMARK 923 INTER-LIGAND FREE ENERGY PREDICTED BY IDOCK:   -2.36 KCAL/MOL
REMARK 924 INTRA-LIGAND FREE ENERGY PREDICTED BY IDOCK:   -0.05 KCAL/MOL
REMARK 927      BINDING AFFINITY PREDICTED BY RF-SCORE:    0.00 PKD
ROOT
HETATM    1  C   UNL     1     -11.091  12.229  68.655  1.00  0.00    -0.291 C  
HETATM    2  C   UNL     1     -11.674  10.826  68.516  1.00  0.00    -0.259 C  
ENDROOT
BRANCH   2   3
HETATM    3  C   UNL     1     -10.679   9.696  68.794  1.00  0.00    -0.206 C  
HETATM    4  C   UNL     1      -9.450  10.206  69.543  1.00  0.00    -0.235 C  
HETATM    5  O   UNL     1     -11.282   8.661  69.585  1.00  0.00    -0.095 OA 
HETATM    6  C   UNL     1     -11.030   7.453  68.998  1.00  0.00    -0.005 C  
HETATM    7  N   UNL     1     -10.424   7.630  67.804  1.00  0.00    -0.221 N  
HETATM    8  O   UNL     1     -11.341   6.390  69.510  1.00  0.00    -0.390 OA 
HETATM    9  C   UNL     1     -10.251   8.950  67.551  1.00  0.00    -0.248 C  
HETATM   10  C   UNL     1     -10.114   6.576  66.873  1.00  0.00    -0.192 C  
HETATM   11  O   UNL     1      -9.813   9.451  66.525  1.00  0.00    -0.217 OA 
ENDBRANCH   2   3
TORSDOF 1
ENDMDL
MODEL      150
REMARK 921   NORMALIZED FREE ENERGY PREDICTED BY IDOCK:   -2.25 KCAL/MOL
REMARK 922        TOTAL FREE ENERGY PREDICTED BY IDOCK:   -2.40 KCAL/MOL
REMARK 923 INTER-LIGAND FREE ENERGY PREDICTED BY IDOCK:   -2.34 KCAL/MOL
REMARK 924 INTRA-LIGAND FREE ENERGY PREDICTED BY IDOCK:   -0.06 KCAL/MOL
REMARK 927      BINDING AFFINITY PREDICTED BY RF-SCORE:    0.00 PKD
ROOT
HETATM    1  C   UNL     1      -7.394   8.649  65.579  1.00  0.00    -0.084 C  
HETATM    2  C   UNL     1      -7.950   9.724  66.508  1.00  0.00    -0.112 C  
ENDROOT
BRANCH   2   3
HETATM    3  C   UNL     1      -9.412   9.517  66.913  1.00  0.00    -0.158 C  
HETATM    4  C   UNL     1     -10.294  10.664  66.424  1.00  0.00    -0.291 C  
HETATM    5  O   UNL     1      -9.931   8.296  66.366  1.00  0.00    -0.252 OA 
HETATM    6  C   UNL     1     -10.550   7.594  67.363  1.00  0.00    -0.286 C  
HETATM    7  N   UNL     1     -10.354   8.201  68.554  1.00  0.00    -0.208 N  
HETATM    8  O   UNL     1     -11.167   6.562  67.161  1.00  0.00    -0.388 OA 
HETATM    9  C   UNL     1      -9.605   9.319  68.399  1.00  0.00    -0.147 C  
HETATM   10  C   UNL     1     -10.777   7.675  69.825  1.00  0.00    -0.240 C  
HETATM   11  O   UNL     1      -9.178  10.047  69.284  1.00  0.00    -0.178 OA 
ENDBRANCH   2   3
TORSDOF 1
ENDMDL
MODEL      151
REMARK 921   NORMALIZED FREE ENERGY PREDICTED BY IDOCK:   -2.24 KCAL/MOL
REMARK 922        TOTAL FREE ENERGY PREDICTED BY IDOCK:   -2.40 KCAL/MOL
REMARK 923 INTER-LIGAND FREE ENERGY PREDICTED BY IDOCK:   -2.31 KCAL/MOL
REMARK 924 INTRA-LIGAND FREE ENERGY PREDICTED BY IDOCK:   -0.09 KCAL/MOL
REMARK 927      BINDING AFFINITY PREDICTED BY RF-SCORE:    0.00 PKD
ROOT
HETATM    1  C   UNL     1     -10.654   5.821  68.523  1.00  0.00    -0.299 C  
HETATM    2  C   UNL     1     -11.526   6.421  69.621  1.00  0.00    -0.446 C  
ENDROOT
BRANCH   2   3
HETATM    3  C   UNL     1     -10.799   6.665  70.946  1.00  0.00    -0.252 C  
HETATM    4  C   UNL     1     -11.721   7.306  71.980  1.00  0.00    -0.329 C  
HETATM    5  O   UNL     1     -10.304   5.435  71.497  1.00  0.00    -0.211 OA 
HETATM    6  C   UNL     1      -8.992   5.603  71.841  1.00  0.00    -0.139 C  
HETATM    7  N   UNL     1      -8.549   6.811  71.430  1.00  0.00    -0.124 N  
HETATM    8  O   UNL     1      -8.346   4.748  72.425  1.00  0.00    -0.112 OA 
HETATM    9  C   UNL     1      -9.540   7.489  70.800  1.00  0.00    -0.166 C  
HETATM   10  C   UNL     1      -7.189   7.269  71.534  1.00  0.00    -0.072 C  
HETATM   11  O   UNL     1      -9.447   8.570  70.236  1.00  0.00    -0.161 OA 
ENDBRANCH   2   3
TORSDOF 1
ENDMDL
MODEL      152
REMARK 921   NORMALIZED FREE ENERGY PREDICTED BY IDOCK:   -2.23 KCAL/MOL
REMARK 922        TOTAL FREE ENERGY PREDICTED BY IDOCK:   -2.39 KCAL/MOL
REMARK 923 INTER-LIGAND FREE ENERGY PREDICTED BY IDOCK:   -2.36 KCAL/MOL
REMARK 924 INTRA-LIGAND FREE ENERGY PREDICTED BY IDOCK:   -0.03 KCAL/MOL
REMARK 927      BINDING AFFINITY PREDICTED BY RF-SCORE:    0.00 PKD
ROOT
HETATM    1  C   UNL     1      -9.499   2.413  73.087  1.00  0.00    -0.120 C  
HETATM    2  C   UNL     1      -9.809   3.195  71.815  1.00  0.00    -0.229 C  
ENDROOT
BRANCH   2   3
HETATM    3  C   UNL     1      -9.787   4.717  71.985  1.00  0.00    -0.176 C  
HETATM    4  C   UNL     1      -8.731   5.150  73.000  1.00  0.00    -0.114 C  
HETATM    5  O   UNL     1      -9.500   5.372  70.741  1.00  0.00    -0.157 OA 
HETATM    6  C   UNL     1     -10.421   6.362  70.541  1.00  0.00    -0.220 C  
HETATM    7  N   UNL     1     -11.375   6.315  71.496  1.00  0.00    -0.289 N  
HETATM    8  O   UNL     1     -10.358   7.146  69.608  1.00  0.00    -0.202 OA 
HETATM    9  C   UNL     1     -11.130   5.301  72.361  1.00  0.00    -0.197 C  
HETATM   10  C   UNL     1     -12.551   7.144  71.527  1.00  0.00    -0.390 C  
HETATM   11  O   UNL     1     -11.842   4.934  73.285  1.00  0.00    -0.264 OA 
ENDBRANCH   2   3
TORSDOF 1
ENDMDL
MODEL      153
REMARK 921   NORMALIZED FREE ENERGY PREDICTED BY IDOCK:   -2.23 KCAL/MOL
REMARK 922        TOTAL FREE ENERGY PREDICTED BY IDOCK:   -2.38 KCAL/MOL
REMARK 923 INTER-LIGAND FREE ENERGY PREDICTED BY IDOCK:   -2.34 KCAL/MOL
REMARK 924 INTRA-LIGAND FREE ENERGY PREDICTED BY IDOCK:   -0.04 KCAL/MOL
REMARK 927      BINDING AFFINITY PREDICTED BY RF-SCORE:    0.00 PKD
ROOT
HETATM    1  C   UNL     1      -7.171   7.969  71.649  1.00  0.00    -0.074 C  
HETATM    2  C   UNL     1      -8.500   7.903  72.396  1.00  0.00    -0.189 C  
ENDROOT
BRANCH   2   3
HETATM    3  C   UNL     1      -9.696   7.505  71.526  1.00  0.00    -0.165 C  
HETATM    4  C   UNL     1      -9.258   7.132  70.111  1.00  0.00    -0.155 C  
HETATM    5  O   UNL     1     -10.390   6.380  72.086  1.00  0.00    -0.187 OA 
HETATM    6  C   UNL     1     -11.727   6.662  72.126  1.00  0.00    -0.304 C  
HETATM    7  N   UNL     1     -11.947   7.944  71.762  1.00  0.00    -0.285 N  
HETATM    8  O   UNL     1     -12.566   5.843  72.464  1.00  0.00    -0.063 OA 
HETATM    9  C   UNL     1     -10.777   8.561  71.468  1.00  0.00    -0.261 C  
HETATM   10  C   UNL     1     -13.227   8.601  71.795  1.00  0.00    -0.363 C  
HETATM   11  O   UNL     1     -10.617   9.741  71.189  1.00  0.00    -0.297 OA 
ENDBRANCH   2   3
TORSDOF 1
ENDMDL
MODEL      154
REMARK 921   NORMALIZED FREE ENERGY PREDICTED BY IDOCK:   -2.20 KCAL/MOL
REMARK 922        TOTAL FREE ENERGY PREDICTED BY IDOCK:   -2.35 KCAL/MOL
REMARK 923 INTER-LIGAND FREE ENERGY PREDICTED BY IDOCK:   -2.79 KCAL/MOL
REMARK 924 INTRA-LIGAND FREE ENERGY PREDICTED BY IDOCK:    0.44 KCAL/MOL
REMARK 927      BINDING AFFINITY PREDICTED BY RF-SCORE:    0.00 PKD
ROOT
HETATM    1  C   UNL     1     -10.188  20.088  68.172  1.00  0.00    -0.535 C  
HETATM    2  C   UNL     1      -9.651  18.861  67.443  1.00  0.00    -0.348 C  
ENDROOT
BRANCH   2   3
HETATM    3  C   UNL     1      -8.125  18.734  67.454  1.00  0.00    -0.251 C  
HETATM    4  C   UNL     1      -7.684  17.328  67.857  1.00  0.00    -0.196 C  
HETATM    5  O   UNL     1      -7.574  19.016  66.160  1.00  0.00    -0.261 OA 
HETATM    6  C   UNL     1      -6.549  19.910  66.302  1.00  0.00    -0.211 C  
HETATM    7  N   UNL     1      -6.476  20.340  67.580  1.00  0.00    -0.219 N  
HETATM    8  O   UNL     1      -5.835  20.252  65.373  1.00  0.00    -0.177 OA 
HETATM    9  C   UNL     1      -7.441  19.758  68.332  1.00  0.00    -0.314 C  
HETATM   10  C   UNL     1      -5.582  21.363  68.055  1.00  0.00    -0.238 C  
HETATM   11  O   UNL     1      -7.703  19.993  69.503  1.00  0.00    -0.042 OA 
ENDBRANCH   2   3
TORSDOF 1
ENDMDL
MODEL      155
REMARK 921   NORMALIZED FREE ENERGY PREDICTED BY IDOCK:   -2.18 KCAL/MOL
REMARK 922        TOTAL FREE ENERGY PREDICTED BY IDOCK:   -2.33 KCAL/MOL
REMARK 923 INTER-LIGAND FREE ENERGY PREDICTED BY IDOCK:   -2.26 KCAL/MOL
REMARK 924 INTRA-LIGAND FREE ENERGY PREDICTED BY IDOCK:   -0.06 KCAL/MOL
REMARK 927      BINDING AFFINITY PREDICTED BY RF-SCORE:    0.00 PKD
ROOT
HETATM    1  C   UNL     1      -9.207   3.902  72.864  1.00  0.00    -0.128 C  
HETATM    2  C   UNL     1      -8.416   5.206  72.890  1.00  0.00    -0.116 C  
ENDROOT
BRANCH   2   3
HETATM    3  C   UNL     1      -8.806   6.206  71.797  1.00  0.00    -0.138 C  
HETATM    4  C   UNL     1      -7.573   6.808  71.126  1.00  0.00    -0.088 C  
HETATM    5  O   UNL     1      -9.600   5.576  70.780  1.00  0.00    -0.160 OA 
HETATM    6  C   UNL     1     -10.707   6.342  70.547  1.00  0.00    -0.269 C  
HETATM    7  N   UNL     1     -10.769   7.358  71.434  1.00  0.00    -0.220 N  
HETATM    8  O   UNL     1     -11.508   6.095  69.660  1.00  0.00    -0.429 OA 
HETATM    9  C   UNL     1      -9.716   7.309  72.286  1.00  0.00    -0.149 C  
HETATM   10  C   UNL     1     -11.859   8.293  71.541  1.00  0.00    -0.293 C  
HETATM   11  O   UNL     1      -9.520   8.029  73.255  1.00  0.00    -0.273 OA 
ENDBRANCH   2   3
TORSDOF 1
ENDMDL
MODEL      156
REMARK 921   NORMALIZED FREE ENERGY PREDICTED BY IDOCK:   -2.17 KCAL/MOL
REMARK 922        TOTAL FREE ENERGY PREDICTED BY IDOCK:   -2.32 KCAL/MOL
REMARK 923 INTER-LIGAND FREE ENERGY PREDICTED BY IDOCK:   -2.27 KCAL/MOL
REMARK 924 INTRA-LIGAND FREE ENERGY PREDICTED BY IDOCK:   -0.05 KCAL/MOL
REMARK 927      BINDING AFFINITY PREDICTED BY RF-SCORE:    0.00 PKD
ROOT
HETATM    1  C   UNL     1      -6.941   8.136  71.611  1.00  0.00    -0.072 C  
HETATM    2  C   UNL     1      -8.076   8.114  72.629  1.00  0.00    -0.215 C  
ENDROOT
BRANCH   2   3
HETATM    3  C   UNL     1      -9.385   7.514  72.106  1.00  0.00    -0.140 C  
HETATM    4  C   UNL     1     -10.372   8.602  71.690  1.00  0.00    -0.366 C  
HETATM    5  O   UNL     1      -9.148   6.672  70.968  1.00  0.00    -0.155 OA 
HETATM    6  C   UNL     1      -9.787   5.479  71.161  1.00  0.00    -0.181 C  
HETATM    7  N   UNL     1     -10.313   5.425  72.404  1.00  0.00    -0.202 N  
HETATM    8  O   UNL     1      -9.838   4.610  70.306  1.00  0.00    -0.208 OA 
HETATM    9  C   UNL     1     -10.046   6.567  73.082  1.00  0.00    -0.193 C  
HETATM   10  C   UNL     1     -10.960   4.273  72.974  1.00  0.00    -0.167 C  
HETATM   11  O   UNL     1     -10.304   6.804  74.253  1.00  0.00    -0.369 OA 
ENDBRANCH   2   3
TORSDOF 1
ENDMDL
MODEL      157
REMARK 921   NORMALIZED FREE ENERGY PREDICTED BY IDOCK:   -2.15 KCAL/MOL
REMARK 922        TOTAL FREE ENERGY PREDICTED BY IDOCK:   -2.29 KCAL/MOL
REMARK 923 INTER-LIGAND FREE ENERGY PREDICTED BY IDOCK:   -2.23 KCAL/MOL
REMARK 924 INTRA-LIGAND FREE ENERGY PREDICTED BY IDOCK:   -0.07 KCAL/MOL
REMARK 927      BINDING AFFINITY PREDICTED BY RF-SCORE:    0.00 PKD
ROOT
HETATM    1  C   UNL     1     -10.463   5.146  66.282  1.00  0.00    -0.341 C  
HETATM    2  C   UNL     1     -10.886   6.204  67.296  1.00  0.00    -0.438 C  
ENDROOT
BRANCH   2   3
HETATM    3  C   UNL     1     -10.346   5.978  68.711  1.00  0.00    -0.214 C  
HETATM    4  C   UNL     1     -11.379   6.354  69.770  1.00  0.00    -0.494 C  
HETATM    5  O   UNL     1      -9.987   4.602  68.912  1.00  0.00    -0.164 OA 
HETATM    6  C   UNL     1      -8.732   4.548  69.451  1.00  0.00    -0.086 C  
HETATM    7  N   UNL     1      -8.185   5.783  69.490  1.00  0.00    -0.107 N  
HETATM    8  O   UNL     1      -8.213   3.507  69.817  1.00  0.00    -0.052 OA 
HETATM    9  C   UNL     1      -9.045   6.699  68.983  1.00  0.00    -0.133 C  
HETATM   10  C   UNL     1      -6.835   6.073  69.898  1.00  0.00    -0.064 C  
HETATM   11  O   UNL     1      -8.828   7.888  68.796  1.00  0.00    -0.138 OA 
ENDBRANCH   2   3
TORSDOF 1
ENDMDL
MODEL      158
REMARK 921   NORMALIZED FREE ENERGY PREDICTED BY IDOCK:   -2.14 KCAL/MOL
REMARK 922        TOTAL FREE ENERGY PREDICTED BY IDOCK:   -2.28 KCAL/MOL
REMARK 923 INTER-LIGAND FREE ENERGY PREDICTED BY IDOCK:   -2.22 KCAL/MOL
REMARK 924 INTRA-LIGAND FREE ENERGY PREDICTED BY IDOCK:   -0.06 KCAL/MOL
REMARK 927      BINDING AFFINITY PREDICTED BY RF-SCORE:    0.00 PKD
ROOT
HETATM    1  C   UNL     1     -10.322   4.602  66.079  1.00  0.00    -0.318 C  
HETATM    2  C   UNL     1      -9.498   4.241  67.311  1.00  0.00    -0.209 C  
ENDROOT
BRANCH   2   3
HETATM    3  C   UNL     1      -9.193   5.421  68.238  1.00  0.00    -0.111 C  
HETATM    4  C   UNL     1      -7.715   5.466  68.617  1.00  0.00    -0.084 C  
HETATM    5  O   UNL     1      -9.527   6.669  67.612  1.00  0.00    -0.125 OA 
HETATM    6  C   UNL     1     -10.278   7.412  68.480  1.00  0.00    -0.183 C  
HETATM    7  N   UNL     1     -10.578   6.686  69.579  1.00  0.00    -0.223 N  
HETATM    8  O   UNL     1     -10.618   8.559  68.247  1.00  0.00    -0.198 OA 
HETATM    9  C   UNL     1     -10.045   5.443  69.486  1.00  0.00    -0.240 C  
HETATM   10  C   UNL     1     -11.441   7.123  70.644  1.00  0.00    -0.308 C  
HETATM   11  O   UNL     1     -10.201   4.516  70.269  1.00  0.00    -0.219 OA 
ENDBRANCH   2   3
TORSDOF 1
ENDMDL
MODEL      159
REMARK 921   NORMALIZED FREE ENERGY PREDICTED BY IDOCK:   -2.13 KCAL/MOL
REMARK 922        TOTAL FREE ENERGY PREDICTED BY IDOCK:   -2.27 KCAL/MOL
REMARK 923 INTER-LIGAND FREE ENERGY PREDICTED BY IDOCK:   -2.80 KCAL/MOL
REMARK 924 INTRA-LIGAND FREE ENERGY PREDICTED BY IDOCK:    0.53 KCAL/MOL
REMARK 927      BINDING AFFINITY PREDICTED BY RF-SCORE:    0.00 PKD
ROOT
HETATM    1  C   UNL     1     -11.757  12.839  69.501  1.00  0.00    -0.383 C  
HETATM    2  C   UNL     1     -12.111  13.992  68.566  1.00  0.00    -0.329 C  
ENDROOT
BRANCH   2   3
HETATM    3  C   UNL     1     -10.909  14.628  67.862  1.00  0.00    -0.259 C  
HETATM    4  C   UNL     1     -11.081  14.619  66.345  1.00  0.00    -0.334 C  
HETATM    5  O   UNL     1     -10.729  15.990  68.279  1.00  0.00    -0.272 OA 
HETATM    6  C   UNL     1      -9.419  16.177  68.621  1.00  0.00    -0.227 C  
HETATM    7  N   UNL     1      -8.754  15.001  68.592  1.00  0.00    -0.168 N  
HETATM    8  O   UNL     1      -8.961  17.268  68.919  1.00  0.00    -0.256 OA 
HETATM    9  C   UNL     1      -9.588  13.994  68.233  1.00  0.00    -0.224 C  
HETATM   10  C   UNL     1      -7.386  14.818  68.999  1.00  0.00    -0.139 C  
HETATM   11  O   UNL     1      -9.324  12.801  68.193  1.00  0.00    -0.206 OA 
ENDBRANCH   2   3
TORSDOF 1
ENDMDL
MODEL      160
REMARK 921   NORMALIZED FREE ENERGY PREDICTED BY IDOCK:   -2.12 KCAL/MOL
REMARK 922        TOTAL FREE ENERGY PREDICTED BY IDOCK:   -2.27 KCAL/MOL
REMARK 923 INTER-LIGAND FREE ENERGY PREDICTED BY IDOCK:   -2.24 KCAL/MOL
REMARK 924 INTRA-LIGAND FREE ENERGY PREDICTED BY IDOCK:   -0.03 KCAL/MOL
REMARK 927      BINDING AFFINITY PREDICTED BY RF-SCORE:    0.00 PKD
ROOT
HETATM    1  C   UNL     1     -11.195   6.243  69.046  1.00  0.00    -0.415 C  
HETATM    2  C   UNL     1     -10.994   6.261  67.534  1.00  0.00    -0.444 C  
ENDROOT
BRANCH   2   3
HETATM    3  C   UNL     1      -9.843   5.381  67.036  1.00  0.00    -0.162 C  
HETATM    4  C   UNL     1      -8.985   4.877  68.195  1.00  0.00    -0.123 C  
HETATM    5  O   UNL     1     -10.339   4.239  66.323  1.00  0.00    -0.189 OA 
HETATM    6  C   UNL     1      -9.669   4.135  65.136  1.00  0.00    -0.197 C  
HETATM    7  N   UNL     1      -8.866   5.206  64.956  1.00  0.00    -0.152 N  
HETATM    8  O   UNL     1      -9.818   3.196  64.372  1.00  0.00    -0.159 OA 
HETATM    9  C   UNL     1      -8.969   6.057  66.005  1.00  0.00    -0.147 C  
HETATM   10  C   UNL     1      -8.099   5.470  63.767  1.00  0.00    -0.121 C  
HETATM   11  O   UNL     1      -8.443   7.156  66.115  1.00  0.00    -0.128 OA 
ENDBRANCH   2   3
TORSDOF 1
ENDMDL
MODEL      161
REMARK 921   NORMALIZED FREE ENERGY PREDICTED BY IDOCK:   -2.10 KCAL/MOL
REMARK 922        TOTAL FREE ENERGY PREDICTED BY IDOCK:   -2.25 KCAL/MOL
REMARK 923 INTER-LIGAND FREE ENERGY PREDICTED BY IDOCK:   -2.18 KCAL/MOL
REMARK 924 INTRA-LIGAND FREE ENERGY PREDICTED BY IDOCK:   -0.06 KCAL/MOL
REMARK 927      BINDING AFFINITY PREDICTED BY RF-SCORE:    0.00 PKD
ROOT
HETATM    1  C   UNL     1      -7.006   5.499  71.913  1.00  0.00    -0.076 C  
HETATM    2  C   UNL     1      -7.732   4.800  70.768  1.00  0.00    -0.069 C  
ENDROOT
BRANCH   2   3
HETATM    3  C   UNL     1      -9.183   4.419  71.077  1.00  0.00    -0.138 C  
HETATM    4  C   UNL     1      -9.531   3.044  70.510  1.00  0.00    -0.221 C  
HETATM    5  O   UNL     1      -9.418   4.387  72.492  1.00  0.00    -0.131 OA 
HETATM    6  C   UNL     1     -10.549   5.103  72.768  1.00  0.00    -0.229 C  
HETATM    7  N   UNL     1     -10.996   5.720  71.652  1.00  0.00    -0.260 N  
HETATM    8  O   UNL     1     -11.041   5.161  73.882  1.00  0.00    -0.265 OA 
HETATM    9  C   UNL     1     -10.189   5.441  70.600  1.00  0.00    -0.253 C  
HETATM   10  C   UNL     1     -12.103   6.639  71.607  1.00  0.00    -0.355 C  
HETATM   11  O   UNL     1     -10.264   5.907  69.472  1.00  0.00    -0.186 OA 
ENDBRANCH   2   3
TORSDOF 1
ENDMDL
MODEL      162
REMARK 921   NORMALIZED FREE ENERGY PREDICTED BY IDOCK:   -2.10 KCAL/MOL
REMARK 922        TOTAL FREE ENERGY PREDICTED BY IDOCK:   -2.24 KCAL/MOL
REMARK 923 INTER-LIGAND FREE ENERGY PREDICTED BY IDOCK:   -2.16 KCAL/MOL
REMARK 924 INTRA-LIGAND FREE ENERGY PREDICTED BY IDOCK:   -0.08 KCAL/MOL
REMARK 927      BINDING AFFINITY PREDICTED BY RF-SCORE:    0.00 PKD
ROOT
HETATM    1  C   UNL     1      -9.346   3.948  69.243  1.00  0.00    -0.242 C  
HETATM    2  C   UNL     1      -9.507   4.260  70.727  1.00  0.00    -0.241 C  
ENDROOT
BRANCH   2   3
HETATM    3  C   UNL     1      -9.483   5.753  71.068  1.00  0.00    -0.165 C  
HETATM    4  C   UNL     1      -9.705   5.988  72.560  1.00  0.00    -0.169 C  
HETATM    5  O   UNL     1      -8.226   6.344  70.709  1.00  0.00    -0.121 OA 
HETATM    6  C   UNL     1      -8.462   7.484  69.993  1.00  0.00    -0.137 C  
HETATM    7  N   UNL     1      -9.782   7.611  69.737  1.00  0.00    -0.171 N  
HETATM    8  O   UNL     1      -7.573   8.242  69.643  1.00  0.00    -0.089 OA 
HETATM    9  C   UNL     1     -10.470   6.570  70.266  1.00  0.00    -0.216 C  
HETATM   10  C   UNL     1     -10.367   8.639  68.916  1.00  0.00    -0.211 C  
HETATM   11  O   UNL     1     -11.664   6.339  70.142  1.00  0.00    -0.398 OA 
ENDBRANCH   2   3
TORSDOF 1
ENDMDL
MODEL      163
REMARK 921   NORMALIZED FREE ENERGY PREDICTED BY IDOCK:   -2.08 KCAL/MOL
REMARK 922        TOTAL FREE ENERGY PREDICTED BY IDOCK:   -2.22 KCAL/MOL
REMARK 923 INTER-LIGAND FREE ENERGY PREDICTED BY IDOCK:   -2.46 KCAL/MOL
REMARK 924 INTRA-LIGAND FREE ENERGY PREDICTED BY IDOCK:    0.24 KCAL/MOL
REMARK 927      BINDING AFFINITY PREDICTED BY RF-SCORE:    0.00 PKD
ROOT
HETATM    1  C   UNL     1      -9.449  16.432  67.461  1.00  0.00    -0.224 C  
HETATM    2  C   UNL     1      -8.549  15.386  68.111  1.00  0.00    -0.152 C  
ENDROOT
BRANCH   2   3
HETATM    3  C   UNL     1      -8.967  13.937  67.847  1.00  0.00    -0.191 C  
HETATM    4  C   UNL     1      -7.754  13.015  67.751  1.00  0.00    -0.151 C  
HETATM    5  O   UNL     1      -9.815  13.446  68.896  1.00  0.00    -0.079 OA 
HETATM    6  C   UNL     1     -10.918  12.864  68.336  1.00  0.00    -0.258 C  
HETATM    7  N   UNL     1     -10.923  13.060  67.000  1.00  0.00    -0.261 N  
HETATM    8  O   UNL     1     -11.760  12.274  68.993  1.00  0.00    -0.287 OA 
HETATM    9  C   UNL     1      -9.836  13.774  66.621  1.00  0.00    -0.284 C  
HETATM   10  C   UNL     1     -11.991  12.673  66.115  1.00  0.00    -0.395 C  
HETATM   11  O   UNL     1      -9.585  14.193  65.500  1.00  0.00    -0.180 OA 
ENDBRANCH   2   3
TORSDOF 1
ENDMDL
MODEL      164
REMARK 921   NORMALIZED FREE ENERGY PREDICTED BY IDOCK:   -2.05 KCAL/MOL
REMARK 922        TOTAL FREE ENERGY PREDICTED BY IDOCK:   -2.19 KCAL/MOL
REMARK 923 INTER-LIGAND FREE ENERGY PREDICTED BY IDOCK:   -2.09 KCAL/MOL
REMARK 924 INTRA-LIGAND FREE ENERGY PREDICTED BY IDOCK:   -0.09 KCAL/MOL
REMARK 927      BINDING AFFINITY PREDICTED BY RF-SCORE:    0.00 PKD
ROOT
HETATM    1  C   UNL     1     -11.398   6.163  70.282  1.00  0.00    -0.414 C  
HETATM    2  C   UNL     1     -11.364   7.687  70.267  1.00  0.00    -0.197 C  
ENDROOT
BRANCH   2   3
HETATM    3  C   UNL     1     -10.029   8.287  69.818  1.00  0.00    -0.191 C  
HETATM    4  C   UNL     1      -9.964   9.785  70.108  1.00  0.00    -0.315 C  
HETATM    5  O   UNL     1      -8.928   7.658  70.491  1.00  0.00    -0.148 OA 
HETATM    6  C   UNL     1      -7.991   7.298  69.563  1.00  0.00    -0.127 C  
HETATM    7  N   UNL     1      -8.457   7.520  68.316  1.00  0.00    -0.125 N  
HETATM    8  O   UNL     1      -6.905   6.831  69.866  1.00  0.00    -0.051 OA 
HETATM    9  C   UNL     1      -9.712   8.031  68.362  1.00  0.00    -0.158 C  
HETATM   10  C   UNL     1      -7.772   7.156  67.103  1.00  0.00    -0.108 C  
HETATM   11  O   UNL     1     -10.447   8.264  67.413  1.00  0.00    -0.260 OA 
ENDBRANCH   2   3
TORSDOF 1
ENDMDL
MODEL      165
REMARK 921   NORMALIZED FREE ENERGY PREDICTED BY IDOCK:   -2.04 KCAL/MOL
REMARK 922        TOTAL FREE ENERGY PREDICTED BY IDOCK:   -2.18 KCAL/MOL
REMARK 923 INTER-LIGAND FREE ENERGY PREDICTED BY IDOCK:   -2.14 KCAL/MOL
REMARK 924 INTRA-LIGAND FREE ENERGY PREDICTED BY IDOCK:   -0.04 KCAL/MOL
REMARK 927      BINDING AFFINITY PREDICTED BY RF-SCORE:    0.00 PKD
ROOT
HETATM    1  C   UNL     1     -10.023   4.878  70.118  1.00  0.00    -0.325 C  
HETATM    2  C   UNL     1     -10.554   6.119  69.407  1.00  0.00    -0.349 C  
ENDROOT
BRANCH   2   3
HETATM    3  C   UNL     1      -9.663   6.628  68.271  1.00  0.00    -0.132 C  
HETATM    4  C   UNL     1      -8.895   5.486  67.609  1.00  0.00    -0.105 C  
HETATM    5  O   UNL     1     -10.441   7.284  67.259  1.00  0.00    -0.245 OA 
HETATM    6  C   UNL     1      -9.866   8.491  66.973  1.00  0.00    -0.224 C  
HETATM    7  N   UNL     1      -8.845   8.736  67.822  1.00  0.00    -0.135 N  
HETATM    8  O   UNL     1     -10.262   9.217  66.077  1.00  0.00    -0.269 OA 
HETATM    9  C   UNL     1      -8.701   7.713  68.700  1.00  0.00    -0.128 C  
HETATM   10  C   UNL     1      -8.090   9.961  67.871  1.00  0.00    -0.109 C  
HETATM   11  O   UNL     1      -7.930   7.660  69.647  1.00  0.00    -0.118 OA 
ENDBRANCH   2   3
TORSDOF 1
ENDMDL
MODEL      166
REMARK 921   NORMALIZED FREE ENERGY PREDICTED BY IDOCK:   -2.03 KCAL/MOL
REMARK 922        TOTAL FREE ENERGY PREDICTED BY IDOCK:   -2.17 KCAL/MOL
REMARK 923 INTER-LIGAND FREE ENERGY PREDICTED BY IDOCK:   -2.13 KCAL/MOL
REMARK 924 INTRA-LIGAND FREE ENERGY PREDICTED BY IDOCK:   -0.04 KCAL/MOL
REMARK 927      BINDING AFFINITY PREDICTED BY RF-SCORE:    0.00 PKD
ROOT
HETATM    1  C   UNL     1      -9.759   9.451  67.425  1.00  0.00    -0.205 C  
HETATM    2  C   UNL     1     -10.096  10.936  67.508  1.00  0.00    -0.214 C  
ENDROOT
BRANCH   2   3
HETATM    3  C   UNL     1      -9.162  11.844  66.702  1.00  0.00    -0.205 C  
HETATM    4  C   UNL     1      -8.196  11.030  65.844  1.00  0.00    -0.100 C  
HETATM    5  O   UNL     1      -9.908  12.707  65.830  1.00  0.00    -0.261 OA 
HETATM    6  C   UNL     1      -9.460  13.989  65.990  1.00  0.00    -0.136 C  
HETATM    7  N   UNL     1      -8.570  14.051  67.004  1.00  0.00    -0.203 N  
HETATM    8  O   UNL     1      -9.850  14.917  65.301  1.00  0.00    -0.327 OA 
HETATM    9  C   UNL     1      -8.392  12.826  67.555  1.00  0.00    -0.179 C  
HETATM   10  C   UNL     1      -7.982  15.264  67.511  1.00  0.00    -0.176 C  
HETATM   11  O   UNL     1      -7.721  12.553  68.540  1.00  0.00    -0.129 OA 
ENDBRANCH   2   3
TORSDOF 1
ENDMDL
MODEL      167
REMARK 921   NORMALIZED FREE ENERGY PREDICTED BY IDOCK:   -2.01 KCAL/MOL
REMARK 922        TOTAL FREE ENERGY PREDICTED BY IDOCK:   -2.14 KCAL/MOL
REMARK 923 INTER-LIGAND FREE ENERGY PREDICTED BY IDOCK:   -2.06 KCAL/MOL
REMARK 924 INTRA-LIGAND FREE ENERGY PREDICTED BY IDOCK:   -0.09 KCAL/MOL
REMARK 927      BINDING AFFINITY PREDICTED BY RF-SCORE:    0.00 PKD
ROOT
HETATM    1  C   UNL     1      -6.737   6.229  70.512  1.00  0.00    -0.053 C  
HETATM    2  C   UNL     1      -6.536   7.740  70.470  1.00  0.00    -0.038 C  
ENDROOT
BRANCH   2   3
HETATM    3  C   UNL     1      -7.834   8.552  70.465  1.00  0.00    -0.086 C  
HETATM    4  C   UNL     1      -7.592   9.990  70.011  1.00  0.00    -0.182 C  
HETATM    5  O   UNL     1      -8.806   7.967  69.585  1.00  0.00    -0.139 OA 
HETATM    6  C   UNL     1      -9.995   7.858  70.250  1.00  0.00    -0.189 C  
HETATM    7  N   UNL     1      -9.839   8.201  71.547  1.00  0.00    -0.170 N  
HETATM    8  O   UNL     1     -11.023   7.485  69.710  1.00  0.00    -0.244 OA 
HETATM    9  C   UNL     1      -8.553   8.548  71.795  1.00  0.00    -0.190 C  
HETATM   10  C   UNL     1     -10.863   8.099  72.554  1.00  0.00    -0.361 C  
HETATM   11  O   UNL     1      -8.062   8.826  72.880  1.00  0.00    -0.404 OA 
ENDBRANCH   2   3
TORSDOF 1
ENDMDL
MODEL      168
REMARK 921   NORMALIZED FREE ENERGY PREDICTED BY IDOCK:   -2.00 KCAL/MOL
REMARK 922        TOTAL FREE ENERGY PREDICTED BY IDOCK:   -2.14 KCAL/MOL
REMARK 923 INTER-LIGAND FREE ENERGY PREDICTED BY IDOCK:   -2.08 KCAL/MOL
REMARK 924 INTRA-LIGAND FREE ENERGY PREDICTED BY IDOCK:   -0.06 KCAL/MOL
REMARK 927      BINDING AFFINITY PREDICTED BY RF-SCORE:    0.00 PKD
ROOT
HETATM    1  C   UNL     1      -9.959   5.957  69.087  1.00  0.00    -0.214 C  
HETATM    2  C   UNL     1     -10.851   5.742  70.306  1.00  0.00    -0.373 C  
ENDROOT
BRANCH   2   3
HETATM    3  C   UNL     1     -10.095   5.627  71.633  1.00  0.00    -0.195 C  
HETATM    4  C   UNL     1     -10.499   4.369  72.398  1.00  0.00    -0.219 C  
HETATM    5  O   UNL     1      -8.677   5.578  71.416  1.00  0.00    -0.129 OA 
HETATM    6  C   UNL     1      -8.073   6.482  72.244  1.00  0.00    -0.106 C  
HETATM    7  N   UNL     1      -9.002   7.220  72.890  1.00  0.00    -0.130 N  
HETATM    8  O   UNL     1      -6.861   6.583  72.343  1.00  0.00    -0.067 OA 
HETATM    9  C   UNL     1     -10.249   6.841  72.521  1.00  0.00    -0.179 C  
HETATM   10  C   UNL     1      -8.713   8.332  73.757  1.00  0.00    -0.151 C  
HETATM   11  O   UNL     1     -11.305   7.361  72.853  1.00  0.00    -0.317 OA 
ENDBRANCH   2   3
TORSDOF 1
ENDMDL
MODEL      169
REMARK 921   NORMALIZED FREE ENERGY PREDICTED BY IDOCK:   -2.00 KCAL/MOL
REMARK 922        TOTAL FREE ENERGY PREDICTED BY IDOCK:   -2.14 KCAL/MOL
REMARK 923 INTER-LIGAND FREE ENERGY PREDICTED BY IDOCK:   -2.05 KCAL/MOL
REMARK 924 INTRA-LIGAND FREE ENERGY PREDICTED BY IDOCK:   -0.09 KCAL/MOL
REMARK 927      BINDING AFFINITY PREDICTED BY RF-SCORE:    0.00 PKD
ROOT
HETATM    1  C   UNL     1      -9.973  11.586  65.355  1.00  0.00    -0.288 C  
HETATM    2  C   UNL     1      -9.266  11.680  66.703  1.00  0.00    -0.196 C  
ENDROOT
BRANCH   2   3
HETATM    3  C   UNL     1      -9.143  10.348  67.448  1.00  0.00    -0.135 C  
HETATM    4  C   UNL     1      -8.806  10.562  68.922  1.00  0.00    -0.166 C  
HETATM    5  O   UNL     1     -10.367   9.602  67.377  1.00  0.00    -0.215 OA 
HETATM    6  C   UNL     1     -10.082   8.322  66.991  1.00  0.00    -0.283 C  
HETATM    7  N   UNL     1      -8.775   8.210  66.669  1.00  0.00    -0.133 N  
HETATM    8  O   UNL     1     -10.925   7.442  66.945  1.00  0.00    -0.324 OA 
HETATM    9  C   UNL     1      -8.144   9.399  66.825  1.00  0.00    -0.109 C  
HETATM   10  C   UNL     1      -8.160   7.029  66.122  1.00  0.00    -0.119 C  
HETATM   11  O   UNL     1      -6.984   9.659  66.540  1.00  0.00    -0.083 OA 
ENDBRANCH   2   3
TORSDOF 1
ENDMDL
MODEL      170
REMARK 921   NORMALIZED FREE ENERGY PREDICTED BY IDOCK:   -1.99 KCAL/MOL
REMARK 922        TOTAL FREE ENERGY PREDICTED BY IDOCK:   -2.13 KCAL/MOL
REMARK 923 INTER-LIGAND FREE ENERGY PREDICTED BY IDOCK:   -2.43 KCAL/MOL
REMARK 924 INTRA-LIGAND FREE ENERGY PREDICTED BY IDOCK:    0.30 KCAL/MOL
REMARK 927      BINDING AFFINITY PREDICTED BY RF-SCORE:    0.00 PKD
ROOT
HETATM    1  C   UNL     1     -10.514   8.813  66.676  1.00  0.00    -0.240 C  
HETATM    2  C   UNL     1      -9.170   8.640  67.376  1.00  0.00    -0.158 C  
ENDROOT
BRANCH   2   3
HETATM    3  C   UNL     1      -9.246   7.919  68.725  1.00  0.00    -0.143 C  
HETATM    4  C   UNL     1      -8.051   6.990  68.929  1.00  0.00    -0.121 C  
HETATM    5  O   UNL     1      -9.268   8.856  69.811  1.00  0.00    -0.156 OA 
HETATM    6  C   UNL     1     -10.292   8.529  70.656  1.00  0.00    -0.199 C  
HETATM    7  N   UNL     1     -11.031   7.528  70.131  1.00  0.00    -0.259 N  
HETATM    8  O   UNL     1     -10.483   9.099  71.717  1.00  0.00    -0.352 OA 
HETATM    9  C   UNL     1     -10.533   7.152  68.927  1.00  0.00    -0.207 C  
HETATM   10  C   UNL     1     -12.245   7.010  70.706  1.00  0.00    -0.295 C  
HETATM   11  O   UNL     1     -11.015   6.336  68.155  1.00  0.00    -0.302 OA 
ENDBRANCH   2   3
TORSDOF 1
ENDMDL
MODEL      171
REMARK 921   NORMALIZED FREE ENERGY PREDICTED BY IDOCK:   -1.99 KCAL/MOL
REMARK 922        TOTAL FREE ENERGY PREDICTED BY IDOCK:   -2.13 KCAL/MOL
REMARK 923 INTER-LIGAND FREE ENERGY PREDICTED BY IDOCK:   -2.05 KCAL/MOL
REMARK 924 INTRA-LIGAND FREE ENERGY PREDICTED BY IDOCK:   -0.08 KCAL/MOL
REMARK 927      BINDING AFFINITY PREDICTED BY RF-SCORE:    0.00 PKD
ROOT
HETATM    1  C   UNL     1      -9.236   7.252  74.114  1.00  0.00    -0.272 C  
HETATM    2  C   UNL     1      -8.528   8.154  73.108  1.00  0.00    -0.279 C  
ENDROOT
BRANCH   2   3
HETATM    3  C   UNL     1      -8.449   7.582  71.690  1.00  0.00    -0.111 C  
HETATM    4  C   UNL     1      -7.320   8.228  70.889  1.00  0.00    -0.059 C  
HETATM    5  O   UNL     1      -8.220   6.166  71.716  1.00  0.00    -0.113 OA 
HETATM    6  C   UNL     1      -9.121   5.557  70.887  1.00  0.00    -0.143 C  
HETATM    7  N   UNL     1     -10.015   6.458  70.425  1.00  0.00    -0.182 N  
HETATM    8  O   UNL     1      -9.092   4.363  70.640  1.00  0.00    -0.104 OA 
HETATM    9  C   UNL     1      -9.748   7.690  70.924  1.00  0.00    -0.172 C  
HETATM   10  C   UNL     1     -11.162   6.140  69.615  1.00  0.00    -0.418 C  
HETATM   11  O   UNL     1     -10.414   8.704  70.772  1.00  0.00    -0.192 OA 
ENDBRANCH   2   3
TORSDOF 1
ENDMDL
MODEL      172
REMARK 921   NORMALIZED FREE ENERGY PREDICTED BY IDOCK:   -1.97 KCAL/MOL
REMARK 922        TOTAL FREE ENERGY PREDICTED BY IDOCK:   -2.11 KCAL/MOL
REMARK 923 INTER-LIGAND FREE ENERGY PREDICTED BY IDOCK:   -2.02 KCAL/MOL
REMARK 924 INTRA-LIGAND FREE ENERGY PREDICTED BY IDOCK:   -0.08 KCAL/MOL
REMARK 927      BINDING AFFINITY PREDICTED BY RF-SCORE:    0.00 PKD
ROOT
HETATM    1  C   UNL     1      -8.101   3.826  69.875  1.00  0.00    -0.062 C  
HETATM    2  C   UNL     1      -8.434   4.093  68.411  1.00  0.00    -0.104 C  
ENDROOT
BRANCH   2   3
HETATM    3  C   UNL     1      -9.545   5.125  68.191  1.00  0.00    -0.134 C  
HETATM    4  C   UNL     1     -10.167   4.988  66.803  1.00  0.00    -0.286 C  
HETATM    5  O   UNL     1     -10.590   4.972  69.162  1.00  0.00    -0.121 OA 
HETATM    6  C   UNL     1     -10.870   6.195  69.706  1.00  0.00    -0.353 C  
HETATM    7  N   UNL     1      -9.989   7.117  69.262  1.00  0.00    -0.165 N  
HETATM    8  O   UNL     1     -11.788   6.377  70.489  1.00  0.00    -0.374 OA 
HETATM    9  C   UNL     1      -9.096   6.551  68.415  1.00  0.00    -0.123 C  
HETATM   10  C   UNL     1      -9.928   8.482  69.714  1.00  0.00    -0.191 C  
HETATM   11  O   UNL     1      -8.122   7.088  67.906  1.00  0.00    -0.113 OA 
ENDBRANCH   2   3
TORSDOF 1
ENDMDL
MODEL      173
REMARK 921   NORMALIZED FREE ENERGY PREDICTED BY IDOCK:   -1.97 KCAL/MOL
REMARK 922        TOTAL FREE ENERGY PREDICTED BY IDOCK:   -2.11 KCAL/MOL
REMARK 923 INTER-LIGAND FREE ENERGY PREDICTED BY IDOCK:   -2.03 KCAL/MOL
REMARK 924 INTRA-LIGAND FREE ENERGY PREDICTED BY IDOCK:   -0.07 KCAL/MOL
REMARK 927      BINDING AFFINITY PREDICTED BY RF-SCORE:    0.00 PKD
ROOT
HETATM    1  C   UNL     1     -10.076   6.627  69.343  1.00  0.00    -0.192 C  
HETATM    2  C   UNL     1      -9.888   7.667  70.443  1.00  0.00    -0.183 C  
ENDROOT
BRANCH   2   3
HETATM    3  C   UNL     1      -9.670   7.080  71.840  1.00  0.00    -0.157 C  
HETATM    4  C   UNL     1      -9.377   8.174  72.865  1.00  0.00    -0.343 C  
HETATM    5  O   UNL     1     -10.828   6.357  72.283  1.00  0.00    -0.221 OA 
HETATM    6  C   UNL     1     -10.433   5.133  72.746  1.00  0.00    -0.214 C  
HETATM    7  N   UNL     1      -9.116   4.946  72.512  1.00  0.00    -0.131 N  
HETATM    8  O   UNL     1     -11.201   4.347  73.277  1.00  0.00    -0.270 OA 
HETATM    9  C   UNL     1      -8.587   6.027  71.889  1.00  0.00    -0.137 C  
HETATM   10  C   UNL     1      -8.398   3.727  72.776  1.00  0.00    -0.094 C  
HETATM   11  O   UNL     1      -7.447   6.144  71.462  1.00  0.00    -0.090 OA 
ENDBRANCH   2   3
TORSDOF 1
ENDMDL
MODEL      174
REMARK 921   NORMALIZED FREE ENERGY PREDICTED BY IDOCK:   -1.96 KCAL/MOL
REMARK 922        TOTAL FREE ENERGY PREDICTED BY IDOCK:   -2.10 KCAL/MOL
REMARK 923 INTER-LIGAND FREE ENERGY PREDICTED BY IDOCK:   -2.05 KCAL/MOL
REMARK 924 INTRA-LIGAND FREE ENERGY PREDICTED BY IDOCK:   -0.05 KCAL/MOL
REMARK 927      BINDING AFFINITY PREDICTED BY RF-SCORE:    0.00 PKD
ROOT
HETATM    1  C   UNL     1      -8.309   6.193  65.204  1.00  0.00    -0.129 C  
HETATM    2  C   UNL     1      -9.005   5.613  66.431  1.00  0.00    -0.134 C  
ENDROOT
BRANCH   2   3
HETATM    3  C   UNL     1      -9.384   6.650  67.493  1.00  0.00    -0.123 C  
HETATM    4  C   UNL     1      -9.294   8.071  66.943  1.00  0.00    -0.209 C  
HETATM    5  O   UNL     1     -10.724   6.441  67.962  1.00  0.00    -0.229 OA 
HETATM    6  C   UNL     1     -10.718   6.444  69.329  1.00  0.00    -0.292 C  
HETATM    7  N   UNL     1      -9.451   6.501  69.792  1.00  0.00    -0.150 N  
HETATM    8  O   UNL     1     -11.739   6.386  69.996  1.00  0.00    -0.429 OA 
HETATM    9  C   UNL     1      -8.571   6.537  68.762  1.00  0.00    -0.121 C  
HETATM   10  C   UNL     1      -9.076   6.413  71.179  1.00  0.00    -0.150 C  
HETATM   11  O   UNL     1      -7.351   6.505  68.836  1.00  0.00    -0.088 OA 
ENDBRANCH   2   3
TORSDOF 1
ENDMDL
MODEL      175
REMARK 921   NORMALIZED FREE ENERGY PREDICTED BY IDOCK:   -1.96 KCAL/MOL
REMARK 922        TOTAL FREE ENERGY PREDICTED BY IDOCK:   -2.09 KCAL/MOL
REMARK 923 INTER-LIGAND FREE ENERGY PREDICTED BY IDOCK:   -2.51 KCAL/MOL
REMARK 924 INTRA-LIGAND FREE ENERGY PREDICTED BY IDOCK:    0.41 KCAL/MOL
REMARK 927      BINDING AFFINITY PREDICTED BY RF-SCORE:    0.00 PKD
ROOT
HETATM    1  C   UNL     1      -9.976  19.627  68.679  1.00  0.00    -0.553 C  
HETATM    2  C   UNL     1     -10.508  18.216  68.904  1.00  0.00    -0.080 C  
ENDROOT
BRANCH   2   3
HETATM    3  C   UNL     1      -9.618  17.105  68.338  1.00  0.00    -0.281 C  
HETATM    4  C   UNL     1      -9.428  15.974  69.346  1.00  0.00    -0.226 C  
HETATM    5  O   UNL     1     -10.187  16.545  67.145  1.00  0.00    -0.273 OA 
HETATM    6  C   UNL     1      -9.226  16.502  66.175  1.00  0.00    -0.303 C  
HETATM    7  N   UNL     1      -8.103  17.121  66.600  1.00  0.00    -0.233 N  
HETATM    8  O   UNL     1      -9.406  15.981  65.087  1.00  0.00    -0.116 OA 
HETATM    9  C   UNL     1      -8.271  17.597  67.858  1.00  0.00    -0.234 C  
HETATM   10  C   UNL     1      -6.934  17.353  65.793  1.00  0.00     0.064 C  
HETATM   11  O   UNL     1      -7.483  18.278  68.499  1.00  0.00    -0.271 OA 
ENDBRANCH   2   3
TORSDOF 1
ENDMDL
MODEL      176
REMARK 921   NORMALIZED FREE ENERGY PREDICTED BY IDOCK:   -1.95 KCAL/MOL
REMARK 922        TOTAL FREE ENERGY PREDICTED BY IDOCK:   -2.09 KCAL/MOL
REMARK 923 INTER-LIGAND FREE ENERGY PREDICTED BY IDOCK:   -2.02 KCAL/MOL
REMARK 924 INTRA-LIGAND FREE ENERGY PREDICTED BY IDOCK:   -0.06 KCAL/MOL
REMARK 927      BINDING AFFINITY PREDICTED BY RF-SCORE:    0.00 PKD
ROOT
HETATM    1  C   UNL     1      -9.434   9.053  65.688  1.00  0.00    -0.273 C  
HETATM    2  C   UNL     1     -10.537   8.640  66.656  1.00  0.00    -0.131 C  
ENDROOT
BRANCH   2   3
HETATM    3  C   UNL     1     -10.064   7.762  67.818  1.00  0.00    -0.189 C  
HETATM    4  C   UNL     1     -10.895   6.485  67.926  1.00  0.00    -0.383 C  
HETATM    5  O   UNL     1      -8.690   7.383  67.653  1.00  0.00    -0.125 OA 
HETATM    6  C   UNL     1      -8.020   7.632  68.819  1.00  0.00    -0.126 C  
HETATM    7  N   UNL     1      -8.825   8.274  69.693  1.00  0.00    -0.138 N  
HETATM    8  O   UNL     1      -6.856   7.313  68.995  1.00  0.00    -0.060 OA 
HETATM    9  C   UNL     1     -10.049   8.479  69.149  1.00  0.00    -0.203 C  
HETATM   10  C   UNL     1      -8.410   8.780  70.975  1.00  0.00    -0.171 C  
HETATM   11  O   UNL     1     -10.978   9.104  69.642  1.00  0.00    -0.226 OA 
ENDBRANCH   2   3
TORSDOF 1
ENDMDL
MODEL      177
REMARK 921   NORMALIZED FREE ENERGY PREDICTED BY IDOCK:   -1.95 KCAL/MOL
REMARK 922        TOTAL FREE ENERGY PREDICTED BY IDOCK:   -2.08 KCAL/MOL
REMARK 923 INTER-LIGAND FREE ENERGY PREDICTED BY IDOCK:   -2.03 KCAL/MOL
REMARK 924 INTRA-LIGAND FREE ENERGY PREDICTED BY IDOCK:   -0.05 KCAL/MOL
REMARK 927      BINDING AFFINITY PREDICTED BY RF-SCORE:    0.00 PKD
ROOT
HETATM    1  C   UNL     1     -10.114   6.342  68.882  1.00  0.00    -0.187 C  
HETATM    2  C   UNL     1      -9.567   5.056  69.492  1.00  0.00    -0.237 C  
ENDROOT
BRANCH   2   3
HETATM    3  C   UNL     1      -9.183   5.170  70.970  1.00  0.00    -0.147 C  
HETATM    4  C   UNL     1      -7.667   5.172  71.155  1.00  0.00    -0.096 C  
HETATM    5  O   UNL     1      -9.701   6.377  71.547  1.00  0.00    -0.169 OA 
HETATM    6  C   UNL     1     -10.336   6.070  72.718  1.00  0.00    -0.199 C  
HETATM    7  N   UNL     1     -10.393   4.731  72.883  1.00  0.00    -0.177 N  
HETATM    8  O   UNL     1     -10.786   6.920  73.469  1.00  0.00    -0.325 OA 
HETATM    9  C   UNL     1      -9.804   4.099  71.838  1.00  0.00    -0.181 C  
HETATM   10  C   UNL     1     -11.084   4.062  73.953  1.00  0.00    -0.167 C  
HETATM   11  O   UNL     1      -9.761   2.894  71.638  1.00  0.00    -0.144 OA 
ENDBRANCH   2   3
TORSDOF 1
ENDMDL
MODEL      178
REMARK 921   NORMALIZED FREE ENERGY PREDICTED BY IDOCK:   -1.95 KCAL/MOL
REMARK 922        TOTAL FREE ENERGY PREDICTED BY IDOCK:   -2.08 KCAL/MOL
REMARK 923 INTER-LIGAND FREE ENERGY PREDICTED BY IDOCK:   -2.06 KCAL/MOL
REMARK 924 INTRA-LIGAND FREE ENERGY PREDICTED BY IDOCK:   -0.02 KCAL/MOL
REMARK 927      BINDING AFFINITY PREDICTED BY RF-SCORE:    0.00 PKD
ROOT
HETATM    1  C   UNL     1      -6.852  10.502  62.350  1.00  0.00    -0.146 C  
HETATM    2  C   UNL     1      -7.595   9.438  63.151  1.00  0.00    -0.108 C  
ENDROOT
BRANCH   2   3
HETATM    3  C   UNL     1      -7.857   9.813  64.613  1.00  0.00    -0.136 C  
HETATM    4  C   UNL     1      -6.590  10.327  65.293  1.00  0.00    -0.119 C  
HETATM    5  O   UNL     1      -8.858  10.837  64.711  1.00  0.00    -0.188 OA 
HETATM    6  C   UNL     1      -9.790  10.456  65.636  1.00  0.00    -0.259 C  
HETATM    7  N   UNL     1      -9.548   9.194  66.052  1.00  0.00    -0.257 N  
HETATM    8  O   UNL     1     -10.702  11.182  65.994  1.00  0.00    -0.259 OA 
HETATM    9  C   UNL     1      -8.457   8.689  65.426  1.00  0.00    -0.172 C  
HETATM   10  C   UNL     1     -10.395   8.444  66.942  1.00  0.00    -0.307 C  
HETATM   11  O   UNL     1      -8.022   7.550  65.512  1.00  0.00    -0.106 OA 
ENDBRANCH   2   3
TORSDOF 1
ENDMDL
MODEL      179
REMARK 921   NORMALIZED FREE ENERGY PREDICTED BY IDOCK:   -1.95 KCAL/MOL
REMARK 922        TOTAL FREE ENERGY PREDICTED BY IDOCK:   -2.08 KCAL/MOL
REMARK 923 INTER-LIGAND FREE ENERGY PREDICTED BY IDOCK:   -1.99 KCAL/MOL
REMARK 924 INTRA-LIGAND FREE ENERGY PREDICTED BY IDOCK:   -0.09 KCAL/MOL
REMARK 927      BINDING AFFINITY PREDICTED BY RF-SCORE:    0.00 PKD
ROOT
HETATM    1  C   UNL     1      -7.325   6.498  69.015  1.00  0.00    -0.093 C  
HETATM    2  C   UNL     1      -8.766   6.832  69.388  1.00  0.00    -0.136 C  
ENDROOT
BRANCH   2   3
HETATM    3  C   UNL     1      -9.805   5.845  68.849  1.00  0.00    -0.145 C  
HETATM    4  C   UNL     1     -11.219   6.236  69.273  1.00  0.00    -0.458 C  
HETATM    5  O   UNL     1      -9.772   5.793  67.415  1.00  0.00    -0.115 OA 
HETATM    6  C   UNL     1      -9.723   4.484  67.022  1.00  0.00    -0.202 C  
HETATM    7  N   UNL     1      -9.582   3.678  68.096  1.00  0.00    -0.145 N  
HETATM    8  O   UNL     1      -9.786   4.141  65.853  1.00  0.00    -0.192 OA 
HETATM    9  C   UNL     1      -9.531   4.410  69.236  1.00  0.00    -0.179 C  
HETATM   10  C   UNL     1      -9.391   2.252  68.036  1.00  0.00    -0.200 C  
HETATM   11  O   UNL     1      -9.324   3.995  70.367  1.00  0.00    -0.127 OA 
ENDBRANCH   2   3
TORSDOF 1
ENDMDL
MODEL      180
REMARK 921   NORMALIZED FREE ENERGY PREDICTED BY IDOCK:   -1.93 KCAL/MOL
REMARK 922        TOTAL FREE ENERGY PREDICTED BY IDOCK:   -2.06 KCAL/MOL
REMARK 923 INTER-LIGAND FREE ENERGY PREDICTED BY IDOCK:   -2.02 KCAL/MOL
REMARK 924 INTRA-LIGAND FREE ENERGY PREDICTED BY IDOCK:   -0.04 KCAL/MOL
REMARK 927      BINDING AFFINITY PREDICTED BY RF-SCORE:    0.00 PKD
ROOT
HETATM    1  C   UNL     1     -10.148   4.961  70.197  1.00  0.00    -0.332 C  
HETATM    2  C   UNL     1     -10.782   6.346  70.108  1.00  0.00    -0.328 C  
ENDROOT
BRANCH   2   3
HETATM    3  C   UNL     1      -9.786   7.485  69.872  1.00  0.00    -0.171 C  
HETATM    4  C   UNL     1      -9.040   7.849  71.154  1.00  0.00    -0.160 C  
HETATM    5  O   UNL     1      -8.813   7.122  68.881  1.00  0.00    -0.131 OA 
HETATM    6  C   UNL     1      -8.723   8.129  67.961  1.00  0.00    -0.128 C  
HETATM    7  N   UNL     1      -9.667   9.065  68.198  1.00  0.00    -0.149 N  
HETATM    8  O   UNL     1      -7.901   8.131  67.060  1.00  0.00    -0.101 OA 
HETATM    9  C   UNL     1     -10.416   8.722  69.274  1.00  0.00    -0.219 C  
HETATM   10  C   UNL     1      -9.925  10.206  67.358  1.00  0.00    -0.195 C  
HETATM   11  O   UNL     1     -11.401   9.307  69.701  1.00  0.00    -0.112 OA 
ENDBRANCH   2   3
TORSDOF 1
ENDMDL
MODEL      181
REMARK 921   NORMALIZED FREE ENERGY PREDICTED BY IDOCK:   -1.91 KCAL/MOL
REMARK 922        TOTAL FREE ENERGY PREDICTED BY IDOCK:   -2.04 KCAL/MOL
REMARK 923 INTER-LIGAND FREE ENERGY PREDICTED BY IDOCK:   -2.02 KCAL/MOL
REMARK 924 INTRA-LIGAND FREE ENERGY PREDICTED BY IDOCK:   -0.02 KCAL/MOL
REMARK 927      BINDING AFFINITY PREDICTED BY RF-SCORE:    0.00 PKD
ROOT
HETATM    1  C   UNL     1      -7.165   8.769  65.577  1.00  0.00    -0.084 C  
HETATM    2  C   UNL     1      -7.630   9.921  66.462  1.00  0.00    -0.103 C  
ENDROOT
BRANCH   2   3
HETATM    3  C   UNL     1      -9.106   9.855  66.864  1.00  0.00    -0.142 C  
HETATM    4  C   UNL     1      -9.909   8.984  65.901  1.00  0.00    -0.257 C  
HETATM    5  O   UNL     1      -9.257   9.310  68.184  1.00  0.00    -0.131 OA 
HETATM    6  C   UNL     1     -10.080  10.127  68.907  1.00  0.00    -0.200 C  
HETATM    7  N   UNL     1     -10.371  11.242  68.202  1.00  0.00    -0.180 N  
HETATM    8  O   UNL     1     -10.462   9.853  70.033  1.00  0.00    -0.247 OA 
HETATM    9  C   UNL     1      -9.758  11.213  66.994  1.00  0.00    -0.186 C  
HETATM   10  C   UNL     1     -11.125  12.361  68.704  1.00  0.00    -0.257 C  
HETATM   11  O   UNL     1      -9.745  12.101  66.154  1.00  0.00    -0.232 OA 
ENDBRANCH   2   3
TORSDOF 1
ENDMDL
MODEL      182
REMARK 921   NORMALIZED FREE ENERGY PREDICTED BY IDOCK:   -1.90 KCAL/MOL
REMARK 922        TOTAL FREE ENERGY PREDICTED BY IDOCK:   -2.03 KCAL/MOL
REMARK 923 INTER-LIGAND FREE ENERGY PREDICTED BY IDOCK:   -2.01 KCAL/MOL
REMARK 924 INTRA-LIGAND FREE ENERGY PREDICTED BY IDOCK:   -0.03 KCAL/MOL
REMARK 927      BINDING AFFINITY PREDICTED BY RF-SCORE:    0.00 PKD
ROOT
HETATM    1  C   UNL     1     -10.469   5.028  70.354  1.00  0.00    -0.237 C  
HETATM    2  C   UNL     1     -11.041   6.060  69.388  1.00  0.00    -0.445 C  
ENDROOT
BRANCH   2   3
HETATM    3  C   UNL     1     -10.069   6.512  68.294  1.00  0.00    -0.159 C  
HETATM    4  C   UNL     1     -10.783   7.317  67.211  1.00  0.00    -0.391 C  
HETATM    5  O   UNL     1      -9.024   7.331  68.839  1.00  0.00    -0.134 OA 
HETATM    6  C   UNL     1      -7.819   6.867  68.390  1.00  0.00    -0.121 C  
HETATM    7  N   UNL     1      -7.987   5.718  67.701  1.00  0.00    -0.101 N  
HETATM    8  O   UNL     1      -6.765   7.436  68.617  1.00  0.00    -0.053 OA 
HETATM    9  C   UNL     1      -9.298   5.374  67.665  1.00  0.00    -0.115 C  
HETATM   10  C   UNL     1      -6.919   4.906  67.180  1.00  0.00    -0.064 C  
HETATM   11  O   UNL     1      -9.777   4.351  67.197  1.00  0.00    -0.185 OA 
ENDBRANCH   2   3
TORSDOF 1
ENDMDL
MODEL      183
REMARK 921   NORMALIZED FREE ENERGY PREDICTED BY IDOCK:   -1.89 KCAL/MOL
REMARK 922        TOTAL FREE ENERGY PREDICTED BY IDOCK:   -2.02 KCAL/MOL
REMARK 923 INTER-LIGAND FREE ENERGY PREDICTED BY IDOCK:   -1.94 KCAL/MOL
REMARK 924 INTRA-LIGAND FREE ENERGY PREDICTED BY IDOCK:   -0.08 KCAL/MOL
REMARK 927      BINDING AFFINITY PREDICTED BY RF-SCORE:    0.00 PKD
ROOT
HETATM    1  C   UNL     1      -7.359  10.006  66.032  1.00  0.00    -0.112 C  
HETATM    2  C   UNL     1      -7.985   9.234  67.189  1.00  0.00    -0.106 C  
ENDROOT
BRANCH   2   3
HETATM    3  C   UNL     1      -8.939  10.058  68.058  1.00  0.00    -0.128 C  
HETATM    4  C   UNL     1      -9.109   9.438  69.443  1.00  0.00    -0.162 C  
HETATM    5  O   UNL     1      -8.454  11.398  68.230  1.00  0.00    -0.141 OA 
HETATM    6  C   UNL     1      -9.468  12.273  67.958  1.00  0.00    -0.206 C  
HETATM    7  N   UNL     1     -10.545  11.609  67.486  1.00  0.00    -0.202 N  
HETATM    8  O   UNL     1      -9.364  13.478  68.120  1.00  0.00    -0.203 OA 
HETATM    9  C   UNL     1     -10.294  10.279  67.424  1.00  0.00    -0.233 C  
HETATM   10  C   UNL     1     -11.750  12.232  67.002  1.00  0.00    -0.329 C  
HETATM   11  O   UNL     1     -11.024   9.413  66.965  1.00  0.00    -0.118 OA 
ENDBRANCH   2   3
TORSDOF 1
ENDMDL
MODEL      184
REMARK 921   NORMALIZED FREE ENERGY PREDICTED BY IDOCK:   -1.88 KCAL/MOL
REMARK 922        TOTAL FREE ENERGY PREDICTED BY IDOCK:   -2.02 KCAL/MOL
REMARK 923 INTER-LIGAND FREE ENERGY PREDICTED BY IDOCK:   -1.98 KCAL/MOL
REMARK 924 INTRA-LIGAND FREE ENERGY PREDICTED BY IDOCK:   -0.03 KCAL/MOL
REMARK 927      BINDING AFFINITY PREDICTED BY RF-SCORE:    0.00 PKD
ROOT
HETATM    1  C   UNL     1      -5.928  11.512  70.272  1.00  0.00    -0.160 C  
HETATM    2  C   UNL     1      -6.175  12.768  69.444  1.00  0.00    -0.112 C  
ENDROOT
BRANCH   2   3
HETATM    3  C   UNL     1      -6.926  12.524  68.131  1.00  0.00    -0.089 C  
HETATM    4  C   UNL     1      -6.072  11.740  67.137  1.00  0.00    -0.144 C  
HETATM    5  O   UNL     1      -8.134  11.783  68.358  1.00  0.00    -0.140 OA 
HETATM    6  C   UNL     1      -9.166  12.416  67.724  1.00  0.00    -0.193 C  
HETATM    7  N   UNL     1      -8.749  13.595  67.212  1.00  0.00    -0.209 N  
HETATM    8  O   UNL     1     -10.292  11.952  67.666  1.00  0.00    -0.196 OA 
HETATM    9  C   UNL     1      -7.436  13.791  67.483  1.00  0.00    -0.169 C  
HETATM   10  C   UNL     1      -9.601  14.564  66.574  1.00  0.00    -0.293 C  
HETATM   11  O   UNL     1      -6.775  14.790  67.237  1.00  0.00    -0.279 OA 
ENDBRANCH   2   3
TORSDOF 1
ENDMDL
MODEL      185
REMARK 921   NORMALIZED FREE ENERGY PREDICTED BY IDOCK:   -1.85 KCAL/MOL
REMARK 922        TOTAL FREE ENERGY PREDICTED BY IDOCK:   -1.98 KCAL/MOL
REMARK 923 INTER-LIGAND FREE ENERGY PREDICTED BY IDOCK:   -1.91 KCAL/MOL
REMARK 924 INTRA-LIGAND FREE ENERGY PREDICTED BY IDOCK:   -0.07 KCAL/MOL
REMARK 927      BINDING AFFINITY PREDICTED BY RF-SCORE:    0.00 PKD
ROOT
HETATM    1  C   UNL     1      -6.643   8.453  70.861  1.00  0.00    -0.041 C  
HETATM    2  C   UNL     1      -7.936   8.671  71.641  1.00  0.00    -0.166 C  
ENDROOT
BRANCH   2   3
HETATM    3  C   UNL     1      -9.213   8.433  70.830  1.00  0.00    -0.160 C  
HETATM    4  C   UNL     1     -10.349   9.340  71.300  1.00  0.00    -0.397 C  
HETATM    5  O   UNL     1      -8.993   8.686  69.435  1.00  0.00    -0.142 OA 
HETATM    6  C   UNL     1      -9.475   7.630  68.714  1.00  0.00    -0.152 C  
HETATM    7  N   UNL     1      -9.872   6.639  69.541  1.00  0.00    -0.152 N  
HETATM    8  O   UNL     1      -9.510   7.622  67.494  1.00  0.00    -0.136 OA 
HETATM    9  C   UNL     1      -9.670   6.992  70.834  1.00  0.00    -0.174 C  
HETATM   10  C   UNL     1     -10.331   5.344  69.115  1.00  0.00    -0.230 C  
HETATM   11  O   UNL     1      -9.841   6.293  71.823  1.00  0.00    -0.165 OA 
ENDBRANCH   2   3
TORSDOF 1
ENDMDL
MODEL      186
REMARK 921   NORMALIZED FREE ENERGY PREDICTED BY IDOCK:   -1.85 KCAL/MOL
REMARK 922        TOTAL FREE ENERGY PREDICTED BY IDOCK:   -1.98 KCAL/MOL
REMARK 923 INTER-LIGAND FREE ENERGY PREDICTED BY IDOCK:   -1.96 KCAL/MOL
REMARK 924 INTRA-LIGAND FREE ENERGY PREDICTED BY IDOCK:   -0.02 KCAL/MOL
REMARK 927      BINDING AFFINITY PREDICTED BY RF-SCORE:    0.00 PKD
ROOT
HETATM    1  C   UNL     1      -9.287   3.657  66.286  1.00  0.00    -0.187 C  
HETATM    2  C   UNL     1     -10.132   4.779  66.882  1.00  0.00    -0.246 C  
ENDROOT
BRANCH   2   3
HETATM    3  C   UNL     1      -9.464   5.529  68.038  1.00  0.00    -0.114 C  
HETATM    4  C   UNL     1      -8.864   4.564  69.058  1.00  0.00    -0.123 C  
HETATM    5  O   UNL     1      -8.410   6.380  67.561  1.00  0.00    -0.116 OA 
HETATM    6  C   UNL     1      -8.570   7.625  68.101  1.00  0.00    -0.123 C  
HETATM    7  N   UNL     1      -9.730   7.692  68.789  1.00  0.00    -0.151 N  
HETATM    8  O   UNL     1      -7.759   8.523  67.945  1.00  0.00    -0.100 OA 
HETATM    9  C   UNL     1     -10.384   6.506  68.734  1.00  0.00    -0.193 C  
HETATM   10  C   UNL     1     -10.261   8.886  69.394  1.00  0.00    -0.209 C  
HETATM   11  O   UNL     1     -11.496   6.258  69.177  1.00  0.00    -0.394 OA 
ENDBRANCH   2   3
TORSDOF 1
ENDMDL
MODEL      187
REMARK 921   NORMALIZED FREE ENERGY PREDICTED BY IDOCK:   -1.85 KCAL/MOL
REMARK 922        TOTAL FREE ENERGY PREDICTED BY IDOCK:   -1.97 KCAL/MOL
REMARK 923 INTER-LIGAND FREE ENERGY PREDICTED BY IDOCK:   -1.93 KCAL/MOL
REMARK 924 INTRA-LIGAND FREE ENERGY PREDICTED BY IDOCK:   -0.04 KCAL/MOL
REMARK 927      BINDING AFFINITY PREDICTED BY RF-SCORE:    0.00 PKD
ROOT
HETATM    1  C   UNL     1     -10.343   8.890  67.040  1.00  0.00    -0.340 C  
HETATM    2  C   UNL     1     -10.569   7.406  67.310  1.00  0.00    -0.393 C  
ENDROOT
BRANCH   2   3
HETATM    3  C   UNL     1      -9.565   6.779  68.282  1.00  0.00    -0.127 C  
HETATM    4  C   UNL     1      -8.657   7.836  68.906  1.00  0.00    -0.132 C  
HETATM    5  O   UNL     1     -10.238   6.089  69.345  1.00  0.00    -0.179 OA 
HETATM    6  C   UNL     1      -9.697   4.841  69.474  1.00  0.00    -0.201 C  
HETATM    7  N   UNL     1      -8.810   4.610  68.482  1.00  0.00    -0.098 N  
HETATM    8  O   UNL     1     -10.011   4.072  70.368  1.00  0.00    -0.182 OA 
HETATM    9  C   UNL     1      -8.728   5.684  67.660  1.00  0.00    -0.107 C  
HETATM   10  C   UNL     1      -8.136   3.358  68.254  1.00  0.00    -0.073 C  
HETATM   11  O   UNL     1      -8.086   5.769  66.623  1.00  0.00    -0.101 OA 
ENDBRANCH   2   3
TORSDOF 1
ENDMDL
MODEL      188
REMARK 921   NORMALIZED FREE ENERGY PREDICTED BY IDOCK:   -1.84 KCAL/MOL
REMARK 922        TOTAL FREE ENERGY PREDICTED BY IDOCK:   -1.97 KCAL/MOL
REMARK 923 INTER-LIGAND FREE ENERGY PREDICTED BY IDOCK:   -1.90 KCAL/MOL
REMARK 924 INTRA-LIGAND FREE ENERGY PREDICTED BY IDOCK:   -0.06 KCAL/MOL
REMARK 927      BINDING AFFINITY PREDICTED BY RF-SCORE:    0.00 PKD
ROOT
HETATM    1  C   UNL     1     -10.632   4.977  72.012  1.00  0.00    -0.243 C  
HETATM    2  C   UNL     1     -10.862   6.060  70.963  1.00  0.00    -0.345 C  
ENDROOT
BRANCH   2   3
HETATM    3  C   UNL     1      -9.720   6.219  69.956  1.00  0.00    -0.168 C  
HETATM    4  C   UNL     1      -9.188   7.650  69.934  1.00  0.00    -0.147 C  
HETATM    5  O   UNL     1      -8.626   5.345  70.274  1.00  0.00    -0.119 OA 
HETATM    6  C   UNL     1      -8.258   4.670  69.144  1.00  0.00    -0.080 C  
HETATM    7  N   UNL     1      -9.120   4.934  68.138  1.00  0.00    -0.110 N  
HETATM    8  O   UNL     1      -7.287   3.931  69.101  1.00  0.00    -0.053 OA 
HETATM    9  C   UNL     1     -10.087   5.786  68.555  1.00  0.00    -0.178 C  
HETATM   10  C   UNL     1      -9.090   4.308  66.842  1.00  0.00    -0.135 C  
HETATM   11  O   UNL     1     -11.064   6.157  67.919  1.00  0.00    -0.328 OA 
ENDBRANCH   2   3
TORSDOF 1
ENDMDL
MODEL      189
REMARK 921   NORMALIZED FREE ENERGY PREDICTED BY IDOCK:   -1.80 KCAL/MOL
REMARK 922        TOTAL FREE ENERGY PREDICTED BY IDOCK:   -1.93 KCAL/MOL
REMARK 923 INTER-LIGAND FREE ENERGY PREDICTED BY IDOCK:   -1.89 KCAL/MOL
REMARK 924 INTRA-LIGAND FREE ENERGY PREDICTED BY IDOCK:   -0.03 KCAL/MOL
REMARK 927      BINDING AFFINITY PREDICTED BY RF-SCORE:    0.00 PKD
ROOT
HETATM    1  C   UNL     1     -10.000   2.660  74.281  1.00  0.00    -0.160 C  
HETATM    2  C   UNL     1      -9.986   3.194  72.852  1.00  0.00    -0.206 C  
ENDROOT
BRANCH   2   3
HETATM    3  C   UNL     1     -10.300   4.688  72.731  1.00  0.00    -0.189 C  
HETATM    4  C   UNL     1     -11.772   4.974  73.022  1.00  0.00    -0.229 C  
HETATM    5  O   UNL     1      -9.509   5.458  73.648  1.00  0.00    -0.136 OA 
HETATM    6  C   UNL     1      -8.934   6.496  72.970  1.00  0.00    -0.128 C  
HETATM    7  N   UNL     1      -9.178   6.385  71.647  1.00  0.00    -0.145 N  
HETATM    8  O   UNL     1      -8.287   7.370  73.524  1.00  0.00    -0.122 OA 
HETATM    9  C   UNL     1      -9.917   5.278  71.392  1.00  0.00    -0.185 C  
HETATM   10  C   UNL     1      -8.631   7.248  70.633  1.00  0.00    -0.142 C  
HETATM   11  O   UNL     1     -10.236   4.843  70.295  1.00  0.00    -0.252 OA 
ENDBRANCH   2   3
TORSDOF 1
ENDMDL
MODEL      190
REMARK 921   NORMALIZED FREE ENERGY PREDICTED BY IDOCK:   -1.80 KCAL/MOL
REMARK 922        TOTAL FREE ENERGY PREDICTED BY IDOCK:   -1.92 KCAL/MOL
REMARK 923 INTER-LIGAND FREE ENERGY PREDICTED BY IDOCK:   -1.84 KCAL/MOL
REMARK 924 INTRA-LIGAND FREE ENERGY PREDICTED BY IDOCK:   -0.08 KCAL/MOL
REMARK 927      BINDING AFFINITY PREDICTED BY RF-SCORE:    0.00 PKD
ROOT
HETATM    1  C   UNL     1      -9.011   6.634  68.824  1.00  0.00    -0.125 C  
HETATM    2  C   UNL     1      -8.318   5.493  69.561  1.00  0.00    -0.102 C  
ENDROOT
BRANCH   2   3
HETATM    3  C   UNL     1      -8.098   5.744  71.056  1.00  0.00    -0.120 C  
HETATM    4  C   UNL     1      -6.977   4.869  71.610  1.00  0.00    -0.052 C  
HETATM    5  O   UNL     1      -7.752   7.115  71.303  1.00  0.00    -0.090 OA 
HETATM    6  C   UNL     1      -8.541   7.595  72.310  1.00  0.00    -0.123 C  
HETATM    7  N   UNL     1      -9.476   6.681  72.649  1.00  0.00    -0.143 N  
HETATM    8  O   UNL     1      -8.395   8.706  72.794  1.00  0.00    -0.388 OA 
HETATM    9  C   UNL     1      -9.348   5.567  71.888  1.00  0.00    -0.144 C  
HETATM   10  C   UNL     1     -10.535   6.899  73.599  1.00  0.00    -0.369 C  
HETATM   11  O   UNL     1     -10.085   4.592  71.882  1.00  0.00    -0.183 OA 
ENDBRANCH   2   3
TORSDOF 1
ENDMDL
MODEL      191
REMARK 921   NORMALIZED FREE ENERGY PREDICTED BY IDOCK:   -1.78 KCAL/MOL
REMARK 922        TOTAL FREE ENERGY PREDICTED BY IDOCK:   -1.91 KCAL/MOL
REMARK 923 INTER-LIGAND FREE ENERGY PREDICTED BY IDOCK:   -1.87 KCAL/MOL
REMARK 924 INTRA-LIGAND FREE ENERGY PREDICTED BY IDOCK:   -0.03 KCAL/MOL
REMARK 927      BINDING AFFINITY PREDICTED BY RF-SCORE:    0.00 PKD
ROOT
HETATM    1  C   UNL     1      -7.124   6.634  69.100  1.00  0.00    -0.088 C  
HETATM    2  C   UNL     1      -7.935   7.474  70.081  1.00  0.00    -0.111 C  
ENDROOT
BRANCH   2   3
HETATM    3  C   UNL     1      -9.160   6.762  70.662  1.00  0.00    -0.155 C  
HETATM    4  C   UNL     1     -10.268   6.617  69.621  1.00  0.00    -0.213 C  
HETATM    5  O   UNL     1      -8.819   5.450  71.132  1.00  0.00    -0.133 OA 
HETATM    6  C   UNL     1      -9.313   5.292  72.397  1.00  0.00    -0.140 C  
HETATM    7  N   UNL     1      -9.834   6.454  72.845  1.00  0.00    -0.165 N  
HETATM    8  O   UNL     1      -9.256   4.234  73.003  1.00  0.00    -0.110 OA 
HETATM    9  C   UNL     1      -9.708   7.424  71.906  1.00  0.00    -0.155 C  
HETATM   10  C   UNL     1     -10.343   6.671  74.174  1.00  0.00    -0.321 C  
HETATM   11  O   UNL     1      -9.999   8.605  72.025  1.00  0.00    -0.283 OA 
ENDBRANCH   2   3
TORSDOF 1
ENDMDL
MODEL      192
REMARK 921   NORMALIZED FREE ENERGY PREDICTED BY IDOCK:   -1.74 KCAL/MOL
REMARK 922        TOTAL FREE ENERGY PREDICTED BY IDOCK:   -1.87 KCAL/MOL
REMARK 923 INTER-LIGAND FREE ENERGY PREDICTED BY IDOCK:   -1.84 KCAL/MOL
REMARK 924 INTRA-LIGAND FREE ENERGY PREDICTED BY IDOCK:   -0.02 KCAL/MOL
REMARK 927      BINDING AFFINITY PREDICTED BY RF-SCORE:    0.00 PKD
ROOT
HETATM    1  C   UNL     1      -9.219   7.375  69.999  1.00  0.00    -0.148 C  
HETATM    2  C   UNL     1      -9.358   6.787  71.399  1.00  0.00    -0.157 C  
ENDROOT
BRANCH   2   3
HETATM    3  C   UNL     1      -9.632   5.280  71.430  1.00  0.00    -0.158 C  
HETATM    4  C   UNL     1     -10.148   4.780  70.082  1.00  0.00    -0.310 C  
HETATM    5  O   UNL     1      -8.441   4.546  71.749  1.00  0.00    -0.107 OA 
HETATM    6  C   UNL     1      -8.727   3.653  72.744  1.00  0.00    -0.094 C  
HETATM    7  N   UNL     1      -9.985   3.844  73.198  1.00  0.00    -0.126 N  
HETATM    8  O   UNL     1      -7.923   2.828  73.144  1.00  0.00    -0.057 OA 
HETATM    9  C   UNL     1     -10.580   4.862  72.530  1.00  0.00    -0.210 C  
HETATM   10  C   UNL     1     -10.572   3.150  74.314  1.00  0.00    -0.180 C  
HETATM   11  O   UNL     1     -11.682   5.343  72.754  1.00  0.00    -0.295 OA 
ENDBRANCH   2   3
TORSDOF 1
ENDMDL
MODEL      193
REMARK 921   NORMALIZED FREE ENERGY PREDICTED BY IDOCK:   -1.74 KCAL/MOL
REMARK 922        TOTAL FREE ENERGY PREDICTED BY IDOCK:   -1.86 KCAL/MOL
REMARK 923 INTER-LIGAND FREE ENERGY PREDICTED BY IDOCK:   -2.17 KCAL/MOL
REMARK 924 INTRA-LIGAND FREE ENERGY PREDICTED BY IDOCK:    0.31 KCAL/MOL
REMARK 927      BINDING AFFINITY PREDICTED BY RF-SCORE:    0.00 PKD
ROOT
HETATM    1  C   UNL     1      -5.763   8.949  71.092  1.00  0.00    -0.043 C  
HETATM    2  C   UNL     1      -6.913   8.635  72.044  1.00  0.00    -0.081 C  
ENDROOT
BRANCH   2   3
HETATM    3  C   UNL     1      -8.222   8.250  71.350  1.00  0.00    -0.131 C  
HETATM    4  C   UNL     1      -8.093   6.919  70.613  1.00  0.00    -0.118 C  
HETATM    5  O   UNL     1      -9.293   8.130  72.298  1.00  0.00    -0.177 OA 
HETATM    6  C   UNL     1     -10.369   8.839  71.842  1.00  0.00    -0.344 C  
HETATM    7  N   UNL     1     -10.037   9.530  70.730  1.00  0.00    -0.291 N  
HETATM    8  O   UNL     1     -11.453   8.830  72.401  1.00  0.00    -0.350 OA 
HETATM    9  C   UNL     1      -8.739   9.312  70.406  1.00  0.00    -0.229 C  
HETATM   10  C   UNL     1     -10.899  10.462  70.052  1.00  0.00    -0.289 C  
HETATM   11  O   UNL     1      -8.105   9.850  69.509  1.00  0.00    -0.121 OA 
ENDBRANCH   2   3
TORSDOF 1
ENDMDL
MODEL      194
REMARK 921   NORMALIZED FREE ENERGY PREDICTED BY IDOCK:   -1.72 KCAL/MOL
REMARK 922        TOTAL FREE ENERGY PREDICTED BY IDOCK:   -1.84 KCAL/MOL
REMARK 923 INTER-LIGAND FREE ENERGY PREDICTED BY IDOCK:   -1.74 KCAL/MOL
REMARK 924 INTRA-LIGAND FREE ENERGY PREDICTED BY IDOCK:   -0.10 KCAL/MOL
REMARK 927      BINDING AFFINITY PREDICTED BY RF-SCORE:    0.00 PKD
ROOT
HETATM    1  C   UNL     1     -10.782  11.930  68.650  1.00  0.00    -0.266 C  
HETATM    2  C   UNL     1     -10.543  10.825  67.626  1.00  0.00    -0.271 C  
ENDROOT
BRANCH   2   3
HETATM    3  C   UNL     1      -9.075  10.624  67.241  1.00  0.00    -0.143 C  
HETATM    4  C   UNL     1      -8.922   9.555  66.162  1.00  0.00    -0.191 C  
HETATM    5  O   UNL     1      -8.500  11.841  66.743  1.00  0.00    -0.176 OA 
HETATM    6  C   UNL     1      -7.313  12.064  67.383  1.00  0.00    -0.150 C  
HETATM    7  N   UNL     1      -7.133  11.154  68.365  1.00  0.00    -0.071 N  
HETATM    8  O   UNL     1      -6.561  12.977  67.085  1.00  0.00    -0.184 OA 
HETATM    9  C   UNL     1      -8.183  10.298  68.418  1.00  0.00    -0.114 C  
HETATM   10  C   UNL     1      -6.041  11.160  69.304  1.00  0.00    -0.056 C  
HETATM   11  O   UNL     1      -8.371   9.416  69.242  1.00  0.00    -0.118 OA 
ENDBRANCH   2   3
TORSDOF 1
ENDMDL
MODEL      195
REMARK 921   NORMALIZED FREE ENERGY PREDICTED BY IDOCK:   -1.72 KCAL/MOL
REMARK 922        TOTAL FREE ENERGY PREDICTED BY IDOCK:   -1.84 KCAL/MOL
REMARK 923 INTER-LIGAND FREE ENERGY PREDICTED BY IDOCK:   -1.82 KCAL/MOL
REMARK 924 INTRA-LIGAND FREE ENERGY PREDICTED BY IDOCK:   -0.02 KCAL/MOL
REMARK 927      BINDING AFFINITY PREDICTED BY RF-SCORE:    0.00 PKD
ROOT
HETATM    1  C   UNL     1      -7.100   4.433  66.110  1.00  0.00    -0.071 C  
HETATM    2  C   UNL     1      -8.252   5.362  66.478  1.00  0.00    -0.109 C  
ENDROOT
BRANCH   2   3
HETATM    3  C   UNL     1      -9.047   4.927  67.712  1.00  0.00    -0.116 C  
HETATM    4  C   UNL     1      -9.407   3.444  67.650  1.00  0.00    -0.246 C  
HETATM    5  O   UNL     1      -8.297   5.150  68.915  1.00  0.00    -0.088 OA 
HETATM    6  C   UNL     1      -9.089   5.808  69.814  1.00  0.00    -0.136 C  
HETATM    7  N   UNL     1     -10.260   6.156  69.239  1.00  0.00    -0.185 N  
HETATM    8  O   UNL     1      -8.739   6.039  70.960  1.00  0.00    -0.130 OA 
HETATM    9  C   UNL     1     -10.294   5.748  67.947  1.00  0.00    -0.214 C  
HETATM   10  C   UNL     1     -11.282   6.952  69.867  1.00  0.00    -0.285 C  
HETATM   11  O   UNL     1     -11.171   5.978  67.126  1.00  0.00    -0.236 OA 
ENDBRANCH   2   3
TORSDOF 1
ENDMDL
MODEL      196
REMARK 921   NORMALIZED FREE ENERGY PREDICTED BY IDOCK:   -1.71 KCAL/MOL
REMARK 922        TOTAL FREE ENERGY PREDICTED BY IDOCK:   -1.83 KCAL/MOL
REMARK 923 INTER-LIGAND FREE ENERGY PREDICTED BY IDOCK:   -1.80 KCAL/MOL
REMARK 924 INTRA-LIGAND FREE ENERGY PREDICTED BY IDOCK:   -0.03 KCAL/MOL
REMARK 927      BINDING AFFINITY PREDICTED BY RF-SCORE:    0.00 PKD
ROOT
HETATM    1  C   UNL     1      -8.435   4.735  67.855  1.00  0.00    -0.103 C  
HETATM    2  C   UNL     1      -7.875   6.106  68.216  1.00  0.00    -0.104 C  
ENDROOT
BRANCH   2   3
HETATM    3  C   UNL     1      -8.379   6.666  69.549  1.00  0.00    -0.131 C  
HETATM    4  C   UNL     1      -8.634   5.552  70.562  1.00  0.00    -0.125 C  
HETATM    5  O   UNL     1      -7.426   7.574  70.121  1.00  0.00    -0.082 OA 
HETATM    6  C   UNL     1      -8.073   8.722  70.484  1.00  0.00    -0.124 C  
HETATM    7  N   UNL     1      -9.357   8.689  70.065  1.00  0.00    -0.158 N  
HETATM    8  O   UNL     1      -7.524   9.630  71.087  1.00  0.00    -0.328 OA 
HETATM    9  C   UNL     1      -9.613   7.529  69.413  1.00  0.00    -0.155 C  
HETATM   10  C   UNL     1     -10.291   9.777  70.186  1.00  0.00    -0.282 C  
HETATM   11  O   UNL     1     -10.648   7.221  68.839  1.00  0.00    -0.208 OA 
ENDBRANCH   2   3
TORSDOF 1
ENDMDL
MODEL      197
REMARK 921   NORMALIZED FREE ENERGY PREDICTED BY IDOCK:   -1.71 KCAL/MOL
REMARK 922        TOTAL FREE ENERGY PREDICTED BY IDOCK:   -1.83 KCAL/MOL
REMARK 923 INTER-LIGAND FREE ENERGY PREDICTED BY IDOCK:   -1.88 KCAL/MOL
REMARK 924 INTRA-LIGAND FREE ENERGY PREDICTED BY IDOCK:    0.05 KCAL/MOL
REMARK 927      BINDING AFFINITY PREDICTED BY RF-SCORE:    0.00 PKD
ROOT
HETATM    1  C   UNL     1      -8.792   4.762  71.419  1.00  0.00    -0.152 C  
HETATM    2  C   UNL     1      -9.733   4.483  70.252  1.00  0.00    -0.287 C  
ENDROOT
BRANCH   2   3
HETATM    3  C   UNL     1      -9.243   5.011  68.901  1.00  0.00    -0.115 C  
HETATM    4  C   UNL     1      -7.767   4.686  68.677  1.00  0.00    -0.072 C  
HETATM    5  O   UNL     1      -9.992   4.437  67.820  1.00  0.00    -0.130 OA 
HETATM    6  C   UNL     1     -10.404   5.440  66.987  1.00  0.00    -0.248 C  
HETATM    7  N   UNL     1     -10.098   6.644  67.517  1.00  0.00    -0.146 N  
HETATM    8  O   UNL     1     -10.977   5.230  65.931  1.00  0.00    -0.113 OA 
HETATM    9  C   UNL     1      -9.477   6.493  68.712  1.00  0.00    -0.128 C  
HETATM   10  C   UNL     1     -10.482   7.913  66.956  1.00  0.00    -0.349 C  
HETATM   11  O   UNL     1      -9.147   7.379  69.487  1.00  0.00    -0.144 OA 
ENDBRANCH   2   3
TORSDOF 1
ENDMDL
MODEL      198
REMARK 921   NORMALIZED FREE ENERGY PREDICTED BY IDOCK:   -1.71 KCAL/MOL
REMARK 922        TOTAL FREE ENERGY PREDICTED BY IDOCK:   -1.83 KCAL/MOL
REMARK 923 INTER-LIGAND FREE ENERGY PREDICTED BY IDOCK:   -1.81 KCAL/MOL
REMARK 924 INTRA-LIGAND FREE ENERGY PREDICTED BY IDOCK:   -0.02 KCAL/MOL
REMARK 927      BINDING AFFINITY PREDICTED BY RF-SCORE:    0.00 PKD
ROOT
HETATM    1  C   UNL     1     -11.075   6.580  66.996  1.00  0.00    -0.411 C  
HETATM    2  C   UNL     1      -9.635   7.082  67.029  1.00  0.00    -0.199 C  
ENDROOT
BRANCH   2   3
HETATM    3  C   UNL     1      -9.436   8.385  67.808  1.00  0.00    -0.149 C  
HETATM    4  C   UNL     1     -10.357   8.455  69.024  1.00  0.00    -0.231 C  
HETATM    5  O   UNL     1      -8.083   8.510  68.269  1.00  0.00    -0.116 OA 
HETATM    6  C   UNL     1      -7.616   9.751  67.937  1.00  0.00    -0.086 C  
HETATM    7  N   UNL     1      -8.517  10.401  67.169  1.00  0.00    -0.126 N  
HETATM    8  O   UNL     1      -6.525  10.165  68.294  1.00  0.00    -0.053 OA 
HETATM    9  C   UNL     1      -9.609   9.626  66.961  1.00  0.00    -0.173 C  
HETATM   10  C   UNL     1      -8.303  11.686  66.556  1.00  0.00    -0.122 C  
HETATM   11  O   UNL     1     -10.566   9.881  66.243  1.00  0.00    -0.140 OA 
ENDBRANCH   2   3
TORSDOF 1
ENDMDL
MODEL      199
REMARK 921   NORMALIZED FREE ENERGY PREDICTED BY IDOCK:   -1.70 KCAL/MOL
REMARK 922        TOTAL FREE ENERGY PREDICTED BY IDOCK:   -1.82 KCAL/MOL
REMARK 923 INTER-LIGAND FREE ENERGY PREDICTED BY IDOCK:   -1.80 KCAL/MOL
REMARK 924 INTRA-LIGAND FREE ENERGY PREDICTED BY IDOCK:   -0.03 KCAL/MOL
REMARK 927      BINDING AFFINITY PREDICTED BY RF-SCORE:    0.00 PKD
ROOT
HETATM    1  C   UNL     1     -10.260   3.340  63.929  1.00  0.00    -0.207 C  
HETATM    2  C   UNL     1     -10.715   4.437  64.886  1.00  0.00    -0.105 C  
ENDROOT
BRANCH   2   3
HETATM    3  C   UNL     1      -9.663   4.855  65.917  1.00  0.00    -0.184 C  
HETATM    4  C   UNL     1      -9.224   3.672  66.778  1.00  0.00    -0.198 C  
HETATM    5  O   UNL     1      -8.497   5.392  65.276  1.00  0.00    -0.139 OA 
HETATM    6  C   UNL     1      -8.172   6.579  65.873  1.00  0.00    -0.131 C  
HETATM    7  N   UNL     1      -9.121   6.928  66.768  1.00  0.00    -0.140 N  
HETATM    8  O   UNL     1      -7.164   7.206  65.594  1.00  0.00    -0.066 OA 
HETATM    9  C   UNL     1     -10.107   5.997  66.802  1.00  0.00    -0.187 C  
HETATM   10  C   UNL     1      -9.150   8.169  67.497  1.00  0.00    -0.137 C  
HETATM   11  O   UNL     1     -11.149   6.053  67.439  1.00  0.00    -0.302 OA 
ENDBRANCH   2   3
TORSDOF 1
ENDMDL
MODEL      200
REMARK 921   NORMALIZED FREE ENERGY PREDICTED BY IDOCK:   -1.70 KCAL/MOL
REMARK 922        TOTAL FREE ENERGY PREDICTED BY IDOCK:   -1.82 KCAL/MOL
REMARK 923 INTER-LIGAND FREE ENERGY PREDICTED BY IDOCK:   -1.75 KCAL/MOL
REMARK 924 INTRA-LIGAND FREE ENERGY PREDICTED BY IDOCK:   -0.07 KCAL/MOL
REMARK 927      BINDING AFFINITY PREDICTED BY RF-SCORE:    0.00 PKD
ROOT
HETATM    1  C   UNL     1      -7.358   7.562  65.692  1.00  0.00    -0.067 C  
HETATM    2  C   UNL     1      -8.879   7.550  65.796  1.00  0.00    -0.122 C  
ENDROOT
BRANCH   2   3
HETATM    3  C   UNL     1      -9.445   8.433  66.912  1.00  0.00    -0.185 C  
HETATM    4  C   UNL     1     -10.708   7.825  67.519  1.00  0.00    -0.265 C  
HETATM    5  O   UNL     1      -8.487   8.608  67.967  1.00  0.00    -0.125 OA 
HETATM    6  C   UNL     1      -8.395   9.939  68.263  1.00  0.00    -0.110 C  
HETATM    7  N   UNL     1      -9.120  10.666  67.385  1.00  0.00    -0.139 N  
HETATM    8  O   UNL     1      -7.727  10.367  69.190  1.00  0.00    -0.103 OA 
HETATM    9  C   UNL     1      -9.717   9.855  66.478  1.00  0.00    -0.204 C  
HETATM   10  C   UNL     1      -9.159  12.104  67.339  1.00  0.00    -0.181 C  
HETATM   11  O   UNL     1     -10.371  10.198  65.503  1.00  0.00    -0.248 OA 
ENDBRANCH   2   3
TORSDOF 1
ENDMDL
MODEL      201
REMARK 921   NORMALIZED FREE ENERGY PREDICTED BY IDOCK:   -1.69 KCAL/MOL
REMARK 922        TOTAL FREE ENERGY PREDICTED BY IDOCK:   -1.81 KCAL/MOL
REMARK 923 INTER-LIGAND FREE ENERGY PREDICTED BY IDOCK:   -1.72 KCAL/MOL
REMARK 924 INTRA-LIGAND FREE ENERGY PREDICTED BY IDOCK:   -0.09 KCAL/MOL
REMARK 927      BINDING AFFINITY PREDICTED BY RF-SCORE:    0.00 PKD
ROOT
HETATM    1  C   UNL     1      -6.840   8.001  70.022  1.00  0.00    -0.041 C  
HETATM    2  C   UNL     1      -7.377   8.426  68.659  1.00  0.00    -0.088 C  
ENDROOT
BRANCH   2   3
HETATM    3  C   UNL     1      -8.630   7.670  68.208  1.00  0.00    -0.124 C  
HETATM    4  C   UNL     1      -9.102   8.142  66.834  1.00  0.00    -0.185 C  
HETATM    5  O   UNL     1      -8.381   6.258  68.129  1.00  0.00    -0.114 OA 
HETATM    6  C   UNL     1      -9.379   5.597  68.789  1.00  0.00    -0.123 C  
HETATM    7  N   UNL     1     -10.191   6.477  69.413  1.00  0.00    -0.175 N  
HETATM    8  O   UNL     1      -9.474   4.381  68.797  1.00  0.00    -0.141 OA 
HETATM    9  C   UNL     1      -9.770   7.747  69.197  1.00  0.00    -0.161 C  
HETATM   10  C   UNL     1     -11.279   6.118  70.284  1.00  0.00    -0.369 C  
HETATM   11  O   UNL     1     -10.231   8.767  69.688  1.00  0.00    -0.198 OA 
ENDBRANCH   2   3
TORSDOF 1
ENDMDL
MODEL      202
REMARK 921   NORMALIZED FREE ENERGY PREDICTED BY IDOCK:   -1.69 KCAL/MOL
REMARK 922        TOTAL FREE ENERGY PREDICTED BY IDOCK:   -1.81 KCAL/MOL
REMARK 923 INTER-LIGAND FREE ENERGY PREDICTED BY IDOCK:   -1.78 KCAL/MOL
REMARK 924 INTRA-LIGAND FREE ENERGY PREDICTED BY IDOCK:   -0.03 KCAL/MOL
REMARK 927      BINDING AFFINITY PREDICTED BY RF-SCORE:    0.00 PKD
ROOT
HETATM    1  C   UNL     1      -6.598  11.426  69.512  1.00  0.00    -0.129 C  
HETATM    2  C   UNL     1      -7.982  11.292  68.885  1.00  0.00    -0.104 C  
ENDROOT
BRANCH   2   3
HETATM    3  C   UNL     1      -8.062  11.746  67.425  1.00  0.00    -0.161 C  
HETATM    4  C   UNL     1      -7.808  13.245  67.291  1.00  0.00    -0.118 C  
HETATM    5  O   UNL     1      -7.095  11.059  66.617  1.00  0.00    -0.125 OA 
HETATM    6  C   UNL     1      -7.718  10.567  65.504  1.00  0.00    -0.127 C  
HETATM    7  N   UNL     1      -9.052  10.762  65.590  1.00  0.00    -0.187 N  
HETATM    8  O   UNL     1      -7.116  10.023  64.594  1.00  0.00    -0.133 OA 
HETATM    9  C   UNL     1      -9.367  11.384  66.752  1.00  0.00    -0.180 C  
HETATM   10  C   UNL     1     -10.018  10.273  64.642  1.00  0.00    -0.307 C  
HETATM   11  O   UNL     1     -10.488  11.629  67.175  1.00  0.00    -0.208 OA 
ENDBRANCH   2   3
TORSDOF 1
ENDMDL
MODEL      203
REMARK 921   NORMALIZED FREE ENERGY PREDICTED BY IDOCK:   -1.68 KCAL/MOL
REMARK 922        TOTAL FREE ENERGY PREDICTED BY IDOCK:   -1.80 KCAL/MOL
REMARK 923 INTER-LIGAND FREE ENERGY PREDICTED BY IDOCK:   -1.74 KCAL/MOL
REMARK 924 INTRA-LIGAND FREE ENERGY PREDICTED BY IDOCK:   -0.06 KCAL/MOL
REMARK 927      BINDING AFFINITY PREDICTED BY RF-SCORE:    0.00 PKD
ROOT
HETATM    1  C   UNL     1     -10.092   6.755  74.156  1.00  0.00    -0.381 C  
HETATM    2  C   UNL     1      -8.872   6.984  73.268  1.00  0.00    -0.155 C  
ENDROOT
BRANCH   2   3
HETATM    3  C   UNL     1      -8.351   5.724  72.571  1.00  0.00    -0.117 C  
HETATM    4  C   UNL     1      -6.866   5.504  72.852  1.00  0.00    -0.075 C  
HETATM    5  O   UNL     1      -9.063   4.558  73.012  1.00  0.00    -0.119 OA 
HETATM    6  C   UNL     1      -9.464   3.845  71.916  1.00  0.00    -0.140 C  
HETATM    7  N   UNL     1      -9.188   4.530  70.785  1.00  0.00    -0.130 N  
HETATM    8  O   UNL     1     -10.005   2.755  71.998  1.00  0.00    -0.162 OA 
HETATM    9  C   UNL     1      -8.598   5.714  71.079  1.00  0.00    -0.127 C  
HETATM   10  C   UNL     1      -9.572   4.120  69.460  1.00  0.00    -0.204 C  
HETATM   11  O   UNL     1      -8.301   6.603  70.294  1.00  0.00    -0.130 OA 
ENDBRANCH   2   3
TORSDOF 1
ENDMDL
MODEL      204
REMARK 921   NORMALIZED FREE ENERGY PREDICTED BY IDOCK:   -1.67 KCAL/MOL
REMARK 922        TOTAL FREE ENERGY PREDICTED BY IDOCK:   -1.79 KCAL/MOL
REMARK 923 INTER-LIGAND FREE ENERGY PREDICTED BY IDOCK:   -1.70 KCAL/MOL
REMARK 924 INTRA-LIGAND FREE ENERGY PREDICTED BY IDOCK:   -0.09 KCAL/MOL
REMARK 927      BINDING AFFINITY PREDICTED BY RF-SCORE:    0.00 PKD
ROOT
HETATM    1  C   UNL     1      -8.542   5.281  65.027  1.00  0.00    -0.150 C  
HETATM    2  C   UNL     1      -8.563   5.182  66.548  1.00  0.00    -0.111 C  
ENDROOT
BRANCH   2   3
HETATM    3  C   UNL     1      -8.693   6.527  67.269  1.00  0.00    -0.110 C  
HETATM    4  C   UNL     1      -8.715   6.347  68.786  1.00  0.00    -0.122 C  
HETATM    5  O   UNL     1      -7.598   7.395  66.942  1.00  0.00    -0.097 OA 
HETATM    6  C   UNL     1      -8.096   8.618  66.586  1.00  0.00    -0.100 C  
HETATM    7  N   UNL     1      -9.444   8.574  66.523  1.00  0.00    -0.200 N  
HETATM    8  O   UNL     1      -7.384   9.581  66.354  1.00  0.00    -0.092 OA 
HETATM    9  C   UNL     1      -9.894   7.333  66.830  1.00  0.00    -0.212 C  
HETATM   10  C   UNL     1     -10.284   9.655  66.076  1.00  0.00    -0.185 C  
HETATM   11  O   UNL     1     -11.050   6.937  66.783  1.00  0.00    -0.321 OA 
ENDBRANCH   2   3
TORSDOF 1
ENDMDL
MODEL      205
REMARK 921   NORMALIZED FREE ENERGY PREDICTED BY IDOCK:   -1.67 KCAL/MOL
REMARK 922        TOTAL FREE ENERGY PREDICTED BY IDOCK:   -1.79 KCAL/MOL
REMARK 923 INTER-LIGAND FREE ENERGY PREDICTED BY IDOCK:   -1.82 KCAL/MOL
REMARK 924 INTRA-LIGAND FREE ENERGY PREDICTED BY IDOCK:    0.04 KCAL/MOL
REMARK 927      BINDING AFFINITY PREDICTED BY RF-SCORE:    0.00 PKD
ROOT
HETATM    1  C   UNL     1      -9.631  11.034  64.614  1.00  0.00    -0.297 C  
HETATM    2  C   UNL     1     -10.016   9.885  65.540  1.00  0.00    -0.363 C  
ENDROOT
BRANCH   2   3
HETATM    3  C   UNL     1      -8.835   9.035  66.019  1.00  0.00    -0.175 C  
HETATM    4  C   UNL     1      -7.649   9.905  66.427  1.00  0.00    -0.101 C  
HETATM    5  O   UNL     1      -9.204   8.230  67.149  1.00  0.00    -0.137 OA 
HETATM    6  C   UNL     1      -8.809   6.942  66.921  1.00  0.00    -0.120 C  
HETATM    7  N   UNL     1      -8.332   6.813  65.664  1.00  0.00    -0.144 N  
HETATM    8  O   UNL     1      -8.907   6.061  67.760  1.00  0.00    -0.109 OA 
HETATM    9  C   UNL     1      -8.390   7.999  65.011  1.00  0.00    -0.113 C  
HETATM   10  C   UNL     1      -7.931   5.570  65.059  1.00  0.00    -0.113 C  
HETATM   11  O   UNL     1      -8.118   8.206  63.837  1.00  0.00    -0.154 OA 
ENDBRANCH   2   3
TORSDOF 1
ENDMDL
MODEL      206
REMARK 921   NORMALIZED FREE ENERGY PREDICTED BY IDOCK:   -1.64 KCAL/MOL
REMARK 922        TOTAL FREE ENERGY PREDICTED BY IDOCK:   -1.76 KCAL/MOL
REMARK 923 INTER-LIGAND FREE ENERGY PREDICTED BY IDOCK:   -1.70 KCAL/MOL
REMARK 924 INTRA-LIGAND FREE ENERGY PREDICTED BY IDOCK:   -0.06 KCAL/MOL
REMARK 927      BINDING AFFINITY PREDICTED BY RF-SCORE:    0.00 PKD
ROOT
HETATM    1  C   UNL     1      -9.537   4.162  70.363  1.00  0.00    -0.266 C  
HETATM    2  C   UNL     1      -8.281   4.406  69.534  1.00  0.00    -0.065 C  
ENDROOT
BRANCH   2   3
HETATM    3  C   UNL     1      -8.547   4.917  68.115  1.00  0.00    -0.102 C  
HETATM    4  C   UNL     1      -7.988   3.962  67.064  1.00  0.00    -0.095 C  
HETATM    5  O   UNL     1      -9.954   5.066  67.876  1.00  0.00    -0.156 OA 
HETATM    6  C   UNL     1     -10.183   6.302  67.341  1.00  0.00    -0.180 C  
HETATM    7  N   UNL     1      -9.045   7.030  67.340  1.00  0.00    -0.123 N  
HETATM    8  O   UNL     1     -11.281   6.660  66.947  1.00  0.00    -0.391 OA 
HETATM    9  C   UNL     1      -8.024   6.314  67.870  1.00  0.00    -0.111 C  
HETATM   10  C   UNL     1      -8.951   8.411  66.946  1.00  0.00    -0.145 C  
HETATM   11  O   UNL     1      -6.888   6.708  68.092  1.00  0.00    -0.069 OA 
ENDBRANCH   2   3
TORSDOF 1
ENDMDL
MODEL      207
REMARK 921   NORMALIZED FREE ENERGY PREDICTED BY IDOCK:   -1.64 KCAL/MOL
REMARK 922        TOTAL FREE ENERGY PREDICTED BY IDOCK:   -1.76 KCAL/MOL
REMARK 923 INTER-LIGAND FREE ENERGY PREDICTED BY IDOCK:   -1.67 KCAL/MOL
REMARK 924 INTRA-LIGAND FREE ENERGY PREDICTED BY IDOCK:   -0.09 KCAL/MOL
REMARK 927      BINDING AFFINITY PREDICTED BY RF-SCORE:    0.00 PKD
ROOT
HETATM    1  C   UNL     1     -10.296   3.351  63.905  1.00  0.00    -0.231 C  
HETATM    2  C   UNL     1     -10.881   4.341  64.907  1.00  0.00    -0.108 C  
ENDROOT
BRANCH   2   3
HETATM    3  C   UNL     1      -9.963   4.663  66.089  1.00  0.00    -0.247 C  
HETATM    4  C   UNL     1     -10.598   5.688  67.026  1.00  0.00    -0.358 C  
HETATM    5  O   UNL     1      -9.673   3.484  66.855  1.00  0.00    -0.173 OA 
HETATM    6  C   UNL     1      -8.323   3.408  67.056  1.00  0.00    -0.096 C  
HETATM    7  N   UNL     1      -7.691   4.378  66.360  1.00  0.00    -0.093 N  
HETATM    8  O   UNL     1      -7.806   2.558  67.760  1.00  0.00    -0.060 OA 
HETATM    9  C   UNL     1      -8.586   5.130  65.674  1.00  0.00    -0.139 C  
HETATM   10  C   UNL     1      -6.262   4.522  66.261  1.00  0.00    -0.032 C  
HETATM   11  O   UNL     1      -8.338   6.030  64.884  1.00  0.00    -0.139 OA 
ENDBRANCH   2   3
TORSDOF 1
ENDMDL
MODEL      208
REMARK 921   NORMALIZED FREE ENERGY PREDICTED BY IDOCK:   -1.64 KCAL/MOL
REMARK 922        TOTAL FREE ENERGY PREDICTED BY IDOCK:   -1.76 KCAL/MOL
REMARK 923 INTER-LIGAND FREE ENERGY PREDICTED BY IDOCK:   -1.70 KCAL/MOL
REMARK 924 INTRA-LIGAND FREE ENERGY PREDICTED BY IDOCK:   -0.06 KCAL/MOL
REMARK 927      BINDING AFFINITY PREDICTED BY RF-SCORE:    0.00 PKD
ROOT
HETATM    1  C   UNL     1      -6.645   8.589  63.809  1.00  0.00    -0.076 C  
HETATM    2  C   UNL     1      -8.058   8.468  64.370  1.00  0.00    -0.163 C  
ENDROOT
BRANCH   2   3
HETATM    3  C   UNL     1      -8.262   9.148  65.727  1.00  0.00    -0.115 C  
HETATM    4  C   UNL     1      -8.654   8.139  66.804  1.00  0.00    -0.136 C  
HETATM    5  O   UNL     1      -7.065   9.812  66.156  1.00  0.00    -0.093 OA 
HETATM    6  C   UNL     1      -7.379  11.085  66.541  1.00  0.00    -0.144 C  
HETATM    7  N   UNL     1      -8.674  11.351  66.265  1.00  0.00    -0.182 N  
HETATM    8  O   UNL     1      -6.568  11.844  67.045  1.00  0.00    -0.142 OA 
HETATM    9  C   UNL     1      -9.267  10.277  65.690  1.00  0.00    -0.184 C  
HETATM   10  C   UNL     1      -9.308  12.632  66.442  1.00  0.00    -0.198 C  
HETATM   11  O   UNL     1     -10.404  10.216  65.243  1.00  0.00    -0.266 OA 
ENDBRANCH   2   3
TORSDOF 1
ENDMDL
MODEL      209
REMARK 921   NORMALIZED FREE ENERGY PREDICTED BY IDOCK:   -1.62 KCAL/MOL
REMARK 922        TOTAL FREE ENERGY PREDICTED BY IDOCK:   -1.74 KCAL/MOL
REMARK 923 INTER-LIGAND FREE ENERGY PREDICTED BY IDOCK:   -1.72 KCAL/MOL
REMARK 924 INTRA-LIGAND FREE ENERGY PREDICTED BY IDOCK:   -0.02 KCAL/MOL
REMARK 927      BINDING AFFINITY PREDICTED BY RF-SCORE:    0.00 PKD
ROOT
HETATM    1  C   UNL     1      -7.850   9.059  63.620  1.00  0.00    -0.137 C  
HETATM    2  C   UNL     1      -8.392   8.062  64.639  1.00  0.00    -0.065 C  
ENDROOT
BRANCH   2   3
HETATM    3  C   UNL     1      -8.441   8.588  66.076  1.00  0.00    -0.140 C  
HETATM    4  C   UNL     1      -7.124   9.251  66.474  1.00  0.00    -0.085 C  
HETATM    5  O   UNL     1      -9.490   9.555  66.236  1.00  0.00    -0.176 OA 
HETATM    6  C   UNL     1     -10.226   9.229  67.340  1.00  0.00    -0.243 C  
HETATM    7  N   UNL     1      -9.823   8.040  67.838  1.00  0.00    -0.160 N  
HETATM    8  O   UNL     1     -11.123   9.936  67.770  1.00  0.00    -0.269 OA 
HETATM    9  C   UNL     1      -8.812   7.532  67.092  1.00  0.00    -0.125 C  
HETATM   10  C   UNL     1     -10.453   7.349  68.933  1.00  0.00    -0.203 C  
HETATM   11  O   UNL     1      -8.281   6.438  67.221  1.00  0.00    -0.112 OA 
ENDBRANCH   2   3
TORSDOF 1
ENDMDL
MODEL      210
REMARK 921   NORMALIZED FREE ENERGY PREDICTED BY IDOCK:   -1.62 KCAL/MOL
REMARK 922        TOTAL FREE ENERGY PREDICTED BY IDOCK:   -1.73 KCAL/MOL
REMARK 923 INTER-LIGAND FREE ENERGY PREDICTED BY IDOCK:   -1.68 KCAL/MOL
REMARK 924 INTRA-LIGAND FREE ENERGY PREDICTED BY IDOCK:   -0.06 KCAL/MOL
REMARK 927      BINDING AFFINITY PREDICTED BY RF-SCORE:    0.00 PKD
ROOT
HETATM    1  C   UNL     1     -10.526  10.677  66.604  1.00  0.00    -0.296 C  
HETATM    2  C   UNL     1      -9.935  10.195  65.284  1.00  0.00    -0.381 C  
ENDROOT
BRANCH   2   3
HETATM    3  C   UNL     1      -8.542   9.568  65.404  1.00  0.00    -0.155 C  
HETATM    4  C   UNL     1      -8.096   8.944  64.084  1.00  0.00    -0.160 C  
HETATM    5  O   UNL     1      -7.566  10.549  65.783  1.00  0.00    -0.143 OA 
HETATM    6  C   UNL     1      -6.832  10.061  66.828  1.00  0.00    -0.081 C  
HETATM    7  N   UNL     1      -7.347   8.887  67.253  1.00  0.00    -0.080 N  
HETATM    8  O   UNL     1      -5.866  10.645  67.288  1.00  0.00    -0.044 OA 
HETATM    9  C   UNL     1      -8.433   8.550  66.517  1.00  0.00    -0.115 C  
HETATM   10  C   UNL     1      -6.885   8.153  68.403  1.00  0.00    -0.068 C  
HETATM   11  O   UNL     1      -9.177   7.596  66.696  1.00  0.00    -0.153 OA 
ENDBRANCH   2   3
TORSDOF 1
ENDMDL
MODEL      211
REMARK 921   NORMALIZED FREE ENERGY PREDICTED BY IDOCK:   -1.61 KCAL/MOL
REMARK 922        TOTAL FREE ENERGY PREDICTED BY IDOCK:   -1.73 KCAL/MOL
REMARK 923 INTER-LIGAND FREE ENERGY PREDICTED BY IDOCK:   -1.63 KCAL/MOL
REMARK 924 INTRA-LIGAND FREE ENERGY PREDICTED BY IDOCK:   -0.09 KCAL/MOL
REMARK 927      BINDING AFFINITY PREDICTED BY RF-SCORE:    0.00 PKD
ROOT
HETATM    1  C   UNL     1      -6.944   6.417  65.700  1.00  0.00    -0.057 C  
HETATM    2  C   UNL     1      -7.073   7.868  66.151  1.00  0.00    -0.062 C  
ENDROOT
BRANCH   2   3
HETATM    3  C   UNL     1      -8.305   8.156  67.015  1.00  0.00    -0.116 C  
HETATM    4  C   UNL     1      -8.510   9.656  67.212  1.00  0.00    -0.132 C  
HETATM    5  O   UNL     1      -9.493   7.622  66.414  1.00  0.00    -0.190 OA 
HETATM    6  C   UNL     1     -10.180   6.906  67.354  1.00  0.00    -0.203 C  
HETATM    7  N   UNL     1      -9.460   6.816  68.493  1.00  0.00    -0.132 N  
HETATM    8  O   UNL     1     -11.281   6.423  67.145  1.00  0.00    -0.370 OA 
HETATM    9  C   UNL     1      -8.275   7.461  68.357  1.00  0.00    -0.125 C  
HETATM   10  C   UNL     1      -9.837   6.045  69.648  1.00  0.00    -0.163 C  
HETATM   11  O   UNL     1      -7.360   7.497  69.167  1.00  0.00    -0.081 OA 
ENDBRANCH   2   3
TORSDOF 1
ENDMDL
MODEL      212
REMARK 921   NORMALIZED FREE ENERGY PREDICTED BY IDOCK:   -1.61 KCAL/MOL
REMARK 922        TOTAL FREE ENERGY PREDICTED BY IDOCK:   -1.72 KCAL/MOL
REMARK 923 INTER-LIGAND FREE ENERGY PREDICTED BY IDOCK:   -1.63 KCAL/MOL
REMARK 924 INTRA-LIGAND FREE ENERGY PREDICTED BY IDOCK:   -0.10 KCAL/MOL
REMARK 927      BINDING AFFINITY PREDICTED BY RF-SCORE:    0.00 PKD
ROOT
HETATM    1  C   UNL     1      -8.210   8.818  71.402  1.00  0.00    -0.203 C  
HETATM    2  C   UNL     1      -8.240   7.995  72.686  1.00  0.00    -0.203 C  
ENDROOT
BRANCH   2   3
HETATM    3  C   UNL     1      -8.701   6.547  72.500  1.00  0.00    -0.125 C  
HETATM    4  C   UNL     1      -8.930   5.857  73.843  1.00  0.00    -0.126 C  
HETATM    5  O   UNL     1      -9.928   6.487  71.757  1.00  0.00    -0.177 OA 
HETATM    6  C   UNL     1      -9.791   5.570  70.753  1.00  0.00    -0.188 C  
HETATM    7  N   UNL     1      -8.518   5.123  70.696  1.00  0.00    -0.113 N  
HETATM    8  O   UNL     1     -10.714   5.243  70.025  1.00  0.00    -0.287 OA 
HETATM    9  C   UNL     1      -7.763   5.719  71.651  1.00  0.00    -0.101 C  
HETATM   10  C   UNL     1      -8.002   4.231  69.691  1.00  0.00    -0.056 C  
HETATM   11  O   UNL     1      -6.557   5.602  71.815  1.00  0.00    -0.050 OA 
ENDBRANCH   2   3
TORSDOF 1
ENDMDL
MODEL      213
REMARK 921   NORMALIZED FREE ENERGY PREDICTED BY IDOCK:   -1.52 KCAL/MOL
REMARK 922        TOTAL FREE ENERGY PREDICTED BY IDOCK:   -1.63 KCAL/MOL
REMARK 923 INTER-LIGAND FREE ENERGY PREDICTED BY IDOCK:   -1.56 KCAL/MOL
REMARK 924 INTRA-LIGAND FREE ENERGY PREDICTED BY IDOCK:   -0.07 KCAL/MOL
REMARK 927      BINDING AFFINITY PREDICTED BY RF-SCORE:    0.00 PKD
ROOT
HETATM    1  C   UNL     1      -9.895   5.922  69.066  1.00  0.00    -0.193 C  
HETATM    2  C   UNL     1     -10.640   5.551  70.344  1.00  0.00    -0.350 C  
ENDROOT
BRANCH   2   3
HETATM    3  C   UNL     1      -9.734   5.217  71.532  1.00  0.00    -0.162 C  
HETATM    4  C   UNL     1     -10.544   5.002  72.809  1.00  0.00    -0.274 C  
HETATM    5  O   UNL     1      -8.975   4.024  71.284  1.00  0.00    -0.099 OA 
HETATM    6  C   UNL     1      -7.662   4.268  71.573  1.00  0.00    -0.073 C  
HETATM    7  N   UNL     1      -7.481   5.575  71.862  1.00  0.00    -0.092 N  
HETATM    8  O   UNL     1      -6.806   3.400  71.547  1.00  0.00    -0.029 OA 
HETATM    9  C   UNL     1      -8.655   6.247  71.776  1.00  0.00    -0.133 C  
HETATM   10  C   UNL     1      -6.205   6.196  72.107  1.00  0.00    -0.042 C  
HETATM   11  O   UNL     1      -8.822   7.453  71.892  1.00  0.00    -0.115 OA 
ENDBRANCH   2   3
TORSDOF 1
ENDMDL
MODEL      214
REMARK 921   NORMALIZED FREE ENERGY PREDICTED BY IDOCK:   -1.50 KCAL/MOL
REMARK 922        TOTAL FREE ENERGY PREDICTED BY IDOCK:   -1.61 KCAL/MOL
REMARK 923 INTER-LIGAND FREE ENERGY PREDICTED BY IDOCK:   -1.55 KCAL/MOL
REMARK 924 INTRA-LIGAND FREE ENERGY PREDICTED BY IDOCK:   -0.06 KCAL/MOL
REMARK 927      BINDING AFFINITY PREDICTED BY RF-SCORE:    0.00 PKD
ROOT
HETATM    1  C   UNL     1     -10.587   1.932  72.563  1.00  0.00    -0.194 C  
HETATM    2  C   UNL     1      -9.127   2.255  72.264  1.00  0.00    -0.120 C  
ENDROOT
BRANCH   2   3
HETATM    3  C   UNL     1      -8.888   3.667  71.723  1.00  0.00    -0.099 C  
HETATM    4  C   UNL     1      -7.991   3.647  70.487  1.00  0.00    -0.056 C  
HETATM    5  O   UNL     1     -10.125   4.298  71.361  1.00  0.00    -0.179 OA 
HETATM    6  C   UNL     1     -10.164   5.546  71.918  1.00  0.00    -0.199 C  
HETATM    7  N   UNL     1      -9.102   5.729  72.732  1.00  0.00    -0.134 N  
HETATM    8  O   UNL     1     -11.059   6.344  71.693  1.00  0.00    -0.246 OA 
HETATM    9  C   UNL     1      -8.323   4.620  72.752  1.00  0.00    -0.111 C  
HETATM   10  C   UNL     1      -8.888   6.887  73.559  1.00  0.00    -0.137 C  
HETATM   11  O   UNL     1      -7.337   4.426  73.449  1.00  0.00    -0.073 OA 
ENDBRANCH   2   3
TORSDOF 1
ENDMDL
MODEL      215
REMARK 921   NORMALIZED FREE ENERGY PREDICTED BY IDOCK:   -1.48 KCAL/MOL
REMARK 922        TOTAL FREE ENERGY PREDICTED BY IDOCK:   -1.59 KCAL/MOL
REMARK 923 INTER-LIGAND FREE ENERGY PREDICTED BY IDOCK:   -1.67 KCAL/MOL
REMARK 924 INTRA-LIGAND FREE ENERGY PREDICTED BY IDOCK:    0.08 KCAL/MOL
REMARK 927      BINDING AFFINITY PREDICTED BY RF-SCORE:    0.00 PKD
ROOT
HETATM    1  C   UNL     1      -6.670   9.114  64.967  1.00  0.00    -0.073 C  
HETATM    2  C   UNL     1      -8.147   8.839  65.227  1.00  0.00    -0.129 C  
ENDROOT
BRANCH   2   3
HETATM    3  C   UNL     1      -8.427   8.019  66.489  1.00  0.00    -0.136 C  
HETATM    4  C   UNL     1      -7.656   8.561  67.690  1.00  0.00    -0.098 C  
HETATM    5  O   UNL     1      -9.825   8.035  66.816  1.00  0.00    -0.213 OA 
HETATM    6  C   UNL     1     -10.241   6.753  67.041  1.00  0.00    -0.237 C  
HETATM    7  N   UNL     1      -9.251   5.881  66.750  1.00  0.00    -0.129 N  
HETATM    8  O   UNL     1     -11.363   6.480  67.435  1.00  0.00    -0.304 OA 
HETATM    9  C   UNL     1      -8.147   6.542  66.323  1.00  0.00    -0.115 C  
HETATM   10  C   UNL     1      -9.382   4.448  66.772  1.00  0.00    -0.162 C  
HETATM   11  O   UNL     1      -7.111   6.048  65.902  1.00  0.00    -0.070 OA 
ENDBRANCH   2   3
TORSDOF 1
ENDMDL
MODEL      216
REMARK 921   NORMALIZED FREE ENERGY PREDICTED BY IDOCK:   -1.47 KCAL/MOL
REMARK 922        TOTAL FREE ENERGY PREDICTED BY IDOCK:   -1.58 KCAL/MOL
REMARK 923 INTER-LIGAND FREE ENERGY PREDICTED BY IDOCK:   -1.54 KCAL/MOL
REMARK 924 INTRA-LIGAND FREE ENERGY PREDICTED BY IDOCK:   -0.04 KCAL/MOL
REMARK 927      BINDING AFFINITY PREDICTED BY RF-SCORE:    0.00 PKD
ROOT
HETATM    1  C   UNL     1      -7.410   4.085  63.500  1.00  0.00    -0.051 C  
HETATM    2  C   UNL     1      -8.459   5.143  63.826  1.00  0.00    -0.113 C  
ENDROOT
BRANCH   2   3
HETATM    3  C   UNL     1      -8.239   5.864  65.160  1.00  0.00    -0.141 C  
HETATM    4  C   UNL     1      -6.924   5.442  65.811  1.00  0.00    -0.066 C  
HETATM    5  O   UNL     1      -8.206   7.287  64.977  1.00  0.00    -0.137 OA 
HETATM    6  C   UNL     1      -9.041   7.868  65.891  1.00  0.00    -0.087 C  
HETATM    7  N   UNL     1      -9.725   6.922  66.569  1.00  0.00    -0.158 N  
HETATM    8  O   UNL     1      -9.133   9.077  66.028  1.00  0.00    -0.178 OA 
HETATM    9  C   UNL     1      -9.378   5.685  66.137  1.00  0.00    -0.153 C  
HETATM   10  C   UNL     1     -10.765   7.186  67.529  1.00  0.00    -0.274 C  
HETATM   11  O   UNL     1      -9.870   4.620  66.482  1.00  0.00    -0.181 OA 
ENDBRANCH   2   3
TORSDOF 1
ENDMDL
MODEL      217
REMARK 921   NORMALIZED FREE ENERGY PREDICTED BY IDOCK:   -1.47 KCAL/MOL
REMARK 922        TOTAL FREE ENERGY PREDICTED BY IDOCK:   -1.58 KCAL/MOL
REMARK 923 INTER-LIGAND FREE ENERGY PREDICTED BY IDOCK:   -1.55 KCAL/MOL
REMARK 924 INTRA-LIGAND FREE ENERGY PREDICTED BY IDOCK:   -0.03 KCAL/MOL
REMARK 927      BINDING AFFINITY PREDICTED BY RF-SCORE:    0.00 PKD
ROOT
HETATM    1  C   UNL     1      -5.967   9.863  64.012  1.00  0.00    -0.121 C  
HETATM    2  C   UNL     1      -7.356  10.088  64.599  1.00  0.00    -0.143 C  
ENDROOT
BRANCH   2   3
HETATM    3  C   UNL     1      -8.010   8.831  65.181  1.00  0.00    -0.125 C  
HETATM    4  C   UNL     1      -8.235   7.771  64.106  1.00  0.00    -0.010 C  
HETATM    5  O   UNL     1      -7.192   8.253  66.209  1.00  0.00    -0.072 OA 
HETATM    6  C   UNL     1      -7.970   8.009  67.307  1.00  0.00    -0.121 C  
HETATM    7  N   UNL     1      -9.209   8.513  67.124  1.00  0.00    -0.139 N  
HETATM    8  O   UNL     1      -7.555   7.428  68.296  1.00  0.00    -0.109 OA 
HETATM    9  C   UNL     1      -9.305   9.107  65.909  1.00  0.00    -0.243 C  
HETATM   10  C   UNL     1     -10.248   8.527  68.120  1.00  0.00    -0.208 C  
HETATM   11  O   UNL     1     -10.260   9.732  65.470  1.00  0.00    -0.256 OA 
ENDBRANCH   2   3
TORSDOF 1
ENDMDL
MODEL      218
REMARK 921   NORMALIZED FREE ENERGY PREDICTED BY IDOCK:   -1.45 KCAL/MOL
REMARK 922        TOTAL FREE ENERGY PREDICTED BY IDOCK:   -1.55 KCAL/MOL
REMARK 923 INTER-LIGAND FREE ENERGY PREDICTED BY IDOCK:   -1.53 KCAL/MOL
REMARK 924 INTRA-LIGAND FREE ENERGY PREDICTED BY IDOCK:   -0.02 KCAL/MOL
REMARK 927      BINDING AFFINITY PREDICTED BY RF-SCORE:    0.00 PKD
ROOT
HETATM    1  C   UNL     1     -11.185   6.242  68.288  1.00  0.00    -0.251 C  
HETATM    2  C   UNL     1     -10.358   6.725  67.101  1.00  0.00    -0.327 C  
ENDROOT
BRANCH   2   3
HETATM    3  C   UNL     1      -9.582   8.021  67.355  1.00  0.00    -0.153 C  
HETATM    4  C   UNL     1     -10.425   9.036  68.123  1.00  0.00    -0.257 C  
HETATM    5  O   UNL     1      -8.391   7.768  68.115  1.00  0.00    -0.123 OA 
HETATM    6  C   UNL     1      -7.335   8.377  67.497  1.00  0.00    -0.093 C  
HETATM    7  N   UNL     1      -7.722   8.896  66.312  1.00  0.00    -0.097 N  
HETATM    8  O   UNL     1      -6.215   8.410  67.980  1.00  0.00    -0.049 OA 
HETATM    9  C   UNL     1      -9.037   8.654  66.095  1.00  0.00    -0.201 C  
HETATM   10  C   UNL     1      -6.840   9.512  65.356  1.00  0.00    -0.086 C  
HETATM   11  O   UNL     1      -9.676   8.914  65.084  1.00  0.00     0.105 OA 
ENDBRANCH   2   3
TORSDOF 1
ENDMDL
MODEL      219
REMARK 921   NORMALIZED FREE ENERGY PREDICTED BY IDOCK:   -1.41 KCAL/MOL
REMARK 922        TOTAL FREE ENERGY PREDICTED BY IDOCK:   -1.52 KCAL/MOL
REMARK 923 INTER-LIGAND FREE ENERGY PREDICTED BY IDOCK:   -1.43 KCAL/MOL
REMARK 924 INTRA-LIGAND FREE ENERGY PREDICTED BY IDOCK:   -0.09 KCAL/MOL
REMARK 927      BINDING AFFINITY PREDICTED BY RF-SCORE:    0.00 PKD
ROOT
HETATM    1  C   UNL     1     -10.784   7.569  67.550  1.00  0.00    -0.296 C  
HETATM    2  C   UNL     1      -9.510   7.819  66.749  1.00  0.00    -0.251 C  
ENDROOT
BRANCH   2   3
HETATM    3  C   UNL     1      -8.214   7.594  67.534  1.00  0.00    -0.121 C  
HETATM    4  C   UNL     1      -6.984   7.818  66.657  1.00  0.00    -0.071 C  
HETATM    5  O   UNL     1      -8.127   8.487  68.654  1.00  0.00    -0.117 OA 
HETATM    6  C   UNL     1      -7.807   7.765  69.770  1.00  0.00    -0.106 C  
HETATM    7  N   UNL     1      -7.813   6.444  69.491  1.00  0.00    -0.100 N  
HETATM    8  O   UNL     1      -7.572   8.284  70.849  1.00  0.00    -0.067 OA 
HETATM    9  C   UNL     1      -8.135   6.235  68.191  1.00  0.00    -0.115 C  
HETATM   10  C   UNL     1      -7.624   5.396  70.460  1.00  0.00    -0.080 C  
HETATM   11  O   UNL     1      -8.310   5.157  67.641  1.00  0.00    -0.106 OA 
ENDBRANCH   2   3
TORSDOF 1
ENDMDL
MODEL      220
REMARK 921   NORMALIZED FREE ENERGY PREDICTED BY IDOCK:   -1.39 KCAL/MOL
REMARK 922        TOTAL FREE ENERGY PREDICTED BY IDOCK:   -1.49 KCAL/MOL
REMARK 923 INTER-LIGAND FREE ENERGY PREDICTED BY IDOCK:   -1.40 KCAL/MOL
REMARK 924 INTRA-LIGAND FREE ENERGY PREDICTED BY IDOCK:   -0.09 KCAL/MOL
REMARK 927      BINDING AFFINITY PREDICTED BY RF-SCORE:    0.00 PKD
ROOT
HETATM    1  C   UNL     1      -6.248  10.175  66.385  1.00  0.00    -0.072 C  
HETATM    2  C   UNL     1      -7.638  10.645  65.967  1.00  0.00    -0.142 C  
ENDROOT
BRANCH   2   3
HETATM    3  C   UNL     1      -8.234   9.882  64.780  1.00  0.00    -0.151 C  
HETATM    4  C   UNL     1      -9.433  10.619  64.188  1.00  0.00    -0.327 C  
HETATM    5  O   UNL     1      -7.262   9.707  63.738  1.00  0.00    -0.105 OA 
HETATM    6  C   UNL     1      -7.257   8.395  63.355  1.00  0.00    -0.093 C  
HETATM    7  N   UNL     1      -8.055   7.667  64.165  1.00  0.00    -0.103 N  
HETATM    8  O   UNL     1      -6.596   7.983  62.416  1.00  0.00    -0.085 OA 
HETATM    9  C   UNL     1      -8.618   8.458  65.111  1.00  0.00    -0.132 C  
HETATM   10  C   UNL     1      -8.198   6.236  64.111  1.00  0.00    -0.010 C  
HETATM   11  O   UNL     1      -9.321   8.099  66.045  1.00  0.00    -0.182 OA 
ENDBRANCH   2   3
TORSDOF 1
ENDMDL
MODEL      221
REMARK 921   NORMALIZED FREE ENERGY PREDICTED BY IDOCK:   -1.31 KCAL/MOL
REMARK 922        TOTAL FREE ENERGY PREDICTED BY IDOCK:   -1.41 KCAL/MOL
REMARK 923 INTER-LIGAND FREE ENERGY PREDICTED BY IDOCK:   -1.32 KCAL/MOL
REMARK 924 INTRA-LIGAND FREE ENERGY PREDICTED BY IDOCK:   -0.09 KCAL/MOL
REMARK 927      BINDING AFFINITY PREDICTED BY RF-SCORE:    0.00 PKD
ROOT
HETATM    1  C   UNL     1      -7.097   4.431  66.107  1.00  0.00    -0.071 C  
HETATM    2  C   UNL     1      -8.273   5.324  66.488  1.00  0.00    -0.108 C  
ENDROOT
BRANCH   2   3
HETATM    3  C   UNL     1      -9.054   4.852  67.718  1.00  0.00    -0.116 C  
HETATM    4  C   UNL     1     -10.195   5.810  68.057  1.00  0.00    -0.231 C  
HETATM    5  O   UNL     1      -9.619   3.550  67.503  1.00  0.00    -0.207 OA 
HETATM    6  C   UNL     1      -9.314   2.755  68.572  1.00  0.00    -0.186 C  
HETATM    7  N   UNL     1      -8.474   3.399  69.411  1.00  0.00    -0.059 N  
HETATM    8  O   UNL     1      -9.752   1.624  68.702  1.00  0.00    -0.153 OA 
HETATM    9  C   UNL     1      -8.187   4.636  68.937  1.00  0.00    -0.081 C  
HETATM   10  C   UNL     1      -7.869   2.815  70.580  1.00  0.00    -0.042 C  
HETATM   11  O   UNL     1      -7.395   5.439  69.410  1.00  0.00    -0.063 OA 
ENDBRANCH   2   3
TORSDOF 1
ENDMDL
MODEL      222
REMARK 921   NORMALIZED FREE ENERGY PREDICTED BY IDOCK:   -1.29 KCAL/MOL
REMARK 922        TOTAL FREE ENERGY PREDICTED BY IDOCK:   -1.39 KCAL/MOL
REMARK 923 INTER-LIGAND FREE ENERGY PREDICTED BY IDOCK:   -1.35 KCAL/MOL
REMARK 924 INTRA-LIGAND FREE ENERGY PREDICTED BY IDOCK:   -0.04 KCAL/MOL
REMARK 927      BINDING AFFINITY PREDICTED BY RF-SCORE:    0.00 PKD
ROOT
HETATM    1  C   UNL     1      -9.289   4.129  68.841  1.00  0.00    -0.228 C  
HETATM    2  C   UNL     1      -8.783   5.537  68.542  1.00  0.00    -0.105 C  
ENDROOT
BRANCH   2   3
HETATM    3  C   UNL     1      -8.919   5.962  67.077  1.00  0.00    -0.116 C  
HETATM    4  C   UNL     1     -10.119   5.292  66.411  1.00  0.00    -0.257 C  
HETATM    5  O   UNL     1      -9.088   7.383  66.966  1.00  0.00    -0.127 OA 
HETATM    6  C   UNL     1      -8.211   7.859  66.031  1.00  0.00    -0.122 C  
HETATM    7  N   UNL     1      -7.384   6.874  65.620  1.00  0.00    -0.076 N  
HETATM    8  O   UNL     1      -8.205   9.021  65.661  1.00  0.00    -0.109 OA 
HETATM    9  C   UNL     1      -7.672   5.714  66.259  1.00  0.00    -0.099 C  
HETATM   10  C   UNL     1      -6.273   7.052  64.722  1.00  0.00    -0.037 C  
HETATM   11  O   UNL     1      -7.060   4.659  66.180  1.00  0.00    -0.071 OA 
ENDBRANCH   2   3
TORSDOF 1
ENDMDL
MODEL      223
REMARK 921   NORMALIZED FREE ENERGY PREDICTED BY IDOCK:   -1.24 KCAL/MOL
REMARK 922        TOTAL FREE ENERGY PREDICTED BY IDOCK:   -1.33 KCAL/MOL
REMARK 923 INTER-LIGAND FREE ENERGY PREDICTED BY IDOCK:   -1.26 KCAL/MOL
REMARK 924 INTRA-LIGAND FREE ENERGY PREDICTED BY IDOCK:   -0.07 KCAL/MOL
REMARK 927      BINDING AFFINITY PREDICTED BY RF-SCORE:    0.00 PKD
ROOT
HETATM    1  C   UNL     1      -9.908   4.488  70.239  1.00  0.00    -0.299 C  
HETATM    2  C   UNL     1      -9.795   3.868  71.627  1.00  0.00    -0.247 C  
ENDROOT
BRANCH   2   3
HETATM    3  C   UNL     1      -8.490   4.190  72.361  1.00  0.00    -0.103 C  
HETATM    4  C   UNL     1      -8.109   3.079  73.337  1.00  0.00    -0.072 C  
HETATM    5  O   UNL     1      -7.405   4.357  71.435  1.00  0.00    -0.052 OA 
HETATM    6  C   UNL     1      -6.746   5.517  71.733  1.00  0.00    -0.061 C  
HETATM    7  N   UNL     1      -7.403   6.194  72.699  1.00  0.00    -0.089 N  
HETATM    8  O   UNL     1      -5.720   5.859  71.168  1.00  0.00    -0.017 OA 
HETATM    9  C   UNL     1      -8.515   5.520  73.080  1.00  0.00    -0.118 C  
HETATM   10  C   UNL     1      -7.043   7.504  73.177  1.00  0.00    -0.072 C  
HETATM   11  O   UNL     1      -9.370   5.897  73.868  1.00  0.00    -0.129 OA 
ENDBRANCH   2   3
TORSDOF 1
ENDMDL
MODEL      224
REMARK 921   NORMALIZED FREE ENERGY PREDICTED BY IDOCK:   -1.24 KCAL/MOL
REMARK 922        TOTAL FREE ENERGY PREDICTED BY IDOCK:   -1.33 KCAL/MOL
REMARK 923 INTER-LIGAND FREE ENERGY PREDICTED BY IDOCK:   -1.31 KCAL/MOL
REMARK 924 INTRA-LIGAND FREE ENERGY PREDICTED BY IDOCK:   -0.02 KCAL/MOL
REMARK 927      BINDING AFFINITY PREDICTED BY RF-SCORE:    0.00 PKD
ROOT
HETATM    1  C   UNL     1      -8.590   4.187  72.256  1.00  0.00    -0.114 C  
HETATM    2  C   UNL     1      -7.348   5.069  72.320  1.00  0.00    -0.091 C  
ENDROOT
BRANCH   2   3
HETATM    3  C   UNL     1      -7.626   6.568  72.168  1.00  0.00    -0.097 C  
HETATM    4  C   UNL     1      -8.779   6.826  71.201  1.00  0.00    -0.136 C  
HETATM    5  O   UNL     1      -7.966   7.160  73.430  1.00  0.00    -0.101 OA 
HETATM    6  C   UNL     1      -7.212   8.287  73.606  1.00  0.00    -0.125 C  
HETATM    7  N   UNL     1      -6.303   8.402  72.613  1.00  0.00    -0.080 N  
HETATM    8  O   UNL     1      -7.365   9.045  74.549  1.00  0.00    -0.423 OA 
HETATM    9  C   UNL     1      -6.413   7.366  71.747  1.00  0.00    -0.043 C  
HETATM   10  C   UNL     1      -5.281   9.414  72.546  1.00  0.00    -0.075 C  
HETATM   11  O   UNL     1      -5.689   7.126  70.792  1.00  0.00    -0.027 OA 
ENDBRANCH   2   3
TORSDOF 1
ENDMDL
MODEL      225
REMARK 921   NORMALIZED FREE ENERGY PREDICTED BY IDOCK:   -1.23 KCAL/MOL
REMARK 922        TOTAL FREE ENERGY PREDICTED BY IDOCK:   -1.32 KCAL/MOL
REMARK 923 INTER-LIGAND FREE ENERGY PREDICTED BY IDOCK:   -1.29 KCAL/MOL
REMARK 924 INTRA-LIGAND FREE ENERGY PREDICTED BY IDOCK:   -0.03 KCAL/MOL
REMARK 927      BINDING AFFINITY PREDICTED BY RF-SCORE:    0.00 PKD
ROOT
HETATM    1  C   UNL     1      -8.870   3.998  69.098  1.00  0.00    -0.147 C  
HETATM    2  C   UNL     1      -8.193   4.806  67.996  1.00  0.00    -0.095 C  
ENDROOT
BRANCH   2   3
HETATM    3  C   UNL     1      -8.074   4.076  66.655  1.00  0.00    -0.097 C  
HETATM    4  C   UNL     1      -7.112   2.893  66.747  1.00  0.00    -0.054 C  
HETATM    5  O   UNL     1      -9.350   3.576  66.225  1.00  0.00    -0.168 OA 
HETATM    6  C   UNL     1      -9.551   3.943  64.924  1.00  0.00    -0.177 C  
HETATM    7  N   UNL     1      -8.563   4.765  64.511  1.00  0.00    -0.140 N  
HETATM    8  O   UNL     1     -10.512   3.568  64.272  1.00  0.00    -0.213 OA 
HETATM    9  C   UNL     1      -7.673   4.977  65.510  1.00  0.00    -0.087 C  
HETATM   10  C   UNL     1      -8.520   5.422  63.231  1.00  0.00    -0.064 C  
HETATM   11  O   UNL     1      -6.714   5.735  65.492  1.00  0.00    -0.045 OA 
ENDBRANCH   2   3
TORSDOF 1
ENDMDL
MODEL      226
REMARK 921   NORMALIZED FREE ENERGY PREDICTED BY IDOCK:   -1.22 KCAL/MOL
REMARK 922        TOTAL FREE ENERGY PREDICTED BY IDOCK:   -1.32 KCAL/MOL
REMARK 923 INTER-LIGAND FREE ENERGY PREDICTED BY IDOCK:   -1.25 KCAL/MOL
REMARK 924 INTRA-LIGAND FREE ENERGY PREDICTED BY IDOCK:   -0.07 KCAL/MOL
REMARK 927      BINDING AFFINITY PREDICTED BY RF-SCORE:    0.00 PKD
ROOT
HETATM    1  C   UNL     1      -9.444   3.922  69.034  1.00  0.00    -0.240 C  
HETATM    2  C   UNL     1      -8.533   5.046  68.553  1.00  0.00    -0.091 C  
ENDROOT
BRANCH   2   3
HETATM    3  C   UNL     1      -7.841   4.772  67.214  1.00  0.00    -0.094 C  
HETATM    4  C   UNL     1      -6.457   5.414  67.159  1.00  0.00    -0.048 C  
HETATM    5  O   UNL     1      -7.685   3.363  66.993  1.00  0.00    -0.078 OA 
HETATM    6  C   UNL     1      -8.134   3.060  65.738  1.00  0.00    -0.086 C  
HETATM    7  N   UNL     1      -8.702   4.145  65.170  1.00  0.00    -0.119 N  
HETATM    8  O   UNL     1      -8.028   1.948  65.248  1.00  0.00    -0.072 OA 
HETATM    9  C   UNL     1      -8.655   5.203  66.015  1.00  0.00    -0.124 C  
HETATM   10  C   UNL     1      -9.372   4.152  63.895  1.00  0.00    -0.152 C  
HETATM   11  O   UNL     1      -9.155   6.306  65.842  1.00  0.00    -0.145 OA 
ENDBRANCH   2   3
TORSDOF 1
ENDMDL
MODEL      227
REMARK 921   NORMALIZED FREE ENERGY PREDICTED BY IDOCK:   -1.16 KCAL/MOL
REMARK 922        TOTAL FREE ENERGY PREDICTED BY IDOCK:   -1.24 KCAL/MOL
REMARK 923 INTER-LIGAND FREE ENERGY PREDICTED BY IDOCK:   -1.21 KCAL/MOL
REMARK 924 INTRA-LIGAND FREE ENERGY PREDICTED BY IDOCK:   -0.03 KCAL/MOL
REMARK 927      BINDING AFFINITY PREDICTED BY RF-SCORE:    0.00 PKD
ROOT
HETATM    1  C   UNL     1     -10.376   3.002  63.802  1.00  0.00    -0.199 C  
HETATM    2  C   UNL     1      -9.072   3.694  64.185  1.00  0.00    -0.123 C  
ENDROOT
BRANCH   2   3
HETATM    3  C   UNL     1      -8.544   3.326  65.574  1.00  0.00    -0.114 C  
HETATM    4  C   UNL     1      -8.867   1.876  65.928  1.00  0.00    -0.122 C  
HETATM    5  O   UNL     1      -7.120   3.492  65.646  1.00  0.00    -0.063 OA 
HETATM    6  C   UNL     1      -6.815   4.213  66.767  1.00  0.00    -0.055 C  
HETATM    7  N   UNL     1      -7.945   4.651  67.363  1.00  0.00    -0.100 N  
HETATM    8  O   UNL     1      -5.670   4.419  67.131  1.00  0.00    -0.020 OA 
HETATM    9  C   UNL     1      -9.036   4.244  66.670  1.00  0.00    -0.129 C  
HETATM   10  C   UNL     1      -7.988   5.527  68.505  1.00  0.00    -0.088 C  
HETATM   11  O   UNL     1     -10.202   4.540  66.892  1.00  0.00    -0.201 OA 
ENDBRANCH   2   3
TORSDOF 1
ENDMDL
MODEL      228
REMARK 921   NORMALIZED FREE ENERGY PREDICTED BY IDOCK:   -1.00 KCAL/MOL
REMARK 922        TOTAL FREE ENERGY PREDICTED BY IDOCK:   -1.08 KCAL/MOL
REMARK 923 INTER-LIGAND FREE ENERGY PREDICTED BY IDOCK:   -0.99 KCAL/MOL
REMARK 924 INTRA-LIGAND FREE ENERGY PREDICTED BY IDOCK:   -0.09 KCAL/MOL
REMARK 927      BINDING AFFINITY PREDICTED BY RF-SCORE:    0.00 PKD
ROOT
HETATM    1  C   UNL     1      -8.444   4.232  73.194  1.00  0.00    -0.090 C  
HETATM    2  C   UNL     1      -7.341   5.285  73.195  1.00  0.00    -0.091 C  
ENDROOT
BRANCH   2   3
HETATM    3  C   UNL     1      -7.085   5.936  71.833  1.00  0.00    -0.083 C  
HETATM    4  C   UNL     1      -5.813   6.782  71.849  1.00  0.00    -0.037 C  
HETATM    5  O   UNL     1      -6.944   4.945  70.805  1.00  0.00    -0.039 OA 
HETATM    6  C   UNL     1      -7.745   5.285  69.751  1.00  0.00    -0.073 C  
HETATM    7  N   UNL     1      -8.507   6.355  70.068  1.00  0.00    -0.133 N  
HETATM    8  O   UNL     1      -7.749   4.671  68.697  1.00  0.00    -0.071 OA 
HETATM    9  C   UNL     1      -8.246   6.764  71.333  1.00  0.00    -0.111 C  
HETATM   10  C   UNL     1      -9.536   6.910  69.229  1.00  0.00    -0.149 C  
HETATM   11  O   UNL     1      -8.821   7.648  71.953  1.00  0.00    -0.112 OA 
ENDBRANCH   2   3
TORSDOF 1
ENDMDL
MODEL      229
REMARK 921   NORMALIZED FREE ENERGY PREDICTED BY IDOCK:   -0.95 KCAL/MOL
REMARK 922        TOTAL FREE ENERGY PREDICTED BY IDOCK:   -1.03 KCAL/MOL
REMARK 923 INTER-LIGAND FREE ENERGY PREDICTED BY IDOCK:   -1.50 KCAL/MOL
REMARK 924 INTRA-LIGAND FREE ENERGY PREDICTED BY IDOCK:    0.47 KCAL/MOL
REMARK 927      BINDING AFFINITY PREDICTED BY RF-SCORE:    0.00 PKD
ROOT
HETATM    1  C   UNL     1     -10.036   6.159  68.163  1.00  0.00    -0.158 C  
HETATM    2  C   UNL     1     -10.550   7.526  67.724  1.00  0.00    -0.274 C  
ENDROOT
BRANCH   2   3
HETATM    3  C   UNL     1      -9.464   8.475  67.206  1.00  0.00    -0.157 C  
HETATM    4  C   UNL     1      -9.840   9.065  65.849  1.00  0.00    -0.257 C  
HETATM    5  O   UNL     1      -9.252   9.562  68.118  1.00  0.00    -0.130 OA 
HETATM    6  C   UNL     1      -7.910   9.687  68.351  1.00  0.00    -0.085 C  
HETATM    7  N   UNL     1      -7.237   8.672  67.767  1.00  0.00    -0.086 N  
HETATM    8  O   UNL     1      -7.435  10.595  69.012  1.00  0.00    -0.096 OA 
HETATM    9  C   UNL     1      -8.095   7.839  67.129  1.00  0.00    -0.118 C  
HETATM   10  C   UNL     1      -5.824   8.436  67.901  1.00  0.00    -0.043 C  
HETATM   11  O   UNL     1      -7.820   6.784  66.575  1.00  0.00    -0.100 OA 
ENDBRANCH   2   3
TORSDOF 1
ENDMDL
MODEL      230
REMARK 921   NORMALIZED FREE ENERGY PREDICTED BY IDOCK:   -0.89 KCAL/MOL
REMARK 922        TOTAL FREE ENERGY PREDICTED BY IDOCK:   -0.96 KCAL/MOL
REMARK 923 INTER-LIGAND FREE ENERGY PREDICTED BY IDOCK:   -0.91 KCAL/MOL
REMARK 924 INTRA-LIGAND FREE ENERGY PREDICTED BY IDOCK:   -0.06 KCAL/MOL
REMARK 927      BINDING AFFINITY PREDICTED BY RF-SCORE:    0.00 PKD
ROOT
HETATM    1  C   UNL     1      -9.583   4.460  69.290  1.00  0.00    -0.261 C  
HETATM    2  C   UNL     1      -9.359   3.271  70.218  1.00  0.00    -0.242 C  
ENDROOT
BRANCH   2   3
HETATM    3  C   UNL     1      -7.936   3.161  70.775  1.00  0.00    -0.049 C  
HETATM    4  C   UNL     1      -7.244   1.889  70.291  1.00  0.00    -0.033 C  
HETATM    5  O   UNL     1      -7.136   4.282  70.371  1.00  0.00    -0.040 OA 
HETATM    6  C   UNL     1      -6.506   4.794  71.471  1.00  0.00    -0.023 C  
HETATM    7  N   UNL     1      -6.942   4.176  72.590  1.00  0.00    -0.054 N  
HETATM    8  O   UNL     1      -5.683   5.692  71.404  1.00  0.00    -0.019 OA 
HETATM    9  C   UNL     1      -7.872   3.239  72.283  1.00  0.00    -0.059 C  
HETATM   10  C   UNL     1      -6.567   4.541  73.931  1.00  0.00    -0.058 C  
HETATM   11  O   UNL     1      -8.524   2.565  73.068  1.00  0.00    -0.068 OA 
ENDBRANCH   2   3
TORSDOF 1
ENDMDL
MODEL      231
REMARK 921   NORMALIZED FREE ENERGY PREDICTED BY IDOCK:   24.11 KCAL/MOL
REMARK 922        TOTAL FREE ENERGY PREDICTED BY IDOCK:   25.50 KCAL/MOL
REMARK 923 INTER-LIGAND FREE ENERGY PREDICTED BY IDOCK:   25.54 KCAL/MOL
REMARK 924 INTRA-LIGAND FREE ENERGY PREDICTED BY IDOCK:   -0.04 KCAL/MOL
REMARK 927      BINDING AFFINITY PREDICTED BY RF-SCORE:    0.00 PKD
ROOT
HETATM    1  C   UNL     1      -9.417  13.410  74.069  1.00  0.00    13.452 C  
HETATM    2  C   UNL     1     -10.172  14.636  73.567  1.00  0.00     5.514 C  
ENDROOT
BRANCH   2   3
HETATM    3  C   UNL     1     -11.622  14.364  73.157  1.00  0.00     0.835 C  
HETATM    4  C   UNL     1     -12.022  12.919  73.446  1.00  0.00     5.940 C  
HETATM    5  O   UNL     1     -12.528  15.224  73.865  1.00  0.00    -0.535 OA 
HETATM    6  C   UNL     1     -13.384  15.798  72.967  1.00  0.00    -0.583 C  
HETATM    7  N   UNL     1     -13.018  15.485  71.705  1.00  0.00    -0.419 N  
HETATM    8  O   UNL     1     -14.324  16.499  73.303  1.00  0.00     0.005 OA 
HETATM    9  C   UNL     1     -11.914  14.699  71.712  1.00  0.00    -0.285 C  
HETATM   10  C   UNL     1     -13.635  16.009  70.515  1.00  0.00     1.644 C  
HETATM   11  O   UNL     1     -11.280  14.312  70.741  1.00  0.00    -0.026 OA 
ENDBRANCH   2   3
TORSDOF 1
ENDMDL
