MODEL        1
REMARK 921   NORMALIZED FREE ENERGY PREDICTED BY IDOCK:   -7.73 KCAL/MOL
REMARK 922        TOTAL FREE ENERGY PREDICTED BY IDOCK:   -9.35 KCAL/MOL
REMARK 923 INTER-LIGAND FREE ENERGY PREDICTED BY IDOCK:   -9.54 KCAL/MOL
REMARK 924 INTRA-LIGAND FREE ENERGY PREDICTED BY IDOCK:    0.19 KCAL/MOL
REMARK 927      BINDING AFFINITY PREDICTED BY RF-SCORE:    0.00 PKD
ROOT
HETATM    1  C   UNL     1     -11.770  14.562  68.891  1.00  0.00    -0.354 C  
HETATM    2  C   UNL     1     -11.120  15.174  69.965  1.00  0.00    -0.297 C  
HETATM    3  C   UNL     1     -10.212  14.674  68.881  1.00  0.00    -0.241 C  
HETATM    4  C   UNL     1      -8.842  15.034  69.798  1.00  0.00     0.122 C  
HETATM    5  C   UNL     1     -11.162  14.231  67.086  1.00  0.00    -0.322 C  
HETATM    6  C   UNL     1     -10.833   9.721  67.936  1.00  0.00    -0.298 C  
HETATM    7  O   UNL     1     -12.640  14.479  66.926  1.00  0.00    -0.492 OA 
HETATM    8  C   UNL     1     -10.566  15.342  67.577  1.00  0.00    -0.283 C  
HETATM    9  C   UNL     1      -9.095  14.288  67.039  1.00  0.00    -0.246 C  
HETATM   10  H   UNL     1     -13.074  14.277  66.105  1.00  0.00     0.000 HD 
HETATM   11  C   UNL     1     -10.092  10.486  69.019  1.00  0.00    -0.230 C  
HETATM   12  C   UNL     1      -8.569  10.123  69.169  1.00  0.00    -0.167 C  
HETATM   13  C   UNL     1     -10.871  16.778  67.232  1.00  0.00    -0.137 C  
HETATM   14  O   UNL     1      -9.133   7.346  70.630  1.00  0.00    -0.155 OA 
HETATM   15  C   UNL     1      -9.394  12.555  67.321  1.00  0.00    -0.190 C  
HETATM   16  C   UNL     1      -8.132   9.459  70.253  1.00  0.00    -0.180 C  
HETATM   17  C   UNL     1     -10.151  12.020  68.742  1.00  0.00    -0.113 C  
HETATM   18  O   UNL     1     -10.158  12.082  66.198  1.00  0.00    -0.216 OA 
HETATM   19  H   UNL     1     -10.318  11.158  66.348  1.00  0.00     0.000 HD 
HETATM   20  C   UNL     1     -11.647  12.750  69.045  1.00  0.00    -0.366 C  
HETATM   21  C   UNL     1      -9.164   8.561  70.772  1.00  0.00    -0.172 C  
HETATM   22  C   UNL     1     -10.335   9.282  71.238  1.00  0.00    -0.397 C  
HETATM   23  C   UNL     1     -12.139  12.334  70.441  1.00  0.00    -0.385 C  
HETATM   24  C   UNL     1     -12.145  10.831  70.637  1.00  0.00    -0.370 C  
HETATM   25  C   UNL     1     -10.817  10.186  70.365  1.00  0.00    -0.365 C  
HETATM   26  F   UNL     1     -12.542  10.592  71.922  1.00  0.00    -0.471 F  
ENDROOT
BRANCH   5  27
HETATM   27  C   UNL     1     -11.014  14.622  65.324  1.00  0.00    -0.367 C  
HETATM   28  O   UNL     1      -9.926  14.745  64.736  1.00  0.00    -0.229 OA 
BRANCH  27  29
HETATM   29  C   UNL     1     -12.275  14.946  64.405  1.00  0.00    -0.381 C  
BRANCH  29  30
HETATM   30  O   UNL     1     -12.415  13.875  63.328  1.00  0.00    -0.817 OA 
BRANCH  30  31
HETATM   31  C   UNL     1     -12.459  12.549  63.659  1.00  0.00    -0.470 C  
HETATM   32  C   UNL     1     -11.204  11.829  63.088  1.00  0.00    -0.224 C  
HETATM   33  O   UNL     1     -13.362  11.998  64.193  1.00  0.00    -0.725 OA 
ENDBRANCH  30  31
ENDBRANCH  29  30
ENDBRANCH  27  29
ENDBRANCH   5  27
TORSDOF 4
ENDMDL
MODEL        2
REMARK 921   NORMALIZED FREE ENERGY PREDICTED BY IDOCK:   -7.47 KCAL/MOL
REMARK 922        TOTAL FREE ENERGY PREDICTED BY IDOCK:   -9.03 KCAL/MOL
REMARK 923 INTER-LIGAND FREE ENERGY PREDICTED BY IDOCK:   -9.23 KCAL/MOL
REMARK 924 INTRA-LIGAND FREE ENERGY PREDICTED BY IDOCK:    0.20 KCAL/MOL
REMARK 927      BINDING AFFINITY PREDICTED BY RF-SCORE:    0.00 PKD
ROOT
HETATM    1  C   UNL     1     -10.116   9.672  66.165  1.00  0.00    -0.328 C  
HETATM    2  C   UNL     1      -9.145   9.588  65.166  1.00  0.00    -0.281 C  
HETATM    3  C   UNL     1      -8.689  10.249  66.432  1.00  0.00    -0.144 C  
HETATM    4  C   UNL     1      -7.213  10.675  65.734  1.00  0.00    -0.104 C  
HETATM    5  C   UNL     1      -9.928   9.935  68.072  1.00  0.00    -0.152 C  
HETATM    6  C   UNL     1     -11.591  14.211  67.730  1.00  0.00    -0.379 C  
HETATM    7  O   UNL     1     -11.139   9.047  67.951  1.00  0.00    -0.506 OA 
HETATM    8  C   UNL     1      -8.841   9.290  67.585  1.00  0.00    -0.122 C  
HETATM    9  C   UNL     1      -8.079  10.775  68.468  1.00  0.00    -0.133 C  
HETATM   10  H   UNL     1     -11.705   8.903  68.700  1.00  0.00     0.000 HD 
HETATM   11  C   UNL     1     -10.470  14.032  66.722  1.00  0.00    -0.277 C  
HETATM   12  C   UNL     1      -9.271  15.041  66.871  1.00  0.00    -0.265 C  
HETATM   13  C   UNL     1      -8.497   7.830  67.733  1.00  0.00    -0.121 C  
HETATM   14  O   UNL     1     -10.871  17.493  65.609  1.00  0.00    -0.356 OA 
HETATM   15  C   UNL     1      -9.100  12.226  68.306  1.00  0.00    -0.187 C  
HETATM   16  C   UNL     1      -9.068  15.995  65.947  1.00  0.00    -0.292 C  
HETATM   17  C   UNL     1      -9.855  12.603  66.835  1.00  0.00    -0.234 C  
HETATM   18  O   UNL     1     -10.114  12.130  69.322  1.00  0.00    -0.403 OA 
HETATM   19  H   UNL     1     -10.659  12.903  69.236  1.00  0.00     0.000 HD 
HETATM   20  C   UNL     1     -10.813  11.355  66.210  1.00  0.00    -0.318 C  
HETATM   21  C   UNL     1     -10.331  16.427  65.348  1.00  0.00    -0.262 C  
HETATM   22  C   UNL     1     -10.987  15.355  64.620  1.00  0.00    -0.333 C  
HETATM   23  C   UNL     1     -11.283  11.738  64.798  1.00  0.00    -0.333 C  
HETATM   24  C   UNL     1     -11.949  13.099  64.749  1.00  0.00    -0.388 C  
HETATM   25  C   UNL     1     -11.098  14.203  65.306  1.00  0.00    -0.331 C  
HETATM   26  F   UNL     1     -12.268  13.347  63.445  1.00  0.00    -0.551 F  
ENDROOT
BRANCH   5  27
HETATM   27  C   UNL     1      -9.814   9.365  69.786  1.00  0.00    -0.201 C  
HETATM   28  O   UNL     1      -8.740   9.095  70.351  1.00  0.00    -0.173 OA 
BRANCH  27  29
HETATM   29  C   UNL     1     -11.097   9.061  70.681  1.00  0.00    -0.265 C  
BRANCH  29  30
HETATM   30  O   UNL     1     -12.046  10.256  70.642  1.00  0.00    -0.291 OA 
BRANCH  30  31
HETATM   31  C   UNL     1     -12.918  10.492  71.668  1.00  0.00    -0.476 C  
HETATM   32  C   UNL     1     -13.447   9.138  72.222  1.00  0.00    -0.546 C  
HETATM   33  O   UNL     1     -13.311  11.555  72.013  1.00  0.00    -0.476 OA 
ENDBRANCH  30  31
ENDBRANCH  29  30
ENDBRANCH  27  29
ENDBRANCH   5  27
TORSDOF 4
ENDMDL
MODEL        3
REMARK 921   NORMALIZED FREE ENERGY PREDICTED BY IDOCK:   -7.17 KCAL/MOL
REMARK 922        TOTAL FREE ENERGY PREDICTED BY IDOCK:   -8.65 KCAL/MOL
REMARK 923 INTER-LIGAND FREE ENERGY PREDICTED BY IDOCK:   -8.76 KCAL/MOL
REMARK 924 INTRA-LIGAND FREE ENERGY PREDICTED BY IDOCK:    0.11 KCAL/MOL
REMARK 927      BINDING AFFINITY PREDICTED BY RF-SCORE:    0.00 PKD
ROOT
HETATM    1  C   UNL     1     -10.225   9.765  66.098  1.00  0.00    -0.278 C  
HETATM    2  C   UNL     1      -9.249   9.659  65.105  1.00  0.00    -0.305 C  
HETATM    3  C   UNL     1      -8.779  10.283  66.385  1.00  0.00    -0.144 C  
HETATM    4  C   UNL     1      -7.282  10.663  65.705  1.00  0.00    -0.104 C  
HETATM    5  C   UNL     1     -10.043   9.993  68.009  1.00  0.00    -0.167 C  
HETATM    6  C   UNL     1     -11.540  14.333  67.719  1.00  0.00    -0.383 C  
HETATM    7  O   UNL     1     -11.286   9.153  67.866  1.00  0.00    -0.494 OA 
HETATM    8  C   UNL     1      -8.977   9.314  67.522  1.00  0.00    -0.127 C  
HETATM    9  C   UNL     1      -8.167  10.756  68.433  1.00  0.00    -0.129 C  
HETATM   10  H   UNL     1     -11.863   9.020  68.608  1.00  0.00     0.000 HD 
HETATM   11  C   UNL     1     -10.417  14.127  66.717  1.00  0.00    -0.277 C  
HETATM   12  C   UNL     1      -9.183  15.087  66.891  1.00  0.00    -0.265 C  
HETATM   13  C   UNL     1      -8.690   7.840  67.651  1.00  0.00    -0.126 C  
HETATM   14  O   UNL     1     -10.677  17.617  65.653  1.00  0.00    -0.495 OA 
HETATM   15  C   UNL     1      -9.130  12.247  68.285  1.00  0.00    -0.187 C  
HETATM   16  C   UNL     1      -8.935  16.047  65.982  1.00  0.00    -0.345 C  
HETATM   17  C   UNL     1      -9.858  12.674  66.813  1.00  0.00    -0.236 C  
HETATM   18  O   UNL     1     -10.156  12.174  69.291  1.00  0.00    -0.403 OA 
HETATM   19  H   UNL     1     -10.670  12.969  69.212  1.00  0.00     0.000 HD 
HETATM   20  C   UNL     1     -10.858  11.473  66.163  1.00  0.00    -0.330 C  
HETATM   21  C   UNL     1     -10.176  16.535  65.380  1.00  0.00    -0.148 C  
HETATM   22  C   UNL     1     -10.866  15.499  64.631  1.00  0.00    -0.277 C  
HETATM   23  C   UNL     1     -11.300  11.894  64.752  1.00  0.00    -0.344 C  
HETATM   24  C   UNL     1     -11.914  13.279  64.719  1.00  0.00    -0.388 C  
HETATM   25  C   UNL     1     -11.027  14.342  65.299  1.00  0.00    -0.355 C  
HETATM   26  F   UNL     1     -12.212  13.559  63.416  1.00  0.00    -0.551 F  
ENDROOT
BRANCH   5  27
HETATM   27  C   UNL     1      -9.965   9.394  69.716  1.00  0.00    -0.200 C  
HETATM   28  O   UNL     1      -8.993   9.584  70.468  1.00  0.00    -0.242 OA 
BRANCH  27  29
HETATM   29  C   UNL     1     -11.098   8.478  70.361  1.00  0.00    -0.231 C  
BRANCH  29  30
HETATM   30  O   UNL     1     -10.544   7.081  70.622  1.00  0.00    -0.218 OA 
BRANCH  30  31
HETATM   31  C   UNL     1     -10.818   6.047  69.769  1.00  0.00    -0.363 C  
HETATM   32  C   UNL     1     -10.136   4.750  70.289  1.00  0.00    -0.304 C  
HETATM   33  O   UNL     1     -11.383   6.137  68.731  1.00  0.00    -0.344 OA 
ENDBRANCH  30  31
ENDBRANCH  29  30
ENDBRANCH  27  29
ENDBRANCH   5  27
TORSDOF 4
ENDMDL
MODEL        4
REMARK 921   NORMALIZED FREE ENERGY PREDICTED BY IDOCK:   -7.14 KCAL/MOL
REMARK 922        TOTAL FREE ENERGY PREDICTED BY IDOCK:   -8.61 KCAL/MOL
REMARK 923 INTER-LIGAND FREE ENERGY PREDICTED BY IDOCK:   -8.79 KCAL/MOL
REMARK 924 INTRA-LIGAND FREE ENERGY PREDICTED BY IDOCK:    0.17 KCAL/MOL
REMARK 927      BINDING AFFINITY PREDICTED BY RF-SCORE:    0.00 PKD
ROOT
HETATM    1  C   UNL     1     -10.215   9.651  65.914  1.00  0.00    -0.219 C  
HETATM    2  C   UNL     1      -9.256   9.599  64.901  1.00  0.00    -0.306 C  
HETATM    3  C   UNL     1      -8.763  10.149  66.206  1.00  0.00    -0.152 C  
HETATM    4  C   UNL     1      -7.276  10.563  65.525  1.00  0.00    -0.103 C  
HETATM    5  C   UNL     1     -10.002   9.772  67.832  1.00  0.00    -0.163 C  
HETATM    6  C   UNL     1     -11.490  14.125  67.808  1.00  0.00    -0.352 C  
HETATM    7  O   UNL     1     -11.250   8.944  67.662  1.00  0.00    -0.424 OA 
HETATM    8  C   UNL     1      -8.947   9.119  67.291  1.00  0.00    -0.136 C  
HETATM    9  C   UNL     1      -8.117  10.506  68.267  1.00  0.00    -0.115 C  
HETATM   10  H   UNL     1     -11.816   8.771  68.405  1.00  0.00     0.000 HD 
HETATM   11  C   UNL     1     -10.384  13.972  66.778  1.00  0.00    -0.271 C  
HETATM   12  C   UNL     1      -9.144  14.918  66.986  1.00  0.00    -0.255 C  
HETATM   13  C   UNL     1      -8.662   7.639  67.333  1.00  0.00    -0.124 C  
HETATM   14  O   UNL     1     -10.650  17.517  65.915  1.00  0.00    -0.388 OA 
HETATM   15  C   UNL     1      -9.078  12.005  68.218  1.00  0.00    -0.190 C  
HETATM   16  C   UNL     1      -8.908  15.927  66.129  1.00  0.00    -0.363 C  
HETATM   17  C   UNL     1      -9.828  12.515  66.785  1.00  0.00    -0.232 C  
HETATM   18  O   UNL     1     -10.088  11.878  69.235  1.00  0.00    -0.414 OA 
HETATM   19  H   UNL     1     -10.601  12.677  69.209  1.00  0.00     0.000 HD 
HETATM   20  C   UNL     1     -10.842  11.354  66.084  1.00  0.00    -0.310 C  
HETATM   21  C   UNL     1     -10.156  16.450  65.575  1.00  0.00    -0.208 C  
HETATM   22  C   UNL     1     -10.862  15.460  64.780  1.00  0.00    -0.385 C  
HETATM   23  C   UNL     1     -11.305  11.854  64.707  1.00  0.00    -0.344 C  
HETATM   24  C   UNL     1     -11.915  13.241  64.761  1.00  0.00    -0.388 C  
HETATM   25  C   UNL     1     -11.016  14.268  65.385  1.00  0.00    -0.335 C  
HETATM   26  F   UNL     1     -12.233  13.594  63.480  1.00  0.00    -0.524 F  
ENDROOT
BRANCH   5  27
HETATM   27  C   UNL     1      -9.899   9.078  69.502  1.00  0.00    -0.180 C  
HETATM   28  O   UNL     1      -9.005   9.372  70.314  1.00  0.00    -0.204 OA 
BRANCH  27  29
HETATM   29  C   UNL     1     -10.891   7.948  70.028  1.00  0.00    -0.238 C  
BRANCH  29  30
HETATM   30  O   UNL     1     -12.136   8.595  70.628  1.00  0.00    -0.144 OA 
BRANCH  30  31
HETATM   31  C   UNL     1     -12.417   8.471  71.960  1.00  0.00    -0.363 C  
HETATM   32  C   UNL     1     -13.840   9.030  72.246  1.00  0.00    -0.547 C  
HETATM   33  O   UNL     1     -11.660   8.108  72.797  1.00  0.00    -0.411 OA 
ENDBRANCH  30  31
ENDBRANCH  29  30
ENDBRANCH  27  29
ENDBRANCH   5  27
TORSDOF 4
ENDMDL
MODEL        5
REMARK 921   NORMALIZED FREE ENERGY PREDICTED BY IDOCK:   -6.94 KCAL/MOL
REMARK 922        TOTAL FREE ENERGY PREDICTED BY IDOCK:   -8.37 KCAL/MOL
REMARK 923 INTER-LIGAND FREE ENERGY PREDICTED BY IDOCK:   -8.72 KCAL/MOL
REMARK 924 INTRA-LIGAND FREE ENERGY PREDICTED BY IDOCK:    0.35 KCAL/MOL
REMARK 927      BINDING AFFINITY PREDICTED BY RF-SCORE:    0.00 PKD
ROOT
HETATM    1  C   UNL     1      -8.816  14.881  67.973  1.00  0.00    -0.167 C  
HETATM    2  C   UNL     1      -8.629  15.148  66.616  1.00  0.00    -0.279 C  
HETATM    3  C   UNL     1      -9.966  14.566  66.964  1.00  0.00    -0.255 C  
HETATM    4  C   UNL     1     -10.380  14.418  65.335  1.00  0.00    -0.400 C  
HETATM    5  C   UNL     1     -10.444  14.635  68.986  1.00  0.00    -0.246 C  
HETATM    6  C   UNL     1      -9.593  10.135  69.420  1.00  0.00    -0.249 C  
HETATM    7  O   UNL     1      -9.509  15.294  69.967  1.00  0.00    -0.451 OA 
HETATM    8  C   UNL     1     -10.671  15.469  67.944  1.00  0.00    -0.294 C  
HETATM    9  C   UNL     1     -11.983  14.135  67.697  1.00  0.00    -0.405 C  
HETATM   10  H   UNL     1      -9.728  15.326  70.891  1.00  0.00     0.000 HD 
HETATM   11  C   UNL     1      -9.483  10.523  67.956  1.00  0.00    -0.157 C  
HETATM   12  C   UNL     1     -10.445   9.742  66.985  1.00  0.00    -0.295 C  
HETATM   13  C   UNL     1     -10.848  16.966  67.986  1.00  0.00    -0.338 C  
HETATM   14  O   UNL     1      -8.727   7.058  67.060  1.00  0.00    -0.119 OA 
HETATM   15  C   UNL     1     -11.377  12.526  68.165  1.00  0.00    -0.295 C  
HETATM   16  C   UNL     1      -9.950   8.850  66.111  1.00  0.00    -0.290 C  
HETATM   17  C   UNL     1      -9.803  12.037  67.765  1.00  0.00    -0.190 C  
HETATM   18  O   UNL     1     -11.531  12.429  69.592  1.00  0.00    -0.389 OA 
HETATM   19  H   UNL     1     -11.207  11.572  69.842  1.00  0.00     0.000 HD 
HETATM   20  C   UNL     1      -8.594  13.100  68.289  1.00  0.00    -0.166 C  
HETATM   21  C   UNL     1      -8.747   8.206  66.639  1.00  0.00    -0.139 C  
HETATM   22  C   UNL     1      -7.663   9.151  66.841  1.00  0.00    -0.098 C  
HETATM   23  C   UNL     1      -7.244  12.655  67.707  1.00  0.00    -0.127 C  
HETATM   24  C   UNL     1      -6.934  11.198  67.988  1.00  0.00    -0.068 C  
HETATM   25  C   UNL     1      -8.009  10.258  67.525  1.00  0.00    -0.106 C  
HETATM   26  F   UNL     1      -5.747  10.911  67.377  1.00  0.00    -0.043 F  
ENDROOT
BRANCH   5  27
HETATM   27  C   UNL     1     -11.792  15.197  70.057  1.00  0.00    -0.325 C  
HETATM   28  O   UNL     1     -12.995  15.031  69.793  1.00  0.00    -0.002 OA 
BRANCH  27  29
HETATM   29  C   UNL     1     -11.542  16.051  71.379  1.00  0.00    -0.455 C  
BRANCH  29  30
HETATM   30  O   UNL     1     -12.789  16.014  72.258  1.00  0.00    -0.452 OA 
BRANCH  30  31
HETATM   31  C   UNL     1     -12.934  15.064  73.230  1.00  0.00    -0.525 C  
HETATM   32  C   UNL     1     -12.302  15.576  74.556  1.00  0.00    -0.756 C  
HETATM   33  O   UNL     1     -13.363  13.970  73.072  1.00  0.00    -0.641 OA 
ENDBRANCH  30  31
ENDBRANCH  29  30
ENDBRANCH  27  29
ENDBRANCH   5  27
TORSDOF 4
ENDMDL
MODEL        6
REMARK 921   NORMALIZED FREE ENERGY PREDICTED BY IDOCK:   -6.57 KCAL/MOL
REMARK 922        TOTAL FREE ENERGY PREDICTED BY IDOCK:   -7.91 KCAL/MOL
REMARK 923 INTER-LIGAND FREE ENERGY PREDICTED BY IDOCK:   -7.98 KCAL/MOL
REMARK 924 INTRA-LIGAND FREE ENERGY PREDICTED BY IDOCK:    0.07 KCAL/MOL
REMARK 927      BINDING AFFINITY PREDICTED BY RF-SCORE:    0.00 PKD
ROOT
HETATM    1  C   UNL     1      -9.673  13.721  68.064  1.00  0.00    -0.232 C  
HETATM    2  C   UNL     1     -10.417  13.915  69.229  1.00  0.00    -0.001 C  
HETATM    3  C   UNL     1     -10.988  14.562  68.003  1.00  0.00    -0.269 C  
HETATM    4  C   UNL     1     -12.182  15.336  68.910  1.00  0.00    -0.132 C  
HETATM    5  C   UNL     1     -10.193  13.878  66.208  1.00  0.00    -0.297 C  
HETATM    6  C   UNL     1      -7.713  17.726  65.751  1.00  0.00     0.005 C  
HETATM    7  O   UNL     1      -9.174  12.767  66.202  1.00  0.00    -0.414 OA 
HETATM    8  C   UNL     1     -11.260  13.511  66.957  1.00  0.00    -0.330 C  
HETATM    9  C   UNL     1     -11.890  15.054  66.070  1.00  0.00    -0.016 C  
HETATM   10  H   UNL     1      -8.811  12.454  65.382  1.00  0.00     0.000 HD 
HETATM   11  C   UNL     1      -8.618  17.859  66.964  1.00  0.00    -0.248 C  
HETATM   12  C   UNL     1      -9.608  19.082  66.926  1.00  0.00    -0.364 C  
HETATM   13  C   UNL     1     -11.898  12.148  67.041  1.00  0.00    -0.288 C  
HETATM   14  O   UNL     1      -7.347  21.232  67.585  1.00  0.00    -0.382 OA 
HETATM   15  C   UNL     1     -10.601  16.268  65.875  1.00  0.00    -0.297 C  
HETATM   16  C   UNL     1      -9.433  20.123  67.759  1.00  0.00    -0.479 C  
HETATM   17  C   UNL     1      -9.503  16.585  67.129  1.00  0.00    -0.246 C  
HETATM   18  O   UNL     1      -9.853  15.888  64.706  1.00  0.00    -0.157 OA 
HETATM   19  H   UNL     1      -9.165  16.535  64.601  1.00  0.00     0.000 HD 
HETATM   20  C   UNL     1      -8.693  15.214  67.701  1.00  0.00    -0.177 C  
HETATM   21  C   UNL     1      -8.015  20.324  68.060  1.00  0.00    -0.137 C  
HETATM   22  C   UNL     1      -7.440  19.195  68.770  1.00  0.00    -0.379 C  
HETATM   23  C   UNL     1      -7.880  15.592  68.949  1.00  0.00    -0.186 C  
HETATM   24  C   UNL     1      -6.972  16.784  68.720  1.00  0.00    -0.197 C  
HETATM   25  C   UNL     1      -7.693  17.998  68.209  1.00  0.00    -0.285 C  
HETATM   26  F   UNL     1      -6.352  17.055  69.906  1.00  0.00    -0.226 F  
ENDROOT
BRANCH   5  27
HETATM   27  C   UNL     1     -10.762  13.221  64.620  1.00  0.00    -0.400 C  
HETATM   28  O   UNL     1     -11.836  13.546  64.086  1.00  0.00    -0.409 OA 
BRANCH  27  29
HETATM   29  C   UNL     1      -9.974  12.086  63.825  1.00  0.00    -0.343 C  
BRANCH  29  30
HETATM   30  O   UNL     1     -10.474  10.712  64.262  1.00  0.00    -0.349 OA 
BRANCH  30  31
HETATM   31  C   UNL     1      -9.594   9.729  64.623  1.00  0.00    -0.174 C  
HETATM   32  C   UNL     1      -9.868   9.301  66.094  1.00  0.00    -0.363 C  
HETATM   33  O   UNL     1      -8.685   9.339  63.970  1.00  0.00    -0.205 OA 
ENDBRANCH  30  31
ENDBRANCH  29  30
ENDBRANCH  27  29
ENDBRANCH   5  27
TORSDOF 4
ENDMDL
MODEL        7
REMARK 921   NORMALIZED FREE ENERGY PREDICTED BY IDOCK:   -6.52 KCAL/MOL
REMARK 922        TOTAL FREE ENERGY PREDICTED BY IDOCK:   -7.86 KCAL/MOL
REMARK 923 INTER-LIGAND FREE ENERGY PREDICTED BY IDOCK:   -8.01 KCAL/MOL
REMARK 924 INTRA-LIGAND FREE ENERGY PREDICTED BY IDOCK:    0.16 KCAL/MOL
REMARK 927      BINDING AFFINITY PREDICTED BY RF-SCORE:    0.00 PKD
ROOT
HETATM    1  C   UNL     1      -7.802  12.106  67.375  1.00  0.00    -0.168 C  
HETATM    2  C   UNL     1      -7.130  11.697  68.528  1.00  0.00    -0.089 C  
HETATM    3  C   UNL     1      -8.454  11.031  68.303  1.00  0.00    -0.138 C  
HETATM    4  C   UNL     1      -8.380  10.268  69.806  1.00  0.00    -0.099 C  
HETATM    5  C   UNL     1      -9.217  11.241  66.380  1.00  0.00    -0.192 C  
HETATM    6  C   UNL     1     -12.267  14.357  67.848  1.00  0.00    -0.178 C  
HETATM    7  O   UNL     1      -8.422  11.959  65.320  1.00  0.00    -0.092 OA 
HETATM    8  C   UNL     1      -8.438  10.309  66.979  1.00  0.00    -0.129 C  
HETATM    9  C   UNL     1     -10.165   9.862  67.597  1.00  0.00    -0.255 C  
HETATM   10  H   UNL     1      -8.770  12.055  64.442  1.00  0.00     0.000 HD 
HETATM   11  C   UNL     1     -11.519  13.792  69.043  1.00  0.00    -0.349 C  
HETATM   12  C   UNL     1     -12.426  13.117  70.139  1.00  0.00    -0.192 C  
HETATM   13  C   UNL     1      -7.410   9.417  66.331  1.00  0.00    -0.093 C  
HETATM   14  O   UNL     1     -13.484  15.888  71.307  1.00  0.00    -0.499 OA 
HETATM   15  C   UNL     1     -11.160  11.315  67.867  1.00  0.00    -0.267 C  
HETATM   16  C   UNL     1     -12.585  13.697  71.341  1.00  0.00    -0.415 C  
HETATM   17  C   UNL     1     -10.501  12.702  68.587  1.00  0.00    -0.224 C  
HETATM   18  O   UNL     1     -11.702  11.685  66.586  1.00  0.00    -0.523 OA 
HETATM   19  H   UNL     1     -12.232  12.460  66.730  1.00  0.00     0.000 HD 
HETATM   20  C   UNL     1      -9.116  13.291  67.813  1.00  0.00    -0.202 C  
HETATM   21  C   UNL     1     -12.507  15.155  71.236  1.00  0.00    -0.344 C  
HETATM   22  C   UNL     1     -11.200  15.604  70.790  1.00  0.00    -0.396 C  
HETATM   23  C   UNL     1      -8.506  14.420  68.659  1.00  0.00    -0.156 C  
HETATM   24  C   UNL     1      -9.511  15.499  69.010  1.00  0.00    -0.242 C  
HETATM   25  C   UNL     1     -10.740  14.974  69.693  1.00  0.00    -0.270 C  
HETATM   26  F   UNL     1      -8.870  16.408  69.802  1.00  0.00    -0.073 F  
ENDROOT
BRANCH   5  27
HETATM   27  C   UNL     1      -9.864  10.207  65.042  1.00  0.00    -0.322 C  
HETATM   28  O   UNL     1     -10.025   8.978  65.139  1.00  0.00     0.249 OA 
BRANCH  27  29
HETATM   29  C   UNL     1     -10.180  10.778  63.588  1.00  0.00    -0.261 C  
BRANCH  29  30
HETATM   30  O   UNL     1     -10.607  12.239  63.690  1.00  0.00    -0.408 OA 
BRANCH  30  31
HETATM   31  C   UNL     1     -11.929  12.586  63.666  1.00  0.00    -0.537 C  
HETATM   32  C   UNL     1     -12.084  14.076  64.085  1.00  0.00    -0.456 C  
HETATM   33  O   UNL     1     -12.836  11.846  63.474  1.00  0.00    -0.691 OA 
ENDBRANCH  30  31
ENDBRANCH  29  30
ENDBRANCH  27  29
ENDBRANCH   5  27
TORSDOF 4
ENDMDL
MODEL        8
REMARK 921   NORMALIZED FREE ENERGY PREDICTED BY IDOCK:   -6.47 KCAL/MOL
REMARK 922        TOTAL FREE ENERGY PREDICTED BY IDOCK:   -7.79 KCAL/MOL
REMARK 923 INTER-LIGAND FREE ENERGY PREDICTED BY IDOCK:   -8.12 KCAL/MOL
REMARK 924 INTRA-LIGAND FREE ENERGY PREDICTED BY IDOCK:    0.33 KCAL/MOL
REMARK 927      BINDING AFFINITY PREDICTED BY RF-SCORE:    0.00 PKD
ROOT
HETATM    1  C   UNL     1      -9.925  12.816  64.266  1.00  0.00    -0.176 C  
HETATM    2  C   UNL     1     -10.749  12.315  63.257  1.00  0.00    -0.335 C  
HETATM    3  C   UNL     1     -11.363  12.324  64.625  1.00  0.00    -0.375 C  
HETATM    4  C   UNL     1     -12.720  11.486  64.073  1.00  0.00     0.167 C  
HETATM    5  C   UNL     1     -10.369  13.507  66.016  1.00  0.00    -0.303 C  
HETATM    6  C   UNL     1      -8.591   9.774  68.033  1.00  0.00    -0.122 C  
HETATM    7  O   UNL     1      -9.171  14.322  65.604  1.00  0.00    -0.493 OA 
HETATM    8  C   UNL     1     -11.391  13.734  65.157  1.00  0.00    -0.317 C  
HETATM    9  C   UNL     1     -12.238  12.813  66.571  1.00  0.00    -0.198 C  
HETATM   10  H   UNL     1      -8.717  14.863  66.240  1.00  0.00     0.000 HD 
HETATM   11  C   UNL     1      -9.565   9.338  66.952  1.00  0.00    -0.229 C  
HETATM   12  C   UNL     1     -10.753   8.433  67.451  1.00  0.00    -0.225 C  
HETATM   13  C   UNL     1     -11.781  15.044  64.520  1.00  0.00    -0.372 C  
HETATM   14  O   UNL     1      -8.945   5.825  67.761  1.00  0.00    -0.110 OA 
HETATM   15  C   UNL     1     -11.177  11.563  67.266  1.00  0.00    -0.301 C  
HETATM   16  C   UNL     1     -10.807   7.135  67.108  1.00  0.00    -0.403 C  
HETATM   17  C   UNL     1     -10.218  10.580  66.271  1.00  0.00    -0.296 C  
HETATM   18  O   UNL     1     -10.315  12.233  68.204  1.00  0.00    -0.203 OA 
HETATM   19  H   UNL     1      -9.748  11.566  68.575  1.00  0.00     0.000 HD 
HETATM   20  C   UNL     1      -9.207  11.438  65.219  1.00  0.00    -0.146 C  
HETATM   21  C   UNL     1      -9.465   6.575  66.947  1.00  0.00    -0.152 C  
HETATM   22  C   UNL     1      -8.736   7.204  65.859  1.00  0.00    -0.146 C  
HETATM   23  C   UNL     1      -8.539  10.454  64.246  1.00  0.00    -0.190 C  
HETATM   24  C   UNL     1      -7.846   9.307  64.954  1.00  0.00    -0.116 C  
HETATM   25  C   UNL     1      -8.743   8.550  65.889  1.00  0.00    -0.203 C  
HETATM   26  F   UNL     1      -7.345   8.479  63.991  1.00  0.00    -0.091 F  
ENDROOT
BRANCH   5  27
HETATM   27  C   UNL     1     -10.731  14.832  67.196  1.00  0.00    -0.299 C  
HETATM   28  O   UNL     1     -11.799  14.918  67.827  1.00  0.00    -0.345 OA 
BRANCH  27  29
HETATM   29  C   UNL     1      -9.746  16.060  67.441  1.00  0.00    -0.232 C  
BRANCH  29  30
HETATM   30  O   UNL     1     -10.553  17.348  67.575  1.00  0.00    -0.356 OA 
BRANCH  30  31
HETATM   31  C   UNL     1     -10.433  18.349  66.652  1.00  0.00    -0.385 C  
HETATM   32  C   UNL     1     -10.528  19.728  67.365  1.00  0.00    -0.577 C  
HETATM   33  O   UNL     1     -10.385  18.205  65.476  1.00  0.00    -0.589 OA 
ENDBRANCH  30  31
ENDBRANCH  29  30
ENDBRANCH  27  29
ENDBRANCH   5  27
TORSDOF 4
ENDMDL
MODEL        9
REMARK 921   NORMALIZED FREE ENERGY PREDICTED BY IDOCK:   -6.47 KCAL/MOL
REMARK 922        TOTAL FREE ENERGY PREDICTED BY IDOCK:   -7.79 KCAL/MOL
REMARK 923 INTER-LIGAND FREE ENERGY PREDICTED BY IDOCK:   -8.24 KCAL/MOL
REMARK 924 INTRA-LIGAND FREE ENERGY PREDICTED BY IDOCK:    0.45 KCAL/MOL
REMARK 927      BINDING AFFINITY PREDICTED BY RF-SCORE:    0.00 PKD
ROOT
HETATM    1  C   UNL     1     -11.469  13.868  67.820  1.00  0.00    -0.354 C  
HETATM    2  C   UNL     1     -11.940  14.207  66.550  1.00  0.00    -0.466 C  
HETATM    3  C   UNL     1     -10.582  13.572  66.568  1.00  0.00    -0.281 C  
HETATM    4  C   UNL     1     -10.378  13.851  64.916  1.00  0.00    -0.430 C  
HETATM    5  C   UNL     1     -10.091  12.619  68.349  1.00  0.00    -0.222 C  
HETATM    6  C   UNL     1      -7.289  16.075  69.518  1.00  0.00    -0.146 C  
HETATM    7  O   UNL     1     -11.092  12.545  69.473  1.00  0.00    -0.447 OA 
HETATM    8  C   UNL     1     -10.671  12.206  67.197  1.00  0.00    -0.267 C  
HETATM    9  C   UNL     1      -8.840  12.258  66.741  1.00  0.00    -0.195 C  
HETATM   10  H   UNL     1     -10.868  12.108  70.287  1.00  0.00     0.000 HD 
HETATM   11  C   UNL     1      -7.811  16.312  68.111  1.00  0.00    -0.156 C  
HETATM   12  C   UNL     1      -6.701  16.445  67.002  1.00  0.00    -0.239 C  
HETATM   13  C   UNL     1     -11.653  11.076  67.016  1.00  0.00     0.135 C  
HETATM   14  O   UNL     1      -5.856  19.394  67.868  1.00  0.00    -0.198 OA 
HETATM   15  C   UNL     1      -8.005  13.613  67.542  1.00  0.00    -0.182 C  
HETATM   16  C   UNL     1      -6.469  17.630  66.412  1.00  0.00    -0.272 C  
HETATM   17  C   UNL     1      -8.736  15.138  67.665  1.00  0.00    -0.177 C  
HETATM   18  O   UNL     1      -7.673  13.163  68.868  1.00  0.00    -0.292 OA 
HETATM   19  H   UNL     1      -7.228  13.885  69.296  1.00  0.00     0.000 HD 
HETATM   20  C   UNL     1     -10.267  15.115  68.387  1.00  0.00    -0.221 C  
HETATM   21  C   UNL     1      -6.737  18.737  67.331  1.00  0.00    -0.202 C  
HETATM   22  C   UNL     1      -8.133  18.798  67.724  1.00  0.00    -0.276 C  
HETATM   23  C   UNL     1     -10.903  16.509  68.268  1.00  0.00    -0.352 C  
HETATM   24  C   UNL     1     -10.002  17.612  68.789  1.00  0.00    -0.358 C  
HETATM   25  C   UNL     1      -8.644  17.628  68.150  1.00  0.00    -0.261 C  
HETATM   26  F   UNL     1     -10.648  18.796  68.579  1.00  0.00    -0.366 F  
ENDROOT
BRANCH   5  27
HETATM   27  C   UNL     1      -9.491  11.009  68.920  1.00  0.00    -0.155 C  
HETATM   28  O   UNL     1      -8.300  10.658  68.859  1.00  0.00    -0.134 OA 
BRANCH  27  29
HETATM   29  C   UNL     1     -10.464   9.866  69.453  1.00  0.00    -0.231 C  
BRANCH  29  30
HETATM   30  O   UNL     1     -10.699  10.047  70.950  1.00  0.00    -0.300 OA 
BRANCH  30  31
HETATM   31  C   UNL     1     -11.966  10.055  71.464  1.00  0.00    -0.353 C  
HETATM   32  C   UNL     1     -12.281   8.667  72.092  1.00  0.00    -0.453 C  
HETATM   33  O   UNL     1     -12.755  10.933  71.351  1.00  0.00    -0.391 OA 
ENDBRANCH  30  31
ENDBRANCH  29  30
ENDBRANCH  27  29
ENDBRANCH   5  27
TORSDOF 4
ENDMDL
MODEL       10
REMARK 921   NORMALIZED FREE ENERGY PREDICTED BY IDOCK:   -6.42 KCAL/MOL
REMARK 922        TOTAL FREE ENERGY PREDICTED BY IDOCK:   -7.73 KCAL/MOL
REMARK 923 INTER-LIGAND FREE ENERGY PREDICTED BY IDOCK:   -7.95 KCAL/MOL
REMARK 924 INTRA-LIGAND FREE ENERGY PREDICTED BY IDOCK:    0.22 KCAL/MOL
REMARK 927      BINDING AFFINITY PREDICTED BY RF-SCORE:    0.00 PKD
ROOT
HETATM    1  C   UNL     1      -8.376  12.194  68.169  1.00  0.00    -0.170 C  
HETATM    2  C   UNL     1      -7.527  11.772  67.145  1.00  0.00    -0.149 C  
HETATM    3  C   UNL     1      -8.987  11.556  66.881  1.00  0.00    -0.179 C  
HETATM    4  C   UNL     1      -8.653  10.701  65.465  1.00  0.00    -0.191 C  
HETATM    5  C   UNL     1     -10.263  12.613  68.136  1.00  0.00    -0.240 C  
HETATM    6  C   UNL     1     -11.240   8.785  70.494  1.00  0.00    -0.278 C  
HETATM    7  O   UNL     1      -9.704  13.561  69.166  1.00  0.00    -0.395 OA 
HETATM    8  C   UNL     1      -9.710  12.877  66.929  1.00  0.00    -0.240 C  
HETATM    9  C   UNL     1     -11.134  11.719  66.486  1.00  0.00    -0.364 C  
HETATM   10  H   UNL     1     -10.287  14.044  69.740  1.00  0.00     0.000 HD 
HETATM   11  C   UNL     1     -10.367   8.427  69.304  1.00  0.00    -0.220 C  
HETATM   12  C   UNL     1     -10.993   7.380  68.309  1.00  0.00     0.006 C  
HETATM   13  C   UNL     1      -9.380  14.228  66.345  1.00  0.00    -0.270 C  
HETATM   14  O   UNL     1     -10.487   4.892  70.238  1.00  0.00    -0.234 OA 
HETATM   15  C   UNL     1     -11.371  10.468  67.733  1.00  0.00    -0.190 C  
HETATM   16  C   UNL     1     -10.487   6.138  68.223  1.00  0.00    -0.284 C  
HETATM   17  C   UNL     1     -10.046   9.697  68.458  1.00  0.00    -0.195 C  
HETATM   18  O   UNL     1     -12.167  11.068  68.769  1.00  0.00    -0.693 OA 
HETATM   19  H   UNL     1     -12.294  10.402  69.435  1.00  0.00     0.000 HD 
HETATM   20  C   UNL     1      -8.923  10.758  69.149  1.00  0.00    -0.100 C  
HETATM   21  C   UNL     1      -9.935   5.704  69.507  1.00  0.00    -0.198 C  
HETATM   22  C   UNL     1      -8.811   6.522  69.926  1.00  0.00    -0.143 C  
HETATM   23  C   UNL     1      -7.687   9.962  69.599  1.00  0.00    -0.149 C  
HETATM   24  C   UNL     1      -8.038   8.785  70.488  1.00  0.00    -0.124 C  
HETATM   25  C   UNL     1      -9.037   7.848  69.874  1.00  0.00    -0.146 C  
HETATM   26  F   UNL     1      -6.874   8.130  70.771  1.00  0.00    -0.037 F  
ENDROOT
BRANCH   5  27
HETATM   27  C   UNL     1     -11.675  13.741  68.020  1.00  0.00    -0.355 C  
HETATM   28  O   UNL     1     -12.334  13.913  66.981  1.00  0.00    -0.391 OA 
BRANCH  27  29
HETATM   29  C   UNL     1     -12.121  14.689  69.221  1.00  0.00    -0.272 C  
BRANCH  29  30
HETATM   30  O   UNL     1     -12.217  13.877  70.509  1.00  0.00    -0.330 OA 
BRANCH  30  31
HETATM   31  C   UNL     1     -12.301  14.498  71.724  1.00  0.00    -0.334 C  
HETATM   32  C   UNL     1     -13.584  14.022  72.464  1.00  0.00    -0.670 C  
HETATM   33  O   UNL     1     -11.582  15.356  72.115  1.00  0.00    -0.418 OA 
ENDBRANCH  30  31
ENDBRANCH  29  30
ENDBRANCH  27  29
ENDBRANCH   5  27
TORSDOF 4
ENDMDL
MODEL       11
REMARK 921   NORMALIZED FREE ENERGY PREDICTED BY IDOCK:   -6.39 KCAL/MOL
REMARK 922        TOTAL FREE ENERGY PREDICTED BY IDOCK:   -7.69 KCAL/MOL
REMARK 923 INTER-LIGAND FREE ENERGY PREDICTED BY IDOCK:   -8.10 KCAL/MOL
REMARK 924 INTRA-LIGAND FREE ENERGY PREDICTED BY IDOCK:    0.40 KCAL/MOL
REMARK 927      BINDING AFFINITY PREDICTED BY RF-SCORE:    0.00 PKD
ROOT
HETATM    1  C   UNL     1     -10.355   9.910  66.045  1.00  0.00    -0.202 C  
HETATM    2  C   UNL     1      -9.394   9.825  65.036  1.00  0.00    -0.325 C  
HETATM    3  C   UNL     1      -8.896  10.385  66.334  1.00  0.00    -0.159 C  
HETATM    4  C   UNL     1      -7.399  10.763  65.652  1.00  0.00    -0.026 C  
HETATM    5  C   UNL     1     -10.146  10.054  67.962  1.00  0.00    -0.167 C  
HETATM    6  C   UNL     1     -11.555  14.432  67.869  1.00  0.00    -0.374 C  
HETATM    7  O   UNL     1     -11.408   9.246  67.799  1.00  0.00    -0.421 OA 
HETATM    8  C   UNL     1      -9.101   9.375  67.433  1.00  0.00    -0.141 C  
HETATM    9  C   UNL     1      -8.250  10.761  68.392  1.00  0.00    -0.129 C  
HETATM   10  H   UNL     1     -11.979   9.094  68.543  1.00  0.00     0.000 HD 
HETATM   11  C   UNL     1     -10.449  14.245  66.845  1.00  0.00    -0.272 C  
HETATM   12  C   UNL     1      -9.193  15.172  67.043  1.00  0.00    -0.239 C  
HETATM   13  C   UNL     1      -8.843   7.891  67.498  1.00  0.00    -0.128 C  
HETATM   14  O   UNL     1     -10.649  17.781  65.930  1.00  0.00    -0.421 OA 
HETATM   15  C   UNL     1      -9.184  12.276  68.318  1.00  0.00    -0.189 C  
HETATM   16  C   UNL     1      -8.936  16.163  66.172  1.00  0.00    -0.372 C  
HETATM   17  C   UNL     1      -9.920  12.778  66.875  1.00  0.00    -0.232 C  
HETATM   18  O   UNL     1     -10.199  12.182  69.333  1.00  0.00    -0.382 OA 
HETATM   19  H   UNL     1     -10.697  12.990  69.294  1.00  0.00     0.000 HD 
HETATM   20  C   UNL     1     -10.952  11.626  66.188  1.00  0.00    -0.339 C  
HETATM   21  C   UNL     1     -10.173  16.701  65.606  1.00  0.00    -0.262 C  
HETATM   22  C   UNL     1     -10.894  15.711  64.824  1.00  0.00    -0.377 C  
HETATM   23  C   UNL     1     -11.402  12.113  64.802  1.00  0.00    -0.378 C  
HETATM   24  C   UNL     1     -11.987  13.512  64.833  1.00  0.00    -0.379 C  
HETATM   25  C   UNL     1     -11.071  14.531  65.446  1.00  0.00    -0.345 C  
HETATM   26  F   UNL     1     -12.294  13.851  63.547  1.00  0.00    -0.526 F  
ENDROOT
BRANCH   5  27
HETATM   27  C   UNL     1     -10.061   9.383  69.641  1.00  0.00    -0.206 C  
HETATM   28  O   UNL     1      -9.211   9.732  70.479  1.00  0.00    -0.210 OA 
BRANCH  27  29
HETATM   29  C   UNL     1     -11.008   8.207  70.149  1.00  0.00    -0.223 C  
BRANCH  29  30
HETATM   30  O   UNL     1     -10.523   7.704  71.504  1.00  0.00    -0.203 OA 
BRANCH  30  31
HETATM   31  C   UNL     1      -9.813   6.539  71.606  1.00  0.00    -0.167 C  
HETATM   32  C   UNL     1      -9.591   6.195  73.107  1.00  0.00    -0.147 C  
HETATM   33  O   UNL     1      -9.332   5.939  70.704  1.00  0.00    -0.156 OA 
ENDBRANCH  30  31
ENDBRANCH  29  30
ENDBRANCH  27  29
ENDBRANCH   5  27
TORSDOF 4
ENDMDL
MODEL       12
REMARK 921   NORMALIZED FREE ENERGY PREDICTED BY IDOCK:   -6.31 KCAL/MOL
REMARK 922        TOTAL FREE ENERGY PREDICTED BY IDOCK:   -7.60 KCAL/MOL
REMARK 923 INTER-LIGAND FREE ENERGY PREDICTED BY IDOCK:   -7.65 KCAL/MOL
REMARK 924 INTRA-LIGAND FREE ENERGY PREDICTED BY IDOCK:    0.05 KCAL/MOL
REMARK 927      BINDING AFFINITY PREDICTED BY RF-SCORE:    0.00 PKD
ROOT
HETATM    1  C   UNL     1     -10.761  14.782  66.326  1.00  0.00    -0.313 C  
HETATM    2  C   UNL     1     -11.970  14.446  66.937  1.00  0.00    -0.425 C  
HETATM    3  C   UNL     1     -10.805  14.570  67.873  1.00  0.00    -0.260 C  
HETATM    4  C   UNL     1     -11.725  14.004  69.169  1.00  0.00    -0.375 C  
HETATM    5  C   UNL     1      -9.149  15.543  67.076  1.00  0.00    -0.230 C  
HETATM    6  C   UNL     1      -6.934  11.540  66.594  1.00  0.00    -0.069 C  
HETATM    7  O   UNL     1      -9.202  16.117  65.684  1.00  0.00    -0.407 OA 
HETATM    8  C   UNL     1     -10.228  15.960  67.780  1.00  0.00    -0.260 C  
HETATM    9  C   UNL     1      -9.125  15.215  69.119  1.00  0.00    -0.215 C  
HETATM   10  H   UNL     1      -8.445  16.562  65.320  1.00  0.00     0.000 HD 
HETATM   11  C   UNL     1      -8.247  11.297  67.317  1.00  0.00    -0.140 C  
HETATM   12  C   UNL     1      -8.113  10.633  68.737  1.00  0.00    -0.139 C  
HETATM   13  C   UNL     1     -10.878  17.320  67.746  1.00  0.00    -0.261 C  
HETATM   14  O   UNL     1      -7.482   7.730  67.580  1.00  0.00    -0.092 OA 
HETATM   15  C   UNL     1      -8.244  13.787  68.521  1.00  0.00    -0.124 C  
HETATM   16  C   UNL     1      -8.523   9.368  68.937  1.00  0.00    -0.122 C  
HETATM   17  C   UNL     1      -9.010  12.640  67.532  1.00  0.00    -0.187 C  
HETATM   18  O   UNL     1      -7.086  14.280  67.825  1.00  0.00    -0.144 OA 
HETATM   19  H   UNL     1      -6.616  13.519  67.506  1.00  0.00     0.000 HD 
HETATM   20  C   UNL     1      -9.726  13.292  66.144  1.00  0.00    -0.258 C  
HETATM   21  C   UNL     1      -8.364   8.565  67.724  1.00  0.00    -0.130 C  
HETATM   22  C   UNL     1      -9.197   9.046  66.636  1.00  0.00    -0.211 C  
HETATM   23  C   UNL     1     -10.544  12.201  65.438  1.00  0.00    -0.309 C  
HETATM   24  C   UNL     1      -9.740  10.943  65.173  1.00  0.00    -0.262 C  
HETATM   25  C   UNL     1      -9.104  10.368  66.405  1.00  0.00    -0.177 C  
HETATM   26  F   UNL     1     -10.584  10.036  64.599  1.00  0.00    -0.223 F  
ENDROOT
BRANCH   5  27
HETATM   27  C   UNL     1      -8.037  16.912  67.484  1.00  0.00    -0.173 C  
HETATM   28  O   UNL     1      -7.751  17.243  68.648  1.00  0.00    -0.246 OA 
BRANCH  27  29
HETATM   29  C   UNL     1      -7.415  17.876  66.378  1.00  0.00    -0.273 C  
BRANCH  29  30
HETATM   30  O   UNL     1      -8.459  18.900  65.943  1.00  0.00    -0.474 OA 
BRANCH  30  31
HETATM   31  C   UNL     1      -8.643  20.056  66.650  1.00  0.00    -0.321 C  
HETATM   32  C   UNL     1      -7.263  20.612  67.106  1.00  0.00    -0.389 C  
HETATM   33  O   UNL     1      -9.688  20.511  66.976  1.00  0.00    -0.436 OA 
ENDBRANCH  30  31
ENDBRANCH  29  30
ENDBRANCH  27  29
ENDBRANCH   5  27
TORSDOF 4
ENDMDL
MODEL       13
REMARK 921   NORMALIZED FREE ENERGY PREDICTED BY IDOCK:   -6.28 KCAL/MOL
REMARK 922        TOTAL FREE ENERGY PREDICTED BY IDOCK:   -7.56 KCAL/MOL
REMARK 923 INTER-LIGAND FREE ENERGY PREDICTED BY IDOCK:   -8.24 KCAL/MOL
REMARK 924 INTRA-LIGAND FREE ENERGY PREDICTED BY IDOCK:    0.68 KCAL/MOL
REMARK 927      BINDING AFFINITY PREDICTED BY RF-SCORE:    0.00 PKD
ROOT
HETATM    1  C   UNL     1      -9.266  15.887  69.164  1.00  0.00    -0.253 C  
HETATM    2  C   UNL     1      -8.198  15.009  69.355  1.00  0.00    -0.147 C  
HETATM    3  C   UNL     1      -8.171  15.760  68.058  1.00  0.00    -0.143 C  
HETATM    4  C   UNL     1      -6.848  14.866  67.512  1.00  0.00    -0.189 C  
HETATM    5  C   UNL     1      -9.441  17.404  67.978  1.00  0.00    -0.281 C  
HETATM    6  C   UNL     1     -12.397  15.091  65.319  1.00  0.00     0.108 C  
HETATM    7  O   UNL     1     -10.249  17.800  69.187  1.00  0.00    -0.346 OA 
HETATM    8  C   UNL     1      -8.144  17.242  68.332  1.00  0.00    -0.259 C  
HETATM    9  C   UNL     1      -8.061  17.238  66.446  1.00  0.00    -0.328 C  
HETATM   10  H   UNL     1     -10.829  18.552  69.152  1.00  0.00     0.000 HD 
HETATM   11  C   UNL     1     -11.155  14.244  65.535  1.00  0.00    -0.323 C  
HETATM   12  C   UNL     1     -10.404  13.814  64.220  1.00  0.00     0.044 C  
HETATM   13  C   UNL     1      -7.347  18.071  69.307  1.00  0.00    -0.031 C  
HETATM   14  O   UNL     1     -12.555  11.595  63.436  1.00  0.00    -0.485 OA 
HETATM   15  C   UNL     1      -9.482  16.437  65.731  1.00  0.00    -0.156 C  
HETATM   16  C   UNL     1     -10.413  12.530  63.821  1.00  0.00    -0.451 C  
HETATM   17  C   UNL     1     -10.112  15.013  66.403  1.00  0.00    -0.289 C  
HETATM   18  O   UNL     1     -10.531  17.421  65.693  1.00  0.00    -0.577 OA 
HETATM   19  H   UNL     1     -11.290  16.994  65.311  1.00  0.00     0.000 HD 
HETATM   20  C   UNL     1     -10.494  15.135  68.047  1.00  0.00    -0.247 C  
HETATM   21  C   UNL     1     -11.653  11.864  64.219  1.00  0.00    -0.324 C  
HETATM   22  C   UNL     1     -11.800  11.794  65.662  1.00  0.00     0.022 C  
HETATM   23  C   UNL     1     -10.868  13.744  68.583  1.00  0.00    -0.280 C  
HETATM   24  C   UNL     1     -11.945  13.067  67.758  1.00  0.00    -0.295 C  
HETATM   25  C   UNL     1     -11.605  12.963  66.299  1.00  0.00    -0.424 C  
HETATM   26  F   UNL     1     -12.148  11.828  68.295  1.00  0.00    -0.376 F  
ENDROOT
BRANCH   5  27
HETATM   27  C   UNL     1      -9.374  19.169  67.578  1.00  0.00    -0.303 C  
HETATM   28  O   UNL     1     -10.154  20.012  68.053  1.00  0.00    -0.407 OA 
BRANCH  27  29
HETATM   29  C   UNL     1      -8.372  19.769  66.494  1.00  0.00    -0.342 C  
BRANCH  29  30
HETATM   30  O   UNL     1      -7.633  20.966  67.084  1.00  0.00    -0.327 OA 
BRANCH  30  31
HETATM   31  C   UNL     1      -6.289  20.907  67.332  1.00  0.00    -0.321 C  
HETATM   32  C   UNL     1      -5.578  20.159  66.168  1.00  0.00    -0.186 C  
HETATM   33  O   UNL     1      -5.752  21.259  68.329  1.00  0.00    -0.322 OA 
ENDBRANCH  30  31
ENDBRANCH  29  30
ENDBRANCH  27  29
ENDBRANCH   5  27
TORSDOF 4
ENDMDL
MODEL       14
REMARK 921   NORMALIZED FREE ENERGY PREDICTED BY IDOCK:   -6.24 KCAL/MOL
REMARK 922        TOTAL FREE ENERGY PREDICTED BY IDOCK:   -7.51 KCAL/MOL
REMARK 923 INTER-LIGAND FREE ENERGY PREDICTED BY IDOCK:   -8.15 KCAL/MOL
REMARK 924 INTRA-LIGAND FREE ENERGY PREDICTED BY IDOCK:    0.64 KCAL/MOL
REMARK 927      BINDING AFFINITY PREDICTED BY RF-SCORE:    0.00 PKD
ROOT
HETATM    1  C   UNL     1     -11.674  13.073  67.402  1.00  0.00    -0.427 C  
HETATM    2  C   UNL     1     -10.989  14.048  68.130  1.00  0.00    -0.268 C  
HETATM    3  C   UNL     1     -10.117  13.155  67.298  1.00  0.00    -0.233 C  
HETATM    4  C   UNL     1      -8.718  13.829  67.956  1.00  0.00    -0.181 C  
HETATM    5  C   UNL     1     -11.127  12.056  65.851  1.00  0.00    -0.324 C  
HETATM    6  C   UNL     1     -10.758   8.233  68.383  1.00  0.00    -0.072 C  
HETATM    7  O   UNL     1     -12.610  12.239  65.654  1.00  0.00    -0.504 OA 
HETATM    8  C   UNL     1     -10.517  13.265  65.849  1.00  0.00    -0.289 C  
HETATM    9  C   UNL     1      -9.063  12.068  65.718  1.00  0.00     0.008 C  
HETATM   10  H   UNL     1     -13.072  11.738  64.993  1.00  0.00     0.000 HD 
HETATM   11  C   UNL     1      -9.982   9.352  69.056  1.00  0.00    -0.182 C  
HETATM   12  C   UNL     1      -8.453   9.059  69.287  1.00  0.00    -0.128 C  
HETATM   13  C   UNL     1     -10.837  14.455  64.981  1.00  0.00    -0.420 C  
HETATM   14  O   UNL     1      -8.961   7.080  71.735  1.00  0.00    -0.134 OA 
HETATM   15  C   UNL     1      -9.348  10.586  66.664  1.00  0.00    -0.161 C  
HETATM   16  C   UNL     1      -7.979   8.867  70.530  1.00  0.00    -0.133 C  
HETATM   17  C   UNL     1     -10.054  10.657  68.205  1.00  0.00    -0.176 C  
HETATM   18  O   UNL     1     -10.149   9.721  65.840  1.00  0.00    -0.282 OA 
HETATM   19  H   UNL     1     -10.301   8.930  66.345  1.00  0.00     0.000 HD 
HETATM   20  C   UNL     1     -11.541  11.464  68.247  1.00  0.00    -0.376 C  
HETATM   21  C   UNL     1      -8.990   8.254  71.391  1.00  0.00    -0.166 C  
HETATM   22  C   UNL     1     -10.146   9.113  71.576  1.00  0.00    -0.381 C  
HETATM   23  C   UNL     1     -11.983  11.631  69.709  1.00  0.00    -0.402 C  
HETATM   24  C   UNL     1     -11.979  10.324  70.477  1.00  0.00    -0.323 C  
HETATM   25  C   UNL     1     -10.660   9.609  70.436  1.00  0.00    -0.354 C  
HETATM   26  F   UNL     1     -12.332  10.610  71.765  1.00  0.00    -0.441 F  
ENDROOT
BRANCH   5  27
HETATM   27  C   UNL     1     -11.041  11.727  64.073  1.00  0.00    -0.390 C  
HETATM   28  O   UNL     1     -12.042  11.607  63.346  1.00  0.00    -0.441 OA 
BRANCH  27  29
HETATM   29  C   UNL     1      -9.666  11.459  63.312  1.00  0.00    -0.394 C  
BRANCH  29  30
HETATM   30  O   UNL     1      -9.530   9.970  63.005  1.00  0.00    -0.297 OA 
BRANCH  30  31
HETATM   31  C   UNL     1      -8.305   9.364  63.006  1.00  0.00    -0.188 C  
HETATM   32  C   UNL     1      -8.473   7.852  62.682  1.00  0.00     0.034 C  
HETATM   33  O   UNL     1      -7.281   9.871  63.320  1.00  0.00    -0.121 OA 
ENDBRANCH  30  31
ENDBRANCH  29  30
ENDBRANCH  27  29
ENDBRANCH   5  27
TORSDOF 4
ENDMDL
MODEL       15
REMARK 921   NORMALIZED FREE ENERGY PREDICTED BY IDOCK:   -6.23 KCAL/MOL
REMARK 922        TOTAL FREE ENERGY PREDICTED BY IDOCK:   -7.49 KCAL/MOL
REMARK 923 INTER-LIGAND FREE ENERGY PREDICTED BY IDOCK:   -7.52 KCAL/MOL
REMARK 924 INTRA-LIGAND FREE ENERGY PREDICTED BY IDOCK:    0.03 KCAL/MOL
REMARK 927      BINDING AFFINITY PREDICTED BY RF-SCORE:    0.00 PKD
ROOT
HETATM    1  C   UNL     1     -11.321  12.174  67.828  1.00  0.00    -0.371 C  
HETATM    2  C   UNL     1     -11.810  12.304  66.527  1.00  0.00    -0.378 C  
HETATM    3  C   UNL     1     -10.327  12.102  66.625  1.00  0.00    -0.233 C  
HETATM    4  C   UNL     1     -10.135  12.358  64.969  1.00  0.00    -0.269 C  
HETATM    5  C   UNL     1      -9.663  11.413  68.471  1.00  0.00    -0.197 C  
HETATM    6  C   UNL     1      -8.064  15.592  69.542  1.00  0.00    -0.202 C  
HETATM    7  O   UNL     1     -10.651  11.094  69.564  1.00  0.00    -0.389 OA 
HETATM    8  C   UNL     1     -10.040  10.798  67.325  1.00  0.00    -0.233 C  
HETATM    9  C   UNL     1      -8.285  11.372  66.928  1.00  0.00    -0.157 C  
HETATM   10  H   UNL     1     -10.348  10.779  70.407  1.00  0.00     0.000 HD 
HETATM   11  C   UNL     1      -8.563  15.603  68.108  1.00  0.00    -0.159 C  
HETATM   12  C   UNL     1      -7.491  16.012  67.031  1.00  0.00    -0.264 C  
HETATM   13  C   UNL     1     -10.635   9.421  67.174  1.00  0.00    -0.294 C  
HETATM   14  O   UNL     1      -7.594  19.114  67.762  1.00  0.00    -0.246 OA 
HETATM   15  C   UNL     1      -7.926  12.946  67.682  1.00  0.00    -0.167 C  
HETATM   16  C   UNL     1      -7.590  17.186  66.385  1.00  0.00    -0.347 C  
HETATM   17  C   UNL     1      -9.080  14.190  67.696  1.00  0.00    -0.194 C  
HETATM   18  O   UNL     1      -7.541  12.672  69.040  1.00  0.00    -0.307 OA 
HETATM   19  H   UNL     1      -7.350  13.511  69.443  1.00  0.00     0.000 HD 
HETATM   20  C   UNL     1     -10.568  13.744  68.366  1.00  0.00    -0.261 C  
HETATM   21  C   UNL     1      -8.215  18.202  67.232  1.00  0.00    -0.229 C  
HETATM   22  C   UNL     1      -9.585  17.863  67.574  1.00  0.00    -0.269 C  
HETATM   23  C   UNL     1     -11.580  14.881  68.150  1.00  0.00    -0.356 C  
HETATM   24  C   UNL     1     -11.070  16.222  68.640  1.00  0.00    -0.356 C  
HETATM   25  C   UNL     1      -9.748  16.613  68.047  1.00  0.00    -0.241 C  
HETATM   26  F   UNL     1     -12.026  17.151  68.343  1.00  0.00     0.277 F  
ENDROOT
BRANCH   5  27
HETATM   27  C   UNL     1      -8.644  10.080  69.150  1.00  0.00    -0.158 C  
HETATM   28  O   UNL     1      -7.673   9.583  68.552  1.00  0.00    -0.081 OA 
BRANCH  27  29
HETATM   29  C   UNL     1      -8.976   9.360  70.532  1.00  0.00    -0.253 C  
BRANCH  29  30
HETATM   30  O   UNL     1      -9.948   8.209  70.292  1.00  0.00    -0.187 OA 
BRANCH  30  31
HETATM   31  C   UNL     1     -11.073   8.070  71.058  1.00  0.00    -0.253 C  
HETATM   32  C   UNL     1     -11.785   6.735  70.697  1.00  0.00    -0.440 C  
HETATM   33  O   UNL     1     -11.512   8.885  71.797  1.00  0.00    -0.307 OA 
ENDBRANCH  30  31
ENDBRANCH  29  30
ENDBRANCH  27  29
ENDBRANCH   5  27
TORSDOF 4
ENDMDL
MODEL       16
REMARK 921   NORMALIZED FREE ENERGY PREDICTED BY IDOCK:   -6.17 KCAL/MOL
REMARK 922        TOTAL FREE ENERGY PREDICTED BY IDOCK:   -7.42 KCAL/MOL
REMARK 923 INTER-LIGAND FREE ENERGY PREDICTED BY IDOCK:   -7.79 KCAL/MOL
REMARK 924 INTRA-LIGAND FREE ENERGY PREDICTED BY IDOCK:    0.37 KCAL/MOL
REMARK 927      BINDING AFFINITY PREDICTED BY RF-SCORE:    0.00 PKD
ROOT
HETATM    1  C   UNL     1      -7.951  10.078  69.874  1.00  0.00    -0.184 C  
HETATM    2  C   UNL     1      -6.649   9.588  69.987  1.00  0.00    -0.065 C  
HETATM    3  C   UNL     1      -7.503   8.879  68.978  1.00  0.00    -0.074 C  
HETATM    4  C   UNL     1      -6.309   7.716  68.715  1.00  0.00    -0.040 C  
HETATM    5  C   UNL     1      -9.236   9.893  68.441  1.00  0.00    -0.130 C  
HETATM    6  C   UNL     1     -11.789   7.036  70.989  1.00  0.00    -0.395 C  
HETATM    7  O   UNL     1      -9.523  11.261  69.004  1.00  0.00    -0.366 OA 
HETATM    8  C   UNL     1      -7.979   9.862  67.940  1.00  0.00    -0.104 C  
HETATM    9  C   UNL     1      -8.728   8.263  67.272  1.00  0.00    -0.126 C  
HETATM   10  H   UNL     1     -10.315  11.724  68.758  1.00  0.00     0.000 HD 
HETATM   11  C   UNL     1     -10.350   6.550  70.988  1.00  0.00    -0.240 C  
HETATM   12  C   UNL     1     -10.140   5.087  70.448  1.00  0.00    -0.330 C  
HETATM   13  C   UNL     1      -7.264  10.953  67.183  1.00  0.00    -0.104 C  
HETATM   14  O   UNL     1     -11.275   3.699  73.085  1.00  0.00    -0.135 OA 
HETATM   15  C   UNL     1      -9.841   7.521  68.449  1.00  0.00    -0.164 C  
HETATM   16  C   UNL     1      -9.786   4.098  71.287  1.00  0.00    -0.249 C  
HETATM   17  C   UNL     1      -9.460   7.475  70.102  1.00  0.00    -0.161 C  
HETATM   18  O   UNL     1     -11.105   8.190  68.296  1.00  0.00    -0.427 OA 
HETATM   19  H   UNL     1     -11.699   7.795  68.924  1.00  0.00     0.000 HD 
HETATM   20  C   UNL     1      -9.103   8.988  70.771  1.00  0.00    -0.297 C  
HETATM   21  C   UNL     1     -10.328   4.324  72.627  1.00  0.00    -0.178 C  
HETATM   22  C   UNL     1      -9.790   5.525  73.240  1.00  0.00    -0.176 C  
HETATM   23  C   UNL     1      -8.591   8.796  72.207  1.00  0.00    -0.057 C  
HETATM   24  C   UNL     1      -9.527   7.961  73.058  1.00  0.00    -0.271 C  
HETATM   25  C   UNL     1      -9.845   6.621  72.460  1.00  0.00    -0.176 C  
HETATM   26  F   UNL     1      -8.941   7.816  74.283  1.00  0.00    -0.285 F  
ENDROOT
BRANCH   5  27
HETATM   27  C   UNL     1     -10.092  10.446  66.944  1.00  0.00    -0.219 C  
HETATM   28  O   UNL     1     -10.212   9.748  65.923  1.00  0.00    -0.259 OA 
BRANCH  27  29
HETATM   29  C   UNL     1     -10.669  11.922  66.778  1.00  0.00    -0.246 C  
BRANCH  29  30
HETATM   30  O   UNL     1     -12.027  11.868  66.083  1.00  0.00    -0.537 OA 
BRANCH  30  31
HETATM   31  C   UNL     1     -12.330  12.736  65.071  1.00  0.00    -0.499 C  
HETATM   32  C   UNL     1     -11.602  12.293  63.770  1.00  0.00    -0.555 C  
HETATM   33  O   UNL     1     -12.953  13.739  65.181  1.00  0.00    -0.738 OA 
ENDBRANCH  30  31
ENDBRANCH  29  30
ENDBRANCH  27  29
ENDBRANCH   5  27
TORSDOF 4
ENDMDL
MODEL       17
REMARK 921   NORMALIZED FREE ENERGY PREDICTED BY IDOCK:   -6.12 KCAL/MOL
REMARK 922        TOTAL FREE ENERGY PREDICTED BY IDOCK:   -7.36 KCAL/MOL
REMARK 923 INTER-LIGAND FREE ENERGY PREDICTED BY IDOCK:   -7.45 KCAL/MOL
REMARK 924 INTRA-LIGAND FREE ENERGY PREDICTED BY IDOCK:    0.09 KCAL/MOL
REMARK 927      BINDING AFFINITY PREDICTED BY RF-SCORE:    0.00 PKD
ROOT
HETATM    1  C   UNL     1      -9.920  13.642  64.847  1.00  0.00    -0.183 C  
HETATM    2  C   UNL     1     -10.892  13.052  64.037  1.00  0.00    -0.408 C  
HETATM    3  C   UNL     1     -11.358  13.416  65.415  1.00  0.00    -0.309 C  
HETATM    4  C   UNL     1     -12.844  12.657  65.165  1.00  0.00    -0.135 C  
HETATM    5  C   UNL     1     -10.107  14.725  66.438  1.00  0.00    -0.280 C  
HETATM    6  C   UNL     1      -8.531  11.291  69.063  1.00  0.00     0.002 C  
HETATM    7  O   UNL     1      -8.879  15.284  65.767  1.00  0.00    -0.375 OA 
HETATM    8  C   UNL     1     -11.182  14.897  65.633  1.00  0.00    -0.347 C  
HETATM    9  C   UNL     1     -11.971  14.397  67.274  1.00  0.00    -0.409 C  
HETATM   10  H   UNL     1      -8.308  15.882  66.234  1.00  0.00     0.000 HD 
HETATM   11  C   UNL     1      -9.652  10.768  68.181  1.00  0.00    -0.167 C  
HETATM   12  C   UNL     1     -10.870  10.139  68.954  1.00  0.00    -0.256 C  
HETATM   13  C   UNL     1     -11.497  16.087  64.762  1.00  0.00    -0.201 C  
HETATM   14  O   UNL     1      -9.324   7.445  69.674  1.00  0.00    -0.150 OA 
HETATM   15  C   UNL     1     -10.980  13.193  68.136  1.00  0.00    -0.251 C  
HETATM   16  C   UNL     1     -11.095   8.814  68.903  1.00  0.00     0.190 C  
HETATM   17  C   UNL     1     -10.238  11.916  67.302  1.00  0.00    -0.220 C  
HETATM   18  O   UNL     1      -9.962  13.927  68.837  1.00  0.00    -0.374 OA 
HETATM   19  H   UNL     1      -9.433  13.286  69.297  1.00  0.00     0.000 HD 
HETATM   20  C   UNL     1      -9.257  12.409  66.015  1.00  0.00    -0.055 C  
HETATM   21  C   UNL     1      -9.843   8.072  68.760  1.00  0.00    -0.172 C  
HETATM   22  C   UNL     1      -9.168   8.370  67.510  1.00  0.00    -0.158 C  
HETATM   23  C   UNL     1      -8.799  11.172  65.226  1.00  0.00    -0.085 C  
HETATM   24  C   UNL     1      -8.160  10.117  66.107  1.00  0.00    -0.123 C  
HETATM   25  C   UNL     1      -9.031   9.684  67.250  1.00  0.00    -0.146 C  
HETATM   26  F   UNL     1      -7.851   9.054  65.307  1.00  0.00    -0.093 F  
ENDROOT
BRANCH   5  27
HETATM   27  C   UNL     1     -10.205  16.297  67.330  1.00  0.00    -0.275 C  
HETATM   28  O   UNL     1     -11.193  16.649  67.998  1.00  0.00    -0.306 OA 
BRANCH  27  29
HETATM   29  C   UNL     1      -9.067  17.409  67.243  1.00  0.00    -0.237 C  
BRANCH  29  30
HETATM   30  O   UNL     1      -9.314  18.304  66.033  1.00  0.00    -0.505 OA 
BRANCH  30  31
HETATM   31  C   UNL     1     -10.157  19.377  66.114  1.00  0.00    -0.452 C  
HETATM   32  C   UNL     1     -10.092  19.982  67.546  1.00  0.00    -0.565 C  
HETATM   33  O   UNL     1     -10.915  19.729  65.273  1.00  0.00    -0.410 OA 
ENDBRANCH  30  31
ENDBRANCH  29  30
ENDBRANCH  27  29
ENDBRANCH   5  27
TORSDOF 4
ENDMDL
MODEL       18
REMARK 921   NORMALIZED FREE ENERGY PREDICTED BY IDOCK:   -6.07 KCAL/MOL
REMARK 922        TOTAL FREE ENERGY PREDICTED BY IDOCK:   -7.30 KCAL/MOL
REMARK 923 INTER-LIGAND FREE ENERGY PREDICTED BY IDOCK:   -7.78 KCAL/MOL
REMARK 924 INTRA-LIGAND FREE ENERGY PREDICTED BY IDOCK:    0.47 KCAL/MOL
REMARK 927      BINDING AFFINITY PREDICTED BY RF-SCORE:    0.00 PKD
ROOT
HETATM    1  C   UNL     1      -7.459  10.030  68.625  1.00  0.00    -0.083 C  
HETATM    2  C   UNL     1      -6.347   9.191  68.539  1.00  0.00    -0.053 C  
HETATM    3  C   UNL     1      -7.556   8.710  67.795  1.00  0.00    -0.098 C  
HETATM    4  C   UNL     1      -6.809   7.241  67.435  1.00  0.00    -0.077 C  
HETATM    5  C   UNL     1      -9.022  10.153  67.493  1.00  0.00    -0.131 C  
HETATM    6  C   UNL     1     -11.649   8.283  70.774  1.00  0.00    -0.250 C  
HETATM    7  O   UNL     1      -8.798  11.572  67.949  1.00  0.00    -0.141 OA 
HETATM    8  C   UNL     1      -7.958   9.737  66.766  1.00  0.00    -0.105 C  
HETATM    9  C   UNL     1      -9.239   8.391  66.431  1.00  0.00    -0.253 C  
HETATM   10  H   UNL     1      -9.468  12.232  67.810  1.00  0.00     0.000 HD 
HETATM   11  C   UNL     1     -10.431   7.403  70.550  1.00  0.00    -0.227 C  
HETATM   12  C   UNL     1     -10.748   5.917  70.141  1.00  0.00    -0.389 C  
HETATM   13  C   UNL     1      -7.152  10.537  65.774  1.00  0.00    -0.124 C  
HETATM   14  O   UNL     1     -11.627   5.047  73.080  1.00  0.00    -0.328 OA 
HETATM   15  C   UNL     1     -10.233   8.060  67.872  1.00  0.00    -0.212 C  
HETATM   16  C   UNL     1     -10.506   4.910  70.998  1.00  0.00    -0.164 C  
HETATM   17  C   UNL     1      -9.535   7.988  69.416  1.00  0.00    -0.159 C  
HETATM   18  O   UNL     1     -11.270   9.057  67.892  1.00  0.00    -0.476 OA 
HETATM   19  H   UNL     1     -11.800   8.882  68.660  1.00  0.00     0.000 HD 
HETATM   20  C   UNL     1      -8.645   9.364  69.838  1.00  0.00    -0.201 C  
HETATM   21  C   UNL     1     -10.666   5.348  72.385  1.00  0.00    -0.231 C  
HETATM   22  C   UNL     1      -9.703   6.372  72.751  1.00  0.00    -0.163 C  
HETATM   23  C   UNL     1      -7.910   9.104  71.162  1.00  0.00    -0.119 C  
HETATM   24  C   UNL     1      -8.833   8.617  72.261  1.00  0.00    -0.148 C  
HETATM   25  C   UNL     1      -9.624   7.398  71.882  1.00  0.00    -0.174 C  
HETATM   26  F   UNL     1      -8.061   8.369  73.359  1.00  0.00    -0.223 F  
ENDROOT
BRANCH   5  27
HETATM   27  C   UNL     1      -9.994  10.856  66.136  1.00  0.00    -0.233 C  
HETATM   28  O   UNL     1     -10.235  10.251  65.077  1.00  0.00    -0.320 OA 
BRANCH  27  29
HETATM   29  C   UNL     1     -10.531  12.356  66.148  1.00  0.00    -0.248 C  
BRANCH  29  30
HETATM   30  O   UNL     1     -12.046  12.362  65.965  1.00  0.00    -0.600 OA 
BRANCH  30  31
HETATM   31  C   UNL     1     -12.628  13.089  64.964  1.00  0.00    -0.454 C  
HETATM   32  C   UNL     1     -12.314  12.429  63.591  1.00  0.00    -0.647 C  
HETATM   33  O   UNL     1     -13.186  14.127  65.096  1.00  0.00    -0.743 OA 
ENDBRANCH  30  31
ENDBRANCH  29  30
ENDBRANCH  27  29
ENDBRANCH   5  27
TORSDOF 4
ENDMDL
MODEL       19
REMARK 921   NORMALIZED FREE ENERGY PREDICTED BY IDOCK:   -6.07 KCAL/MOL
REMARK 922        TOTAL FREE ENERGY PREDICTED BY IDOCK:   -7.29 KCAL/MOL
REMARK 923 INTER-LIGAND FREE ENERGY PREDICTED BY IDOCK:   -7.48 KCAL/MOL
REMARK 924 INTRA-LIGAND FREE ENERGY PREDICTED BY IDOCK:    0.18 KCAL/MOL
REMARK 927      BINDING AFFINITY PREDICTED BY RF-SCORE:    0.00 PKD
ROOT
HETATM    1  C   UNL     1      -8.381  12.002  67.607  1.00  0.00    -0.160 C  
HETATM    2  C   UNL     1      -8.271  11.411  66.347  1.00  0.00    -0.124 C  
HETATM    3  C   UNL     1      -9.663  11.450  66.904  1.00  0.00    -0.213 C  
HETATM    4  C   UNL     1     -10.251  10.514  65.630  1.00  0.00    -0.315 C  
HETATM    5  C   UNL     1      -9.922  12.747  68.508  1.00  0.00    -0.164 C  
HETATM    6  C   UNL     1     -10.012   9.215  71.453  1.00  0.00    -0.373 C  
HETATM    7  O   UNL     1      -8.779  13.607  68.983  1.00  0.00    -0.368 OA 
HETATM    8  C   UNL     1     -10.062  12.879  67.168  1.00  0.00    -0.243 C  
HETATM    9  C   UNL     1     -11.647  11.979  67.663  1.00  0.00    -0.392 C  
HETATM   10  H   UNL     1      -8.897  14.201  69.715  1.00  0.00     0.000 HD 
HETATM   11  C   UNL     1      -9.961   8.677  70.034  1.00  0.00    -0.191 C  
HETATM   12  C   UNL     1     -11.155   7.732  69.635  1.00  0.00    -0.052 C  
HETATM   13  C   UNL     1      -9.911  14.134  66.347  1.00  0.00    -0.302 C  
HETATM   14  O   UNL     1     -10.050   5.244  71.294  1.00  0.00    -0.195 OA 
HETATM   15  C   UNL     1     -11.356  10.823  68.986  1.00  0.00    -0.284 C  
HETATM   16  C   UNL     1     -10.947   6.418  69.443  1.00  0.00    -0.421 C  
HETATM   17  C   UNL     1      -9.967   9.848  69.004  1.00  0.00    -0.193 C  
HETATM   18  O   UNL     1     -11.391  11.581  70.208  1.00  0.00    -0.499 OA 
HETATM   19  H   UNL     1     -11.236  10.964  70.914  1.00  0.00     0.000 HD 
HETATM   20  C   UNL     1      -8.516  10.711  68.886  1.00  0.00    -0.154 C  
HETATM   21  C   UNL     1      -9.864   5.926  70.295  1.00  0.00    -0.185 C  
HETATM   22  C   UNL     1      -8.590   6.544  69.974  1.00  0.00    -0.140 C  
HETATM   23  C   UNL     1      -7.352   9.722  68.719  1.00  0.00    -0.074 C  
HETATM   24  C   UNL     1      -7.336   8.648  69.790  1.00  0.00    -0.052 C  
HETATM   25  C   UNL     1      -8.626   7.887  69.894  1.00  0.00    -0.139 C  
HETATM   26  F   UNL     1      -6.301   7.805  69.503  1.00  0.00    -0.032 F  
ENDROOT
BRANCH   5  27
HETATM   27  C   UNL     1     -11.010  14.104  69.011  1.00  0.00    -0.261 C  
HETATM   28  O   UNL     1     -12.208  14.182  68.685  1.00  0.00    -0.313 OA 
BRANCH  27  29
HETATM   29  C   UNL     1     -10.490  15.369  69.828  1.00  0.00    -0.293 C  
BRANCH  29  30
HETATM   30  O   UNL     1     -11.023  16.648  69.190  1.00  0.00    -0.316 OA 
BRANCH  30  31
HETATM   31  C   UNL     1     -10.253  17.374  68.324  1.00  0.00    -0.362 C  
HETATM   32  C   UNL     1      -8.749  17.154  68.657  1.00  0.00    -0.266 C  
HETATM   33  O   UNL     1     -10.654  18.146  67.519  1.00  0.00    -0.402 OA 
ENDBRANCH  30  31
ENDBRANCH  29  30
ENDBRANCH  27  29
ENDBRANCH   5  27
TORSDOF 4
ENDMDL
MODEL       20
REMARK 921   NORMALIZED FREE ENERGY PREDICTED BY IDOCK:   -6.06 KCAL/MOL
REMARK 922        TOTAL FREE ENERGY PREDICTED BY IDOCK:   -7.28 KCAL/MOL
REMARK 923 INTER-LIGAND FREE ENERGY PREDICTED BY IDOCK:   -7.68 KCAL/MOL
REMARK 924 INTRA-LIGAND FREE ENERGY PREDICTED BY IDOCK:    0.40 KCAL/MOL
REMARK 927      BINDING AFFINITY PREDICTED BY RF-SCORE:    0.00 PKD
ROOT
HETATM    1  C   UNL     1      -7.928  16.336  69.446  1.00  0.00    -0.065 C  
HETATM    2  C   UNL     1      -7.339  15.130  69.827  1.00  0.00    -0.141 C  
HETATM    3  C   UNL     1      -7.071  15.541  68.410  1.00  0.00    -0.111 C  
HETATM    4  C   UNL     1      -6.308  14.073  68.078  1.00  0.00    -0.146 C  
HETATM    5  C   UNL     1      -7.501  17.530  67.986  1.00  0.00    -0.214 C  
HETATM    6  C   UNL     1     -11.334  16.308  65.756  1.00  0.00     0.359 C  
HETATM    7  O   UNL     1      -7.975  18.455  69.077  1.00  0.00    -0.222 OA 
HETATM    8  C   UNL     1      -6.384  16.882  68.394  1.00  0.00    -0.140 C  
HETATM    9  C   UNL     1      -6.433  16.496  66.547  1.00  0.00     0.142 C  
HETATM   10  H   UNL     1      -8.171  19.364  68.884  1.00  0.00     0.000 HD 
HETATM   11  C   UNL     1     -10.574  15.057  66.160  1.00  0.00    -0.314 C  
HETATM   12  C   UNL     1     -10.172  14.108  64.970  1.00  0.00    -0.399 C  
HETATM   13  C   UNL     1      -5.244  17.439  69.209  1.00  0.00    -0.164 C  
HETATM   14  O   UNL     1     -13.120  12.958  64.580  1.00  0.00    -0.728 OA 
HETATM   15  C   UNL     1      -8.104  16.286  65.967  1.00  0.00     0.117 C  
HETATM   16  C   UNL     1     -10.765  12.910  64.826  1.00  0.00    -0.354 C  
HETATM   17  C   UNL     1      -9.247  15.434  66.887  1.00  0.00    -0.254 C  
HETATM   18  O   UNL     1      -8.621  17.605  65.716  1.00  0.00    -0.516 OA 
HETATM   19  H   UNL     1      -9.512  17.494  65.407  1.00  0.00     0.000 HD 
HETATM   20  C   UNL     1      -9.430  16.010  68.467  1.00  0.00    -0.216 C  
HETATM   21  C   UNL     1     -12.143  12.943  65.316  1.00  0.00    -0.453 C  
HETATM   22  C   UNL     1     -12.212  13.209  66.742  1.00  0.00    -0.306 C  
HETATM   23  C   UNL     1     -10.337  15.050  69.253  1.00  0.00    -0.249 C  
HETATM   24  C   UNL     1     -11.652  14.776  68.549  1.00  0.00    -0.321 C  
HETATM   25  C   UNL     1     -11.486  14.269  67.146  1.00  0.00    -0.377 C  
HETATM   26  F   UNL     1     -12.339  13.875  69.311  1.00  0.00    -0.369 F  
ENDROOT
BRANCH   5  27
HETATM   27  C   UNL     1      -6.699  18.979  67.254  1.00  0.00    -0.197 C  
HETATM   28  O   UNL     1      -5.496  19.253  67.412  1.00  0.00    -0.163 OA 
BRANCH  27  29
HETATM   29  C   UNL     1      -7.500  20.084  66.431  1.00  0.00    -0.288 C  
BRANCH  29  30
HETATM   30  O   UNL     1      -8.791  20.435  67.164  1.00  0.00    -0.348 OA 
BRANCH  30  31
HETATM   31  C   UNL     1     -10.009  20.102  66.637  1.00  0.00    -0.463 C  
HETATM   32  C   UNL     1     -10.894  19.457  67.741  1.00  0.00    -0.402 C  
HETATM   33  O   UNL     1     -10.313  20.178  65.494  1.00  0.00    -0.378 OA 
ENDBRANCH  30  31
ENDBRANCH  29  30
ENDBRANCH  27  29
ENDBRANCH   5  27
TORSDOF 4
ENDMDL
MODEL       21
REMARK 921   NORMALIZED FREE ENERGY PREDICTED BY IDOCK:   -6.02 KCAL/MOL
REMARK 922        TOTAL FREE ENERGY PREDICTED BY IDOCK:   -7.24 KCAL/MOL
REMARK 923 INTER-LIGAND FREE ENERGY PREDICTED BY IDOCK:   -7.39 KCAL/MOL
REMARK 924 INTRA-LIGAND FREE ENERGY PREDICTED BY IDOCK:    0.15 KCAL/MOL
REMARK 927      BINDING AFFINITY PREDICTED BY RF-SCORE:    0.00 PKD
ROOT
HETATM    1  C   UNL     1     -10.050  10.190  68.416  1.00  0.00    -0.184 C  
HETATM    2  C   UNL     1      -9.192  10.460  69.483  1.00  0.00    -0.143 C  
HETATM    3  C   UNL     1      -8.520   9.914  68.259  1.00  0.00    -0.111 C  
HETATM    4  C   UNL     1      -7.044   9.788  69.067  1.00  0.00    -0.067 C  
HETATM    5  C   UNL     1      -9.673   9.985  66.530  1.00  0.00    -0.200 C  
HETATM    6  C   UNL     1     -10.462   5.459  66.779  1.00  0.00    -0.347 C  
HETATM    7  O   UNL     1     -11.043  10.611  66.555  1.00  0.00    -0.114 OA 
HETATM    8  C   UNL     1      -8.777  10.831  67.091  1.00  0.00    -0.131 C  
HETATM    9  C   UNL     1      -7.669   9.537  66.278  1.00  0.00    -0.101 C  
HETATM   10  H   UNL     1     -11.570  10.643  65.765  1.00  0.00     0.000 HD 
HETATM   11  C   UNL     1      -9.477   5.853  67.866  1.00  0.00    -0.112 C  
HETATM   12  C   UNL     1      -8.092   5.106  67.813  1.00  0.00    -0.099 C  
HETATM   13  C   UNL     1      -8.723  12.332  66.958  1.00  0.00    -0.199 C  
HETATM   14  O   UNL     1      -9.254   2.373  68.971  1.00  0.00    -0.120 OA 
HETATM   15  C   UNL     1      -8.386   7.909  66.374  1.00  0.00    -0.129 C  
HETATM   16  C   UNL     1      -7.769   4.205  68.757  1.00  0.00    -0.058 C  
HETATM   17  C   UNL     1      -9.156   7.377  67.789  1.00  0.00    -0.129 C  
HETATM   18  O   UNL     1      -9.321   7.808  65.286  1.00  0.00    -0.267 OA 
HETATM   19  H   UNL     1      -9.704   6.940  65.337  1.00  0.00     0.000 HD 
HETATM   20  C   UNL     1     -10.389   8.401  68.331  1.00  0.00    -0.239 C  
HETATM   21  C   UNL     1      -8.961   3.524  69.264  1.00  0.00    -0.119 C  
HETATM   22  C   UNL     1      -9.871   4.436  69.934  1.00  0.00    -0.290 C  
HETATM   23  C   UNL     1     -10.874   7.921  69.708  1.00  0.00    -0.202 C  
HETATM   24  C   UNL     1     -11.255   6.454  69.718  1.00  0.00    -0.419 C  
HETATM   25  C   UNL     1     -10.161   5.548  69.232  1.00  0.00    -0.293 C  
HETATM   26  F   UNL     1     -11.612   6.136  70.997  1.00  0.00    -0.362 F  
ENDROOT
BRANCH   5  27
HETATM   27  C   UNL     1      -9.549  10.579  64.824  1.00  0.00    -0.285 C  
HETATM   28  O   UNL     1      -8.490  10.586  64.173  1.00  0.00    -0.172 OA 
BRANCH  27  29
HETATM   29  C   UNL     1     -10.775  11.244  64.053  1.00  0.00    -0.377 C  
BRANCH  29  30
HETATM   30  O   UNL     1     -10.729  12.760  64.223  1.00  0.00    -0.345 OA 
BRANCH  30  31
HETATM   31  C   UNL     1     -11.881  13.491  64.309  1.00  0.00    -0.428 C  
HETATM   32  C   UNL     1     -12.349  13.551  65.791  1.00  0.00    -0.516 C  
HETATM   33  O   UNL     1     -12.502  13.916  63.393  1.00  0.00    -0.833 OA 
ENDBRANCH  30  31
ENDBRANCH  29  30
ENDBRANCH  27  29
ENDBRANCH   5  27
TORSDOF 4
ENDMDL
MODEL       22
REMARK 921   NORMALIZED FREE ENERGY PREDICTED BY IDOCK:   -5.97 KCAL/MOL
REMARK 922        TOTAL FREE ENERGY PREDICTED BY IDOCK:   -7.18 KCAL/MOL
REMARK 923 INTER-LIGAND FREE ENERGY PREDICTED BY IDOCK:   -7.38 KCAL/MOL
REMARK 924 INTRA-LIGAND FREE ENERGY PREDICTED BY IDOCK:    0.20 KCAL/MOL
REMARK 927      BINDING AFFINITY PREDICTED BY RF-SCORE:    0.00 PKD
ROOT
HETATM    1  C   UNL     1     -10.781  13.123  65.396  1.00  0.00    -0.308 C  
HETATM    2  C   UNL     1     -11.927  12.411  65.756  1.00  0.00    -0.437 C  
HETATM    3  C   UNL     1     -10.870  12.481  66.817  1.00  0.00    -0.281 C  
HETATM    4  C   UNL     1     -11.723  11.411  67.804  1.00  0.00    -0.279 C  
HETATM    5  C   UNL     1      -9.412  13.928  66.498  1.00  0.00    -0.274 C  
HETATM    6  C   UNL     1      -6.382  10.707  65.230  1.00  0.00    -0.025 C  
HETATM    7  O   UNL     1      -9.503  14.851  65.310  1.00  0.00    -0.407 OA 
HETATM    8  C   UNL     1     -10.593  13.922  67.160  1.00  0.00    -0.277 C  
HETATM    9  C   UNL     1      -9.436  13.049  68.371  1.00  0.00    -0.165 C  
HETATM   10  H   UNL     1      -8.837  15.513  65.165  1.00  0.00     0.000 HD 
HETATM   11  C   UNL     1      -7.654  10.031  65.710  1.00  0.00    -0.120 C  
HETATM   12  C   UNL     1      -7.466   9.030  66.910  1.00  0.00    -0.090 C  
HETATM   13  C   UNL     1     -11.510  15.091  67.413  1.00  0.00    -0.326 C  
HETATM   14  O   UNL     1      -6.174   6.740  65.106  1.00  0.00    -0.037 OA 
HETATM   15  C   UNL     1      -8.243  12.036  67.520  1.00  0.00    -0.159 C  
HETATM   16  C   UNL     1      -7.612   7.707  66.721  1.00  0.00    -0.098 C  
HETATM   17  C   UNL     1      -8.693  11.093  66.184  1.00  0.00    -0.188 C  
HETATM   18  O   UNL     1      -7.176  12.912  67.116  1.00  0.00    -0.329 OA 
HETATM   19  H   UNL     1      -6.539  12.372  66.662  1.00  0.00     0.000 HD 
HETATM   20  C   UNL     1      -9.448  11.965  64.946  1.00  0.00    -0.002 C  
HETATM   21  C   UNL     1      -7.219   7.322  65.365  1.00  0.00    -0.066 C  
HETATM   22  C   UNL     1      -8.070   7.927  64.355  1.00  0.00    -0.103 C  
HETATM   23  C   UNL     1      -9.977  10.984  63.888  1.00  0.00    -0.396 C  
HETATM   24  C   UNL     1      -8.913  10.024  63.393  1.00  0.00    -0.257 C  
HETATM   25  C   UNL     1      -8.243   9.254  64.494  1.00  0.00    -0.151 C  
HETATM   26  F   UNL     1      -9.514   9.175  62.508  1.00  0.00    -0.154 F  
ENDROOT
BRANCH   5  27
HETATM   27  C   UNL     1      -8.637  15.309  67.376  1.00  0.00    -0.180 C  
HETATM   28  O   UNL     1      -8.367  15.288  68.590  1.00  0.00    -0.144 OA 
BRANCH  27  29
HETATM   29  C   UNL     1      -8.333  16.710  66.681  1.00  0.00    -0.261 C  
BRANCH  29  30
HETATM   30  O   UNL     1      -9.217  17.791  67.296  1.00  0.00    -0.247 OA 
BRANCH  30  31
HETATM   31  C   UNL     1     -10.115  18.482  66.531  1.00  0.00    -0.400 C  
HETATM   32  C   UNL     1     -10.502  19.805  67.250  1.00  0.00    -0.579 C  
HETATM   33  O   UNL     1     -10.619  18.090  65.532  1.00  0.00    -0.639 OA 
ENDBRANCH  30  31
ENDBRANCH  29  30
ENDBRANCH  27  29
ENDBRANCH   5  27
TORSDOF 4
ENDMDL
MODEL       23
REMARK 921   NORMALIZED FREE ENERGY PREDICTED BY IDOCK:   -5.97 KCAL/MOL
REMARK 922        TOTAL FREE ENERGY PREDICTED BY IDOCK:   -7.17 KCAL/MOL
REMARK 923 INTER-LIGAND FREE ENERGY PREDICTED BY IDOCK:   -7.10 KCAL/MOL
REMARK 924 INTRA-LIGAND FREE ENERGY PREDICTED BY IDOCK:   -0.07 KCAL/MOL
REMARK 927      BINDING AFFINITY PREDICTED BY RF-SCORE:    0.00 PKD
ROOT
HETATM    1  C   UNL     1      -7.969  10.452  68.853  1.00  0.00    -0.123 C  
HETATM    2  C   UNL     1      -7.123   9.528  68.237  1.00  0.00    -0.075 C  
HETATM    3  C   UNL     1      -8.577   9.366  67.908  1.00  0.00    -0.120 C  
HETATM    4  C   UNL     1      -8.276   7.934  67.068  1.00  0.00    -0.117 C  
HETATM    5  C   UNL     1      -9.766  11.000  68.395  1.00  0.00    -0.180 C  
HETATM    6  C   UNL     1     -11.466   8.775  72.045  1.00  0.00    -0.441 C  
HETATM    7  O   UNL     1      -9.146  12.249  68.967  1.00  0.00    -0.364 OA 
HETATM    8  C   UNL     1      -9.097  10.632  67.277  1.00  0.00    -0.151 C  
HETATM    9  C   UNL     1     -10.643   9.550  67.208  1.00  0.00    -0.317 C  
HETATM   10  H   UNL     1      -9.689  12.996  69.189  1.00  0.00     0.000 HD 
HETATM   11  C   UNL     1     -10.574   7.830  71.258  1.00  0.00    -0.241 C  
HETATM   12  C   UNL     1     -11.278   6.516  70.751  1.00  0.00    -0.377 C  
HETATM   13  C   UNL     1      -8.529  11.531  66.208  1.00  0.00    -0.108 C  
HETATM   14  O   UNL     1     -11.285   5.132  73.624  1.00  0.00    -0.296 OA 
HETATM   15  C   UNL     1     -11.150   9.030  68.834  1.00  0.00     0.164 C  
HETATM   16  C   UNL     1     -10.958   5.325  71.286  1.00  0.00    -0.059 C  
HETATM   17  C   UNL     1     -10.009   8.540  69.990  1.00  0.00    -0.191 C  
HETATM   18  O   UNL     1     -11.919  10.112  69.389  1.00  0.00    -0.495 OA 
HETATM   19  H   UNL     1     -12.190   9.835  70.257  1.00  0.00     0.000 HD 
HETATM   20  C   UNL     1      -8.792   9.678  70.284  1.00  0.00    -0.253 C  
HETATM   21  C   UNL     1     -10.569   5.465  72.689  1.00  0.00    -0.228 C  
HETATM   22  C   UNL     1      -9.367   6.265  72.848  1.00  0.00    -0.140 C  
HETATM   23  C   UNL     1      -7.723   9.051  71.193  1.00  0.00    -0.143 C  
HETATM   24  C   UNL     1      -8.307   8.446  72.454  1.00  0.00    -0.155 C  
HETATM   25  C   UNL     1      -9.389   7.439  72.190  1.00  0.00    -0.164 C  
HETATM   26  F   UNL     1      -7.276   7.875  73.145  1.00  0.00    -0.084 F  
ENDROOT
BRANCH   5  27
HETATM   27  C   UNL     1     -10.982  12.091  67.614  1.00  0.00    -0.238 C  
HETATM   28  O   UNL     1     -11.824  11.701  66.786  1.00  0.00    -0.557 OA 
BRANCH  27  29
HETATM   29  C   UNL     1     -11.001  13.667  67.847  1.00  0.00    -0.259 C  
BRANCH  29  30
HETATM   30  O   UNL     1     -12.161  14.038  68.765  1.00  0.00    -0.337 OA 
BRANCH  30  31
HETATM   31  C   UNL     1     -12.113  13.758  70.103  1.00  0.00    -0.359 C  
HETATM   32  C   UNL     1     -11.531  14.980  70.869  1.00  0.00    -0.330 C  
HETATM   33  O   UNL     1     -12.360  12.711  70.601  1.00  0.00    -0.359 OA 
ENDBRANCH  30  31
ENDBRANCH  29  30
ENDBRANCH  27  29
ENDBRANCH   5  27
TORSDOF 4
ENDMDL
MODEL       24
REMARK 921   NORMALIZED FREE ENERGY PREDICTED BY IDOCK:   -5.91 KCAL/MOL
REMARK 922        TOTAL FREE ENERGY PREDICTED BY IDOCK:   -7.10 KCAL/MOL
REMARK 923 INTER-LIGAND FREE ENERGY PREDICTED BY IDOCK:   -7.08 KCAL/MOL
REMARK 924 INTRA-LIGAND FREE ENERGY PREDICTED BY IDOCK:   -0.02 KCAL/MOL
REMARK 927      BINDING AFFINITY PREDICTED BY RF-SCORE:    0.00 PKD
ROOT
HETATM    1  C   UNL     1      -9.869  16.215  66.995  1.00  0.00    -0.248 C  
HETATM    2  C   UNL     1     -10.924  16.402  67.889  1.00  0.00    -0.298 C  
HETATM    3  C   UNL     1      -9.672  15.849  68.500  1.00  0.00    -0.211 C  
HETATM    4  C   UNL     1     -10.443  15.609  69.982  1.00  0.00    -0.333 C  
HETATM    5  C   UNL     1      -7.971  16.037  67.319  1.00  0.00    -0.178 C  
HETATM    6  C   UNL     1      -8.123  11.565  66.251  1.00  0.00    -0.014 C  
HETATM    7  O   UNL     1      -8.042  16.747  65.992  1.00  0.00    -0.402 OA 
HETATM    8  C   UNL     1      -8.533  16.811  68.278  1.00  0.00    -0.222 C  
HETATM    9  C   UNL     1      -7.663  15.472  69.285  1.00  0.00    -0.223 C  
HETATM   10  H   UNL     1      -7.265  16.834  65.452  1.00  0.00     0.000 HD 
HETATM   11  C   UNL     1      -9.198  11.867  67.281  1.00  0.00    -0.179 C  
HETATM   12  C   UNL     1      -9.095  11.037  68.614  1.00  0.00    -0.174 C  
HETATM   13  C   UNL     1      -8.437  18.309  68.423  1.00  0.00    -0.319 C  
HETATM   14  O   UNL     1     -10.209   8.352  67.306  1.00  0.00    -0.227 OA 
HETATM   15  C   UNL     1      -7.734  13.890  68.469  1.00  0.00    -0.139 C  
HETATM   16  C   UNL     1     -10.008  10.093  68.899  1.00  0.00    -0.207 C  
HETATM   17  C   UNL     1      -9.151  13.369  67.696  1.00  0.00    -0.203 C  
HETATM   18  O   UNL     1      -6.664  13.876  67.507  1.00  0.00    -0.179 OA 
HETATM   19  H   UNL     1      -6.702  13.033  67.072  1.00  0.00     0.000 HD 
HETATM   20  C   UNL     1      -9.747  14.454  66.542  1.00  0.00    -0.305 C  
HETATM   21  C   UNL     1     -10.524   9.474  67.678  1.00  0.00    -0.263 C  
HETATM   22  C   UNL     1     -11.237  10.423  66.841  1.00  0.00     0.058 C  
HETATM   23  C   UNL     1     -11.122  13.969  66.055  1.00  0.00    -0.303 C  
HETATM   24  C   UNL     1     -11.102  12.529  65.582  1.00  0.00    -0.303 C  
HETATM   25  C   UNL     1     -10.570  11.569  66.607  1.00  0.00    -0.294 C  
HETATM   26  F   UNL     1     -12.381  12.200  65.232  1.00  0.00    -0.451 F  
ENDROOT
BRANCH   5  27
HETATM   27  C   UNL     1      -6.279  16.668  67.445  1.00  0.00    -0.160 C  
HETATM   28  O   UNL     1      -5.581  16.566  68.469  1.00  0.00    -0.113 OA 
BRANCH  27  29
HETATM   29  C   UNL     1      -5.582  17.504  66.281  1.00  0.00    -0.206 C  
BRANCH  29  30
HETATM   30  O   UNL     1      -5.765  18.996  66.538  1.00  0.00    -0.157 OA 
BRANCH  30  31
HETATM   31  C   UNL     1      -6.410  19.790  65.630  1.00  0.00    -0.224 C  
HETATM   32  C   UNL     1      -5.469  20.949  65.193  1.00  0.00    -0.248 C  
HETATM   33  O   UNL     1      -7.547  19.692  65.308  1.00  0.00    -0.353 OA 
ENDBRANCH  30  31
ENDBRANCH  29  30
ENDBRANCH  27  29
ENDBRANCH   5  27
TORSDOF 4
ENDMDL
MODEL       25
REMARK 921   NORMALIZED FREE ENERGY PREDICTED BY IDOCK:   -5.87 KCAL/MOL
REMARK 922        TOTAL FREE ENERGY PREDICTED BY IDOCK:   -7.05 KCAL/MOL
REMARK 923 INTER-LIGAND FREE ENERGY PREDICTED BY IDOCK:   -8.00 KCAL/MOL
REMARK 924 INTRA-LIGAND FREE ENERGY PREDICTED BY IDOCK:    0.95 KCAL/MOL
REMARK 927      BINDING AFFINITY PREDICTED BY RF-SCORE:    0.00 PKD
ROOT
HETATM    1  C   UNL     1     -10.755  15.845  69.165  1.00  0.00    -0.259 C  
HETATM    2  C   UNL     1      -9.819  15.635  70.179  1.00  0.00     0.039 C  
HETATM    3  C   UNL     1      -9.250  15.651  68.792  1.00  0.00    -0.211 C  
HETATM    4  C   UNL     1      -7.730  15.187  69.358  1.00  0.00    -0.213 C  
HETATM    5  C   UNL     1     -10.511  16.451  67.344  1.00  0.00    -0.309 C  
HETATM    6  C   UNL     1     -11.454  12.246  65.732  1.00  0.00    -0.417 C  
HETATM    7  O   UNL     1     -11.852  17.017  67.733  1.00  0.00     0.600 OA 
HETATM    8  C   UNL     1      -9.548  16.977  68.139  1.00  0.00    -0.266 C  
HETATM    9  C   UNL     1      -8.546  16.137  66.776  1.00  0.00    -0.282 C  
HETATM   10  H   UNL     1     -12.428  17.383  67.072  1.00  0.00     0.000 HD 
HETATM   11  C   UNL     1     -10.385  12.139  66.806  1.00  0.00    -0.237 C  
HETATM   12  C   UNL     1      -9.036  11.475  66.339  1.00  0.00    -0.206 C  
HETATM   13  C   UNL     1      -9.447  18.393  68.644  1.00  0.00    -0.356 C  
HETATM   14  O   UNL     1     -10.223   8.516  66.329  1.00  0.00    -0.237 OA 
HETATM   15  C   UNL     1      -9.317  14.625  66.235  1.00  0.00    -0.262 C  
HETATM   16  C   UNL     1      -8.686  10.258  66.791  1.00  0.00    -0.132 C  
HETATM   17  C   UNL     1     -10.012  13.552  67.350  1.00  0.00    -0.234 C  
HETATM   18  O   UNL     1     -10.325  14.997  65.279  1.00  0.00    -0.354 OA 
HETATM   19  H   UNL     1     -10.736  14.191  64.990  1.00  0.00     0.000 HD 
HETATM   20  C   UNL     1     -11.166  14.261  68.364  1.00  0.00    -0.291 C  
HETATM   21  C   UNL     1      -9.867   9.435  67.054  1.00  0.00    -0.201 C  
HETATM   22  C   UNL     1     -10.695   9.986  68.112  1.00  0.00    -0.282 C  
HETATM   23  C   UNL     1     -11.578  13.249  69.445  1.00  0.00    -0.364 C  
HETATM   24  C   UNL     1     -12.013  11.917  68.867  1.00  0.00    -0.254 C  
HETATM   25  C   UNL     1     -10.989  11.292  67.965  1.00  0.00    -0.302 C  
HETATM   26  F   UNL     1     -12.297  11.092  69.918  1.00  0.00    -0.337 F  
ENDROOT
BRANCH   5  27
HETATM   27  C   UNL     1     -10.477  17.707  66.041  1.00  0.00    -0.278 C  
HETATM   28  O   UNL     1     -10.922  17.522  64.895  1.00  0.00    -0.887 OA 
BRANCH  27  29
HETATM   29  C   UNL     1      -9.774  19.125  66.229  1.00  0.00    -0.365 C  
BRANCH  29  30
HETATM   30  O   UNL     1      -8.445  19.143  65.479  1.00  0.00    -0.224 OA 
BRANCH  30  31
HETATM   31  C   UNL     1      -7.344  19.747  66.019  1.00  0.00    -0.307 C  
HETATM   32  C   UNL     1      -6.058  19.031  65.517  1.00  0.00    -0.263 C  
HETATM   33  O   UNL     1      -7.356  20.605  66.837  1.00  0.00    -0.301 OA 
ENDBRANCH  30  31
ENDBRANCH  29  30
ENDBRANCH  27  29
ENDBRANCH   5  27
TORSDOF 4
ENDMDL
MODEL       26
REMARK 921   NORMALIZED FREE ENERGY PREDICTED BY IDOCK:   -5.83 KCAL/MOL
REMARK 922        TOTAL FREE ENERGY PREDICTED BY IDOCK:   -7.00 KCAL/MOL
REMARK 923 INTER-LIGAND FREE ENERGY PREDICTED BY IDOCK:   -7.14 KCAL/MOL
REMARK 924 INTRA-LIGAND FREE ENERGY PREDICTED BY IDOCK:    0.14 KCAL/MOL
REMARK 927      BINDING AFFINITY PREDICTED BY RF-SCORE:    0.00 PKD
ROOT
HETATM    1  C   UNL     1     -11.750  14.958  66.351  1.00  0.00    -0.193 C  
HETATM    2  C   UNL     1     -11.611  14.737  64.980  1.00  0.00    -0.378 C  
HETATM    3  C   UNL     1     -10.539  14.121  65.828  1.00  0.00    -0.306 C  
HETATM    4  C   UNL     1      -9.661  13.655  64.465  1.00  0.00     0.539 C  
HETATM    5  C   UNL     1     -10.992  14.007  67.854  1.00  0.00    -0.247 C  
HETATM    6  C   UNL     1      -8.167  17.523  68.762  1.00  0.00    -0.222 C  
HETATM    7  O   UNL     1     -12.337  14.461  68.360  1.00  0.00    -0.600 OA 
HETATM    8  C   UNL     1     -11.161  13.161  66.810  1.00  0.00    -0.330 C  
HETATM    9  C   UNL     1      -9.332  12.944  67.225  1.00  0.00    -0.212 C  
HETATM   10  H   UNL     1     -12.544  14.409  69.285  1.00  0.00     0.000 HD 
HETATM   11  C   UNL     1      -8.043  17.152  67.294  1.00  0.00    -0.206 C  
HETATM   12  C   UNL     1      -6.593  16.753  66.827  1.00  0.00    -0.247 C  
HETATM   13  C   UNL     1     -12.221  12.101  66.649  1.00  0.00     0.305 C  
HETATM   14  O   UNL     1      -5.518  19.755  66.813  1.00  0.00    -0.167 OA 
HETATM   15  C   UNL     1      -8.593  14.479  67.745  1.00  0.00    -0.175 C  
HETATM   16  C   UNL     1      -5.898  17.560  66.007  1.00  0.00    -0.173 C  
HETATM   17  C   UNL     1      -8.960  15.936  66.958  1.00  0.00    -0.239 C  
HETATM   18  O   UNL     1      -8.902  14.631  69.142  1.00  0.00    -0.327 OA 
HETATM   19  H   UNL     1      -8.509  15.450  69.420  1.00  0.00     0.000 HD 
HETATM   20  C   UNL     1     -10.615  16.282  66.881  1.00  0.00    -0.270 C  
HETATM   21  C   UNL     1      -6.247  18.964  66.230  1.00  0.00    -0.184 C  
HETATM   22  C   UNL     1      -7.637  19.240  65.913  1.00  0.00    -0.266 C  
HETATM   23  C   UNL     1     -10.833  17.512  65.987  1.00  0.00     0.031 C  
HETATM   24  C   UNL     1      -9.983  18.697  66.401  1.00  0.00    -0.388 C  
HETATM   25  C   UNL     1      -8.515  18.387  66.471  1.00  0.00    -0.287 C  
HETATM   26  F   UNL     1     -10.221  19.700  65.504  1.00  0.00    -0.423 F  
ENDROOT
BRANCH   5  27
HETATM   27  C   UNL     1     -11.026  12.778  69.183  1.00  0.00    -0.133 C  
HETATM   28  O   UNL     1     -10.309  11.763  69.201  1.00  0.00    -0.118 OA 
BRANCH  27  29
HETATM   29  C   UNL     1     -12.062  12.846  70.393  1.00  0.00    -0.306 C  
BRANCH  29  30
HETATM   30  O   UNL     1     -11.831  14.121  71.197  1.00  0.00    -0.298 OA 
BRANCH  30  31
HETATM   31  C   UNL     1     -12.847  14.694  71.911  1.00  0.00    -0.328 C  
HETATM   32  C   UNL     1     -13.674  13.584  72.621  1.00  0.00    -0.533 C  
HETATM   33  O   UNL     1     -13.138  15.843  71.902  1.00  0.00    -0.459 OA 
ENDBRANCH  30  31
ENDBRANCH  29  30
ENDBRANCH  27  29
ENDBRANCH   5  27
TORSDOF 4
ENDMDL
MODEL       27
REMARK 921   NORMALIZED FREE ENERGY PREDICTED BY IDOCK:   -5.82 KCAL/MOL
REMARK 922        TOTAL FREE ENERGY PREDICTED BY IDOCK:   -6.99 KCAL/MOL
REMARK 923 INTER-LIGAND FREE ENERGY PREDICTED BY IDOCK:   -7.06 KCAL/MOL
REMARK 924 INTRA-LIGAND FREE ENERGY PREDICTED BY IDOCK:    0.07 KCAL/MOL
REMARK 927      BINDING AFFINITY PREDICTED BY RF-SCORE:    0.00 PKD
ROOT
HETATM    1  C   UNL     1      -7.075   9.145  66.798  1.00  0.00    -0.082 C  
HETATM    2  C   UNL     1      -6.039   9.678  66.028  1.00  0.00    -0.064 C  
HETATM    3  C   UNL     1      -6.510  10.559  67.146  1.00  0.00    -0.073 C  
HETATM    4  C   UNL     1      -5.532  11.830  66.620  1.00  0.00    -0.059 C  
HETATM    5  C   UNL     1      -7.668   9.599  68.581  1.00  0.00    -0.080 C  
HETATM    6  C   UNL     1     -11.490  11.536  66.905  1.00  0.00    -0.261 C  
HETATM    7  O   UNL     1      -7.922   8.117  68.486  1.00  0.00    -0.121 OA 
HETATM    8  C   UNL     1      -6.341   9.841  68.460  1.00  0.00    -0.047 C  
HETATM    9  C   UNL     1      -7.012  11.503  69.056  1.00  0.00    -0.112 C  
HETATM   10  H   UNL     1      -8.451   7.678  69.142  1.00  0.00     0.000 HD 
HETATM   11  C   UNL     1     -10.284  12.103  66.176  1.00  0.00    -0.254 C  
HETATM   12  C   UNL     1     -10.125  13.667  66.265  1.00  0.00    -0.301 C  
HETATM   13  C   UNL     1      -5.204   9.029  69.025  1.00  0.00    -0.037 C  
HETATM   14  O   UNL     1     -12.463  14.260  64.180  1.00  0.00    -0.675 OA 
HETATM   15  C   UNL     1      -8.619  11.845  68.368  1.00  0.00    -0.152 C  
HETATM   16  C   UNL     1     -10.322  14.433  65.178  1.00  0.00    -0.447 C  
HETATM   17  C   UNL     1      -8.965  11.496  66.744  1.00  0.00    -0.181 C  
HETATM   18  O   UNL     1      -9.574  11.152  69.192  1.00  0.00    -0.380 OA 
HETATM   19  H   UNL     1     -10.431  11.333  68.825  1.00  0.00     0.000 HD 
HETATM   20  C   UNL     1      -8.662   9.891  66.302  1.00  0.00    -0.152 C  
HETATM   21  C   UNL     1     -11.319  13.838  64.288  1.00  0.00    -0.326 C  
HETATM   22  C   UNL     1     -10.884  12.560  63.753  1.00  0.00    -0.489 C  
HETATM   23  C   UNL     1      -8.826   9.747  64.781  1.00  0.00    -0.239 C  
HETATM   24  C   UNL     1     -10.157  10.274  64.282  1.00  0.00    -0.121 C  
HETATM   25  C   UNL     1     -10.425  11.697  64.678  1.00  0.00    -0.354 C  
HETATM   26  F   UNL     1     -10.161  10.143  62.922  1.00  0.00    -0.221 F  
ENDROOT
BRANCH   5  27
HETATM   27  C   UNL     1      -7.724   9.386  70.378  1.00  0.00    -0.153 C  
HETATM   28  O   UNL     1      -6.921   9.924  71.160  1.00  0.00    -0.338 OA 
BRANCH  27  29
HETATM   29  C   UNL     1      -8.748   8.399  71.097  1.00  0.00    -0.159 C  
BRANCH  29  30
HETATM   30  O   UNL     1     -10.099   8.454  70.389  1.00  0.00    -0.184 OA 
BRANCH  30  31
HETATM   31  C   UNL     1     -11.246   8.716  71.086  1.00  0.00    -0.272 C  
HETATM   32  C   UNL     1     -12.039   7.394  71.297  1.00  0.00    -0.359 C  
HETATM   33  O   UNL     1     -11.645   9.791  71.385  1.00  0.00    -0.364 OA 
ENDBRANCH  30  31
ENDBRANCH  29  30
ENDBRANCH  27  29
ENDBRANCH   5  27
TORSDOF 4
ENDMDL
MODEL       28
REMARK 921   NORMALIZED FREE ENERGY PREDICTED BY IDOCK:   -5.77 KCAL/MOL
REMARK 922        TOTAL FREE ENERGY PREDICTED BY IDOCK:   -6.93 KCAL/MOL
REMARK 923 INTER-LIGAND FREE ENERGY PREDICTED BY IDOCK:   -7.34 KCAL/MOL
REMARK 924 INTRA-LIGAND FREE ENERGY PREDICTED BY IDOCK:    0.41 KCAL/MOL
REMARK 927      BINDING AFFINITY PREDICTED BY RF-SCORE:    0.00 PKD
ROOT
HETATM    1  C   UNL     1      -9.310   8.340  66.355  1.00  0.00    -0.274 C  
HETATM    2  C   UNL     1      -8.103   8.386  65.657  1.00  0.00    -0.125 C  
HETATM    3  C   UNL     1      -8.050   8.959  67.041  1.00  0.00    -0.109 C  
HETATM    4  C   UNL     1      -6.474   9.511  66.804  1.00  0.00    -0.067 C  
HETATM    5  C   UNL     1      -9.661   8.452  68.254  1.00  0.00    -0.144 C  
HETATM    6  C   UNL     1     -11.458  12.658  67.758  1.00  0.00    -0.375 C  
HETATM    7  O   UNL     1     -10.731   7.521  67.747  1.00  0.00    -0.374 OA 
HETATM    8  C   UNL     1      -8.442   7.902  68.041  1.00  0.00    -0.123 C  
HETATM    9  C   UNL     1      -8.049   9.343  69.196  1.00  0.00    -0.107 C  
HETATM   10  H   UNL     1     -11.467   7.288  68.301  1.00  0.00     0.000 HD 
HETATM   11  C   UNL     1     -10.097  12.617  67.085  1.00  0.00    -0.224 C  
HETATM   12  C   UNL     1      -9.055  13.666  67.625  1.00  0.00    -0.207 C  
HETATM   13  C   UNL     1      -8.052   6.452  68.179  1.00  0.00    -0.113 C  
HETATM   14  O   UNL     1     -10.419  16.136  66.141  1.00  0.00    -0.314 OA 
HETATM   15  C   UNL     1      -9.085  10.753  68.859  1.00  0.00    -0.164 C  
HETATM   16  C   UNL     1      -8.675  14.702  66.858  1.00  0.00    -0.251 C  
HETATM   17  C   UNL     1      -9.439  11.214  67.266  1.00  0.00    -0.178 C  
HETATM   18  O   UNL     1     -10.326  10.524  69.550  1.00  0.00    -0.229 OA 
HETATM   19  H   UNL     1     -10.879  11.275  69.370  1.00  0.00     0.000 HD 
HETATM   20  C   UNL     1     -10.107   9.979  66.321  1.00  0.00    -0.310 C  
HETATM   21  C   UNL     1      -9.757  15.122  65.966  1.00  0.00    -0.330 C  
HETATM   22  C   UNL     1     -10.118  14.084  65.016  1.00  0.00    -0.323 C  
HETATM   23  C   UNL     1     -10.204  10.455  64.863  1.00  0.00    -0.330 C  
HETATM   24  C   UNL     1     -10.923  11.782  64.725  1.00  0.00    -0.303 C  
HETATM   25  C   UNL     1     -10.331  12.875  65.567  1.00  0.00    -0.304 C  
HETATM   26  F   UNL     1     -10.895  12.123  63.403  1.00  0.00    -0.400 F  
ENDROOT
BRANCH   5  27
HETATM   27  C   UNL     1      -9.974   7.748  69.892  1.00  0.00    -0.191 C  
HETATM   28  O   UNL     1      -9.489   8.205  70.941  1.00  0.00    -0.158 OA 
BRANCH  27  29
HETATM   29  C   UNL     1     -10.817   6.413  70.109  1.00  0.00    -0.296 C  
BRANCH  29  30
HETATM   30  O   UNL     1     -11.349   6.368  71.538  1.00  0.00    -0.270 OA 
BRANCH  30  31
HETATM   31  C   UNL     1     -11.071   5.308  72.356  1.00  0.00    -0.197 C  
HETATM   32  C   UNL     1      -9.999   4.401  71.686  1.00  0.00    -0.256 C  
HETATM   33  O   UNL     1     -11.635   5.044  73.365  1.00  0.00    -0.291 OA 
ENDBRANCH  30  31
ENDBRANCH  29  30
ENDBRANCH  27  29
ENDBRANCH   5  27
TORSDOF 4
ENDMDL
MODEL       29
REMARK 921   NORMALIZED FREE ENERGY PREDICTED BY IDOCK:   -5.76 KCAL/MOL
REMARK 922        TOTAL FREE ENERGY PREDICTED BY IDOCK:   -6.92 KCAL/MOL
REMARK 923 INTER-LIGAND FREE ENERGY PREDICTED BY IDOCK:   -7.56 KCAL/MOL
REMARK 924 INTRA-LIGAND FREE ENERGY PREDICTED BY IDOCK:    0.64 KCAL/MOL
REMARK 927      BINDING AFFINITY PREDICTED BY RF-SCORE:    0.00 PKD
ROOT
HETATM    1  C   UNL     1      -9.678  12.836  64.750  1.00  0.00     0.074 C  
HETATM    2  C   UNL     1     -10.528  12.499  63.695  1.00  0.00    -0.418 C  
HETATM    3  C   UNL     1     -11.151  12.415  65.056  1.00  0.00    -0.344 C  
HETATM    4  C   UNL     1     -12.559  11.735  64.421  1.00  0.00     0.010 C  
HETATM    5  C   UNL     1     -10.088  13.378  66.560  1.00  0.00    -0.280 C  
HETATM    6  C   UNL     1      -8.596   9.345  68.195  1.00  0.00    -0.120 C  
HETATM    7  O   UNL     1      -8.831  14.143  66.233  1.00  0.00    -0.473 OA 
HETATM    8  C   UNL     1     -11.083  13.763  65.727  1.00  0.00    -0.290 C  
HETATM    9  C   UNL     1     -12.006  12.768  67.040  1.00  0.00    -0.364 C  
HETATM   10  H   UNL     1      -8.345  14.583  66.921  1.00  0.00     0.000 HD 
HETATM   11  C   UNL     1      -9.590   9.090  67.075  1.00  0.00    -0.231 C  
HETATM   12  C   UNL     1     -10.843   8.227  67.478  1.00  0.00    -0.094 C  
HETATM   13  C   UNL     1     -11.374  15.154  65.224  1.00  0.00    -0.318 C  
HETATM   14  O   UNL     1      -9.229   5.478  67.528  1.00  0.00    -0.111 OA 
HETATM   15  C   UNL     1     -11.042  11.382  67.608  1.00  0.00    -0.268 C  
HETATM   16  C   UNL     1     -10.987   6.977  67.007  1.00  0.00    -0.357 C  
HETATM   17  C   UNL     1     -10.147  10.437  66.520  1.00  0.00    -0.285 C  
HETATM   18  O   UNL     1     -10.143  11.891  68.609  1.00  0.00    -0.239 OA 
HETATM   19  H   UNL     1      -9.628  11.152  68.913  1.00  0.00     0.000 HD 
HETATM   20  C   UNL     1      -9.069  11.321  65.561  1.00  0.00    -0.184 C  
HETATM   21  C   UNL     1      -9.687   6.342  66.792  1.00  0.00    -0.156 C  
HETATM   22  C   UNL     1      -8.905   7.022  65.774  1.00  0.00    -0.088 C  
HETATM   23  C   UNL     1      -8.464  10.395  64.495  1.00  0.00    -0.172 C  
HETATM   24  C   UNL     1      -7.860   9.136  65.086  1.00  0.00    -0.106 C  
HETATM   25  C   UNL     1      -8.817   8.355  65.939  1.00  0.00    -0.212 C  
HETATM   26  F   UNL     1      -7.411   8.375  64.045  1.00  0.00    -0.090 F  
ENDROOT
BRANCH   5  27
HETATM   27  C   UNL     1     -10.365  14.601  67.866  1.00  0.00    -0.237 C  
HETATM   28  O   UNL     1      -9.462  15.042  68.598  1.00  0.00    -0.198 OA 
BRANCH  27  29
HETATM   29  C   UNL     1     -11.815  15.134  68.254  1.00  0.00    -0.250 C  
BRANCH  29  30
HETATM   30  O   UNL     1     -11.823  15.594  69.708  1.00  0.00    -0.332 OA 
BRANCH  30  31
HETATM   31  C   UNL     1     -12.734  15.093  70.597  1.00  0.00    -0.398 C  
HETATM   32  C   UNL     1     -12.406  13.601  70.892  1.00  0.00    -0.450 C  
HETATM   33  O   UNL     1     -13.697  15.659  70.994  1.00  0.00    -0.582 OA 
ENDBRANCH  30  31
ENDBRANCH  29  30
ENDBRANCH  27  29
ENDBRANCH   5  27
TORSDOF 4
ENDMDL
MODEL       30
REMARK 921   NORMALIZED FREE ENERGY PREDICTED BY IDOCK:   -5.73 KCAL/MOL
REMARK 922        TOTAL FREE ENERGY PREDICTED BY IDOCK:   -6.88 KCAL/MOL
REMARK 923 INTER-LIGAND FREE ENERGY PREDICTED BY IDOCK:   -7.25 KCAL/MOL
REMARK 924 INTRA-LIGAND FREE ENERGY PREDICTED BY IDOCK:    0.37 KCAL/MOL
REMARK 927      BINDING AFFINITY PREDICTED BY RF-SCORE:    0.00 PKD
ROOT
HETATM    1  C   UNL     1     -11.416  13.346  67.756  1.00  0.00    -0.351 C  
HETATM    2  C   UNL     1     -11.946  13.610  66.492  1.00  0.00    -0.465 C  
HETATM    3  C   UNL     1     -10.536  13.099  66.489  1.00  0.00    -0.290 C  
HETATM    4  C   UNL     1     -10.397  13.353  64.827  1.00  0.00    -0.397 C  
HETATM    5  C   UNL     1      -9.920  12.238  68.278  1.00  0.00    -0.216 C  
HETATM    6  C   UNL     1      -7.411  15.958  69.293  1.00  0.00    -0.221 C  
HETATM    7  O   UNL     1     -10.882  12.104  69.429  1.00  0.00    -0.436 OA 
HETATM    8  C   UNL     1     -10.488  11.746  67.151  1.00  0.00    -0.250 C  
HETATM    9  C   UNL     1      -8.680  11.949  66.647  1.00  0.00    -0.185 C  
HETATM   10  H   UNL     1     -10.601  11.710  70.247  1.00  0.00     0.000 HD 
HETATM   11  C   UNL     1      -7.985  16.112  67.896  1.00  0.00    -0.150 C  
HETATM   12  C   UNL     1      -6.919  16.314  66.756  1.00  0.00    -0.165 C  
HETATM   13  C   UNL     1     -11.369  10.529  67.023  1.00  0.00     0.102 C  
HETATM   14  O   UNL     1      -6.320  19.348  67.531  1.00  0.00    -0.197 OA 
HETATM   15  C   UNL     1      -7.951  13.393  67.395  1.00  0.00    -0.163 C  
HETATM   16  C   UNL     1      -6.808  17.500  66.133  1.00  0.00    -0.311 C  
HETATM   17  C   UNL     1      -8.812  14.850  67.502  1.00  0.00    -0.195 C  
HETATM   18  O   UNL     1      -7.548  13.008  68.721  1.00  0.00    -0.220 OA 
HETATM   19  H   UNL     1      -7.159  13.777  69.121  1.00  0.00     0.000 HD 
HETATM   20  C   UNL     1     -10.317  14.709  68.263  1.00  0.00    -0.230 C  
HETATM   21  C   UNL     1      -7.151  18.602  67.032  1.00  0.00    -0.201 C  
HETATM   22  C   UNL     1      -8.538  18.549  67.460  1.00  0.00    -0.272 C  
HETATM   23  C   UNL     1     -11.078  16.037  68.128  1.00  0.00    -0.344 C  
HETATM   24  C   UNL     1     -10.267  17.228  68.600  1.00  0.00    -0.351 C  
HETATM   25  C   UNL     1      -8.931  17.349  67.926  1.00  0.00    -0.251 C  
HETATM   26  F   UNL     1     -11.021  18.345  68.380  1.00  0.00    -0.220 F  
ENDROOT
BRANCH   5  27
HETATM   27  C   UNL     1      -9.164  10.703  68.871  1.00  0.00    -0.183 C  
HETATM   28  O   UNL     1      -8.141  10.202  68.372  1.00  0.00    -0.100 OA 
BRANCH  27  29
HETATM   29  C   UNL     1      -9.815   9.809  70.018  1.00  0.00    -0.251 C  
BRANCH  29  30
HETATM   30  O   UNL     1      -9.457   8.343  69.794  1.00  0.00    -0.161 OA 
BRANCH  30  31
HETATM   31  C   UNL     1     -10.430   7.412  69.555  1.00  0.00    -0.232 C  
HETATM   32  C   UNL     1      -9.932   6.403  68.482  1.00  0.00    -0.155 C  
HETATM   33  O   UNL     1     -11.529   7.429  70.000  1.00  0.00    -0.189 OA 
ENDBRANCH  30  31
ENDBRANCH  29  30
ENDBRANCH  27  29
ENDBRANCH   5  27
TORSDOF 4
ENDMDL
MODEL       31
REMARK 921   NORMALIZED FREE ENERGY PREDICTED BY IDOCK:   -5.73 KCAL/MOL
REMARK 922        TOTAL FREE ENERGY PREDICTED BY IDOCK:   -6.88 KCAL/MOL
REMARK 923 INTER-LIGAND FREE ENERGY PREDICTED BY IDOCK:   -7.01 KCAL/MOL
REMARK 924 INTRA-LIGAND FREE ENERGY PREDICTED BY IDOCK:    0.13 KCAL/MOL
REMARK 927      BINDING AFFINITY PREDICTED BY RF-SCORE:    0.00 PKD
ROOT
HETATM    1  C   UNL     1      -9.996   9.576  65.878  1.00  0.00    -0.342 C  
HETATM    2  C   UNL     1      -8.996  10.001  65.002  1.00  0.00    -0.234 C  
HETATM    3  C   UNL     1      -8.641  10.097  66.456  1.00  0.00    -0.132 C  
HETATM    4  C   UNL     1      -7.197  10.894  66.100  1.00  0.00    -0.101 C  
HETATM    5  C   UNL     1      -9.885   9.021  67.727  1.00  0.00    -0.168 C  
HETATM    6  C   UNL     1     -11.957  12.892  69.101  1.00  0.00    -0.308 C  
HETATM    7  O   UNL     1     -10.998   8.174  67.165  1.00  0.00    -0.466 OA 
HETATM    8  C   UNL     1      -8.727   8.731  67.088  1.00  0.00    -0.127 C  
HETATM    9  C   UNL     1      -8.140   9.758  68.560  1.00  0.00    -0.104 C  
HETATM   10  H   UNL     1     -11.566   7.682  67.746  1.00  0.00     0.000 HD 
HETATM   11  C   UNL     1     -10.797  13.246  68.187  1.00  0.00    -0.270 C  
HETATM   12  C   UNL     1      -9.710  14.189  68.824  1.00  0.00    -0.148 C  
HETATM   13  C   UNL     1      -8.243   7.378  66.632  1.00  0.00    -0.125 C  
HETATM   14  O   UNL     1     -11.512  16.809  68.605  1.00  0.00    -0.188 OA 
HETATM   15  C   UNL     1      -9.296  11.055  68.955  1.00  0.00    -0.145 C  
HETATM   16  C   UNL     1      -9.578  15.458  68.401  1.00  0.00    -0.200 C  
HETATM   17  C   UNL     1     -10.046  11.958  67.731  1.00  0.00    -0.200 C  
HETATM   18  O   UNL     1     -10.322  10.457  69.767  1.00  0.00    -0.271 OA 
HETATM   19  H   UNL     1     -10.938  11.148  69.978  1.00  0.00     0.000 HD 
HETATM   20  C   UNL     1     -10.858  11.021  66.579  1.00  0.00    -0.269 C  
HETATM   21  C   UNL     1     -10.862  16.001  67.957  1.00  0.00    -0.335 C  
HETATM   22  C   UNL     1     -11.389  15.290  66.805  1.00  0.00    -0.183 C  
HETATM   23  C   UNL     1     -11.327  11.927  65.430  1.00  0.00    -0.334 C  
HETATM   24  C   UNL     1     -12.124  13.123  65.912  1.00  0.00    -0.444 C  
HETATM   25  C   UNL     1     -11.403  13.950  66.936  1.00  0.00    -0.343 C  
HETATM   26  F   UNL     1     -12.432  13.874  64.814  1.00  0.00    -0.395 F  
ENDROOT
BRANCH   5  27
HETATM   27  C   UNL     1      -9.759   7.789  69.048  1.00  0.00    -0.157 C  
HETATM   28  O   UNL     1      -8.840   7.770  69.885  1.00  0.00    -0.141 OA 
BRANCH  27  29
HETATM   29  C   UNL     1     -10.766   6.561  69.180  1.00  0.00    -0.275 C  
BRANCH  29  30
HETATM   30  O   UNL     1     -10.084   5.284  68.699  1.00  0.00    -0.168 OA 
BRANCH  30  31
HETATM   31  C   UNL     1     -10.316   4.796  67.443  1.00  0.00    -0.019 C  
HETATM   32  C   UNL     1      -9.560   3.448  67.260  1.00  0.00    -0.133 C  
HETATM   33  O   UNL     1     -10.900   5.358  66.578  1.00  0.00    -0.287 OA 
ENDBRANCH  30  31
ENDBRANCH  29  30
ENDBRANCH  27  29
ENDBRANCH   5  27
TORSDOF 4
ENDMDL
MODEL       32
REMARK 921   NORMALIZED FREE ENERGY PREDICTED BY IDOCK:   -5.72 KCAL/MOL
REMARK 922        TOTAL FREE ENERGY PREDICTED BY IDOCK:   -6.87 KCAL/MOL
REMARK 923 INTER-LIGAND FREE ENERGY PREDICTED BY IDOCK:   -7.02 KCAL/MOL
REMARK 924 INTRA-LIGAND FREE ENERGY PREDICTED BY IDOCK:    0.15 KCAL/MOL
REMARK 927      BINDING AFFINITY PREDICTED BY RF-SCORE:    0.00 PKD
ROOT
HETATM    1  C   UNL     1     -11.004   9.853  68.399  1.00  0.00    -0.235 C  
HETATM    2  C   UNL     1     -10.513   9.421  69.632  1.00  0.00    -0.236 C  
HETATM    3  C   UNL     1      -9.635  10.401  68.913  1.00  0.00    -0.197 C  
HETATM    4  C   UNL     1      -8.410  10.217  70.060  1.00  0.00     0.068 C  
HETATM    5  C   UNL     1     -10.562  11.420  67.357  1.00  0.00    -0.218 C  
HETATM    6  C   UNL     1      -8.363   8.835  64.251  1.00  0.00    -0.158 C  
HETATM    7  O   UNL     1     -12.024  11.199  67.067  1.00  0.00    -0.272 OA 
HETATM    8  C   UNL     1     -10.395  11.680  68.675  1.00  0.00    -0.229 C  
HETATM    9  C   UNL     1      -8.713  12.135  67.948  1.00  0.00    -0.176 C  
HETATM   10  H   UNL     1     -12.448  11.665  66.356  1.00  0.00     0.000 HD 
HETATM   11  C   UNL     1      -7.849   8.490  65.638  1.00  0.00    -0.102 C  
HETATM   12  C   UNL     1      -6.300   8.684  65.842  1.00  0.00    -0.056 C  
HETATM   13  C   UNL     1     -11.286  12.503  69.569  1.00  0.00    -0.240 C  
HETATM   14  O   UNL     1      -5.518   6.060  64.208  1.00  0.00    -0.017 OA 
HETATM   15  C   UNL     1      -8.260  11.045  66.614  1.00  0.00    -0.154 C  
HETATM   16  C   UNL     1      -5.496   7.617  65.993  1.00  0.00    -0.029 C  
HETATM   17  C   UNL     1      -8.546   9.376  66.716  1.00  0.00    -0.134 C  
HETATM   18  O   UNL     1      -8.917  11.544  65.435  1.00  0.00    -0.376 OA 
HETATM   19  H   UNL     1      -8.676  10.963  64.723  1.00  0.00     0.000 HD 
HETATM   20  C   UNL     1     -10.154   8.969  67.051  1.00  0.00    -0.318 C  
HETATM   21  C   UNL     1      -6.009   6.463  65.254  1.00  0.00    -0.029 C  
HETATM   22  C   UNL     1      -7.296   6.017  65.757  1.00  0.00    -0.076 C  
HETATM   23  C   UNL     1     -10.250   7.457  67.308  1.00  0.00    -0.330 C  
HETATM   24  C   UNL     1      -9.634   6.632  66.196  1.00  0.00     0.036 C  
HETATM   25  C   UNL     1      -8.208   6.997  65.898  1.00  0.00    -0.133 C  
HETATM   26  F   UNL     1      -9.729   5.321  66.564  1.00  0.00    -0.131 F  
ENDROOT
BRANCH   5  27
HETATM   27  C   UNL     1     -10.817  13.122  66.793  1.00  0.00    -0.276 C  
HETATM   28  O   UNL     1      -9.924  13.986  66.789  1.00  0.00    -0.255 OA 
BRANCH  27  29
HETATM   29  C   UNL     1     -12.245  13.679  66.355  1.00  0.00    -0.423 C  
BRANCH  29  30
HETATM   30  O   UNL     1     -12.794  12.840  65.205  1.00  0.00    -0.674 OA 
BRANCH  30  31
HETATM   31  C   UNL     1     -12.388  13.065  63.919  1.00  0.00    -0.375 C  
HETATM   32  C   UNL     1     -11.513  11.874  63.434  1.00  0.00    -0.470 C  
HETATM   33  O   UNL     1     -12.567  14.060  63.299  1.00  0.00    -0.801 OA 
ENDBRANCH  30  31
ENDBRANCH  29  30
ENDBRANCH  27  29
ENDBRANCH   5  27
TORSDOF 4
ENDMDL
MODEL       33
REMARK 921   NORMALIZED FREE ENERGY PREDICTED BY IDOCK:   -5.69 KCAL/MOL
REMARK 922        TOTAL FREE ENERGY PREDICTED BY IDOCK:   -6.83 KCAL/MOL
REMARK 923 INTER-LIGAND FREE ENERGY PREDICTED BY IDOCK:   -7.30 KCAL/MOL
REMARK 924 INTRA-LIGAND FREE ENERGY PREDICTED BY IDOCK:    0.47 KCAL/MOL
REMARK 927      BINDING AFFINITY PREDICTED BY RF-SCORE:    0.00 PKD
ROOT
HETATM    1  C   UNL     1     -11.397  12.913  67.842  1.00  0.00    -0.336 C  
HETATM    2  C   UNL     1     -11.933  13.106  66.567  1.00  0.00    -0.459 C  
HETATM    3  C   UNL     1     -10.488  12.708  66.588  1.00  0.00    -0.261 C  
HETATM    4  C   UNL     1     -10.352  12.936  64.922  1.00  0.00    -0.329 C  
HETATM    5  C   UNL     1      -9.823  11.938  68.401  1.00  0.00    -0.201 C  
HETATM    6  C   UNL     1      -7.627  15.867  69.354  1.00  0.00    -0.210 C  
HETATM    7  O   UNL     1     -10.784  11.754  69.547  1.00  0.00    -0.441 OA 
HETATM    8  C   UNL     1     -10.339  11.378  67.281  1.00  0.00    -0.230 C  
HETATM    9  C   UNL     1      -8.548  11.713  66.788  1.00  0.00    -0.180 C  
HETATM   10  H   UNL     1     -10.481  11.401  70.376  1.00  0.00     0.000 HD 
HETATM   11  C   UNL     1      -8.197  15.944  67.948  1.00  0.00    -0.151 C  
HETATM   12  C   UNL     1      -7.138  16.205  66.813  1.00  0.00    -0.152 C  
HETATM   13  C   UNL     1     -11.120  10.093  67.173  1.00  0.00    -0.122 C  
HETATM   14  O   UNL     1      -6.789  19.294  67.525  1.00  0.00    -0.200 OA 
HETATM   15  C   UNL     1      -7.943  13.226  67.509  1.00  0.00    -0.184 C  
HETATM   16  C   UNL     1      -7.115  17.382  66.164  1.00  0.00    -0.320 C  
HETATM   17  C   UNL     1      -8.918  14.612  67.575  1.00  0.00    -0.193 C  
HETATM   18  O   UNL     1      -7.525  12.903  68.847  1.00  0.00    -0.243 OA 
HETATM   19  H   UNL     1      -7.202  13.709  69.233  1.00  0.00     0.000 HD 
HETATM   20  C   UNL     1     -10.415  14.369  68.327  1.00  0.00    -0.245 C  
HETATM   21  C   UNL     1      -7.553  18.473  67.035  1.00  0.00    -0.223 C  
HETATM   22  C   UNL     1      -8.936  18.319  67.452  1.00  0.00    -0.257 C  
HETATM   23  C   UNL     1     -11.276  15.630  68.155  1.00  0.00    -0.345 C  
HETATM   24  C   UNL     1     -10.567  16.891  68.607  1.00  0.00    -0.360 C  
HETATM   25  C   UNL     1      -9.238  17.103  67.942  1.00  0.00    -0.241 C  
HETATM   26  F   UNL     1     -11.405  17.940  68.355  1.00  0.00    -0.024 F  
ENDROOT
BRANCH   5  27
HETATM   27  C   UNL     1      -8.955  10.481  69.035  1.00  0.00    -0.176 C  
HETATM   28  O   UNL     1      -7.766  10.223  68.779  1.00  0.00    -0.085 OA 
BRANCH  27  29
HETATM   29  C   UNL     1      -9.681   9.350  69.892  1.00  0.00    -0.212 C  
BRANCH  29  30
HETATM   30  O   UNL     1      -9.366   9.545  71.372  1.00  0.00    -0.224 OA 
BRANCH  30  31
HETATM   31  C   UNL     1      -8.965   8.492  72.147  1.00  0.00    -0.230 C  
HETATM   32  C   UNL     1     -10.165   7.982  72.994  1.00  0.00    -0.357 C  
HETATM   33  O   UNL     1      -7.852   8.098  72.257  1.00  0.00    -0.109 OA 
ENDBRANCH  30  31
ENDBRANCH  29  30
ENDBRANCH  27  29
ENDBRANCH   5  27
TORSDOF 4
ENDMDL
MODEL       34
REMARK 921   NORMALIZED FREE ENERGY PREDICTED BY IDOCK:   -5.63 KCAL/MOL
REMARK 922        TOTAL FREE ENERGY PREDICTED BY IDOCK:   -6.75 KCAL/MOL
REMARK 923 INTER-LIGAND FREE ENERGY PREDICTED BY IDOCK:   -7.44 KCAL/MOL
REMARK 924 INTRA-LIGAND FREE ENERGY PREDICTED BY IDOCK:    0.68 KCAL/MOL
REMARK 927      BINDING AFFINITY PREDICTED BY RF-SCORE:    0.00 PKD
ROOT
HETATM    1  C   UNL     1     -10.876   5.714  70.084  1.00  0.00    -0.356 C  
HETATM    2  C   UNL     1      -9.783   4.915  70.425  1.00  0.00    -0.284 C  
HETATM    3  C   UNL     1      -9.617   6.372  70.734  1.00  0.00    -0.193 C  
HETATM    4  C   UNL     1      -8.004   6.144  71.174  1.00  0.00    -0.116 C  
HETATM    5  C   UNL     1     -11.380   7.474  70.707  1.00  0.00    -0.280 C  
HETATM    6  C   UNL     1     -10.253   9.325  66.649  1.00  0.00    -0.323 C  
HETATM    7  O   UNL     1     -12.700   6.791  70.458  1.00  0.00    -0.502 OA 
HETATM    8  C   UNL     1     -10.704   6.816  71.679  1.00  0.00    -0.252 C  
HETATM    9  C   UNL     1      -9.721   8.419  71.504  1.00  0.00    -0.276 C  
HETATM   10  H   UNL     1     -13.506   7.294  70.447  1.00  0.00     0.000 HD 
HETATM   11  C   UNL     1      -9.094   8.480  67.149  1.00  0.00    -0.164 C  
HETATM   12  C   UNL     1      -7.732   9.251  67.319  1.00  0.00    -0.095 C  
HETATM   13  C   UNL     1     -11.269   6.191  72.929  1.00  0.00    -0.250 C  
HETATM   14  O   UNL     1      -7.131   9.360  64.190  1.00  0.00    -0.096 OA 
HETATM   15  C   UNL     1      -9.661   8.968  69.811  1.00  0.00    -0.175 C  
HETATM   16  C   UNL     1      -6.703   9.002  66.491  1.00  0.00    -0.075 C  
HETATM   17  C   UNL     1      -9.426   7.866  68.543  1.00  0.00    -0.148 C  
HETATM   18  O   UNL     1     -10.887   9.681  69.568  1.00  0.00    -0.227 OA 
HETATM   19  H   UNL     1     -10.856   9.974  68.665  1.00  0.00     0.000 HD 
HETATM   20  C   UNL     1     -10.537   6.590  68.522  1.00  0.00    -0.291 C  
HETATM   21  C   UNL     1      -7.177   8.618  65.162  1.00  0.00    -0.087 C  
HETATM   22  C   UNL     1      -7.928   7.375  65.185  1.00  0.00    -0.128 C  
HETATM   23  C   UNL     1     -10.110   5.566  67.459  1.00  0.00    -0.217 C  
HETATM   24  C   UNL     1      -9.878   6.193  66.099  1.00  0.00     0.047 C  
HETATM   25  C   UNL     1      -8.894   7.327  66.121  1.00  0.00    -0.181 C  
HETATM   26  F   UNL     1      -9.452   5.201  65.262  1.00  0.00    -0.164 F  
ENDROOT
BRANCH   5  27
HETATM   27  C   UNL     1     -12.295   8.621  71.768  1.00  0.00    -0.346 C  
HETATM   28  O   UNL     1     -12.184   8.651  73.005  1.00  0.00    -0.175 OA 
BRANCH  27  29
HETATM   29  C   UNL     1     -13.403   9.618  71.204  1.00  0.00    -0.276 C  
BRANCH  29  30
HETATM   30  O   UNL     1     -13.393  10.910  72.016  1.00  0.00    -0.448 OA 
BRANCH  30  31
HETATM   31  C   UNL     1     -12.905  12.070  71.482  1.00  0.00    -0.297 C  
HETATM   32  C   UNL     1     -13.543  13.287  72.212  1.00  0.00    -0.703 C  
HETATM   33  O   UNL     1     -12.200  12.153  70.533  1.00  0.00    -0.356 OA 
ENDBRANCH  30  31
ENDBRANCH  29  30
ENDBRANCH  27  29
ENDBRANCH   5  27
TORSDOF 4
ENDMDL
MODEL       35
REMARK 921   NORMALIZED FREE ENERGY PREDICTED BY IDOCK:   -5.61 KCAL/MOL
REMARK 922        TOTAL FREE ENERGY PREDICTED BY IDOCK:   -6.73 KCAL/MOL
REMARK 923 INTER-LIGAND FREE ENERGY PREDICTED BY IDOCK:   -6.91 KCAL/MOL
REMARK 924 INTRA-LIGAND FREE ENERGY PREDICTED BY IDOCK:    0.18 KCAL/MOL
REMARK 927      BINDING AFFINITY PREDICTED BY RF-SCORE:    0.00 PKD
ROOT
HETATM    1  C   UNL     1     -10.107  13.030  64.224  1.00  0.00    -0.216 C  
HETATM    2  C   UNL     1     -10.934  12.494  63.235  1.00  0.00    -0.248 C  
HETATM    3  C   UNL     1     -11.526  12.507  64.613  1.00  0.00    -0.377 C  
HETATM    4  C   UNL     1     -12.869  11.626  64.096  1.00  0.00     0.122 C  
HETATM    5  C   UNL     1     -10.540  13.733  65.972  1.00  0.00    -0.290 C  
HETATM    6  C   UNL     1      -8.634  10.075  68.009  1.00  0.00    -0.121 C  
HETATM    7  O   UNL     1      -9.370  14.573  65.529  1.00  0.00    -0.508 OA 
HETATM    8  C   UNL     1     -11.581  13.923  65.127  1.00  0.00    -0.340 C  
HETATM    9  C   UNL     1     -12.381  13.000  66.567  1.00  0.00    -0.175 C  
HETATM   10  H   UNL     1      -8.920  15.134  66.149  1.00  0.00     0.000 HD 
HETATM   11  C   UNL     1      -9.614   9.600  66.951  1.00  0.00    -0.217 C  
HETATM   12  C   UNL     1     -10.770   8.672  67.481  1.00  0.00    -0.209 C  
HETATM   13  C   UNL     1     -12.015  15.213  64.478  1.00  0.00    -0.326 C  
HETATM   14  O   UNL     1      -8.891   6.115  67.797  1.00  0.00    -0.113 OA 
HETATM   15  C   UNL     1     -11.277  11.788  67.261  1.00  0.00    -0.305 C  
HETATM   16  C   UNL     1     -10.797   7.368  67.156  1.00  0.00    -0.340 C  
HETATM   17  C   UNL     1     -10.309  10.815  66.263  1.00  0.00    -0.303 C  
HETATM   18  O   UNL     1     -10.418  12.492  68.176  1.00  0.00    -0.215 OA 
HETATM   19  H   UNL     1      -9.828  11.845  68.546  1.00  0.00     0.000 HD 
HETATM   20  C   UNL     1      -9.339  11.684  65.183  1.00  0.00    -0.076 C  
HETATM   21  C   UNL     1      -9.443   6.841  66.981  1.00  0.00    -0.146 C  
HETATM   22  C   UNL     1      -8.748   7.473  65.873  1.00  0.00    -0.170 C  
HETATM   23  C   UNL     1      -8.661  10.704  64.212  1.00  0.00    -0.140 C  
HETATM   24  C   UNL     1      -7.927   9.585  64.925  1.00  0.00    -0.121 C  
HETATM   25  C   UNL     1      -8.790   8.818  65.885  1.00  0.00    -0.222 C  
HETATM   26  F   UNL     1      -7.421   8.757  63.964  1.00  0.00    -0.102 F  
ENDROOT
BRANCH   5  27
HETATM   27  C   UNL     1     -10.917  15.065  67.139  1.00  0.00    -0.329 C  
HETATM   28  O   UNL     1     -11.817  14.996  67.994  1.00  0.00    -0.335 OA 
BRANCH  27  29
HETATM   29  C   UNL     1     -10.190  16.482  67.093  1.00  0.00    -0.284 C  
BRANCH  29  30
HETATM   30  O   UNL     1      -9.310  16.650  68.328  1.00  0.00    -0.213 OA 
BRANCH  30  31
HETATM   31  C   UNL     1      -7.947  16.610  68.227  1.00  0.00    -0.192 C  
HETATM   32  C   UNL     1      -7.349  17.953  68.737  1.00  0.00    -0.271 C  
HETATM   33  O   UNL     1      -7.314  15.745  67.722  1.00  0.00    -0.127 OA 
ENDBRANCH  30  31
ENDBRANCH  29  30
ENDBRANCH  27  29
ENDBRANCH   5  27
TORSDOF 4
ENDMDL
MODEL       36
REMARK 921   NORMALIZED FREE ENERGY PREDICTED BY IDOCK:   -5.56 KCAL/MOL
REMARK 922        TOTAL FREE ENERGY PREDICTED BY IDOCK:   -6.67 KCAL/MOL
REMARK 923 INTER-LIGAND FREE ENERGY PREDICTED BY IDOCK:   -7.38 KCAL/MOL
REMARK 924 INTRA-LIGAND FREE ENERGY PREDICTED BY IDOCK:    0.71 KCAL/MOL
REMARK 927      BINDING AFFINITY PREDICTED BY RF-SCORE:    0.00 PKD
ROOT
HETATM    1  C   UNL     1      -8.486  11.765  68.260  1.00  0.00    -0.161 C  
HETATM    2  C   UNL     1      -7.655  11.120  67.343  1.00  0.00    -0.113 C  
HETATM    3  C   UNL     1      -9.122  10.898  67.128  1.00  0.00    -0.152 C  
HETATM    4  C   UNL     1      -8.822   9.764  65.915  1.00  0.00    -0.175 C  
HETATM    5  C   UNL     1     -10.360  12.225  68.141  1.00  0.00    -0.216 C  
HETATM    6  C   UNL     1     -11.437   8.987  71.227  1.00  0.00    -0.390 C  
HETATM    7  O   UNL     1      -9.769  13.345  68.958  1.00  0.00    -0.409 OA 
HETATM    8  C   UNL     1      -9.806  12.222  66.906  1.00  0.00    -0.216 C  
HETATM    9  C   UNL     1     -11.266  11.041  66.706  1.00  0.00    -0.163 C  
HETATM   10  H   UNL     1     -10.334  13.952  69.421  1.00  0.00     0.000 HD 
HETATM   11  C   UNL     1     -10.581   8.368  70.135  1.00  0.00    -0.235 C  
HETATM   12  C   UNL     1     -11.242   7.161  69.372  1.00  0.00    -0.080 C  
HETATM   13  C   UNL     1      -9.440  13.416  66.060  1.00  0.00    -0.105 C  
HETATM   14  O   UNL     1     -10.800   5.101  71.766  1.00  0.00    -0.183 OA 
HETATM   15  C   UNL     1     -11.533  10.077  68.180  1.00  0.00     0.132 C  
HETATM   16  C   UNL     1     -10.774   5.912  69.541  1.00  0.00    -0.414 C  
HETATM   17  C   UNL     1     -10.227   9.430  69.049  1.00  0.00    -0.216 C  
HETATM   18  O   UNL     1     -12.306  10.899  69.073  1.00  0.00    -0.705 OA 
HETATM   19  H   UNL     1     -12.449  10.385  69.860  1.00  0.00     0.000 HD 
HETATM   20  C   UNL     1      -9.070  10.575  69.511  1.00  0.00    -0.063 C  
HETATM   21  C   UNL     1     -10.228   5.731  70.886  1.00  0.00    -0.216 C  
HETATM   22  C   UNL     1      -9.078   6.584  71.131  1.00  0.00    -0.152 C  
HETATM   23  C   UNL     1      -7.856   9.851  70.114  1.00  0.00    -0.186 C  
HETATM   24  C   UNL     1      -8.236   8.890  71.223  1.00  0.00    -0.157 C  
HETATM   25  C   UNL     1      -9.266   7.877  70.811  1.00  0.00    -0.159 C  
HETATM   26  F   UNL     1      -7.090   8.271  71.634  1.00  0.00    -0.057 F  
ENDROOT
BRANCH   5  27
HETATM   27  C   UNL     1     -11.739  13.348  67.798  1.00  0.00    -0.359 C  
HETATM   28  O   UNL     1     -12.222  14.123  68.641  1.00  0.00    -0.313 OA 
BRANCH  27  29
HETATM   29  C   UNL     1     -12.517  13.356  66.407  1.00  0.00    -0.236 C  
BRANCH  29  30
HETATM   30  O   UNL     1     -12.432  14.743  65.778  1.00  0.00    -0.128 OA 
BRANCH  30  31
HETATM   31  C   UNL     1     -12.369  14.894  64.420  1.00  0.00    -0.323 C  
HETATM   32  C   UNL     1     -12.283  13.496  63.745  1.00  0.00    -0.449 C  
HETATM   33  O   UNL     1     -12.273  15.924  63.842  1.00  0.00    -0.785 OA 
ENDBRANCH  30  31
ENDBRANCH  29  30
ENDBRANCH  27  29
ENDBRANCH   5  27
TORSDOF 4
ENDMDL
MODEL       37
REMARK 921   NORMALIZED FREE ENERGY PREDICTED BY IDOCK:   -5.52 KCAL/MOL
REMARK 922        TOTAL FREE ENERGY PREDICTED BY IDOCK:   -6.61 KCAL/MOL
REMARK 923 INTER-LIGAND FREE ENERGY PREDICTED BY IDOCK:   -6.48 KCAL/MOL
REMARK 924 INTRA-LIGAND FREE ENERGY PREDICTED BY IDOCK:   -0.14 KCAL/MOL
REMARK 927      BINDING AFFINITY PREDICTED BY RF-SCORE:    0.00 PKD
ROOT
HETATM    1  C   UNL     1      -7.371  13.917  67.332  1.00  0.00    -0.129 C  
HETATM    2  C   UNL     1      -6.574  14.124  68.459  1.00  0.00    -0.096 C  
HETATM    3  C   UNL     1      -8.051  14.161  68.717  1.00  0.00    -0.088 C  
HETATM    4  C   UNL     1      -7.808  14.649  70.314  1.00  0.00     0.824 C  
HETATM    5  C   UNL     1      -9.220  13.368  67.192  1.00  0.00    -0.240 C  
HETATM    6  C   UNL     1     -10.457  17.589  65.842  1.00  0.00    -0.251 C  
HETATM    7  O   UNL     1      -8.572  12.757  65.976  1.00  0.00    -0.260 OA 
HETATM    8  C   UNL     1      -8.667  12.846  68.312  1.00  0.00    -0.168 C  
HETATM    9  C   UNL     1     -10.185  13.749  68.982  1.00  0.00    -0.040 C  
HETATM   10  H   UNL     1      -9.107  12.394  65.279  1.00  0.00     0.000 HD 
HETATM   11  C   UNL     1      -9.634  17.695  67.114  1.00  0.00    -0.278 C  
HETATM   12  C   UNL     1     -10.356  18.406  68.318  1.00  0.00    -0.384 C  
HETATM   13  C   UNL     1      -8.242  11.419  68.548  1.00  0.00    -0.153 C  
HETATM   14  O   UNL     1     -10.017  21.333  67.100  1.00  0.00    -0.004 OA 
HETATM   15  C   UNL     1     -10.500  15.254  68.084  1.00  0.00    -0.246 C  
HETATM   16  C   UNL     1      -9.951  19.619  68.733  1.00  0.00    -0.542 C  
HETATM   17  C   UNL     1      -9.228  16.278  67.623  1.00  0.00    -0.206 C  
HETATM   18  O   UNL     1     -11.230  14.882  66.902  1.00  0.00    -0.335 OA 
HETATM   19  H   UNL     1     -11.398  15.685  66.423  1.00  0.00     0.000 HD 
HETATM   20  C   UNL     1      -8.014  15.512  66.727  1.00  0.00    -0.214 C  
HETATM   21  C   UNL     1      -9.415  20.404  67.621  1.00  0.00    -0.349 C  
HETATM   22  C   UNL     1      -8.223  19.802  67.049  1.00  0.00    -0.340 C  
HETATM   23  C   UNL     1      -6.838  16.482  66.537  1.00  0.00    -0.042 C  
HETATM   24  C   UNL     1      -7.266  17.818  65.962  1.00  0.00    -0.287 C  
HETATM   25  C   UNL     1      -8.345  18.494  66.757  1.00  0.00    -0.279 C  
HETATM   26  F   UNL     1      -6.153  18.606  65.894  1.00  0.00    -0.179 F  
ENDROOT
BRANCH   5  27
HETATM   27  C   UNL     1     -10.540  12.149  66.970  1.00  0.00    -0.228 C  
HETATM   28  O   UNL     1     -11.492  12.014  67.758  1.00  0.00    -0.282 OA 
BRANCH  27  29
HETATM   29  C   UNL     1     -10.531  11.073  65.794  1.00  0.00    -0.228 C  
BRANCH  29  30
HETATM   30  O   UNL     1     -10.651  11.781  64.448  1.00  0.00    -0.276 OA 
BRANCH  30  31
HETATM   31  C   UNL     1     -11.698  12.622  64.189  1.00  0.00    -0.400 C  
HETATM   32  C   UNL     1     -12.748  11.888  63.307  1.00  0.00    -0.407 C  
HETATM   33  O   UNL     1     -11.755  13.769  64.484  1.00  0.00    -0.373 OA 
ENDBRANCH  30  31
ENDBRANCH  29  30
ENDBRANCH  27  29
ENDBRANCH   5  27
TORSDOF 4
ENDMDL
MODEL       38
REMARK 921   NORMALIZED FREE ENERGY PREDICTED BY IDOCK:   -5.36 KCAL/MOL
REMARK 922        TOTAL FREE ENERGY PREDICTED BY IDOCK:   -6.42 KCAL/MOL
REMARK 923 INTER-LIGAND FREE ENERGY PREDICTED BY IDOCK:   -6.86 KCAL/MOL
REMARK 924 INTRA-LIGAND FREE ENERGY PREDICTED BY IDOCK:    0.43 KCAL/MOL
REMARK 927      BINDING AFFINITY PREDICTED BY RF-SCORE:    0.00 PKD
ROOT
HETATM    1  C   UNL     1      -9.989   9.742  69.313  1.00  0.00    -0.201 C  
HETATM    2  C   UNL     1      -8.947   9.789  70.241  1.00  0.00    -0.198 C  
HETATM    3  C   UNL     1      -8.517   9.558  68.824  1.00  0.00    -0.122 C  
HETATM    4  C   UNL     1      -6.919   9.299  69.301  1.00  0.00    -0.053 C  
HETATM    5  C   UNL     1      -9.966   9.983  67.395  1.00  0.00    -0.197 C  
HETATM    6  C   UNL     1     -10.743   5.497  66.737  1.00  0.00    -0.329 C  
HETATM    7  O   UNL     1     -11.302  10.543  67.809  1.00  0.00    -0.394 OA 
HETATM    8  C   UNL     1      -8.973  10.708  67.963  1.00  0.00    -0.140 C  
HETATM    9  C   UNL     1      -8.046   9.669  66.689  1.00  0.00    -0.119 C  
HETATM   10  H   UNL     1     -11.964  10.737  67.156  1.00  0.00     0.000 HD 
HETATM   11  C   UNL     1      -9.572   5.664  67.689  1.00  0.00    -0.126 C  
HETATM   12  C   UNL     1      -8.228   4.994  67.217  1.00  0.00    -0.107 C  
HETATM   13  C   UNL     1      -8.930  12.201  68.171  1.00  0.00    -0.195 C  
HETATM   14  O   UNL     1      -9.187   2.033  67.907  1.00  0.00    -0.159 OA 
HETATM   15  C   UNL     1      -8.751   8.039  66.537  1.00  0.00    -0.146 C  
HETATM   16  C   UNL     1      -7.747   3.913  67.855  1.00  0.00    -0.067 C  
HETATM   17  C   UNL     1      -9.254   7.175  67.907  1.00  0.00    -0.129 C  
HETATM   18  O   UNL     1      -9.870   8.158  65.641  1.00  0.00    -0.354 OA 
HETATM   19  H   UNL     1     -10.246   7.290  65.560  1.00  0.00     0.000 HD 
HETATM   20  C   UNL     1     -10.356   8.009  68.883  1.00  0.00    -0.222 C  
HETATM   21  C   UNL     1      -8.833   3.096  68.398  1.00  0.00    -0.120 C  
HETATM   22  C   UNL     1      -9.595   3.802  69.412  1.00  0.00    -0.219 C  
HETATM   23  C   UNL     1     -10.587   7.213  70.178  1.00  0.00    -0.247 C  
HETATM   24  C   UNL     1     -10.975   5.771  69.919  1.00  0.00    -0.319 C  
HETATM   25  C   UNL     1      -9.997   5.034  69.049  1.00  0.00    -0.251 C  
HETATM   26  F   UNL     1     -11.095   5.159  71.134  1.00  0.00    -0.204 F  
ENDROOT
BRANCH   5  27
HETATM   27  C   UNL     1     -10.150  10.953  65.877  1.00  0.00    -0.252 C  
HETATM   28  O   UNL     1      -9.429  10.807  64.875  1.00  0.00    -0.209 OA 
BRANCH  27  29
HETATM   29  C   UNL     1     -11.190  12.153  65.743  1.00  0.00    -0.339 C  
BRANCH  29  30
HETATM   30  O   UNL     1     -10.506  13.358  65.104  1.00  0.00    -0.315 OA 
BRANCH  30  31
HETATM   31  C   UNL     1     -11.067  14.603  65.178  1.00  0.00    -0.377 C  
HETATM   32  C   UNL     1     -10.428  15.392  66.356  1.00  0.00    -0.307 C  
HETATM   33  O   UNL     1     -11.981  14.991  64.530  1.00  0.00    -0.440 OA 
ENDBRANCH  30  31
ENDBRANCH  29  30
ENDBRANCH  27  29
ENDBRANCH   5  27
TORSDOF 4
ENDMDL
MODEL       39
REMARK 921   NORMALIZED FREE ENERGY PREDICTED BY IDOCK:   -5.36 KCAL/MOL
REMARK 922        TOTAL FREE ENERGY PREDICTED BY IDOCK:   -6.42 KCAL/MOL
REMARK 923 INTER-LIGAND FREE ENERGY PREDICTED BY IDOCK:   -7.33 KCAL/MOL
REMARK 924 INTRA-LIGAND FREE ENERGY PREDICTED BY IDOCK:    0.90 KCAL/MOL
REMARK 927      BINDING AFFINITY PREDICTED BY RF-SCORE:    0.00 PKD
ROOT
HETATM    1  C   UNL     1     -10.471  15.217  66.145  1.00  0.00    -0.318 C  
HETATM    2  C   UNL     1     -11.774  15.049  66.616  1.00  0.00    -0.144 C  
HETATM    3  C   UNL     1     -10.706  14.933  67.663  1.00  0.00    -0.270 C  
HETATM    4  C   UNL     1     -11.831  14.453  68.825  1.00  0.00    -0.360 C  
HETATM    5  C   UNL     1      -8.847  15.667  67.092  1.00  0.00    -0.208 C  
HETATM    6  C   UNL     1      -7.241  11.392  66.541  1.00  0.00    -0.057 C  
HETATM    7  O   UNL     1      -8.666  16.317  65.744  1.00  0.00    -0.390 OA 
HETATM    8  C   UNL     1      -9.914  16.214  67.720  1.00  0.00    -0.237 C  
HETATM    9  C   UNL     1      -9.083  15.230  69.101  1.00  0.00    -0.236 C  
HETATM   10  H   UNL     1      -7.817  16.653  65.484  1.00  0.00     0.000 HD 
HETATM   11  C   UNL     1      -8.644  11.325  67.120  1.00  0.00    -0.147 C  
HETATM   12  C   UNL     1      -8.761  10.572  68.497  1.00  0.00    -0.140 C  
HETATM   13  C   UNL     1     -10.338  17.661  67.721  1.00  0.00    -0.365 C  
HETATM   14  O   UNL     1      -8.472   7.672  67.205  1.00  0.00    -0.119 OA 
HETATM   15  C   UNL     1      -8.378  13.713  68.489  1.00  0.00    -0.110 C  
HETATM   16  C   UNL     1      -9.380   9.381  68.570  1.00  0.00    -0.139 C  
HETATM   17  C   UNL     1      -9.207  12.760  67.357  1.00  0.00    -0.193 C  
HETATM   18  O   UNL     1      -7.092  14.050  67.940  1.00  0.00    -0.124 OA 
HETATM   19  H   UNL     1      -6.716  13.241  67.613  1.00  0.00     0.000 HD 
HETATM   20  C   UNL     1      -9.667  13.593  65.957  1.00  0.00    -0.239 C  
HETATM   21  C   UNL     1      -9.224   8.630  67.325  1.00  0.00    -0.140 C  
HETATM   22  C   UNL     1      -9.856   9.296  66.199  1.00  0.00    -0.363 C  
HETATM   23  C   UNL     1     -10.568  12.687  65.103  1.00  0.00    -0.324 C  
HETATM   24  C   UNL     1      -9.945  11.332  64.828  1.00  0.00    -0.277 C  
HETATM   25  C   UNL     1      -9.536  10.597  66.071  1.00  0.00    -0.233 C  
HETATM   26  F   UNL     1     -10.856  10.605  64.116  1.00  0.00    -0.394 F  
ENDROOT
BRANCH   5  27
HETATM   27  C   UNL     1      -7.583  16.815  67.695  1.00  0.00    -0.167 C  
HETATM   28  O   UNL     1      -6.364  16.651  67.519  1.00  0.00    -0.134 OA 
BRANCH  27  29
HETATM   29  C   UNL     1      -7.930  18.081  68.599  1.00  0.00    -0.294 C  
BRANCH  29  30
HETATM   30  O   UNL     1      -6.733  19.027  68.641  1.00  0.00    -0.257 OA 
BRANCH  30  31
HETATM   31  C   UNL     1      -6.177  19.401  69.833  1.00  0.00    -0.268 C  
HETATM   32  C   UNL     1      -5.436  18.188  70.464  1.00  0.00    -0.238 C  
HETATM   33  O   UNL     1      -6.329  20.447  70.370  1.00  0.00    -0.445 OA 
ENDBRANCH  30  31
ENDBRANCH  29  30
ENDBRANCH  27  29
ENDBRANCH   5  27
TORSDOF 4
ENDMDL
MODEL       40
REMARK 921   NORMALIZED FREE ENERGY PREDICTED BY IDOCK:   -5.35 KCAL/MOL
REMARK 922        TOTAL FREE ENERGY PREDICTED BY IDOCK:   -6.41 KCAL/MOL
REMARK 923 INTER-LIGAND FREE ENERGY PREDICTED BY IDOCK:   -6.44 KCAL/MOL
REMARK 924 INTRA-LIGAND FREE ENERGY PREDICTED BY IDOCK:    0.03 KCAL/MOL
REMARK 927      BINDING AFFINITY PREDICTED BY RF-SCORE:    0.00 PKD
ROOT
HETATM    1  C   UNL     1      -7.613  11.927  67.433  1.00  0.00    -0.151 C  
HETATM    2  C   UNL     1      -6.896  11.697  68.609  1.00  0.00    -0.079 C  
HETATM    3  C   UNL     1      -8.174  10.921  68.488  1.00  0.00    -0.140 C  
HETATM    4  C   UNL     1      -8.024  10.338  70.065  1.00  0.00    -0.021 C  
HETATM    5  C   UNL     1      -8.978  10.862  66.572  1.00  0.00    -0.168 C  
HETATM    6  C   UNL     1     -12.217  13.907  67.754  1.00  0.00    -0.217 C  
HETATM    7  O   UNL     1      -8.251  11.509  65.422  1.00  0.00    -0.337 OA 
HETATM    8  C   UNL     1      -8.127  10.059  67.253  1.00  0.00    -0.114 C  
HETATM    9  C   UNL     1      -9.809   9.567  67.955  1.00  0.00    -0.186 C  
HETATM   10  H   UNL     1      -8.618  11.482  64.546  1.00  0.00     0.000 HD 
HETATM   11  C   UNL     1     -11.414  13.532  68.987  1.00  0.00    -0.349 C  
HETATM   12  C   UNL     1     -12.255  12.924  70.171  1.00  0.00    -0.336 C  
HETATM   13  C   UNL     1      -7.048   9.171  66.685  1.00  0.00    -0.082 C  
HETATM   14  O   UNL     1     -13.488  15.730  71.049  1.00  0.00    -0.581 OA 
HETATM   15  C   UNL     1     -10.899  10.970  68.085  1.00  0.00    -0.226 C  
HETATM   16  C   UNL     1     -12.436  13.624  71.304  1.00  0.00    -0.412 C  
HETATM   17  C   UNL     1     -10.328  12.471  68.631  1.00  0.00    -0.193 C  
HETATM   18  O   UNL     1     -11.484  11.156  66.784  1.00  0.00    -0.380 OA 
HETATM   19  H   UNL     1     -12.066  11.904  66.852  1.00  0.00     0.000 HD 
HETATM   20  C   UNL     1      -9.000  13.062  67.766  1.00  0.00    -0.191 C  
HETATM   21  C   UNL     1     -12.463  15.062  71.038  1.00  0.00    -0.338 C  
HETATM   22  C   UNL     1     -11.198  15.546  70.515  1.00  0.00    -0.365 C  
HETATM   23  C   UNL     1      -8.458  14.317  68.468  1.00  0.00    -0.164 C  
HETATM   24  C   UNL     1      -9.531  15.358  68.719  1.00  0.00    -0.211 C  
HETATM   25  C   UNL     1     -10.710  14.830  69.484  1.00  0.00    -0.229 C  
HETATM   26  F   UNL     1      -8.944  16.391  69.392  1.00  0.00    -0.238 F  
ENDROOT
BRANCH   5  27
HETATM   27  C   UNL     1      -9.570   9.643  65.372  1.00  0.00    -0.291 C  
HETATM   28  O   UNL     1     -10.007   8.523  65.687  1.00  0.00     0.128 OA 
BRANCH  27  29
HETATM   29  C   UNL     1      -9.479   9.870  63.797  1.00  0.00    -0.120 C  
BRANCH  29  30
HETATM   30  O   UNL     1      -8.059   9.586  63.318  1.00  0.00    -0.134 OA 
BRANCH  30  31
HETATM   31  C   UNL     1      -7.670   8.317  62.990  1.00  0.00    -0.134 C  
HETATM   32  C   UNL     1      -6.127   8.190  63.141  1.00  0.00    -0.077 C  
HETATM   33  O   UNL     1      -8.371   7.471  62.545  1.00  0.00    -0.110 OA 
ENDBRANCH  30  31
ENDBRANCH  29  30
ENDBRANCH  27  29
ENDBRANCH   5  27
TORSDOF 4
ENDMDL
MODEL       41
REMARK 921   NORMALIZED FREE ENERGY PREDICTED BY IDOCK:   -5.35 KCAL/MOL
REMARK 922        TOTAL FREE ENERGY PREDICTED BY IDOCK:   -6.41 KCAL/MOL
REMARK 923 INTER-LIGAND FREE ENERGY PREDICTED BY IDOCK:   -6.16 KCAL/MOL
REMARK 924 INTRA-LIGAND FREE ENERGY PREDICTED BY IDOCK:   -0.24 KCAL/MOL
REMARK 927      BINDING AFFINITY PREDICTED BY RF-SCORE:    0.00 PKD
ROOT
HETATM    1  C   UNL     1      -7.927  10.517  68.143  1.00  0.00    -0.111 C  
HETATM    2  C   UNL     1      -8.537  10.803  69.366  1.00  0.00     0.017 C  
HETATM    3  C   UNL     1      -9.392  10.038  68.400  1.00  0.00    -0.139 C  
HETATM    4  C   UNL     1     -10.735  10.168  69.413  1.00  0.00    -0.266 C  
HETATM    5  C   UNL     1      -8.358   9.180  66.814  1.00  0.00    -0.123 C  
HETATM    6  C   UNL     1      -9.918  12.418  63.943  1.00  0.00    -0.262 C  
HETATM    7  O   UNL     1      -6.857   9.293  66.734  1.00  0.00    -0.078 OA 
HETATM    8  C   UNL     1      -8.715   8.740  68.044  1.00  0.00    -0.141 C  
HETATM    9  C   UNL     1     -10.320   8.574  67.064  1.00  0.00    -0.379 C  
HETATM   10  H   UNL     1      -6.384   8.900  66.010  1.00  0.00     0.000 HD 
HETATM   11  C   UNL     1     -10.577  12.597  65.299  1.00  0.00    -0.317 C  
HETATM   12  C   UNL     1     -12.150  12.532  65.290  1.00  0.00    -0.500 C  
HETATM   13  C   UNL     1      -8.016   7.704  68.888  1.00  0.00    -0.125 C  
HETATM   14  O   UNL     1     -12.496  15.440  64.029  1.00  0.00    -0.676 OA 
HETATM   15  C   UNL     1     -10.506   9.895  65.884  1.00  0.00    -0.002 C  
HETATM   16  C   UNL     1     -12.876  13.640  65.520  1.00  0.00    -0.443 C  
HETATM   17  C   UNL     1     -10.100  11.491  66.290  1.00  0.00    -0.261 C  
HETATM   18  O   UNL     1      -9.745   9.518  64.723  1.00  0.00    -0.441 OA 
HETATM   19  H   UNL     1      -9.843  10.222  64.093  1.00  0.00     0.000 HD 
HETATM   20  C   UNL     1      -8.521  11.677  66.870  1.00  0.00    -0.168 C  
HETATM   21  C   UNL     1     -12.180  14.835  65.044  1.00  0.00    -0.252 C  
HETATM   22  C   UNL     1     -10.936  15.066  65.758  1.00  0.00    -0.351 C  
HETATM   23  C   UNL     1      -8.336  13.114  67.381  1.00  0.00    -0.188 C  
HETATM   24  C   UNL     1      -8.733  14.158  66.355  1.00  0.00     0.181 C  
HETATM   25  C   UNL     1     -10.133  13.989  65.840  1.00  0.00    -0.336 C  
HETATM   26  F   UNL     1      -8.580  15.381  66.942  1.00  0.00    -0.203 F  
ENDROOT
BRANCH   5  27
HETATM   27  C   UNL     1      -8.171   7.567  66.013  1.00  0.00    -0.130 C  
HETATM   28  O   UNL     1      -9.088   6.731  65.927  1.00  0.00    -0.122 OA 
BRANCH  27  29
HETATM   29  C   UNL     1      -6.778   7.043  65.444  1.00  0.00    -0.051 C  
BRANCH  29  30
HETATM   30  O   UNL     1      -6.356   7.896  64.252  1.00  0.00    -0.056 OA 
BRANCH  30  31
HETATM   31  C   UNL     1      -7.136   7.970  63.132  1.00  0.00    -0.087 C  
HETATM   32  C   UNL     1      -7.284   6.553  62.507  1.00  0.00    -0.051 C  
HETATM   33  O   UNL     1      -7.543   8.966  62.635  1.00  0.00    -0.104 OA 
ENDBRANCH  30  31
ENDBRANCH  29  30
ENDBRANCH  27  29
ENDBRANCH   5  27
TORSDOF 4
ENDMDL
MODEL       42
REMARK 921   NORMALIZED FREE ENERGY PREDICTED BY IDOCK:   -5.29 KCAL/MOL
REMARK 922        TOTAL FREE ENERGY PREDICTED BY IDOCK:   -6.34 KCAL/MOL
REMARK 923 INTER-LIGAND FREE ENERGY PREDICTED BY IDOCK:   -6.05 KCAL/MOL
REMARK 924 INTRA-LIGAND FREE ENERGY PREDICTED BY IDOCK:   -0.29 KCAL/MOL
REMARK 927      BINDING AFFINITY PREDICTED BY RF-SCORE:    0.00 PKD
ROOT
HETATM    1  C   UNL     1      -7.712   9.043  69.125  1.00  0.00    -0.092 C  
HETATM    2  C   UNL     1      -8.063   9.504  70.396  1.00  0.00    -0.209 C  
HETATM    3  C   UNL     1      -9.207   8.986  69.577  1.00  0.00    -0.152 C  
HETATM    4  C   UNL     1     -10.326   9.492  70.733  1.00  0.00    -0.377 C  
HETATM    5  C   UNL     1      -8.651   7.853  67.924  1.00  0.00    -0.125 C  
HETATM    6  C   UNL     1      -9.636  11.349  65.100  1.00  0.00    -0.258 C  
HETATM    7  O   UNL     1      -7.198   7.552  67.662  1.00  0.00    -0.085 OA 
HETATM    8  C   UNL     1      -8.954   7.547  69.208  1.00  0.00    -0.136 C  
HETATM    9  C   UNL     1     -10.656   7.809  68.433  1.00  0.00    -0.157 C  
HETATM   10  H   UNL     1      -6.944   7.034  66.907  1.00  0.00     0.000 HD 
HETATM   11  C   UNL     1     -10.046  11.722  66.514  1.00  0.00    -0.232 C  
HETATM   12  C   UNL     1     -11.566  12.088  66.694  1.00  0.00    -0.389 C  
HETATM   13  C   UNL     1      -8.458   6.373  70.014  1.00  0.00    -0.135 C  
HETATM   14  O   UNL     1     -11.277  14.960  65.340  1.00  0.00    -0.338 OA 
HETATM   15  C   UNL     1     -10.628   9.112  67.219  1.00  0.00    -0.233 C  
HETATM   16  C   UNL     1     -11.933  13.355  66.953  1.00  0.00    -0.437 C  
HETATM   17  C   UNL     1      -9.761  10.544  67.495  1.00  0.00    -0.190 C  
HETATM   18  O   UNL     1     -10.151   8.524  65.997  1.00  0.00    -0.473 OA 
HETATM   19  H   UNL     1     -10.135   9.219  65.349  1.00  0.00     0.000 HD 
HETATM   20  C   UNL     1      -8.129  10.301  67.874  1.00  0.00    -0.102 C  
HETATM   21  C   UNL     1     -11.008  14.308  66.340  1.00  0.00    -0.311 C  
HETATM   22  C   UNL     1      -9.668  14.202  66.889  1.00  0.00    -0.272 C  
HETATM   23  C   UNL     1      -7.502  11.641  68.288  1.00  0.00    -0.097 C  
HETATM   24  C   UNL     1      -7.732  12.738  67.267  1.00  0.00    -0.127 C  
HETATM   25  C   UNL     1      -9.180  12.948  66.930  1.00  0.00    -0.234 C  
HETATM   26  F   UNL     1      -7.182  13.882  67.769  1.00  0.00    -0.101 F  
ENDROOT
BRANCH   5  27
HETATM   27  C   UNL     1      -9.008   6.238  67.187  1.00  0.00    -0.111 C  
HETATM   28  O   UNL     1     -10.152   5.762  67.096  1.00  0.00    -0.144 OA 
BRANCH  27  29
HETATM   29  C   UNL     1      -7.864   5.246  66.691  1.00  0.00    -0.100 C  
BRANCH  29  30
HETATM   30  O   UNL     1      -7.177   5.829  65.459  1.00  0.00    -0.071 OA 
BRANCH  30  31
HETATM   31  C   UNL     1      -7.910   6.347  64.428  1.00  0.00    -0.115 C  
HETATM   32  C   UNL     1      -8.505   5.188  63.579  1.00  0.00    -0.111 C  
HETATM   33  O   UNL     1      -7.988   7.495  64.142  1.00  0.00    -0.133 OA 
ENDBRANCH  30  31
ENDBRANCH  29  30
ENDBRANCH  27  29
ENDBRANCH   5  27
TORSDOF 4
ENDMDL
MODEL       43
REMARK 921   NORMALIZED FREE ENERGY PREDICTED BY IDOCK:   -5.25 KCAL/MOL
REMARK 922        TOTAL FREE ENERGY PREDICTED BY IDOCK:   -6.29 KCAL/MOL
REMARK 923 INTER-LIGAND FREE ENERGY PREDICTED BY IDOCK:   -6.48 KCAL/MOL
REMARK 924 INTRA-LIGAND FREE ENERGY PREDICTED BY IDOCK:    0.19 KCAL/MOL
REMARK 927      BINDING AFFINITY PREDICTED BY RF-SCORE:    0.00 PKD
ROOT
HETATM    1  C   UNL     1     -11.087  11.900  68.826  1.00  0.00    -0.296 C  
HETATM    2  C   UNL     1     -12.277  12.090  68.120  1.00  0.00     0.211 C  
HETATM    3  C   UNL     1     -11.033  12.162  67.287  1.00  0.00    -0.308 C  
HETATM    4  C   UNL     1     -11.912  12.647  65.931  1.00  0.00    -0.497 C  
HETATM    5  C   UNL     1      -9.329  11.396  68.198  1.00  0.00    -0.181 C  
HETATM    6  C   UNL     1      -7.741  15.643  68.979  1.00  0.00    -0.199 C  
HETATM    7  O   UNL     1      -9.415  10.766  69.565  1.00  0.00    -0.413 OA 
HETATM    8  C   UNL     1     -10.277  10.862  67.392  1.00  0.00    -0.236 C  
HETATM    9  C   UNL     1      -9.181  11.802  66.175  1.00  0.00    -0.218 C  
HETATM   10  H   UNL     1      -8.636  10.416  69.981  1.00  0.00     0.000 HD 
HETATM   11  C   UNL     1      -9.012  15.731  68.151  1.00  0.00    -0.180 C  
HETATM   12  C   UNL     1      -8.855  16.462  66.766  1.00  0.00    -0.255 C  
HETATM   13  C   UNL     1     -10.731   9.426  67.333  1.00  0.00    -0.280 C  
HETATM   14  O   UNL     1      -8.733  19.377  68.051  1.00  0.00    -0.303 OA 
HETATM   15  C   UNL     1      -8.562  13.314  66.886  1.00  0.00    -0.105 C  
HETATM   16  C   UNL     1      -9.420  17.665  66.565  1.00  0.00    -0.294 C  
HETATM   17  C   UNL     1      -9.559  14.306  67.834  1.00  0.00    -0.221 C  
HETATM   18  O   UNL     1      -7.407  12.957  67.666  1.00  0.00    -0.118 OA 
HETATM   19  H   UNL     1      -7.076  13.763  68.045  1.00  0.00     0.000 HD 
HETATM   20  C   UNL     1     -10.289  13.509  69.136  1.00  0.00     0.068 C  
HETATM   21  C   UNL     1      -9.475  18.435  67.808  1.00  0.00    -0.280 C  
HETATM   22  C   UNL     1     -10.320  17.803  68.806  1.00  0.00    -0.332 C  
HETATM   23  C   UNL     1     -11.307  14.450  69.798  1.00  0.00    -0.285 C  
HETATM   24  C   UNL     1     -10.711  15.795  70.165  1.00  0.00    -0.344 C  
HETATM   25  C   UNL     1     -10.062  16.498  69.009  1.00  0.00    -0.279 C  
HETATM   26  F   UNL     1     -11.718  16.555  70.688  1.00  0.00    -0.334 F  
ENDROOT
BRANCH   5  27
HETATM   27  C   UNL     1      -8.006  10.209  67.852  1.00  0.00    -0.101 C  
HETATM   28  O   UNL     1      -7.489  10.062  66.731  1.00  0.00    -0.094 OA 
BRANCH  27  29
HETATM   29  C   UNL     1      -7.469   9.176  68.941  1.00  0.00    -0.075 C  
BRANCH  29  30
HETATM   30  O   UNL     1      -8.275   7.883  68.865  1.00  0.00    -0.123 OA 
BRANCH  30  31
HETATM   31  C   UNL     1      -8.739   7.279  70.001  1.00  0.00    -0.141 C  
HETATM   32  C   UNL     1      -7.544   6.678  70.796  1.00  0.00    -0.092 C  
HETATM   33  O   UNL     1      -9.879   7.125  70.288  1.00  0.00    -0.176 OA 
ENDBRANCH  30  31
ENDBRANCH  29  30
ENDBRANCH  27  29
ENDBRANCH   5  27
TORSDOF 4
ENDMDL
MODEL       44
REMARK 921   NORMALIZED FREE ENERGY PREDICTED BY IDOCK:   -5.25 KCAL/MOL
REMARK 922        TOTAL FREE ENERGY PREDICTED BY IDOCK:   -6.29 KCAL/MOL
REMARK 923 INTER-LIGAND FREE ENERGY PREDICTED BY IDOCK:   -6.74 KCAL/MOL
REMARK 924 INTRA-LIGAND FREE ENERGY PREDICTED BY IDOCK:    0.45 KCAL/MOL
REMARK 927      BINDING AFFINITY PREDICTED BY RF-SCORE:    0.00 PKD
ROOT
HETATM    1  C   UNL     1      -9.171   9.194  64.748  1.00  0.00    -0.085 C  
HETATM    2  C   UNL     1      -8.144   9.515  63.858  1.00  0.00    -0.152 C  
HETATM    3  C   UNL     1      -7.841   9.802  65.298  1.00  0.00    -0.120 C  
HETATM    4  C   UNL     1      -6.392  10.565  64.891  1.00  0.00    -0.028 C  
HETATM    5  C   UNL     1      -9.120   8.883  66.656  1.00  0.00    -0.156 C  
HETATM    6  C   UNL     1     -11.271  12.872  67.447  1.00  0.00    -0.331 C  
HETATM    7  O   UNL     1     -10.205   7.957  66.172  1.00  0.00    -0.451 OA 
HETATM    8  C   UNL     1      -7.937   8.528  66.099  1.00  0.00    -0.102 C  
HETATM    9  C   UNL     1      -7.411   9.744  67.444  1.00  0.00    -0.091 C  
HETATM   10  H   UNL     1     -10.789   7.537  66.792  1.00  0.00     0.000 HD 
HETATM   11  C   UNL     1     -10.083  13.121  66.534  1.00  0.00    -0.280 C  
HETATM   12  C   UNL     1      -9.026  14.151  67.080  1.00  0.00    -0.236 C  
HETATM   13  C   UNL     1      -7.426   7.134  65.839  1.00  0.00    -0.080 C  
HETATM   14  O   UNL     1     -10.843  16.698  66.463  1.00  0.00    -0.178 OA 
HETATM   15  C   UNL     1      -8.591  11.066  67.629  1.00  0.00    -0.125 C  
HETATM   16  C   UNL     1      -8.891  15.357  66.501  1.00  0.00    -0.347 C  
HETATM   17  C   UNL     1      -9.306  11.794  66.274  1.00  0.00    -0.235 C  
HETATM   18  O   UNL     1      -9.639  10.565  68.477  1.00  0.00    -0.150 OA 
HETATM   19  H   UNL     1     -10.269  11.269  68.576  1.00  0.00     0.000 HD 
HETATM   20  C   UNL     1     -10.069  10.706  65.227  1.00  0.00    -0.363 C  
HETATM   21  C   UNL     1     -10.163  15.821  65.947  1.00  0.00    -0.355 C  
HETATM   22  C   UNL     1     -10.643  14.961  64.880  1.00  0.00    -0.417 C  
HETATM   23  C   UNL     1     -10.505  11.449  63.955  1.00  0.00    -0.444 C  
HETATM   24  C   UNL     1     -11.329  12.687  64.251  1.00  0.00    -0.363 C  
HETATM   25  C   UNL     1     -10.650  13.649  65.183  1.00  0.00    -0.371 C  
HETATM   26  F   UNL     1     -11.604  13.287  63.056  1.00  0.00    -0.383 F  
ENDROOT
BRANCH   5  27
HETATM   27  C   UNL     1      -9.029   7.835  68.129  1.00  0.00    -0.127 C  
HETATM   28  O   UNL     1      -8.253   8.045  69.077  1.00  0.00    -0.124 OA 
BRANCH  27  29
HETATM   29  C   UNL     1      -9.869   6.489  68.281  1.00  0.00    -0.132 C  
BRANCH  29  30
HETATM   30  O   UNL     1      -9.898   6.063  69.746  1.00  0.00    -0.156 OA 
BRANCH  30  31
HETATM   31  C   UNL     1      -9.036   5.112  70.217  1.00  0.00    -0.126 C  
HETATM   32  C   UNL     1      -8.510   4.255  69.030  1.00  0.00    -0.099 C  
HETATM   33  O   UNL     1      -8.809   4.886  71.358  1.00  0.00    -0.128 OA 
ENDBRANCH  30  31
ENDBRANCH  29  30
ENDBRANCH  27  29
ENDBRANCH   5  27
TORSDOF 4
ENDMDL
MODEL       45
REMARK 921   NORMALIZED FREE ENERGY PREDICTED BY IDOCK:   -5.23 KCAL/MOL
REMARK 922        TOTAL FREE ENERGY PREDICTED BY IDOCK:   -6.25 KCAL/MOL
REMARK 923 INTER-LIGAND FREE ENERGY PREDICTED BY IDOCK:   -6.32 KCAL/MOL
REMARK 924 INTRA-LIGAND FREE ENERGY PREDICTED BY IDOCK:    0.06 KCAL/MOL
REMARK 927      BINDING AFFINITY PREDICTED BY RF-SCORE:    0.00 PKD
ROOT
HETATM    1  C   UNL     1     -10.265   6.266  68.872  1.00  0.00    -0.219 C  
HETATM    2  C   UNL     1      -9.416   5.175  68.674  1.00  0.00    -0.178 C  
HETATM    3  C   UNL     1      -8.944   6.162  69.699  1.00  0.00    -0.134 C  
HETATM    4  C   UNL     1      -7.467   5.361  69.859  1.00  0.00    -0.069 C  
HETATM    5  C   UNL     1     -10.398   7.493  70.360  1.00  0.00    -0.214 C  
HETATM    6  C   UNL     1      -8.556  10.876  67.844  1.00  0.00    -0.130 C  
HETATM    7  O   UNL     1     -11.816   7.379  69.863  1.00  0.00    -0.497 OA 
HETATM    8  C   UNL     1      -9.971   6.284  70.795  1.00  0.00    -0.220 C  
HETATM    9  C   UNL     1      -8.634   7.451  71.442  1.00  0.00    -0.118 C  
HETATM   10  H   UNL     1     -12.480   7.987  70.165  1.00  0.00     0.000 HD 
HETATM   11  C   UNL     1      -7.666   9.649  67.754  1.00  0.00    -0.094 C  
HETATM   12  C   UNL     1      -6.182   9.865  68.229  1.00  0.00    -0.050 C  
HETATM   13  C   UNL     1     -10.762   5.248  71.553  1.00  0.00    -0.221 C  
HETATM   14  O   UNL     1      -5.326  11.461  65.605  1.00  0.00    -0.254 OA 
HETATM   15  C   UNL     1      -8.315   8.778  70.297  1.00  0.00    -0.136 C  
HETATM   16  C   UNL     1      -5.175   9.854  67.339  1.00  0.00    -0.035 C  
HETATM   17  C   UNL     1      -8.240   8.491  68.627  1.00  0.00    -0.122 C  
HETATM   18  O   UNL     1      -9.320   9.778  70.538  1.00  0.00    -0.330 OA 
HETATM   19  H   UNL     1      -9.151  10.486  69.928  1.00  0.00     0.000 HD 
HETATM   20  C   UNL     1      -9.611   7.724  67.995  1.00  0.00    -0.166 C  
HETATM   21  C   UNL     1      -5.617  10.354  66.037  1.00  0.00    -0.084 C  
HETATM   22  C   UNL     1      -6.635   9.506  65.441  1.00  0.00    -0.077 C  
HETATM   23  C   UNL     1      -9.348   7.347  66.529  1.00  0.00    -0.222 C  
HETATM   24  C   UNL     1      -8.871   8.522  65.697  1.00  0.00    -0.173 C  
HETATM   25  C   UNL     1      -7.657   9.202  66.262  1.00  0.00    -0.092 C  
HETATM   26  F   UNL     1      -8.619   8.052  64.440  1.00  0.00    -0.112 F  
ENDROOT
BRANCH   5  27
HETATM   27  C   UNL     1     -11.105   8.087  71.917  1.00  0.00    -0.276 C  
HETATM   28  O   UNL     1     -10.423   8.384  72.914  1.00  0.00    -0.262 OA 
BRANCH  27  29
HETATM   29  C   UNL     1     -12.676   8.176  72.172  1.00  0.00    -0.297 C  
BRANCH  29  30
HETATM   30  O   UNL     1     -13.305   9.138  71.169  1.00  0.00    -0.263 OA 
BRANCH  30  31
HETATM   31  C   UNL     1     -13.039  10.478  71.221  1.00  0.00    -0.383 C  
HETATM   32  C   UNL     1     -12.239  10.898  69.955  1.00  0.00    -0.408 C  
HETATM   33  O   UNL     1     -13.269  11.195  72.136  1.00  0.00    -0.481 OA 
ENDBRANCH  30  31
ENDBRANCH  29  30
ENDBRANCH  27  29
ENDBRANCH   5  27
TORSDOF 4
ENDMDL
MODEL       46
REMARK 921   NORMALIZED FREE ENERGY PREDICTED BY IDOCK:   -5.21 KCAL/MOL
REMARK 922        TOTAL FREE ENERGY PREDICTED BY IDOCK:   -6.23 KCAL/MOL
REMARK 923 INTER-LIGAND FREE ENERGY PREDICTED BY IDOCK:   -6.20 KCAL/MOL
REMARK 924 INTRA-LIGAND FREE ENERGY PREDICTED BY IDOCK:   -0.04 KCAL/MOL
REMARK 927      BINDING AFFINITY PREDICTED BY RF-SCORE:    0.00 PKD
ROOT
HETATM    1  C   UNL     1      -9.853   9.013  70.466  1.00  0.00    -0.263 C  
HETATM    2  C   UNL     1     -10.996   8.243  70.244  1.00  0.00    -0.233 C  
HETATM    3  C   UNL     1      -9.875   7.998  69.279  1.00  0.00    -0.178 C  
HETATM    4  C   UNL     1     -10.844   6.987  68.337  1.00  0.00    -0.191 C  
HETATM    5  C   UNL     1      -8.030   8.740  69.883  1.00  0.00    -0.106 C  
HETATM    6  C   UNL     1      -8.371  12.231  66.907  1.00  0.00    -0.137 C  
HETATM    7  O   UNL     1      -7.880   9.402  71.229  1.00  0.00    -0.335 OA 
HETATM    8  C   UNL     1      -8.651   7.545  70.032  1.00  0.00    -0.139 C  
HETATM    9  C   UNL     1      -8.016   7.463  68.256  1.00  0.00    -0.124 C  
HETATM   10  H   UNL     1      -7.036   9.740  71.505  1.00  0.00     0.000 HD 
HETATM   11  C   UNL     1      -9.543  11.286  66.701  1.00  0.00    -0.218 C  
HETATM   12  C   UNL     1      -9.670  10.688  65.252  1.00  0.00    -0.315 C  
HETATM   13  C   UNL     1      -8.465   6.545  71.145  1.00  0.00    -0.126 C  
HETATM   14  O   UNL     1     -10.803  13.385  63.983  1.00  0.00    -0.352 OA 
HETATM   15  C   UNL     1      -8.098   9.053  67.457  1.00  0.00    -0.108 C  
HETATM   16  C   UNL     1     -10.679  11.066  64.447  1.00  0.00    -0.340 C  
HETATM   17  C   UNL     1      -9.440  10.068  67.670  1.00  0.00    -0.163 C  
HETATM   18  O   UNL     1      -6.919   9.774  67.856  1.00  0.00    -0.076 OA 
HETATM   19  H   UNL     1      -6.962  10.622  67.431  1.00  0.00     0.000 HD 
HETATM   20  C   UNL     1      -9.804  10.402  69.288  1.00  0.00    -0.243 C  
HETATM   21  C   UNL     1     -11.080  12.447  64.718  1.00  0.00    -0.304 C  
HETATM   22  C   UNL     1     -11.609  12.610  66.060  1.00  0.00    -0.443 C  
HETATM   23  C   UNL     1     -11.137  11.163  69.360  1.00  0.00    -0.314 C  
HETATM   24  C   UNL     1     -11.163  12.387  68.466  1.00  0.00    -0.279 C  
HETATM   25  C   UNL     1     -10.837  12.088  67.031  1.00  0.00    -0.297 C  
HETATM   26  F   UNL     1     -12.407  12.940  68.572  1.00  0.00    -0.295 F  
ENDROOT
BRANCH   5  27
HETATM   27  C   UNL     1      -6.325   8.167  70.095  1.00  0.00    -0.032 C  
HETATM   28  O   UNL     1      -5.804   7.284  69.392  1.00  0.00    -0.025 OA 
BRANCH  27  29
HETATM   29  C   UNL     1      -5.385   8.676  71.277  1.00  0.00    -0.034 C  
BRANCH  29  30
HETATM   30  O   UNL     1      -5.452   7.697  72.445  1.00  0.00    -0.036 OA 
BRANCH  30  31
HETATM   31  C   UNL     1      -6.147   8.008  73.581  1.00  0.00    -0.080 C  
HETATM   32  C   UNL     1      -6.398   6.714  74.407  1.00  0.00    -0.076 C  
HETATM   33  O   UNL     1      -6.599   9.071  73.847  1.00  0.00    -0.337 OA 
ENDBRANCH  30  31
ENDBRANCH  29  30
ENDBRANCH  27  29
ENDBRANCH   5  27
TORSDOF 4
ENDMDL
MODEL       47
REMARK 921   NORMALIZED FREE ENERGY PREDICTED BY IDOCK:   -5.11 KCAL/MOL
REMARK 922        TOTAL FREE ENERGY PREDICTED BY IDOCK:   -6.11 KCAL/MOL
REMARK 923 INTER-LIGAND FREE ENERGY PREDICTED BY IDOCK:   -6.65 KCAL/MOL
REMARK 924 INTRA-LIGAND FREE ENERGY PREDICTED BY IDOCK:    0.54 KCAL/MOL
REMARK 927      BINDING AFFINITY PREDICTED BY RF-SCORE:    0.00 PKD
ROOT
HETATM    1  C   UNL     1     -10.061   9.420  66.136  1.00  0.00    -0.324 C  
HETATM    2  C   UNL     1      -9.611   9.621  64.829  1.00  0.00    -0.197 C  
HETATM    3  C   UNL     1      -8.611   9.951  65.897  1.00  0.00    -0.149 C  
HETATM    4  C   UNL     1      -7.536  10.583  64.761  1.00  0.00     0.029 C  
HETATM    5  C   UNL     1      -9.068   9.195  67.779  1.00  0.00    -0.126 C  
HETATM    6  C   UNL     1     -10.358  13.366  69.227  1.00  0.00     0.214 C  
HETATM    7  O   UNL     1     -10.287   8.331  67.977  1.00  0.00    -0.209 OA 
HETATM    8  C   UNL     1      -8.344   8.726  66.735  1.00  0.00    -0.108 C  
HETATM    9  C   UNL     1      -7.161   9.960  67.537  1.00  0.00    -0.089 C  
HETATM   10  H   UNL     1     -10.495   7.985  68.837  1.00  0.00     0.000 HD 
HETATM   11  C   UNL     1      -9.784  13.482  67.826  1.00  0.00    -0.226 C  
HETATM   12  C   UNL     1      -8.554  14.455  67.688  1.00  0.00    -0.189 C  
HETATM   13  C   UNL     1      -8.092   7.287  66.363  1.00  0.00    -0.119 C  
HETATM   14  O   UNL     1     -10.326  17.100  67.866  1.00  0.00    -0.318 OA 
HETATM   15  C   UNL     1      -8.030  11.374  68.184  1.00  0.00    -0.133 C  
HETATM   16  C   UNL     1      -8.679  15.619  67.027  1.00  0.00    -0.256 C  
HETATM   17  C   UNL     1      -9.300  12.090  67.316  1.00  0.00    -0.180 C  
HETATM   18  O   UNL     1      -8.528  10.993  69.479  1.00  0.00    -0.377 OA 
HETATM   19  H   UNL     1      -8.991  11.747  69.824  1.00  0.00     0.000 HD 
HETATM   20  C   UNL     1     -10.532  11.015  66.880  1.00  0.00    -0.293 C  
HETATM   21  C   UNL     1     -10.036  16.151  67.149  1.00  0.00    -0.269 C  
HETATM   22  C   UNL     1     -11.024  15.281  66.537  1.00  0.00    -0.295 C  
HETATM   23  C   UNL     1     -11.518  11.730  65.943  1.00  0.00    -0.273 C  
HETATM   24  C   UNL     1     -12.028  13.038  66.515  1.00  0.00    -0.391 C  
HETATM   25  C   UNL     1     -10.933  13.989  66.904  1.00  0.00    -0.301 C  
HETATM   26  F   UNL     1     -12.843  13.601  65.575  1.00  0.00    -0.499 F  
ENDROOT
BRANCH   5  27
HETATM   27  C   UNL     1      -8.291   8.211  69.086  1.00  0.00    -0.131 C  
HETATM   28  O   UNL     1      -7.257   7.541  68.920  1.00  0.00    -0.077 OA 
BRANCH  27  29
HETATM   29  C   UNL     1      -8.934   8.041  70.534  1.00  0.00    -0.152 C  
BRANCH  29  30
HETATM   30  O   UNL     1      -9.553   6.652  70.662  1.00  0.00    -0.169 OA 
BRANCH  30  31
HETATM   31  C   UNL     1     -10.910   6.484  70.635  1.00  0.00    -0.266 C  
HETATM   32  C   UNL     1     -11.427   6.197  72.073  1.00  0.00    -0.366 C  
HETATM   33  O   UNL     1     -11.583   6.442  69.660  1.00  0.00    -0.417 OA 
ENDBRANCH  30  31
ENDBRANCH  29  30
ENDBRANCH  27  29
ENDBRANCH   5  27
TORSDOF 4
ENDMDL
MODEL       48
REMARK 921   NORMALIZED FREE ENERGY PREDICTED BY IDOCK:   -5.07 KCAL/MOL
REMARK 922        TOTAL FREE ENERGY PREDICTED BY IDOCK:   -6.06 KCAL/MOL
REMARK 923 INTER-LIGAND FREE ENERGY PREDICTED BY IDOCK:   -6.44 KCAL/MOL
REMARK 924 INTRA-LIGAND FREE ENERGY PREDICTED BY IDOCK:    0.38 KCAL/MOL
REMARK 927      BINDING AFFINITY PREDICTED BY RF-SCORE:    0.00 PKD
ROOT
HETATM    1  C   UNL     1      -9.976  13.555  64.624  1.00  0.00    -0.112 C  
HETATM    2  C   UNL     1     -10.903  12.914  63.801  1.00  0.00    -0.351 C  
HETATM    3  C   UNL     1     -11.402  13.238  65.177  1.00  0.00    -0.318 C  
HETATM    4  C   UNL     1     -12.837  12.393  64.907  1.00  0.00    -0.092 C  
HETATM    5  C   UNL     1     -10.242  14.612  66.221  1.00  0.00    -0.292 C  
HETATM    6  C   UNL     1      -8.484  11.259  68.835  1.00  0.00    -0.062 C  
HETATM    7  O   UNL     1      -9.044  15.249  65.566  1.00  0.00    -0.328 OA 
HETATM    8  C   UNL     1     -11.319  14.725  65.407  1.00  0.00    -0.356 C  
HETATM    9  C   UNL     1     -12.090  14.165  67.037  1.00  0.00    -0.449 C  
HETATM   10  H   UNL     1      -8.514  15.878  66.043  1.00  0.00     0.000 HD 
HETATM   11  C   UNL     1      -9.564  10.676  67.939  1.00  0.00    -0.174 C  
HETATM   12  C   UNL     1     -10.748   9.968  68.695  1.00  0.00    -0.256 C  
HETATM   13  C   UNL     1     -11.697  15.901  64.543  1.00  0.00    -0.161 C  
HETATM   14  O   UNL     1      -9.048   7.367  69.410  1.00  0.00    -0.140 OA 
HETATM   15  C   UNL     1     -11.036  13.017  67.899  1.00  0.00    -0.255 C  
HETATM   16  C   UNL     1     -10.893   8.633  68.632  1.00  0.00    -0.003 C  
HETATM   17  C   UNL     1     -10.210  11.794  67.063  1.00  0.00    -0.240 C  
HETATM   18  O   UNL     1     -10.070  13.805  68.616  1.00  0.00    -0.236 OA 
HETATM   19  H   UNL     1      -9.507  13.194  69.075  1.00  0.00     0.000 HD 
HETATM   20  C   UNL     1      -9.249  12.355  65.788  1.00  0.00     0.071 C  
HETATM   21  C   UNL     1      -9.596   7.969  68.496  1.00  0.00    -0.155 C  
HETATM   22  C   UNL     1      -8.929   8.317  67.254  1.00  0.00    -0.149 C  
HETATM   23  C   UNL     1      -8.711  11.155  64.995  1.00  0.00     0.040 C  
HETATM   24  C   UNL     1      -8.017  10.133  65.874  1.00  0.00    -0.134 C  
HETATM   25  C   UNL     1      -8.870   9.639  67.006  1.00  0.00    -0.142 C  
HETATM   26  F   UNL     1      -7.636   9.098  65.069  1.00  0.00    -0.098 F  
ENDROOT
BRANCH   5  27
HETATM   27  C   UNL     1     -10.443  16.168  67.124  1.00  0.00    -0.305 C  
HETATM   28  O   UNL     1     -11.327  16.360  67.977  1.00  0.00    -0.288 OA 
BRANCH  27  29
HETATM   29  C   UNL     1      -9.563  17.461  66.818  1.00  0.00    -0.277 C  
BRANCH  29  30
HETATM   30  O   UNL     1      -9.252  18.191  68.121  1.00  0.00    -0.275 OA 
BRANCH  30  31
HETATM   31  C   UNL     1      -7.980  18.218  68.623  1.00  0.00    -0.289 C  
HETATM   32  C   UNL     1      -7.472  19.687  68.676  1.00  0.00    -0.368 C  
HETATM   33  O   UNL     1      -7.313  17.270  68.870  1.00  0.00    -0.241 OA 
ENDBRANCH  30  31
ENDBRANCH  29  30
ENDBRANCH  27  29
ENDBRANCH   5  27
TORSDOF 4
ENDMDL
MODEL       49
REMARK 921   NORMALIZED FREE ENERGY PREDICTED BY IDOCK:   -5.04 KCAL/MOL
REMARK 922        TOTAL FREE ENERGY PREDICTED BY IDOCK:   -6.03 KCAL/MOL
REMARK 923 INTER-LIGAND FREE ENERGY PREDICTED BY IDOCK:   -7.03 KCAL/MOL
REMARK 924 INTRA-LIGAND FREE ENERGY PREDICTED BY IDOCK:    1.00 KCAL/MOL
REMARK 927      BINDING AFFINITY PREDICTED BY RF-SCORE:    0.00 PKD
ROOT
HETATM    1  C   UNL     1     -10.968  12.388  66.223  1.00  0.00    -0.323 C  
HETATM    2  C   UNL     1     -11.875  11.904  67.167  1.00  0.00    -0.216 C  
HETATM    3  C   UNL     1     -10.735  12.694  67.737  1.00  0.00    -0.239 C  
HETATM    4  C   UNL     1     -11.202  12.320  69.314  1.00  0.00    -0.275 C  
HETATM    5  C   UNL     1      -9.681  13.826  66.348  1.00  0.00    -0.294 C  
HETATM    6  C   UNL     1      -6.201  10.819  66.418  1.00  0.00    -0.119 C  
HETATM    7  O   UNL     1     -10.121  13.864  64.907  1.00  0.00    -0.555 OA 
HETATM    8  C   UNL     1     -10.740  14.083  67.152  1.00  0.00    -0.283 C  
HETATM    9  C   UNL     1      -9.278  14.213  68.340  1.00  0.00    -0.203 C  
HETATM   10  H   UNL     1      -9.640  14.382  64.272  1.00  0.00     0.000 HD 
HETATM   11  C   UNL     1      -7.224  10.420  67.468  1.00  0.00    -0.087 C  
HETATM   12  C   UNL     1      -6.672  10.338  68.939  1.00  0.00    -0.057 C  
HETATM   13  C   UNL     1     -11.853  15.073  66.918  1.00  0.00    -0.110 C  
HETATM   14  O   UNL     1      -5.145   7.580  68.464  1.00  0.00    -0.023 OA 
HETATM   15  C   UNL     1      -8.008  13.028  67.945  1.00  0.00    -0.157 C  
HETATM   16  C   UNL     1      -6.547   9.148  69.553  1.00  0.00    -0.043 C  
HETATM   17  C   UNL     1      -8.403  11.440  67.499  1.00  0.00    -0.137 C  
HETATM   18  O   UNL     1      -7.218  13.610  66.893  1.00  0.00    -0.333 OA 
HETATM   19  H   UNL     1      -6.540  12.979  66.682  1.00  0.00     0.000 HD 
HETATM   20  C   UNL     1      -9.480  11.336  66.197  1.00  0.00    -0.232 C  
HETATM   21  C   UNL     1      -6.251   8.088  68.589  1.00  0.00    -0.044 C  
HETATM   22  C   UNL     1      -7.333   7.891  67.641  1.00  0.00    -0.096 C  
HETATM   23  C   UNL     1      -9.908   9.872  66.013  1.00  0.00    -0.330 C  
HETATM   24  C   UNL     1      -8.730   8.924  65.904  1.00  0.00    -0.170 C  
HETATM   25  C   UNL     1      -7.774   9.021  67.058  1.00  0.00    -0.098 C  
HETATM   26  F   UNL     1      -9.235   7.660  65.801  1.00  0.00    -0.180 F  
ENDROOT
BRANCH   5  27
HETATM   27  C   UNL     1      -9.125  15.533  66.111  1.00  0.00    -0.324 C  
HETATM   28  O   UNL     1      -7.990  15.936  66.420  1.00  0.00    -0.244 OA 
BRANCH  27  29
HETATM   29  C   UNL     1     -10.087  16.687  65.581  1.00  0.00    -0.217 C  
BRANCH  29  30
HETATM   30  O   UNL     1      -9.519  18.049  65.969  1.00  0.00    -0.504 OA 
BRANCH  30  31
HETATM   31  C   UNL     1     -10.040  18.753  67.020  1.00  0.00    -0.358 C  
HETATM   32  C   UNL     1      -9.093  19.935  67.374  1.00  0.00    -0.436 C  
HETATM   33  O   UNL     1     -10.998  18.451  67.649  1.00  0.00    -0.346 OA 
ENDBRANCH  30  31
ENDBRANCH  29  30
ENDBRANCH  27  29
ENDBRANCH   5  27
TORSDOF 4
ENDMDL
MODEL       50
REMARK 921   NORMALIZED FREE ENERGY PREDICTED BY IDOCK:   -5.03 KCAL/MOL
REMARK 922        TOTAL FREE ENERGY PREDICTED BY IDOCK:   -6.01 KCAL/MOL
REMARK 923 INTER-LIGAND FREE ENERGY PREDICTED BY IDOCK:   -6.09 KCAL/MOL
REMARK 924 INTRA-LIGAND FREE ENERGY PREDICTED BY IDOCK:    0.08 KCAL/MOL
REMARK 927      BINDING AFFINITY PREDICTED BY RF-SCORE:    0.00 PKD
ROOT
HETATM    1  C   UNL     1     -10.939   8.031  69.604  1.00  0.00    -0.106 C  
HETATM    2  C   UNL     1     -11.094   7.964  70.989  1.00  0.00    -0.268 C  
HETATM    3  C   UNL     1      -9.816   8.599  70.529  1.00  0.00    -0.210 C  
HETATM    4  C   UNL     1      -9.232   8.682  72.110  1.00  0.00    -0.326 C  
HETATM    5  C   UNL     1      -9.795   9.157  68.526  1.00  0.00    -0.164 C  
HETATM    6  C   UNL     1      -7.114   5.569  67.475  1.00  0.00    -0.074 C  
HETATM    7  O   UNL     1     -11.023   8.975  67.673  1.00  0.00    -0.492 OA 
HETATM    8  C   UNL     1     -10.128   9.798  69.671  1.00  0.00    -0.250 C  
HETATM    9  C   UNL     1      -8.242   9.869  69.693  1.00  0.00    -0.178 C  
HETATM   10  H   UNL     1     -11.014   9.231  66.758  1.00  0.00     0.000 HD 
HETATM   11  C   UNL     1      -7.293   5.631  68.982  1.00  0.00    -0.082 C  
HETATM   12  C   UNL     1      -5.959   5.754  69.807  1.00  0.00    -0.025 C  
HETATM   13  C   UNL     1     -11.114  10.927  69.839  1.00  0.00    -0.311 C  
HETATM   14  O   UNL     1      -5.145   2.699  69.392  1.00  0.00    -0.010 OA 
HETATM   15  C   UNL     1      -7.524   8.387  69.015  1.00  0.00    -0.093 C  
HETATM   16  C   UNL     1      -5.527   4.725  70.558  1.00  0.00    -0.007 C  
HETATM   17  C   UNL     1      -8.167   6.860  69.379  1.00  0.00    -0.131 C  
HETATM   18  O   UNL     1      -7.524   8.547  67.586  1.00  0.00    -0.091 OA 
HETATM   19  H   UNL     1      -7.142   7.757  67.224  1.00  0.00     0.000 HD 
HETATM   20  C   UNL     1      -9.819   6.708  69.042  1.00  0.00    -0.149 C  
HETATM   21  C   UNL     1      -5.923   3.444  69.973  1.00  0.00    -0.022 C  
HETATM   22  C   UNL     1      -7.366   3.281  69.934  1.00  0.00    -0.044 C  
HETATM   23  C   UNL     1     -10.324   5.363  69.588  1.00  0.00    -0.361 C  
HETATM   24  C   UNL     1      -9.495   4.187  69.109  1.00  0.00    -0.178 C  
HETATM   25  C   UNL     1      -8.030   4.326  69.407  1.00  0.00    -0.060 C  
HETATM   26  F   UNL     1     -10.003   3.066  69.701  1.00  0.00    -0.139 F  
ENDROOT
BRANCH   5  27
HETATM   27  C   UNL     1      -9.438  10.615  67.514  1.00  0.00    -0.153 C  
HETATM   28  O   UNL     1      -8.624  11.496  67.840  1.00  0.00    -0.133 OA 
BRANCH  27  29
HETATM   29  C   UNL     1     -10.224  10.942  66.167  1.00  0.00    -0.249 C  
BRANCH  29  30
HETATM   30  O   UNL     1     -11.643  11.394  66.495  1.00  0.00    -0.408 OA 
BRANCH  30  31
HETATM   31  C   UNL     1     -12.101  12.617  66.089  1.00  0.00    -0.333 C  
HETATM   32  C   UNL     1     -11.535  13.721  67.028  1.00  0.00    -0.368 C  
HETATM   33  O   UNL     1     -12.898  12.810  65.234  1.00  0.00    -0.674 OA 
ENDBRANCH  30  31
ENDBRANCH  29  30
ENDBRANCH  27  29
ENDBRANCH   5  27
TORSDOF 4
ENDMDL
MODEL       51
REMARK 921   NORMALIZED FREE ENERGY PREDICTED BY IDOCK:   -4.96 KCAL/MOL
REMARK 922        TOTAL FREE ENERGY PREDICTED BY IDOCK:   -5.93 KCAL/MOL
REMARK 923 INTER-LIGAND FREE ENERGY PREDICTED BY IDOCK:   -6.74 KCAL/MOL
REMARK 924 INTRA-LIGAND FREE ENERGY PREDICTED BY IDOCK:    0.82 KCAL/MOL
REMARK 927      BINDING AFFINITY PREDICTED BY RF-SCORE:    0.00 PKD
ROOT
HETATM    1  C   UNL     1      -7.918   9.889  69.242  1.00  0.00    -0.121 C  
HETATM    2  C   UNL     1      -6.646   9.882  68.668  1.00  0.00    -0.050 C  
HETATM    3  C   UNL     1      -7.773   9.664  67.703  1.00  0.00    -0.095 C  
HETATM    4  C   UNL     1      -6.696   9.341  66.444  1.00  0.00    -0.071 C  
HETATM    5  C   UNL     1      -9.653  10.167  68.434  1.00  0.00    -0.143 C  
HETATM    6  C   UNL     1     -10.713   5.724  68.982  1.00  0.00    -0.354 C  
HETATM    7  O   UNL     1      -9.799  10.764  69.810  1.00  0.00    -0.429 OA 
HETATM    8  C   UNL     1      -8.707  10.846  67.742  1.00  0.00    -0.129 C  
HETATM    9  C   UNL     1      -9.528   9.801  66.401  1.00  0.00    -0.237 C  
HETATM   10  H   UNL     1     -10.658  10.994  70.144  1.00  0.00     0.000 HD 
HETATM   11  C   UNL     1      -9.363   5.832  68.295  1.00  0.00    -0.123 C  
HETATM   12  C   UNL     1      -9.269   5.125  66.892  1.00  0.00    -0.118 C  
HETATM   13  C   UNL     1      -8.452  12.332  67.752  1.00  0.00    -0.163 C  
HETATM   14  O   UNL     1      -9.124   2.186  68.118  1.00  0.00    -0.129 OA 
HETATM   15  C   UNL     1     -10.005   8.200  67.021  1.00  0.00    -0.259 C  
HETATM   16  C   UNL     1      -8.527   4.015  66.738  1.00  0.00    -0.104 C  
HETATM   17  C   UNL     1      -8.986   7.326  68.059  1.00  0.00    -0.131 C  
HETATM   18  O   UNL     1     -11.274   8.375  67.676  1.00  0.00    -0.360 OA 
HETATM   19  H   UNL     1     -11.529   7.522  68.006  1.00  0.00     0.000 HD 
HETATM   20  C   UNL     1      -8.515   8.178  69.443  1.00  0.00    -0.127 C  
HETATM   21  C   UNL     1      -8.497   3.226  67.970  1.00  0.00    -0.086 C  
HETATM   22  C   UNL     1      -7.858   3.938  69.062  1.00  0.00    -0.056 C  
HETATM   23  C   UNL     1      -7.453   7.366  70.199  1.00  0.00    -0.087 C  
HETATM   24  C   UNL     1      -7.893   5.943  70.482  1.00  0.00    -0.101 C  
HETATM   25  C   UNL     1      -8.314   5.190  69.253  1.00  0.00    -0.087 C  
HETATM   26  F   UNL     1      -6.852   5.312  71.101  1.00  0.00    -0.038 F  
ENDROOT
BRANCH   5  27
HETATM   27  C   UNL     1     -11.082  11.173  67.962  1.00  0.00    -0.276 C  
HETATM   28  O   UNL     1     -12.204  11.063  68.486  1.00  0.00    -0.582 OA 
BRANCH  27  29
HETATM   29  C   UNL     1     -11.043  12.213  66.755  1.00  0.00    -0.300 C  
BRANCH  29  30
HETATM   30  O   UNL     1     -12.376  12.191  66.013  1.00  0.00    -0.550 OA 
BRANCH  30  31
HETATM   31  C   UNL     1     -12.504  12.776  64.784  1.00  0.00    -0.472 C  
HETATM   32  C   UNL     1     -12.335  11.697  63.675  1.00  0.00    -0.338 C  
HETATM   33  O   UNL     1     -12.606  13.938  64.577  1.00  0.00    -0.629 OA 
ENDBRANCH  30  31
ENDBRANCH  29  30
ENDBRANCH  27  29
ENDBRANCH   5  27
TORSDOF 4
ENDMDL
MODEL       52
REMARK 921   NORMALIZED FREE ENERGY PREDICTED BY IDOCK:   -4.90 KCAL/MOL
REMARK 922        TOTAL FREE ENERGY PREDICTED BY IDOCK:   -5.85 KCAL/MOL
REMARK 923 INTER-LIGAND FREE ENERGY PREDICTED BY IDOCK:   -6.63 KCAL/MOL
REMARK 924 INTRA-LIGAND FREE ENERGY PREDICTED BY IDOCK:    0.77 KCAL/MOL
REMARK 927      BINDING AFFINITY PREDICTED BY RF-SCORE:    0.00 PKD
ROOT
HETATM    1  C   UNL     1      -7.963  10.313  68.160  1.00  0.00    -0.109 C  
HETATM    2  C   UNL     1      -8.724  10.486  69.318  1.00  0.00    -0.135 C  
HETATM    3  C   UNL     1      -9.411   9.729  68.221  1.00  0.00    -0.134 C  
HETATM    4  C   UNL     1     -10.864   9.712  69.079  1.00  0.00    -0.206 C  
HETATM    5  C   UNL     1      -8.150   9.034  66.722  1.00  0.00    -0.111 C  
HETATM    6  C   UNL     1      -9.602  12.334  63.865  1.00  0.00     0.051 C  
HETATM    7  O   UNL     1      -6.661   9.247  66.821  1.00  0.00    -0.066 OA 
HETATM    8  C   UNL     1      -8.610   8.499  67.877  1.00  0.00    -0.134 C  
HETATM    9  C   UNL     1     -10.080   8.291  66.712  1.00  0.00    -0.373 C  
HETATM   10  H   UNL     1      -6.084   8.929  66.136  1.00  0.00     0.000 HD 
HETATM   11  C   UNL     1     -10.419  12.389  65.144  1.00  0.00    -0.321 C  
HETATM   12  C   UNL     1     -11.973  12.226  64.951  1.00  0.00    -0.420 C  
HETATM   13  C   UNL     1      -7.939   7.460  68.740  1.00  0.00    -0.123 C  
HETATM   14  O   UNL     1     -12.379  15.177  63.813  1.00  0.00    -0.618 OA 
HETATM   15  C   UNL     1     -10.225   9.667  65.590  1.00  0.00    -0.034 C  
HETATM   16  C   UNL     1     -12.796  13.269  65.154  1.00  0.00    -0.376 C  
HETATM   17  C   UNL     1      -9.979  11.258  66.123  1.00  0.00    -0.268 C  
HETATM   18  O   UNL     1      -9.316   9.409  64.505  1.00  0.00    -0.430 OA 
HETATM   19  H   UNL     1      -9.392  10.143  63.906  1.00  0.00     0.000 HD 
HETATM   20  C   UNL     1      -8.491  11.508  66.889  1.00  0.00    -0.165 C  
HETATM   21  C   UNL     1     -12.136  14.533  64.825  1.00  0.00    -0.445 C  
HETATM   22  C   UNL     1     -10.998  14.798  65.688  1.00  0.00    -0.345 C  
HETATM   23  C   UNL     1      -8.465  12.921  67.493  1.00  0.00    -0.186 C  
HETATM   24  C   UNL     1      -8.817  13.997  66.485  1.00  0.00    -0.020 C  
HETATM   25  C   UNL     1     -10.136  13.771  65.805  1.00  0.00    -0.322 C  
HETATM   26  F   UNL     1      -8.816  15.190  67.149  1.00  0.00    -0.178 F  
ENDROOT
BRANCH   5  27
HETATM   27  C   UNL     1      -7.763   7.488  65.863  1.00  0.00    -0.099 C  
HETATM   28  O   UNL     1      -7.514   7.419  64.647  1.00  0.00    -0.080 OA 
BRANCH  27  29
HETATM   29  C   UNL     1      -7.817   6.066  66.582  1.00  0.00    -0.101 C  
BRANCH  29  30
HETATM   30  O   UNL     1      -8.640   5.095  65.741  1.00  0.00    -0.125 OA 
BRANCH  30  31
HETATM   31  C   UNL     1      -9.818   4.585  66.211  1.00  0.00    -0.230 C  
HETATM   32  C   UNL     1      -9.524   3.513  67.299  1.00  0.00    -0.228 C  
HETATM   33  O   UNL     1     -10.897   4.826  65.783  1.00  0.00    -0.295 OA 
ENDBRANCH  30  31
ENDBRANCH  29  30
ENDBRANCH  27  29
ENDBRANCH   5  27
TORSDOF 4
ENDMDL
MODEL       53
REMARK 921   NORMALIZED FREE ENERGY PREDICTED BY IDOCK:   -4.83 KCAL/MOL
REMARK 922        TOTAL FREE ENERGY PREDICTED BY IDOCK:   -5.77 KCAL/MOL
REMARK 923 INTER-LIGAND FREE ENERGY PREDICTED BY IDOCK:   -5.58 KCAL/MOL
REMARK 924 INTRA-LIGAND FREE ENERGY PREDICTED BY IDOCK:   -0.19 KCAL/MOL
REMARK 927      BINDING AFFINITY PREDICTED BY RF-SCORE:    0.00 PKD
ROOT
HETATM    1  C   UNL     1      -8.262  11.487  66.658  1.00  0.00    -0.156 C  
HETATM    2  C   UNL     1      -7.493  10.580  65.927  1.00  0.00    -0.147 C  
HETATM    3  C   UNL     1      -8.955  10.256  65.991  1.00  0.00    -0.173 C  
HETATM    4  C   UNL     1      -8.709   8.774  65.224  1.00  0.00    -0.216 C  
HETATM    5  C   UNL     1     -10.166  11.823  66.626  1.00  0.00    -0.210 C  
HETATM    6  C   UNL     1     -10.665   9.866  70.759  1.00  0.00    -0.350 C  
HETATM    7  O   UNL     1      -9.569  13.176  66.916  1.00  0.00    -0.233 OA 
HETATM    8  C   UNL     1      -9.752  11.396  65.409  1.00  0.00    -0.265 C  
HETATM    9  C   UNL     1     -11.137  10.181  65.823  1.00  0.00     0.755 C  
HETATM   10  H   UNL     1     -10.122  13.892  67.206  1.00  0.00     0.000 HD 
HETATM   11  C   UNL     1      -9.893   8.923  69.853  1.00  0.00    -0.190 C  
HETATM   12  C   UNL     1     -10.546   7.506  69.652  1.00  0.00    -0.243 C  
HETATM   13  C   UNL     1      -9.566  12.220  64.160  1.00  0.00     0.068 C  
HETATM   14  O   UNL     1      -9.699   6.446  72.538  1.00  0.00    -0.163 OA 
HETATM   15  C   UNL     1     -11.172   9.798  67.563  1.00  0.00     0.154 C  
HETATM   16  C   UNL     1      -9.975   6.412  70.185  1.00  0.00    -0.201 C  
HETATM   17  C   UNL     1      -9.736   9.538  68.429  1.00  0.00    -0.168 C  
HETATM   18  O   UNL     1     -11.899  10.861  68.203  1.00  0.00    -0.664 OA 
HETATM   19  H   UNL     1     -11.918  10.658  69.130  1.00  0.00     0.000 HD 
HETATM   20  C   UNL     1      -8.619  10.804  68.310  1.00  0.00    -0.135 C  
HETATM   21  C   UNL     1      -9.274   6.737  71.428  1.00  0.00    -0.153 C  
HETATM   22  C   UNL     1      -8.167   7.652  71.210  1.00  0.00    -0.099 C  
HETATM   23  C   UNL     1      -7.298  10.375  68.967  1.00  0.00    -0.097 C  
HETATM   24  C   UNL     1      -7.486   9.862  70.381  1.00  0.00    -0.122 C  
HETATM   25  C   UNL     1      -8.480   8.741  70.484  1.00  0.00    -0.181 C  
HETATM   26  F   UNL     1      -6.261   9.462  70.833  1.00  0.00    -0.046 F  
ENDROOT
BRANCH   5  27
HETATM   27  C   UNL     1     -11.650  12.711  66.090  1.00  0.00    -0.393 C  
HETATM   28  O   UNL     1     -12.525  12.212  65.362  1.00  0.00    -0.523 OA 
BRANCH  27  29
HETATM   29  C   UNL     1     -11.901  14.249  66.424  1.00  0.00    -0.411 C  
BRANCH  29  30
HETATM   30  O   UNL     1     -12.499  14.380  67.822  1.00  0.00    -0.105 OA 
BRANCH  30  31
HETATM   31  C   UNL     1     -11.694  14.437  68.926  1.00  0.00    -0.322 C  
HETATM   32  C   UNL     1     -11.223  15.902  69.151  1.00  0.00    -0.334 C  
HETATM   33  O   UNL     1     -11.309  13.506  69.551  1.00  0.00    -0.257 OA 
ENDBRANCH  30  31
ENDBRANCH  29  30
ENDBRANCH  27  29
ENDBRANCH   5  27
TORSDOF 4
ENDMDL
MODEL       54
REMARK 921   NORMALIZED FREE ENERGY PREDICTED BY IDOCK:   -4.82 KCAL/MOL
REMARK 922        TOTAL FREE ENERGY PREDICTED BY IDOCK:   -5.76 KCAL/MOL
REMARK 923 INTER-LIGAND FREE ENERGY PREDICTED BY IDOCK:   -5.50 KCAL/MOL
REMARK 924 INTRA-LIGAND FREE ENERGY PREDICTED BY IDOCK:   -0.26 KCAL/MOL
REMARK 927      BINDING AFFINITY PREDICTED BY RF-SCORE:    0.00 PKD
ROOT
HETATM    1  C   UNL     1      -8.086   9.120  65.127  1.00  0.00    -0.130 C  
HETATM    2  C   UNL     1      -7.286  10.222  65.433  1.00  0.00    -0.143 C  
HETATM    3  C   UNL     1      -6.918   8.959  66.151  1.00  0.00    -0.081 C  
HETATM    4  C   UNL     1      -5.781   9.771  67.097  1.00  0.00    -0.047 C  
HETATM    5  C   UNL     1      -7.748   7.229  65.350  1.00  0.00    -0.111 C  
HETATM    6  C   UNL     1     -10.795   7.006  68.789  1.00  0.00    -0.198 C  
HETATM    7  O   UNL     1      -8.590   7.297  64.102  1.00  0.00    -0.344 OA 
HETATM    8  C   UNL     1      -6.581   7.886  65.147  1.00  0.00    -0.048 C  
HETATM    9  C   UNL     1      -6.260   6.962  66.762  1.00  0.00    -0.041 C  
HETATM   10  H   UNL     1      -8.969   6.507  63.735  1.00  0.00     0.000 HD 
HETATM   11  C   UNL     1      -9.823   8.141  69.059  1.00  0.00    -0.176 C  
HETATM   12  C   UNL     1      -9.031   8.032  70.415  1.00  0.00    -0.146 C  
HETATM   13  C   UNL     1      -5.745   7.907  63.893  1.00  0.00    -0.056 C  
HETATM   14  O   UNL     1     -11.521   8.890  72.212  1.00  0.00    -0.348 OA 
HETATM   15  C   UNL     1      -7.725   6.882  67.773  1.00  0.00    -0.112 C  
HETATM   16  C   UNL     1      -9.288   8.884  71.422  1.00  0.00    -0.338 C  
HETATM   17  C   UNL     1      -8.751   8.224  67.931  1.00  0.00    -0.135 C  
HETATM   18  O   UNL     1      -8.502   5.775  67.281  1.00  0.00    -0.108 OA 
HETATM   19  H   UNL     1      -9.283   5.732  67.820  1.00  0.00     0.000 HD 
HETATM   20  C   UNL     1      -9.301   8.850  66.458  1.00  0.00    -0.252 C  
HETATM   21  C   UNL     1     -10.690   9.302  71.414  1.00  0.00    -0.362 C  
HETATM   22  C   UNL     1     -11.033  10.048  70.216  1.00  0.00    -0.377 C  
HETATM   23  C   UNL     1     -10.055  10.163  66.718  1.00  0.00    -0.277 C  
HETATM   24  C   UNL     1     -11.145  10.018  67.762  1.00  0.00    -0.180 C  
HETATM   25  C   UNL     1     -10.654   9.459  69.066  1.00  0.00    -0.233 C  
HETATM   26  F   UNL     1     -11.699  11.253  67.945  1.00  0.00    -0.354 F  
ENDROOT
BRANCH   5  27
HETATM   27  C   UNL     1      -7.221   5.595  64.777  1.00  0.00    -0.065 C  
HETATM   28  O   UNL     1      -6.336   4.923  65.334  1.00  0.00    -0.033 OA 
BRANCH  27  29
HETATM   29  C   UNL     1      -7.780   4.929  63.441  1.00  0.00    -0.072 C  
BRANCH  29  30
HETATM   30  O   UNL     1      -9.242   4.540  63.633  1.00  0.00    -0.146 OA 
BRANCH  30  31
HETATM   31  C   UNL     1      -9.665   3.949  64.791  1.00  0.00    -0.187 C  
HETATM   32  C   UNL     1      -9.125   2.492  64.858  1.00  0.00    -0.137 C  
HETATM   33  O   UNL     1     -10.421   4.419  65.573  1.00  0.00    -0.265 OA 
ENDBRANCH  30  31
ENDBRANCH  29  30
ENDBRANCH  27  29
ENDBRANCH   5  27
TORSDOF 4
ENDMDL
MODEL       55
REMARK 921   NORMALIZED FREE ENERGY PREDICTED BY IDOCK:   -4.82 KCAL/MOL
REMARK 922        TOTAL FREE ENERGY PREDICTED BY IDOCK:   -5.75 KCAL/MOL
REMARK 923 INTER-LIGAND FREE ENERGY PREDICTED BY IDOCK:   -5.62 KCAL/MOL
REMARK 924 INTRA-LIGAND FREE ENERGY PREDICTED BY IDOCK:   -0.13 KCAL/MOL
REMARK 927      BINDING AFFINITY PREDICTED BY RF-SCORE:    0.00 PKD
ROOT
HETATM    1  C   UNL     1      -7.400   7.894  70.191  1.00  0.00    -0.070 C  
HETATM    2  C   UNL     1      -7.185   8.426  71.463  1.00  0.00    -0.093 C  
HETATM    3  C   UNL     1      -8.579   7.930  71.215  1.00  0.00    -0.138 C  
HETATM    4  C   UNL     1      -9.111   8.541  72.695  1.00  0.00    -0.256 C  
HETATM    5  C   UNL     1      -8.781   6.701  69.551  1.00  0.00    -0.135 C  
HETATM    6  C   UNL     1     -10.743  10.115  67.171  1.00  0.00    -0.286 C  
HETATM    7  O   UNL     1      -7.571   6.318  68.737  1.00  0.00    -0.089 OA 
HETATM    8  C   UNL     1      -8.538   6.466  70.862  1.00  0.00    -0.135 C  
HETATM    9  C   UNL     1     -10.400   6.778  70.835  1.00  0.00    -0.222 C  
HETATM   10  H   UNL     1      -7.663   5.756  67.977  1.00  0.00     0.000 HD 
HETATM   11  C   UNL     1     -10.525  10.569  68.604  1.00  0.00    -0.211 C  
HETATM   12  C   UNL     1     -11.827  11.017  69.366  1.00  0.00    -0.407 C  
HETATM   13  C   UNL     1      -7.788   5.305  71.464  1.00  0.00    -0.113 C  
HETATM   14  O   UNL     1     -12.041  13.810  67.843  1.00  0.00    -0.365 OA 
HETATM   15  C   UNL     1     -10.838   8.024  69.640  1.00  0.00    -0.169 C  
HETATM   16  C   UNL     1     -12.022  12.310  69.676  1.00  0.00    -0.347 C  
HETATM   17  C   UNL     1      -9.895   9.422  69.452  1.00  0.00    -0.183 C  
HETATM   18  O   UNL     1     -10.920   7.360  68.367  1.00  0.00    -0.423 OA 
HETATM   19  H   UNL     1     -11.153   8.025  67.729  1.00  0.00     0.000 HD 
HETATM   20  C   UNL     1      -8.259   9.116  69.146  1.00  0.00    -0.117 C  
HETATM   21  C   UNL     1     -11.404  13.189  68.683  1.00  0.00    -0.289 C  
HETATM   22  C   UNL     1      -9.960  13.041  68.643  1.00  0.00    -0.114 C  
HETATM   23  C   UNL     1      -7.481  10.440  69.187  1.00  0.00    -0.112 C  
HETATM   24  C   UNL     1      -8.080  11.501  68.284  1.00  0.00    -0.148 C  
HETATM   25  C   UNL     1      -9.532  11.768  68.556  1.00  0.00    -0.165 C  
HETATM   26  F   UNL     1      -7.342  12.638  68.450  1.00  0.00    -0.090 F  
ENDROOT
BRANCH   5  27
HETATM   27  C   UNL     1      -9.452   5.075  69.122  1.00  0.00    -0.137 C  
HETATM   28  O   UNL     1     -10.381   4.530  69.741  1.00  0.00    -0.116 OA 
BRANCH  27  29
HETATM   29  C   UNL     1      -8.829   4.162  67.974  1.00  0.00    -0.112 C  
BRANCH  29  30
HETATM   30  O   UNL     1      -9.681   4.268  66.713  1.00  0.00    -0.196 OA 
BRANCH  30  31
HETATM   31  C   UNL     1      -9.423   5.225  65.772  1.00  0.00    -0.117 C  
HETATM   32  C   UNL     1      -9.275   4.556  64.375  1.00  0.00    -0.127 C  
HETATM   33  O   UNL     1      -9.221   6.373  65.988  1.00  0.00    -0.143 OA 
ENDBRANCH  30  31
ENDBRANCH  29  30
ENDBRANCH  27  29
ENDBRANCH   5  27
TORSDOF 4
ENDMDL
MODEL       56
REMARK 921   NORMALIZED FREE ENERGY PREDICTED BY IDOCK:   -4.81 KCAL/MOL
REMARK 922        TOTAL FREE ENERGY PREDICTED BY IDOCK:   -5.74 KCAL/MOL
REMARK 923 INTER-LIGAND FREE ENERGY PREDICTED BY IDOCK:   -5.61 KCAL/MOL
REMARK 924 INTRA-LIGAND FREE ENERGY PREDICTED BY IDOCK:   -0.13 KCAL/MOL
REMARK 927      BINDING AFFINITY PREDICTED BY RF-SCORE:    0.00 PKD
ROOT
HETATM    1  C   UNL     1      -7.196   9.700  68.727  1.00  0.00    -0.072 C  
HETATM    2  C   UNL     1      -7.271   9.640  70.120  1.00  0.00    -0.128 C  
HETATM    3  C   UNL     1      -8.541   9.284  69.405  1.00  0.00    -0.142 C  
HETATM    4  C   UNL     1      -9.391   9.199  70.860  1.00  0.00    -0.335 C  
HETATM    5  C   UNL     1      -8.314   8.882  67.378  1.00  0.00    -0.108 C  
HETATM    6  C   UNL     1     -10.129  12.966  66.286  1.00  0.00    -0.281 C  
HETATM    7  O   UNL     1      -6.945   8.895  66.748  1.00  0.00    -0.075 OA 
HETATM    8  C   UNL     1      -8.295   8.111  68.491  1.00  0.00    -0.126 C  
HETATM    9  C   UNL     1     -10.142   8.387  68.213  1.00  0.00    -0.232 C  
HETATM   10  H   UNL     1      -6.842   8.711  65.822  1.00  0.00     0.000 HD 
HETATM   11  C   UNL     1     -10.223  12.766  67.789  1.00  0.00    -0.223 C  
HETATM   12  C   UNL     1     -11.680  12.833  68.381  1.00  0.00    -0.380 C  
HETATM   13  C   UNL     1      -7.558   6.812  68.696  1.00  0.00    -0.105 C  
HETATM   14  O   UNL     1     -11.881  16.007  68.151  1.00  0.00    -0.194 OA 
HETATM   15  C   UNL     1     -10.472  10.020  67.583  1.00  0.00    -0.246 C  
HETATM   16  C   UNL     1     -12.052  13.868  69.154  1.00  0.00    -0.377 C  
HETATM   17  C   UNL     1      -9.650  11.373  68.193  1.00  0.00    -0.190 C  
HETATM   18  O   UNL     1     -10.255   9.963  66.162  1.00  0.00    -0.250 OA 
HETATM   19  H   UNL     1     -10.430  10.834  65.825  1.00  0.00     0.000 HD 
HETATM   20  C   UNL     1      -7.964  11.243  68.133  1.00  0.00    -0.131 C  
HETATM   21  C   UNL     1     -11.351  15.093  68.768  1.00  0.00    -0.300 C  
HETATM   22  C   UNL     1      -9.916  14.990  68.970  1.00  0.00    -0.246 C  
HETATM   23  C   UNL     1      -7.339  12.430  68.882  1.00  0.00    -0.031 C  
HETATM   24  C   UNL     1      -7.862  13.769  68.400  1.00  0.00    -0.143 C  
HETATM   25  C   UNL     1      -9.359  13.881  68.451  1.00  0.00    -0.201 C  
HETATM   26  F   UNL     1      -7.281  14.733  69.172  1.00  0.00    -0.111 F  
ENDROOT
BRANCH   5  27
HETATM   27  C   UNL     1      -8.735   7.589  66.183  1.00  0.00    -0.156 C  
HETATM   28  O   UNL     1      -9.772   6.906  66.245  1.00  0.00    -0.110 OA 
BRANCH  27  29
HETATM   29  C   UNL     1      -7.752   7.148  65.009  1.00  0.00    -0.115 C  
BRANCH  29  30
HETATM   30  O   UNL     1      -8.237   7.731  63.685  1.00  0.00    -0.093 OA 
BRANCH  30  31
HETATM   31  C   UNL     1      -8.148   9.072  63.435  1.00  0.00    -0.167 C  
HETATM   32  C   UNL     1      -6.656   9.467  63.242  1.00  0.00    -0.101 C  
HETATM   33  O   UNL     1      -9.046   9.846  63.475  1.00  0.00    -0.239 OA 
ENDBRANCH  30  31
ENDBRANCH  29  30
ENDBRANCH  27  29
ENDBRANCH   5  27
TORSDOF 4
ENDMDL
MODEL       57
REMARK 921   NORMALIZED FREE ENERGY PREDICTED BY IDOCK:   -4.79 KCAL/MOL
REMARK 922        TOTAL FREE ENERGY PREDICTED BY IDOCK:   -5.72 KCAL/MOL
REMARK 923 INTER-LIGAND FREE ENERGY PREDICTED BY IDOCK:   -6.93 KCAL/MOL
REMARK 924 INTRA-LIGAND FREE ENERGY PREDICTED BY IDOCK:    1.21 KCAL/MOL
REMARK 927      BINDING AFFINITY PREDICTED BY RF-SCORE:    0.00 PKD
ROOT
HETATM    1  C   UNL     1      -8.284   8.237  67.593  1.00  0.00    -0.127 C  
HETATM    2  C   UNL     1      -8.730   7.137  66.857  1.00  0.00    -0.126 C  
HETATM    3  C   UNL     1      -9.816   7.945  67.503  1.00  0.00    -0.221 C  
HETATM    4  C   UNL     1     -10.989   6.821  67.046  1.00  0.00    -0.439 C  
HETATM    5  C   UNL     1      -9.227   9.827  68.160  1.00  0.00    -0.128 C  
HETATM    6  C   UNL     1      -9.209   8.383  72.527  1.00  0.00    -0.338 C  
HETATM    7  O   UNL     1      -7.822  10.313  67.915  1.00  0.00    -0.099 OA 
HETATM    8  C   UNL     1      -9.756   9.365  67.002  1.00  0.00    -0.233 C  
HETATM    9  C   UNL     1     -11.263   9.461  68.134  1.00  0.00     0.139 C  
HETATM   10  H   UNL     1      -7.553  11.173  68.215  1.00  0.00     0.000 HD 
HETATM   11  C   UNL     1      -9.747   7.274  71.640  1.00  0.00    -0.166 C  
HETATM   12  C   UNL     1     -11.195   6.775  72.000  1.00  0.00    -0.297 C  
HETATM   13  C   UNL     1      -9.581   9.938  65.618  1.00  0.00    -0.320 C  
HETATM   14  O   UNL     1     -10.245   5.130  74.561  1.00  0.00    -0.234 OA 
HETATM   15  C   UNL     1     -10.848   9.035  69.813  1.00  0.00    -0.205 C  
HETATM   16  C   UNL     1     -11.381   5.551  72.526  1.00  0.00    -0.323 C  
HETATM   17  C   UNL     1      -9.803   7.742  70.153  1.00  0.00    -0.184 C  
HETATM   18  O   UNL     1     -10.306  10.223  70.416  1.00  0.00    -0.423 OA 
HETATM   19  H   UNL     1     -10.084   9.997  71.312  1.00  0.00     0.000 HD 
HETATM   20  C   UNL     1      -8.305   7.841  69.372  1.00  0.00    -0.133 C  
HETATM   21  C   UNL     1     -10.233   5.147  73.337  1.00  0.00    -0.189 C  
HETATM   22  C   UNL     1      -9.021   5.020  72.548  1.00  0.00    -0.137 C  
HETATM   23  C   UNL     1      -7.530   6.534  69.600  1.00  0.00    -0.093 C  
HETATM   24  C   UNL     1      -7.428   6.160  71.066  1.00  0.00    -0.085 C  
HETATM   25  C   UNL     1      -8.758   6.077  71.757  1.00  0.00    -0.138 C  
HETATM   26  F   UNL     1      -6.773   4.963  71.134  1.00  0.00    -0.030 F  
ENDROOT
BRANCH   5  27
HETATM   27  C   UNL     1      -9.738  11.556  67.998  1.00  0.00    -0.186 C  
HETATM   28  O   UNL     1      -8.951  12.487  67.754  1.00  0.00    -0.167 OA 
BRANCH  27  29
HETATM   29  C   UNL     1     -11.233  12.042  68.263  1.00  0.00    -0.261 C  
BRANCH  29  30
HETATM   30  O   UNL     1     -11.966  12.199  66.935  1.00  0.00    -0.603 OA 
BRANCH  30  31
HETATM   31  C   UNL     1     -11.923  13.379  66.246  1.00  0.00    -0.411 C  
HETATM   32  C   UNL     1     -11.343  13.130  64.824  1.00  0.00    -0.352 C  
HETATM   33  O   UNL     1     -12.172  14.450  66.689  1.00  0.00    -0.424 OA 
ENDBRANCH  30  31
ENDBRANCH  29  30
ENDBRANCH  27  29
ENDBRANCH   5  27
TORSDOF 4
ENDMDL
MODEL       58
REMARK 921   NORMALIZED FREE ENERGY PREDICTED BY IDOCK:   -4.79 KCAL/MOL
REMARK 922        TOTAL FREE ENERGY PREDICTED BY IDOCK:   -5.71 KCAL/MOL
REMARK 923 INTER-LIGAND FREE ENERGY PREDICTED BY IDOCK:   -5.84 KCAL/MOL
REMARK 924 INTRA-LIGAND FREE ENERGY PREDICTED BY IDOCK:    0.13 KCAL/MOL
REMARK 927      BINDING AFFINITY PREDICTED BY RF-SCORE:    0.00 PKD
ROOT
HETATM    1  C   UNL     1      -7.826   9.081  69.160  1.00  0.00    -0.093 C  
HETATM    2  C   UNL     1      -8.193   9.563  70.417  1.00  0.00    -0.220 C  
HETATM    3  C   UNL     1      -9.326   9.031  69.592  1.00  0.00    -0.169 C  
HETATM    4  C   UNL     1     -10.461   9.556  70.725  1.00  0.00    -0.384 C  
HETATM    5  C   UNL     1      -8.748   7.870  67.967  1.00  0.00    -0.125 C  
HETATM    6  C   UNL     1      -9.697  11.316  65.070  1.00  0.00    -0.293 C  
HETATM    7  O   UNL     1      -7.292   7.566  67.729  1.00  0.00    -0.096 OA 
HETATM    8  C   UNL     1      -9.068   7.585  69.251  1.00  0.00    -0.138 C  
HETATM    9  C   UNL     1     -10.760   7.833  68.450  1.00  0.00    -0.088 C  
HETATM   10  H   UNL     1      -7.027   7.035  66.987  1.00  0.00     0.000 HD 
HETATM   11  C   UNL     1     -10.126  11.713  66.473  1.00  0.00    -0.239 C  
HETATM   12  C   UNL     1     -11.648  12.082  66.626  1.00  0.00    -0.389 C  
HETATM   13  C   UNL     1      -8.583   6.426  70.083  1.00  0.00    -0.135 C  
HETATM   14  O   UNL     1     -11.342  14.931  65.227  1.00  0.00    -0.344 OA 
HETATM   15  C   UNL     1     -10.716   9.116  67.215  1.00  0.00    -0.154 C  
HETATM   16  C   UNL     1     -12.019  13.353  66.858  1.00  0.00    -0.437 C  
HETATM   17  C   UNL     1      -9.853  10.552  67.477  1.00  0.00    -0.196 C  
HETATM   18  O   UNL     1     -10.222   8.507  66.008  1.00  0.00    -0.426 OA 
HETATM   19  H   UNL     1     -10.199   9.190  65.349  1.00  0.00     0.000 HD 
HETATM   20  C   UNL     1      -8.227  10.317  67.882  1.00  0.00    -0.109 C  
HETATM   21  C   UNL     1     -11.086  14.295  66.241  1.00  0.00    -0.323 C  
HETATM   22  C   UNL     1      -9.754  14.200  66.811  1.00  0.00    -0.283 C  
HETATM   23  C   UNL     1      -7.606  11.665  68.282  1.00  0.00    -0.120 C  
HETATM   24  C   UNL     1      -7.822  12.743  67.238  1.00  0.00    -0.146 C  
HETATM   25  C   UNL     1      -9.266  12.947  66.879  1.00  0.00    -0.234 C  
HETATM   26  F   UNL     1      -7.280  13.896  67.729  1.00  0.00    -0.101 F  
ENDROOT
BRANCH   5  27
HETATM   27  C   UNL     1      -9.095   6.243  67.253  1.00  0.00    -0.116 C  
HETATM   28  O   UNL     1     -10.190   5.665  67.357  1.00  0.00    -0.166 OA 
BRANCH  27  29
HETATM   29  C   UNL     1      -7.982   5.369  66.520  1.00  0.00    -0.105 C  
BRANCH  29  30
HETATM   30  O   UNL     1      -6.995   4.825  67.548  1.00  0.00    -0.058 OA 
BRANCH  30  31
HETATM   31  C   UNL     1      -6.922   3.485  67.809  1.00  0.00    -0.051 C  
HETATM   32  C   UNL     1      -8.255   3.007  68.454  1.00  0.00    -0.079 C  
HETATM   33  O   UNL     1      -5.959   2.806  67.682  1.00  0.00    -0.025 OA 
ENDBRANCH  30  31
ENDBRANCH  29  30
ENDBRANCH  27  29
ENDBRANCH   5  27
TORSDOF 4
ENDMDL
MODEL       59
REMARK 921   NORMALIZED FREE ENERGY PREDICTED BY IDOCK:   -4.76 KCAL/MOL
REMARK 922        TOTAL FREE ENERGY PREDICTED BY IDOCK:   -5.67 KCAL/MOL
REMARK 923 INTER-LIGAND FREE ENERGY PREDICTED BY IDOCK:   -5.67 KCAL/MOL
REMARK 924 INTRA-LIGAND FREE ENERGY PREDICTED BY IDOCK:    0.00 KCAL/MOL
REMARK 927      BINDING AFFINITY PREDICTED BY RF-SCORE:    0.00 PKD
ROOT
HETATM    1  C   UNL     1     -10.109   6.911  69.971  1.00  0.00    -0.195 C  
HETATM    2  C   UNL     1     -11.271   6.374  69.414  1.00  0.00    -0.459 C  
HETATM    3  C   UNL     1     -10.162   6.623  68.436  1.00  0.00    -0.188 C  
HETATM    4  C   UNL     1     -11.160   6.232  67.133  1.00  0.00    -0.389 C  
HETATM    5  C   UNL     1      -8.296   6.935  69.298  1.00  0.00    -0.129 C  
HETATM    6  C   UNL     1      -8.577  11.450  68.461  1.00  0.00    -0.150 C  
HETATM    7  O   UNL     1      -8.122   6.836  70.792  1.00  0.00    -0.115 OA 
HETATM    8  C   UNL     1      -8.943   5.836  68.843  1.00  0.00    -0.113 C  
HETATM    9  C   UNL     1      -8.322   6.638  67.251  1.00  0.00    -0.120 C  
HETATM   10  H   UNL     1      -7.269   6.978  71.186  1.00  0.00     0.000 HD 
HETATM   11  C   UNL     1      -9.771  10.752  67.833  1.00  0.00    -0.181 C  
HETATM   12  C   UNL     1      -9.922  10.958  66.280  1.00  0.00    -0.274 C  
HETATM   13  C   UNL     1      -8.773   4.411  69.307  1.00  0.00    -0.120 C  
HETATM   14  O   UNL     1     -11.000  13.947  66.543  1.00  0.00    -0.296 OA 
HETATM   15  C   UNL     1      -8.373   8.416  67.351  1.00  0.00    -0.124 C  
HETATM   16  C   UNL     1     -10.927  11.703  65.788  1.00  0.00    -0.329 C  
HETATM   17  C   UNL     1      -9.690   9.212  68.064  1.00  0.00    -0.177 C  
HETATM   18  O   UNL     1      -7.175   8.822  68.036  1.00  0.00    -0.081 OA 
HETATM   19  H   UNL     1      -7.201   9.770  68.090  1.00  0.00     0.000 HD 
HETATM   20  C   UNL     1     -10.035   8.702  69.640  1.00  0.00    -0.191 C  
HETATM   21  C   UNL     1     -11.294  12.772  66.717  1.00  0.00    -0.313 C  
HETATM   22  C   UNL     1     -11.811  12.254  67.972  1.00  0.00    -0.368 C  
HETATM   23  C   UNL     1     -11.350   9.348  70.104  1.00  0.00    -0.220 C  
HETATM   24  C   UNL     1     -11.354  10.855  69.938  1.00  0.00    -0.305 C  
HETATM   25  C   UNL     1     -11.044  11.305  68.540  1.00  0.00    -0.288 C  
HETATM   26  F   UNL     1     -12.584  11.302  70.327  1.00  0.00    -0.342 F  
ENDROOT
BRANCH   5  27
HETATM   27  C   UNL     1      -6.604   6.304  69.167  1.00  0.00    -0.048 C  
HETATM   28  O   UNL     1      -6.088   5.934  68.098  1.00  0.00    -0.016 OA 
BRANCH  27  29
HETATM   29  C   UNL     1      -5.670   6.071  70.437  1.00  0.00    -0.014 C  
BRANCH  29  30
HETATM   30  O   UNL     1      -5.921   4.681  71.012  1.00  0.00    -0.016 OA 
BRANCH  30  31
HETATM   31  C   UNL     1      -6.407   4.524  72.280  1.00  0.00    -0.022 C  
HETATM   32  C   UNL     1      -6.909   3.064  72.468  1.00  0.00    -0.026 C  
HETATM   33  O   UNL     1      -6.543   5.387  73.082  1.00  0.00    -0.066 OA 
ENDBRANCH  30  31
ENDBRANCH  29  30
ENDBRANCH  27  29
ENDBRANCH   5  27
TORSDOF 4
ENDMDL
MODEL       60
REMARK 921   NORMALIZED FREE ENERGY PREDICTED BY IDOCK:   -4.75 KCAL/MOL
REMARK 922        TOTAL FREE ENERGY PREDICTED BY IDOCK:   -5.67 KCAL/MOL
REMARK 923 INTER-LIGAND FREE ENERGY PREDICTED BY IDOCK:   -5.88 KCAL/MOL
REMARK 924 INTRA-LIGAND FREE ENERGY PREDICTED BY IDOCK:    0.21 KCAL/MOL
REMARK 927      BINDING AFFINITY PREDICTED BY RF-SCORE:    0.00 PKD
ROOT
HETATM    1  C   UNL     1      -8.318   7.743  67.306  1.00  0.00    -0.118 C  
HETATM    2  C   UNL     1      -7.134   7.964  66.602  1.00  0.00    -0.076 C  
HETATM    3  C   UNL     1      -7.223   8.674  67.919  1.00  0.00    -0.088 C  
HETATM    4  C   UNL     1      -5.789   9.511  67.620  1.00  0.00    -0.044 C  
HETATM    5  C   UNL     1      -8.717   7.974  69.184  1.00  0.00    -0.137 C  
HETATM    6  C   UNL     1     -11.327  11.648  68.264  1.00  0.00    -0.348 C  
HETATM    7  O   UNL     1      -9.565   6.795  68.781  1.00  0.00    -0.134 OA 
HETATM    8  C   UNL     1      -7.408   7.666  69.025  1.00  0.00    -0.086 C  
HETATM    9  C   UNL     1      -7.337   9.267  70.023  1.00  0.00    -0.083 C  
HETATM   10  H   UNL     1     -10.247   6.475  69.359  1.00  0.00     0.000 HD 
HETATM   11  C   UNL     1      -9.975  11.819  67.594  1.00  0.00    -0.204 C  
HETATM   12  C   UNL     1      -9.179  13.108  68.018  1.00  0.00    -0.211 C  
HETATM   13  C   UNL     1      -6.732   6.350  69.310  1.00  0.00    -0.049 C  
HETATM   14  O   UNL     1     -10.994  15.082  66.292  1.00  0.00    -0.332 OA 
HETATM   15  C   UNL     1      -8.634  10.393  69.547  1.00  0.00    -0.093 C  
HETATM   16  C   UNL     1      -9.006  14.117  67.146  1.00  0.00    -0.236 C  
HETATM   17  C   UNL     1      -9.048  10.607  67.916  1.00  0.00    -0.145 C  
HETATM   18  O   UNL     1      -9.814   9.986  70.262  1.00  0.00    -0.365 OA 
HETATM   19  H   UNL     1     -10.505  10.585  70.009  1.00  0.00     0.000 HD 
HETATM   20  C   UNL     1      -9.432   9.171  67.106  1.00  0.00    -0.197 C  
HETATM   21  C   UNL     1     -10.135  14.213  66.221  1.00  0.00    -0.300 C  
HETATM   22  C   UNL     1     -10.260  13.032  65.385  1.00  0.00    -0.301 C  
HETATM   23  C   UNL     1      -9.599   9.466  65.607  1.00  0.00    -0.345 C  
HETATM   24  C   UNL     1     -10.573  10.596  65.336  1.00  0.00    -0.115 C  
HETATM   25  C   UNL     1     -10.231  11.867  66.058  1.00  0.00    -0.262 C  
HETATM   26  F   UNL     1     -10.592  10.799  63.986  1.00  0.00    -0.422 F  
ENDROOT
BRANCH   5  27
HETATM   27  C   UNL     1      -8.907   7.391  70.888  1.00  0.00    -0.148 C  
HETATM   28  O   UNL     1      -8.071   7.599  71.784  1.00  0.00    -0.097 OA 
BRANCH  27  29
HETATM   29  C   UNL     1     -10.120   6.467  71.352  1.00  0.00    -0.189 C  
BRANCH  29  30
HETATM   30  O   UNL     1      -9.594   5.095  71.762  1.00  0.00    -0.145 OA 
BRANCH  30  31
HETATM   31  C   UNL     1      -9.780   4.004  70.958  1.00  0.00    -0.182 C  
HETATM   32  C   UNL     1      -9.650   2.706  71.805  1.00  0.00    -0.217 C  
HETATM   33  O   UNL     1      -9.902   4.025  69.780  1.00  0.00    -0.211 OA 
ENDBRANCH  30  31
ENDBRANCH  29  30
ENDBRANCH  27  29
ENDBRANCH   5  27
TORSDOF 4
ENDMDL
MODEL       61
REMARK 921   NORMALIZED FREE ENERGY PREDICTED BY IDOCK:   -4.73 KCAL/MOL
REMARK 922        TOTAL FREE ENERGY PREDICTED BY IDOCK:   -5.65 KCAL/MOL
REMARK 923 INTER-LIGAND FREE ENERGY PREDICTED BY IDOCK:   -5.57 KCAL/MOL
REMARK 924 INTRA-LIGAND FREE ENERGY PREDICTED BY IDOCK:   -0.08 KCAL/MOL
REMARK 927      BINDING AFFINITY PREDICTED BY RF-SCORE:    0.00 PKD
ROOT
HETATM    1  C   UNL     1      -9.491   9.813  67.367  1.00  0.00    -0.178 C  
HETATM    2  C   UNL     1      -9.109  11.049  67.891  1.00  0.00    -0.147 C  
HETATM    3  C   UNL     1      -8.096   9.956  68.056  1.00  0.00    -0.108 C  
HETATM    4  C   UNL     1      -7.117  10.942  69.013  1.00  0.00    -0.095 C  
HETATM    5  C   UNL     1      -8.419   8.283  66.865  1.00  0.00    -0.118 C  
HETATM    6  C   UNL     1      -9.967   5.906  70.487  1.00  0.00    -0.243 C  
HETATM    7  O   UNL     1      -9.560   8.259  65.880  1.00  0.00    -0.425 OA 
HETATM    8  C   UNL     1      -7.704   9.421  66.703  1.00  0.00    -0.097 C  
HETATM    9  C   UNL     1      -6.587   8.387  67.821  1.00  0.00    -0.062 C  
HETATM   10  H   UNL     1      -9.708   7.495  65.335  1.00  0.00     0.000 HD 
HETATM   11  C   UNL     1      -9.458   7.257  70.959  1.00  0.00    -0.158 C  
HETATM   12  C   UNL     1      -8.312   7.198  72.037  1.00  0.00    -0.111 C  
HETATM   13  C   UNL     1      -7.357  10.113  65.409  1.00  0.00    -0.144 C  
HETATM   14  O   UNL     1     -10.272   6.391  74.419  1.00  0.00    -0.335 OA 
HETATM   15  C   UNL     1      -7.536   7.420  68.978  1.00  0.00    -0.102 C  
HETATM   16  C   UNL     1      -8.552   7.577  73.304  1.00  0.00    -0.203 C  
HETATM   17  C   UNL     1      -8.890   8.077  69.761  1.00  0.00    -0.144 C  
HETATM   18  O   UNL     1      -7.951   6.234  68.278  1.00  0.00    -0.106 OA 
HETATM   19  H   UNL     1      -8.458   5.718  68.894  1.00  0.00     0.000 HD 
HETATM   20  C   UNL     1     -10.052   8.718  68.711  1.00  0.00    -0.213 C  
HETATM   21  C   UNL     1      -9.940   7.309  73.681  1.00  0.00    -0.330 C  
HETATM   22  C   UNL     1     -10.882   8.081  72.890  1.00  0.00    -0.399 C  
HETATM   23  C   UNL     1     -11.126   9.449  69.532  1.00  0.00    -0.134 C  
HETATM   24  C   UNL     1     -11.711   8.586  70.634  1.00  0.00    -0.144 C  
HETATM   25  C   UNL     1     -10.677   8.017  71.561  1.00  0.00    -0.274 C  
HETATM   26  F   UNL     1     -12.603   9.358  71.322  1.00  0.00    -0.336 F  
ENDROOT
BRANCH   5  27
HETATM   27  C   UNL     1      -7.519   7.248  65.683  1.00  0.00    -0.085 C  
HETATM   28  O   UNL     1      -6.299   7.351  65.469  1.00  0.00    -0.040 OA 
BRANCH  27  29
HETATM   29  C   UNL     1      -8.244   6.188  64.739  1.00  0.00    -0.112 C  
BRANCH  29  30
HETATM   30  O   UNL     1      -8.690   4.985  65.565  1.00  0.00    -0.133 OA 
BRANCH  30  31
HETATM   31  C   UNL     1     -10.012   4.784  65.851  1.00  0.00    -0.228 C  
HETATM   32  C   UNL     1     -10.671   3.957  64.709  1.00  0.00    -0.092 C  
HETATM   33  O   UNL     1     -10.605   5.259  66.761  1.00  0.00    -0.273 OA 
ENDBRANCH  30  31
ENDBRANCH  29  30
ENDBRANCH  27  29
ENDBRANCH   5  27
TORSDOF 4
ENDMDL
MODEL       62
REMARK 921   NORMALIZED FREE ENERGY PREDICTED BY IDOCK:   -4.71 KCAL/MOL
REMARK 922        TOTAL FREE ENERGY PREDICTED BY IDOCK:   -5.62 KCAL/MOL
REMARK 923 INTER-LIGAND FREE ENERGY PREDICTED BY IDOCK:   -6.52 KCAL/MOL
REMARK 924 INTRA-LIGAND FREE ENERGY PREDICTED BY IDOCK:    0.90 KCAL/MOL
REMARK 927      BINDING AFFINITY PREDICTED BY RF-SCORE:    0.00 PKD
ROOT
HETATM    1  C   UNL     1     -11.023  10.276  67.966  1.00  0.00    -0.345 C  
HETATM    2  C   UNL     1     -10.784   9.879  69.282  1.00  0.00    -0.247 C  
HETATM    3  C   UNL     1      -9.642  10.591  68.623  1.00  0.00    -0.171 C  
HETATM    4  C   UNL     1      -8.629  10.283  69.937  1.00  0.00     0.004 C  
HETATM    5  C   UNL     1     -10.142  11.616  66.885  1.00  0.00    -0.211 C  
HETATM    6  C   UNL     1      -8.173   8.357  64.303  1.00  0.00    -0.130 C  
HETATM    7  O   UNL     1     -11.573  11.660  66.413  1.00  0.00    -0.447 OA 
HETATM    8  C   UNL     1     -10.084  11.966  68.191  1.00  0.00    -0.200 C  
HETATM    9  C   UNL     1      -8.270  12.007  67.672  1.00  0.00    -0.155 C  
HETATM   10  H   UNL     1     -11.802  12.129  65.619  1.00  0.00     0.000 HD 
HETATM   11  C   UNL     1      -7.912   8.055  65.769  1.00  0.00    -0.111 C  
HETATM   12  C   UNL     1      -6.393   7.959  66.170  1.00  0.00    -0.046 C  
HETATM   13  C   UNL     1     -10.886  13.032  68.894  1.00  0.00    -0.244 C  
HETATM   14  O   UNL     1      -5.983   5.086  64.850  1.00  0.00    -0.020 OA 
HETATM   15  C   UNL     1      -7.897  10.724  66.494  1.00  0.00    -0.145 C  
HETATM   16  C   UNL     1      -5.853   6.775  66.505  1.00  0.00    -0.025 C  
HETATM   17  C   UNL     1      -8.534   9.162  66.674  1.00  0.00    -0.126 C  
HETATM   18  O   UNL     1      -8.289  11.225  65.204  1.00  0.00    -0.379 OA 
HETATM   19  H   UNL     1      -8.091  10.541  64.575  1.00  0.00     0.000 HD 
HETATM   20  C   UNL     1     -10.220   9.115  66.813  1.00  0.00    -0.331 C  
HETATM   21  C   UNL     1      -6.501   5.678  65.787  1.00  0.00    -0.040 C  
HETATM   22  C   UNL     1      -7.904   5.546  66.139  1.00  0.00    -0.100 C  
HETATM   23  C   UNL     1     -10.658   7.684  67.162  1.00  0.00    -0.410 C  
HETATM   24  C   UNL     1     -10.098   6.649  66.207  1.00  0.00     0.126 C  
HETATM   25  C   UNL     1      -8.603   6.695  66.083  1.00  0.00    -0.148 C  
HETATM   26  F   UNL     1     -10.508   5.424  66.651  1.00  0.00    -0.213 F  
ENDROOT
BRANCH   5  27
HETATM   27  C   UNL     1      -9.969  13.271  66.172  1.00  0.00    -0.293 C  
HETATM   28  O   UNL     1     -10.039  13.506  64.953  1.00  0.00    -0.327 OA 
BRANCH  27  29
HETATM   29  C   UNL     1      -9.604  14.552  67.047  1.00  0.00    -0.245 C  
BRANCH  29  30
HETATM   30  O   UNL     1     -10.668  15.628  66.854  1.00  0.00    -0.311 OA 
BRANCH  30  31
HETATM   31  C   UNL     1     -10.360  16.819  66.258  1.00  0.00    -0.310 C  
HETATM   32  C   UNL     1     -10.418  17.959  67.315  1.00  0.00    -0.373 C  
HETATM   33  O   UNL     1     -10.192  16.991  65.097  1.00  0.00    -0.544 OA 
ENDBRANCH  30  31
ENDBRANCH  29  30
ENDBRANCH  27  29
ENDBRANCH   5  27
TORSDOF 4
ENDMDL
MODEL       63
REMARK 921   NORMALIZED FREE ENERGY PREDICTED BY IDOCK:   -4.70 KCAL/MOL
REMARK 922        TOTAL FREE ENERGY PREDICTED BY IDOCK:   -5.61 KCAL/MOL
REMARK 923 INTER-LIGAND FREE ENERGY PREDICTED BY IDOCK:   -6.25 KCAL/MOL
REMARK 924 INTRA-LIGAND FREE ENERGY PREDICTED BY IDOCK:    0.64 KCAL/MOL
REMARK 927      BINDING AFFINITY PREDICTED BY RF-SCORE:    0.00 PKD
ROOT
HETATM    1  C   UNL     1     -10.712   8.434  71.813  1.00  0.00    -0.355 C  
HETATM    2  C   UNL     1     -11.868   7.756  71.420  1.00  0.00    -0.324 C  
HETATM    3  C   UNL     1     -10.614   7.318  70.724  1.00  0.00    -0.237 C  
HETATM    4  C   UNL     1     -11.485   6.317  69.682  1.00  0.00    -0.425 C  
HETATM    5  C   UNL     1      -8.851   7.940  71.634  1.00  0.00    -0.131 C  
HETATM    6  C   UNL     1      -8.223  11.151  68.401  1.00  0.00    -0.144 C  
HETATM    7  O   UNL     1      -8.894   8.710  72.929  1.00  0.00    -0.367 OA 
HETATM    8  C   UNL     1      -9.616   6.828  71.741  1.00  0.00    -0.157 C  
HETATM    9  C   UNL     1      -8.660   6.519  70.142  1.00  0.00    -0.140 C  
HETATM   10  H   UNL     1      -8.089   8.993  73.346  1.00  0.00     0.000 HD 
HETATM   11  C   UNL     1      -9.428  10.304  68.032  1.00  0.00    -0.156 C  
HETATM   12  C   UNL     1      -9.336   9.586  66.634  1.00  0.00    -0.207 C  
HETATM   13  C   UNL     1      -9.761   5.924  72.940  1.00  0.00    -0.164 C  
HETATM   14  O   UNL     1      -9.897  12.245  64.967  1.00  0.00    -0.230 OA 
HETATM   15  C   UNL     1      -8.411   8.028  69.228  1.00  0.00    -0.134 C  
HETATM   16  C   UNL     1     -10.121   9.978  65.616  1.00  0.00    -0.321 C  
HETATM   17  C   UNL     1      -9.649   9.178  69.088  1.00  0.00    -0.161 C  
HETATM   18  O   UNL     1      -7.260   8.671  69.805  1.00  0.00    -0.050 OA 
HETATM   19  H   UNL     1      -7.127   9.476  69.318  1.00  0.00     0.000 HD 
HETATM   20  C   UNL     1     -10.283   9.696  70.570  1.00  0.00    -0.351 C  
HETATM   21  C   UNL     1     -10.413  11.409  65.697  1.00  0.00    -0.262 C  
HETATM   22  C   UNL     1     -11.173  11.747  66.888  1.00  0.00    -0.387 C  
HETATM   23  C   UNL     1     -11.513  10.580  70.312  1.00  0.00    -0.416 C  
HETATM   24  C   UNL     1     -11.231  11.711  69.343  1.00  0.00    -0.246 C  
HETATM   25  C   UNL     1     -10.666  11.250  68.031  1.00  0.00    -0.245 C  
HETATM   26  F   UNL     1     -12.403  12.384  69.153  1.00  0.00    -0.257 F  
ENDROOT
BRANCH   5  27
HETATM   27  C   UNL     1      -7.294   7.234  72.230  1.00  0.00    -0.072 C  
HETATM   28  O   UNL     1      -6.462   7.871  72.899  1.00  0.00    -0.063 OA 
BRANCH  27  29
HETATM   29  C   UNL     1      -6.814   5.763  71.850  1.00  0.00    -0.068 C  
BRANCH  29  30
HETATM   30  O   UNL     1      -6.348   5.034  73.106  1.00  0.00    -0.046 OA 
BRANCH  30  31
HETATM   31  C   UNL     1      -6.840   3.798  73.423  1.00  0.00    -0.044 C  
HETATM   32  C   UNL     1      -7.375   3.106  72.136  1.00  0.00    -0.051 C  
HETATM   33  O   UNL     1      -6.957   3.358  74.517  1.00  0.00    -0.043 OA 
ENDBRANCH  30  31
ENDBRANCH  29  30
ENDBRANCH  27  29
ENDBRANCH   5  27
TORSDOF 4
ENDMDL
MODEL       64
REMARK 921   NORMALIZED FREE ENERGY PREDICTED BY IDOCK:   -4.68 KCAL/MOL
REMARK 922        TOTAL FREE ENERGY PREDICTED BY IDOCK:   -5.58 KCAL/MOL
REMARK 923 INTER-LIGAND FREE ENERGY PREDICTED BY IDOCK:   -5.61 KCAL/MOL
REMARK 924 INTRA-LIGAND FREE ENERGY PREDICTED BY IDOCK:    0.03 KCAL/MOL
REMARK 927      BINDING AFFINITY PREDICTED BY RF-SCORE:    0.00 PKD
ROOT
HETATM    1  C   UNL     1      -8.215  12.003  68.927  1.00  0.00     0.127 C  
HETATM    2  C   UNL     1      -6.843  12.063  68.678  1.00  0.00    -0.091 C  
HETATM    3  C   UNL     1      -7.674  11.606  67.516  1.00  0.00    -0.136 C  
HETATM    4  C   UNL     1      -6.296  11.247  66.611  1.00  0.00    -0.135 C  
HETATM    5  C   UNL     1      -9.709  11.989  67.699  1.00  0.00    -0.187 C  
HETATM    6  C   UNL     1     -10.538   7.560  68.627  1.00  0.00    -0.171 C  
HETATM    7  O   UNL     1     -10.238  12.733  68.898  1.00  0.00    -0.409 OA 
HETATM    8  C   UNL     1      -8.674  12.675  67.159  1.00  0.00    -0.201 C  
HETATM    9  C   UNL     1      -9.054  11.389  65.831  1.00  0.00    -0.209 C  
HETATM   10  H   UNL     1     -11.168  12.908  68.982  1.00  0.00     0.000 HD 
HETATM   11  C   UNL     1      -9.070   7.727  68.273  1.00  0.00    -0.130 C  
HETATM   12  C   UNL     1      -8.578   6.866  67.051  1.00  0.00    -0.121 C  
HETATM   13  C   UNL     1      -8.541  14.170  67.011  1.00  0.00    -0.204 C  
HETATM   14  O   UNL     1      -8.523   4.135  68.695  1.00  0.00    -0.085 OA 
HETATM   15  C   UNL     1      -9.549   9.835  66.548  1.00  0.00    -0.194 C  
HETATM   16  C   UNL     1      -7.739   5.833  67.242  1.00  0.00    -0.101 C  
HETATM   17  C   UNL     1      -8.760   9.213  67.914  1.00  0.00    -0.128 C  
HETATM   18  O   UNL     1     -10.951   9.952  66.851  1.00  0.00    -0.134 OA 
HETATM   19  H   UNL     1     -11.216   9.124  67.233  1.00  0.00     0.000 HD 
HETATM   20  C   UNL     1      -8.714  10.276  69.230  1.00  0.00    -0.182 C  
HETATM   21  C   UNL     1      -7.959   5.211  68.547  1.00  0.00    -0.086 C  
HETATM   22  C   UNL     1      -7.668   6.118  69.643  1.00  0.00    -0.098 C  
HETATM   23  C   UNL     1      -7.816   9.684  70.327  1.00  0.00    -0.193 C  
HETATM   24  C   UNL     1      -8.206   8.268  70.704  1.00  0.00    -0.112 C  
HETATM   25  C   UNL     1      -8.249   7.328  69.534  1.00  0.00    -0.131 C  
HETATM   26  F   UNL     1      -7.308   7.835  71.637  1.00  0.00    -0.060 F  
ENDROOT
BRANCH   5  27
HETATM   27  C   UNL     1     -11.046  12.768  66.760  1.00  0.00    -0.277 C  
HETATM   28  O   UNL     1     -11.152  12.693  65.523  1.00  0.00    -0.281 OA 
BRANCH  27  29
HETATM   29  C   UNL     1     -12.142  13.706  67.437  1.00  0.00    -0.337 C  
BRANCH  29  30
HETATM   30  O   UNL     1     -11.613  15.134  67.526  1.00  0.00    -0.331 OA 
BRANCH  30  31
HETATM   31  C   UNL     1     -11.403  15.729  68.739  1.00  0.00    -0.362 C  
HETATM   32  C   UNL     1     -10.499  16.981  68.554  1.00  0.00    -0.373 C  
HETATM   33  O   UNL     1     -11.749  15.302  69.789  1.00  0.00    -0.280 OA 
ENDBRANCH  30  31
ENDBRANCH  29  30
ENDBRANCH  27  29
ENDBRANCH   5  27
TORSDOF 4
ENDMDL
MODEL       65
REMARK 921   NORMALIZED FREE ENERGY PREDICTED BY IDOCK:   -4.63 KCAL/MOL
REMARK 922        TOTAL FREE ENERGY PREDICTED BY IDOCK:   -5.52 KCAL/MOL
REMARK 923 INTER-LIGAND FREE ENERGY PREDICTED BY IDOCK:   -6.19 KCAL/MOL
REMARK 924 INTRA-LIGAND FREE ENERGY PREDICTED BY IDOCK:    0.67 KCAL/MOL
REMARK 927      BINDING AFFINITY PREDICTED BY RF-SCORE:    0.00 PKD
ROOT
HETATM    1  C   UNL     1     -10.801   8.374  71.860  1.00  0.00    -0.372 C  
HETATM    2  C   UNL     1     -11.943   7.692  71.439  1.00  0.00    -0.336 C  
HETATM    3  C   UNL     1     -10.673   7.269  70.763  1.00  0.00    -0.248 C  
HETATM    4  C   UNL     1     -11.516   6.271  69.696  1.00  0.00    -0.425 C  
HETATM    5  C   UNL     1      -8.933   7.896  71.713  1.00  0.00    -0.132 C  
HETATM    6  C   UNL     1      -8.266  11.140  68.520  1.00  0.00    -0.149 C  
HETATM    7  O   UNL     1      -9.007   8.653  73.014  1.00  0.00    -0.326 OA 
HETATM    8  C   UNL     1      -9.691   6.777  71.796  1.00  0.00    -0.164 C  
HETATM    9  C   UNL     1      -8.703   6.489  70.213  1.00  0.00    -0.151 C  
HETATM   10  H   UNL     1      -8.212   8.939  73.448  1.00  0.00     0.000 HD 
HETATM   11  C   UNL     1      -9.457  10.287  68.121  1.00  0.00    -0.155 C  
HETATM   12  C   UNL     1      -9.333   9.581  66.719  1.00  0.00    -0.196 C  
HETATM   13  C   UNL     1      -9.852   5.862  72.983  1.00  0.00    -0.178 C  
HETATM   14  O   UNL     1      -9.882  12.251  65.064  1.00  0.00    -0.230 OA 
HETATM   15  C   UNL     1      -8.447   8.008  69.317  1.00  0.00    -0.136 C  
HETATM   16  C   UNL     1     -10.101   9.977  65.689  1.00  0.00    -0.321 C  
HETATM   17  C   UNL     1      -9.691   9.150  69.163  1.00  0.00    -0.163 C  
HETATM   18  O   UNL     1      -7.312   8.654  69.921  1.00  0.00    -0.050 OA 
HETATM   19  H   UNL     1      -7.176   9.464  69.443  1.00  0.00     0.000 HD 
HETATM   20  C   UNL     1     -10.356   9.650  70.636  1.00  0.00    -0.365 C  
HETATM   21  C   UNL     1     -10.406  11.405  65.777  1.00  0.00    -0.255 C  
HETATM   22  C   UNL     1     -11.190  11.727  66.955  1.00  0.00    -0.382 C  
HETATM   23  C   UNL     1     -11.588  10.527  70.362  1.00  0.00    -0.430 C  
HETATM   24  C   UNL     1     -11.296  11.669  69.409  1.00  0.00    -0.278 C  
HETATM   25  C   UNL     1     -10.702  11.223  68.104  1.00  0.00    -0.244 C  
HETATM   26  F   UNL     1     -12.470  12.335  69.202  1.00  0.00    -0.192 F  
ENDROOT
BRANCH   5  27
HETATM   27  C   UNL     1      -7.382   7.196  72.332  1.00  0.00    -0.079 C  
HETATM   28  O   UNL     1      -6.292   7.791  72.285  1.00  0.00    -0.042 OA 
BRANCH  27  29
HETATM   29  C   UNL     1      -7.271   5.709  72.894  1.00  0.00    -0.091 C  
BRANCH  29  30
HETATM   30  O   UNL     1      -6.101   4.993  72.227  1.00  0.00    -0.023 OA 
BRANCH  30  31
HETATM   31  C   UNL     1      -6.316   4.018  71.293  1.00  0.00    -0.015 C  
HETATM   32  C   UNL     1      -7.618   3.241  71.643  1.00  0.00    -0.052 C  
HETATM   33  O   UNL     1      -5.574   3.721  70.418  1.00  0.00    -0.012 OA 
ENDBRANCH  30  31
ENDBRANCH  29  30
ENDBRANCH  27  29
ENDBRANCH   5  27
TORSDOF 4
ENDMDL
MODEL       66
REMARK 921   NORMALIZED FREE ENERGY PREDICTED BY IDOCK:   -4.61 KCAL/MOL
REMARK 922        TOTAL FREE ENERGY PREDICTED BY IDOCK:   -5.50 KCAL/MOL
REMARK 923 INTER-LIGAND FREE ENERGY PREDICTED BY IDOCK:   -6.78 KCAL/MOL
REMARK 924 INTRA-LIGAND FREE ENERGY PREDICTED BY IDOCK:    1.28 KCAL/MOL
REMARK 927      BINDING AFFINITY PREDICTED BY RF-SCORE:    0.00 PKD
ROOT
HETATM    1  C   UNL     1     -11.854  14.286  68.893  1.00  0.00    -0.372 C  
HETATM    2  C   UNL     1     -11.402  14.689  70.151  1.00  0.00    -0.273 C  
HETATM    3  C   UNL     1     -10.357  14.695  69.076  1.00  0.00    -0.237 C  
HETATM    4  C   UNL     1      -9.141  15.043  70.192  1.00  0.00     0.563 C  
HETATM    5  C   UNL     1     -11.103  14.593  67.138  1.00  0.00    -0.326 C  
HETATM    6  C   UNL     1      -9.857  10.177  66.807  1.00  0.00    -0.247 C  
HETATM    7  O   UNL     1     -12.590  14.586  66.895  1.00  0.00    -0.492 OA 
HETATM    8  C   UNL     1     -10.782  15.618  67.963  1.00  0.00    -0.287 C  
HETATM    9  C   UNL     1      -9.096  15.059  67.324  1.00  0.00    -0.213 C  
HETATM   10  H   UNL     1     -12.931  14.540  66.009  1.00  0.00     0.000 HD 
HETATM   11  C   UNL     1      -9.351  10.739  68.124  1.00  0.00    -0.155 C  
HETATM   12  C   UNL     1      -7.793  10.648  68.332  1.00  0.00    -0.113 C  
HETATM   13  C   UNL     1     -11.370  17.006  67.975  1.00  0.00     0.146 C  
HETATM   14  O   UNL     1      -7.820   7.520  68.948  1.00  0.00    -0.118 OA 
HETATM   15  C   UNL     1      -9.030  13.291  67.110  1.00  0.00    -0.229 C  
HETATM   16  C   UNL     1      -7.278   9.806  69.245  1.00  0.00    -0.072 C  
HETATM   17  C   UNL     1      -9.722  12.248  68.254  1.00  0.00    -0.219 C  
HETATM   18  O   UNL     1      -9.621  13.011  65.828  1.00  0.00    -0.433 OA 
HETATM   19  H   UNL     1      -9.586  12.069  65.714  1.00  0.00     0.000 HD 
HETATM   20  C   UNL     1     -11.353  12.562  68.579  1.00  0.00    -0.337 C  
HETATM   21  C   UNL     1      -8.117   8.618  69.399  1.00  0.00    -0.111 C  
HETATM   22  C   UNL     1      -9.437   8.942  69.913  1.00  0.00    -0.177 C  
HETATM   23  C   UNL     1     -11.811  11.688  69.758  1.00  0.00    -0.428 C  
HETATM   24  C   UNL     1     -11.505  10.218  69.552  1.00  0.00    -0.210 C  
HETATM   25  C   UNL     1     -10.058   9.942  69.261  1.00  0.00    -0.214 C  
HETATM   26  F   UNL     1     -11.903   9.559  70.680  1.00  0.00    -0.290 F  
ENDROOT
BRANCH   5  27
HETATM   27  C   UNL     1     -10.958  15.479  65.565  1.00  0.00    -0.324 C  
HETATM   28  O   UNL     1     -10.908  14.914  64.459  1.00  0.00    -0.316 OA 
BRANCH  27  29
HETATM   29  C   UNL     1     -10.774  17.060  65.481  1.00  0.00    -0.138 C  
BRANCH  29  30
HETATM   30  O   UNL     1      -9.288  17.404  65.462  1.00  0.00    -0.344 OA 
BRANCH  30  31
HETATM   31  C   UNL     1      -8.819  18.519  66.100  1.00  0.00    -0.111 C  
HETATM   32  C   UNL     1      -9.879  19.654  66.011  1.00  0.00    -0.462 C  
HETATM   33  O   UNL     1      -7.731  18.654  66.550  1.00  0.00    -0.239 OA 
ENDBRANCH  30  31
ENDBRANCH  29  30
ENDBRANCH  27  29
ENDBRANCH   5  27
TORSDOF 4
ENDMDL
MODEL       67
REMARK 921   NORMALIZED FREE ENERGY PREDICTED BY IDOCK:   -4.59 KCAL/MOL
REMARK 922        TOTAL FREE ENERGY PREDICTED BY IDOCK:   -5.47 KCAL/MOL
REMARK 923 INTER-LIGAND FREE ENERGY PREDICTED BY IDOCK:   -5.30 KCAL/MOL
REMARK 924 INTRA-LIGAND FREE ENERGY PREDICTED BY IDOCK:   -0.17 KCAL/MOL
REMARK 927      BINDING AFFINITY PREDICTED BY RF-SCORE:    0.00 PKD
ROOT
HETATM    1  C   UNL     1     -10.482   7.753  67.421  1.00  0.00    -0.362 C  
HETATM    2  C   UNL     1     -10.321   9.062  67.878  1.00  0.00    -0.290 C  
HETATM    3  C   UNL     1      -9.063   8.247  67.851  1.00  0.00    -0.137 C  
HETATM    4  C   UNL     1      -8.197   9.470  68.625  1.00  0.00    -0.112 C  
HETATM    5  C   UNL     1      -9.180   6.504  66.723  1.00  0.00    -0.147 C  
HETATM    6  C   UNL     1      -9.450   3.956  70.543  1.00  0.00    -0.251 C  
HETATM    7  O   UNL     1     -10.437   6.176  65.958  1.00  0.00    -0.416 OA 
HETATM    8  C   UNL     1      -8.798   7.773  66.445  1.00  0.00    -0.180 C  
HETATM    9  C   UNL     1      -7.288   7.074  67.336  1.00  0.00    -0.092 C  
HETATM   10  H   UNL     1     -10.490   5.380  65.442  1.00  0.00     0.000 HD 
HETATM   11  C   UNL     1      -9.206   5.405  70.929  1.00  0.00    -0.183 C  
HETATM   12  C   UNL     1      -7.908   5.658  71.783  1.00  0.00    -0.109 C  
HETATM   13  C   UNL     1      -8.861   8.481  65.115  1.00  0.00    -0.116 C  
HETATM   14  O   UNL     1      -9.167   4.493  74.471  1.00  0.00    -0.108 OA 
HETATM   15  C   UNL     1      -7.758   5.950  68.636  1.00  0.00    -0.094 C  
HETATM   16  C   UNL     1      -8.005   6.014  73.076  1.00  0.00    -0.109 C  
HETATM   17  C   UNL     1      -9.071   6.294  69.655  1.00  0.00    -0.142 C  
HETATM   18  O   UNL     1      -7.994   4.676  68.012  1.00  0.00    -0.084 OA 
HETATM   19  H   UNL     1      -8.245   4.076  68.705  1.00  0.00     0.000 HD 
HETATM   20  C   UNL     1     -10.519   6.604  68.835  1.00  0.00    -0.239 C  
HETATM   21  C   UNL     1      -9.200   5.437  73.693  1.00  0.00    -0.130 C  
HETATM   22  C   UNL     1     -10.423   5.935  73.090  1.00  0.00    -0.250 C  
HETATM   23  C   UNL     1     -11.575   7.087  69.842  1.00  0.00    -0.179 C  
HETATM   24  C   UNL     1     -11.733   6.150  71.023  1.00  0.00    -0.118 C  
HETATM   25  C   UNL     1     -10.446   5.874  71.745  1.00  0.00    -0.276 C  
HETATM   26  F   UNL     1     -12.649   6.711  71.866  1.00  0.00    -0.371 F  
ENDROOT
BRANCH   5  27
HETATM   27  C   UNL     1      -8.280   5.672  65.390  1.00  0.00    -0.132 C  
HETATM   28  O   UNL     1      -7.058   5.799  65.201  1.00  0.00    -0.061 OA 
BRANCH  27  29
HETATM   29  C   UNL     1      -9.007   4.787  64.282  1.00  0.00    -0.107 C  
BRANCH  29  30
HETATM   30  O   UNL     1      -9.665   3.578  64.939  1.00  0.00    -0.165 OA 
BRANCH  30  31
HETATM   31  C   UNL     1      -8.918   2.660  65.625  1.00  0.00    -0.134 C  
HETATM   32  C   UNL     1      -7.938   1.951  64.647  1.00  0.00    -0.070 C  
HETATM   33  O   UNL     1      -9.066   2.357  66.762  1.00  0.00    -0.139 OA 
ENDBRANCH  30  31
ENDBRANCH  29  30
ENDBRANCH  27  29
ENDBRANCH   5  27
TORSDOF 4
ENDMDL
MODEL       68
REMARK 921   NORMALIZED FREE ENERGY PREDICTED BY IDOCK:   -4.58 KCAL/MOL
REMARK 922        TOTAL FREE ENERGY PREDICTED BY IDOCK:   -5.46 KCAL/MOL
REMARK 923 INTER-LIGAND FREE ENERGY PREDICTED BY IDOCK:   -5.83 KCAL/MOL
REMARK 924 INTRA-LIGAND FREE ENERGY PREDICTED BY IDOCK:    0.37 KCAL/MOL
REMARK 927      BINDING AFFINITY PREDICTED BY RF-SCORE:    0.00 PKD
ROOT
HETATM    1  C   UNL     1      -8.194   8.364  69.870  1.00  0.00    -0.122 C  
HETATM    2  C   UNL     1      -8.799   8.949  70.983  1.00  0.00    -0.285 C  
HETATM    3  C   UNL     1      -9.752   8.430  69.949  1.00  0.00    -0.179 C  
HETATM    4  C   UNL     1     -11.072   9.094  70.764  1.00  0.00    -0.336 C  
HETATM    5  C   UNL     1      -8.908   7.133  68.561  1.00  0.00    -0.125 C  
HETATM    6  C   UNL     1      -8.933  10.428  65.351  1.00  0.00    -0.207 C  
HETATM    7  O   UNL     1      -7.461   6.730  68.679  1.00  0.00    -0.094 OA 
HETATM    8  C   UNL     1      -9.528   6.952  69.751  1.00  0.00    -0.145 C  
HETATM    9  C   UNL     1     -10.974   7.244  68.573  1.00  0.00    -0.029 C  
HETATM   10  H   UNL     1      -7.075   6.137  68.045  1.00  0.00     0.000 HD 
HETATM   11  C   UNL     1      -9.636  10.941  66.596  1.00  0.00    -0.213 C  
HETATM   12  C   UNL     1     -11.124  11.406  66.377  1.00  0.00    -0.301 C  
HETATM   13  C   UNL     1      -9.326   5.824  70.731  1.00  0.00    -0.189 C  
HETATM   14  O   UNL     1     -10.309  14.134  64.941  1.00  0.00    -0.411 OA 
HETATM   15  C   UNL     1     -10.562   8.437  67.316  1.00  0.00    -0.257 C  
HETATM   16  C   UNL     1     -11.447  12.709  66.453  1.00  0.00    -0.409 C  
HETATM   17  C   UNL     1      -9.680   9.836  67.695  1.00  0.00    -0.186 C  
HETATM   18  O   UNL     1      -9.855   7.722  66.287  1.00  0.00    -0.425 OA 
HETATM   19  H   UNL     1      -9.635   8.358  65.617  1.00  0.00     0.000 HD 
HETATM   20  C   UNL     1      -8.208   9.534  68.472  1.00  0.00    -0.113 C  
HETATM   21  C   UNL     1     -10.334  13.553  66.018  1.00  0.00    -0.303 C  
HETATM   22  C   UNL     1      -9.174  13.419  66.881  1.00  0.00    -0.251 C  
HETATM   23  C   UNL     1      -7.598  10.867  68.933  1.00  0.00    -0.128 C  
HETATM   24  C   UNL     1      -7.497  11.885  67.814  1.00  0.00    -0.121 C  
HETATM   25  C   UNL     1      -8.804  12.148  67.124  1.00  0.00    -0.191 C  
HETATM   26  F   UNL     1      -6.998  13.035  68.355  1.00  0.00    -0.074 F  
ENDROOT
BRANCH   5  27
HETATM   27  C   UNL     1      -9.200   5.484  67.872  1.00  0.00    -0.108 C  
HETATM   28  O   UNL     1     -10.322   5.067  67.538  1.00  0.00    -0.160 OA 
BRANCH  27  29
HETATM   29  C   UNL     1      -8.049   4.391  67.736  1.00  0.00    -0.095 C  
BRANCH  29  30
HETATM   30  O   UNL     1      -8.471   3.320  66.735  1.00  0.00    -0.099 OA 
BRANCH  30  31
HETATM   31  C   UNL     1      -8.281   3.502  65.393  1.00  0.00    -0.097 C  
HETATM   32  C   UNL     1      -6.906   4.189  65.151  1.00  0.00    -0.053 C  
HETATM   33  O   UNL     1      -9.080   3.285  64.544  1.00  0.00    -0.121 OA 
ENDBRANCH  30  31
ENDBRANCH  29  30
ENDBRANCH  27  29
ENDBRANCH   5  27
TORSDOF 4
ENDMDL
MODEL       69
REMARK 921   NORMALIZED FREE ENERGY PREDICTED BY IDOCK:   -4.56 KCAL/MOL
REMARK 922        TOTAL FREE ENERGY PREDICTED BY IDOCK:   -5.44 KCAL/MOL
REMARK 923 INTER-LIGAND FREE ENERGY PREDICTED BY IDOCK:   -6.30 KCAL/MOL
REMARK 924 INTRA-LIGAND FREE ENERGY PREDICTED BY IDOCK:    0.86 KCAL/MOL
REMARK 927      BINDING AFFINITY PREDICTED BY RF-SCORE:    0.00 PKD
ROOT
HETATM    1  C   UNL     1     -11.412  15.120  66.374  1.00  0.00    -0.160 C  
HETATM    2  C   UNL     1     -10.656  14.736  65.265  1.00  0.00    -0.414 C  
HETATM    3  C   UNL     1      -9.999  14.489  66.589  1.00  0.00    -0.276 C  
HETATM    4  C   UNL     1      -8.558  14.027  65.842  1.00  0.00     1.205 C  
HETATM    5  C   UNL     1     -11.279  14.576  68.225  1.00  0.00    -0.277 C  
HETATM    6  C   UNL     1      -9.618  18.702  69.403  1.00  0.00     0.102 C  
HETATM    7  O   UNL     1     -12.755  14.805  68.025  1.00  0.00    -0.164 OA 
HETATM    8  C   UNL     1     -10.862  13.572  67.418  1.00  0.00    -0.279 C  
HETATM    9  C   UNL     1      -9.391  13.808  68.579  1.00  0.00    -0.144 C  
HETATM   10  H   UNL     1     -13.340  14.845  68.772  1.00  0.00     0.000 HD 
HETATM   11  C   UNL     1      -8.814  18.157  68.235  1.00  0.00    -0.293 C  
HETATM   12  C   UNL     1      -7.269  18.010  68.500  1.00  0.00    -0.265 C  
HETATM   13  C   UNL     1     -11.597  12.301  67.078  1.00  0.00    -0.418 C  
HETATM   14  O   UNL     1      -6.691  21.136  68.263  1.00  0.00    -0.136 OA 
HETATM   15  C   UNL     1      -9.160  15.523  69.002  1.00  0.00    -0.236 C  
HETATM   16  C   UNL     1      -6.393  18.818  67.879  1.00  0.00    -0.210 C  
HETATM   17  C   UNL     1      -9.325  16.740  67.832  1.00  0.00    -0.229 C  
HETATM   18  O   UNL     1     -10.069  15.806  70.080  1.00  0.00    -0.278 OA 
HETATM   19  H   UNL     1      -9.947  16.720  70.305  1.00  0.00     0.000 HD 
HETATM   20  C   UNL     1     -10.806  16.715  67.014  1.00  0.00    -0.091 C  
HETATM   21  C   UNL     1      -6.980  20.134  67.623  1.00  0.00    -0.267 C  
HETATM   22  C   UNL     1      -8.111  20.062  66.715  1.00  0.00    -0.356 C  
HETATM   23  C   UNL     1     -10.763  17.730  65.860  1.00  0.00    -0.116 C  
HETATM   24  C   UNL     1     -10.341  19.114  66.311  1.00  0.00    -0.474 C  
HETATM   25  C   UNL     1      -9.029  19.133  67.040  1.00  0.00    -0.327 C  
HETATM   26  F   UNL     1     -10.286  19.904  65.199  1.00  0.00    -0.230 F  
ENDROOT
BRANCH   5  27
HETATM   27  C   UNL     1     -11.738  13.573  69.660  1.00  0.00    -0.314 C  
HETATM   28  O   UNL     1     -12.392  14.009  70.624  1.00  0.00    -0.330 OA 
BRANCH  27  29
HETATM   29  C   UNL     1     -11.247  12.069  69.853  1.00  0.00     0.060 C  
BRANCH  29  30
HETATM   30  O   UNL     1     -12.403  11.212  70.361  1.00  0.00    -0.320 OA 
BRANCH  30  31
HETATM   31  C   UNL     1     -12.195  10.242  71.302  1.00  0.00    -0.395 C  
HETATM   32  C   UNL     1     -13.427  10.162  72.248  1.00  0.00    -0.291 C  
HETATM   33  O   UNL     1     -11.190   9.632  71.458  1.00  0.00    -0.372 OA 
ENDBRANCH  30  31
ENDBRANCH  29  30
ENDBRANCH  27  29
ENDBRANCH   5  27
TORSDOF 4
ENDMDL
MODEL       70
REMARK 921   NORMALIZED FREE ENERGY PREDICTED BY IDOCK:   -4.56 KCAL/MOL
REMARK 922        TOTAL FREE ENERGY PREDICTED BY IDOCK:   -5.44 KCAL/MOL
REMARK 923 INTER-LIGAND FREE ENERGY PREDICTED BY IDOCK:   -6.18 KCAL/MOL
REMARK 924 INTRA-LIGAND FREE ENERGY PREDICTED BY IDOCK:    0.74 KCAL/MOL
REMARK 927      BINDING AFFINITY PREDICTED BY RF-SCORE:    0.00 PKD
ROOT
HETATM    1  C   UNL     1     -10.781  12.881  65.332  1.00  0.00    -0.307 C  
HETATM    2  C   UNL     1     -11.875  12.117  65.743  1.00  0.00    -0.342 C  
HETATM    3  C   UNL     1     -10.833  12.343  66.798  1.00  0.00    -0.283 C  
HETATM    4  C   UNL     1     -11.614  11.293  67.862  1.00  0.00    -0.330 C  
HETATM    5  C   UNL     1      -9.480  13.863  66.371  1.00  0.00    -0.250 C  
HETATM    6  C   UNL     1      -6.218  10.783  65.355  1.00  0.00    -0.010 C  
HETATM    7  O   UNL     1      -9.630  14.685  65.117  1.00  0.00    -0.456 OA 
HETATM    8  C   UNL     1     -10.662  13.822  67.031  1.00  0.00    -0.283 C  
HETATM    9  C   UNL     1      -9.454  13.129  68.306  1.00  0.00    -0.210 C  
HETATM   10  H   UNL     1      -9.012  15.380  64.923  1.00  0.00     0.000 HD 
HETATM   11  C   UNL     1      -7.442  10.055  65.883  1.00  0.00    -0.115 C  
HETATM   12  C   UNL     1      -7.191   9.164  67.156  1.00  0.00    -0.086 C  
HETATM   13  C   UNL     1     -11.663  14.938  67.193  1.00  0.00    -0.292 C  
HETATM   14  O   UNL     1      -5.726   6.844  65.533  1.00  0.00    -0.029 OA 
HETATM   15  C   UNL     1      -8.186  12.144  67.536  1.00  0.00    -0.167 C  
HETATM   16  C   UNL     1      -7.240   7.824  67.068  1.00  0.00    -0.089 C  
HETATM   17  C   UNL     1      -8.558  11.072  66.274  1.00  0.00    -0.167 C  
HETATM   18  O   UNL     1      -7.181  13.061  67.067  1.00  0.00    -0.368 OA 
HETATM   19  H   UNL     1      -6.505  12.536  66.656  1.00  0.00     0.000 HD 
HETATM   20  C   UNL     1      -9.366  11.791  64.973  1.00  0.00     0.001 C  
HETATM   21  C   UNL     1      -6.811   7.367  65.746  1.00  0.00    -0.056 C  
HETATM   22  C   UNL     1      -7.696   7.830  64.692  1.00  0.00    -0.121 C  
HETATM   23  C   UNL     1      -9.816  10.697  63.992  1.00  0.00    -0.399 C  
HETATM   24  C   UNL     1      -8.682   9.782  63.572  1.00  0.00    -0.222 C  
HETATM   25  C   UNL     1      -7.965   9.148  64.729  1.00  0.00    -0.126 C  
HETATM   26  F   UNL     1      -9.214   8.827  62.754  1.00  0.00    -0.079 F  
ENDROOT
BRANCH   5  27
HETATM   27  C   UNL     1      -8.813  15.359  67.143  1.00  0.00    -0.213 C  
HETATM   28  O   UNL     1      -8.321  16.303  66.502  1.00  0.00    -0.248 OA 
BRANCH  27  29
HETATM   29  C   UNL     1      -8.705  15.539  68.723  1.00  0.00    -0.192 C  
BRANCH  29  30
HETATM   30  O   UNL     1      -7.237  15.550  69.140  1.00  0.00    -0.145 OA 
BRANCH  30  31
HETATM   31  C   UNL     1      -6.635  16.707  69.551  1.00  0.00    -0.212 C  
HETATM   32  C   UNL     1      -5.460  16.368  70.514  1.00  0.00    -0.146 C  
HETATM   33  O   UNL     1      -7.012  17.806  69.316  1.00  0.00    -0.238 OA 
ENDBRANCH  30  31
ENDBRANCH  29  30
ENDBRANCH  27  29
ENDBRANCH   5  27
TORSDOF 4
ENDMDL
MODEL       71
REMARK 921   NORMALIZED FREE ENERGY PREDICTED BY IDOCK:   -4.55 KCAL/MOL
REMARK 922        TOTAL FREE ENERGY PREDICTED BY IDOCK:   -5.42 KCAL/MOL
REMARK 923 INTER-LIGAND FREE ENERGY PREDICTED BY IDOCK:   -5.61 KCAL/MOL
REMARK 924 INTRA-LIGAND FREE ENERGY PREDICTED BY IDOCK:    0.19 KCAL/MOL
REMARK 927      BINDING AFFINITY PREDICTED BY RF-SCORE:    0.00 PKD
ROOT
HETATM    1  C   UNL     1      -7.673  10.676  67.977  1.00  0.00    -0.100 C  
HETATM    2  C   UNL     1      -7.202   9.816  66.984  1.00  0.00    -0.090 C  
HETATM    3  C   UNL     1      -8.694   9.855  67.126  1.00  0.00    -0.136 C  
HETATM    4  C   UNL     1      -8.881   8.592  66.023  1.00  0.00    -0.213 C  
HETATM    5  C   UNL     1      -9.421  11.467  68.220  1.00  0.00    -0.189 C  
HETATM    6  C   UNL     1     -10.243   8.744  71.835  1.00  0.00    -0.415 C  
HETATM    7  O   UNL     1      -8.477  12.519  68.744  1.00  0.00    -0.346 OA 
HETATM    8  C   UNL     1      -9.186  11.263  66.902  1.00  0.00    -0.184 C  
HETATM    9  C   UNL     1     -10.823  10.363  67.174  1.00  0.00    -0.301 C  
HETATM   10  H   UNL     1      -8.809  13.255  69.243  1.00  0.00     0.000 HD 
HETATM   11  C   UNL     1      -9.785   7.891  70.665  1.00  0.00    -0.175 C  
HETATM   12  C   UNL     1     -10.798   6.772  70.219  1.00  0.00    -0.314 C  
HETATM   13  C   UNL     1      -8.842  12.295  65.859  1.00  0.00     0.238 C  
HETATM   14  O   UNL     1     -10.138   4.864  72.687  1.00  0.00    -0.163 OA 
HETATM   15  C   UNL     1     -10.884   9.586  68.777  1.00  0.00    -0.142 C  
HETATM   16  C   UNL     1     -10.512   5.475  70.430  1.00  0.00    -0.356 C  
HETATM   17  C   UNL     1      -9.533   8.778  69.407  1.00  0.00    -0.161 C  
HETATM   18  O   UNL     1     -11.277  10.606  69.712  1.00  0.00    -0.254 OA 
HETATM   19  H   UNL     1     -11.310  10.193  70.566  1.00  0.00     0.000 HD 
HETATM   20  C   UNL     1      -8.128   9.720  69.460  1.00  0.00    -0.141 C  
HETATM   21  C   UNL     1      -9.699   5.303  71.633  1.00  0.00    -0.160 C  
HETATM   22  C   UNL     1      -8.400   5.943  71.513  1.00  0.00    -0.127 C  
HETATM   23  C   UNL     1      -6.940   8.832  69.863  1.00  0.00    -0.046 C  
HETATM   24  C   UNL     1      -7.196   8.050  71.137  1.00  0.00    -0.056 C  
HETATM   25  C   UNL     1      -8.445   7.219  71.088  1.00  0.00    -0.116 C  
HETATM   26  F   UNL     1      -6.102   7.264  71.357  1.00  0.00    -0.036 F  
ENDROOT
BRANCH   5  27
HETATM   27  C   UNL     1     -10.639  12.797  68.056  1.00  0.00    -0.226 C  
HETATM   28  O   UNL     1     -11.509  12.827  67.168  1.00  0.00    -0.299 OA 
BRANCH  27  29
HETATM   29  C   UNL     1     -10.626  14.096  68.978  1.00  0.00    -0.213 C  
BRANCH  29  30
HETATM   30  O   UNL     1     -10.367  15.332  68.122  1.00  0.00    -0.237 OA 
BRANCH  30  31
HETATM   31  C   UNL     1      -9.101  15.647  67.712  1.00  0.00    -0.181 C  
HETATM   32  C   UNL     1      -9.167  16.399  66.352  1.00  0.00    -0.335 C  
HETATM   33  O   UNL     1      -8.096  15.303  68.238  1.00  0.00    -0.131 OA 
ENDBRANCH  30  31
ENDBRANCH  29  30
ENDBRANCH  27  29
ENDBRANCH   5  27
TORSDOF 4
ENDMDL
MODEL       72
REMARK 921   NORMALIZED FREE ENERGY PREDICTED BY IDOCK:   -4.54 KCAL/MOL
REMARK 922        TOTAL FREE ENERGY PREDICTED BY IDOCK:   -5.41 KCAL/MOL
REMARK 923 INTER-LIGAND FREE ENERGY PREDICTED BY IDOCK:   -6.19 KCAL/MOL
REMARK 924 INTRA-LIGAND FREE ENERGY PREDICTED BY IDOCK:    0.79 KCAL/MOL
REMARK 927      BINDING AFFINITY PREDICTED BY RF-SCORE:    0.00 PKD
ROOT
HETATM    1  C   UNL     1      -9.595  10.536  69.676  1.00  0.00    -0.062 C  
HETATM    2  C   UNL     1     -10.715   9.703  69.707  1.00  0.00    -0.269 C  
HETATM    3  C   UNL     1      -9.880   9.588  68.467  1.00  0.00    -0.172 C  
HETATM    4  C   UNL     1     -11.010   8.566  67.743  1.00  0.00     0.093 C  
HETATM    5  C   UNL     1      -7.982  10.423  68.617  1.00  0.00    -0.115 C  
HETATM    6  C   UNL     1      -9.287  14.038  66.089  1.00  0.00    -0.143 C  
HETATM    7  O   UNL     1      -7.513  11.020  69.919  1.00  0.00    -0.357 OA 
HETATM    8  C   UNL     1      -8.477   9.182  68.838  1.00  0.00    -0.129 C  
HETATM    9  C   UNL     1      -8.335   9.240  66.956  1.00  0.00    -0.120 C  
HETATM   10  H   UNL     1      -6.646  11.401  69.987  1.00  0.00     0.000 HD 
HETATM   11  C   UNL     1     -10.419  13.027  66.132  1.00  0.00    -0.289 C  
HETATM   12  C   UNL     1     -10.897  12.501  64.728  1.00  0.00    -0.332 C  
HETATM   13  C   UNL     1      -7.949   8.138  69.789  1.00  0.00    -0.111 C  
HETATM   14  O   UNL     1     -12.466  15.178  63.996  1.00  0.00    -0.771 OA 
HETATM   15  C   UNL     1      -8.710  10.862  66.322  1.00  0.00    -0.171 C  
HETATM   16  C   UNL     1     -12.102  12.851  64.245  1.00  0.00    -0.487 C  
HETATM   17  C   UNL     1      -9.998  11.768  66.951  1.00  0.00    -0.220 C  
HETATM   18  O   UNL     1      -7.507  11.640  66.447  1.00  0.00    -0.349 OA 
HETATM   19  H   UNL     1      -7.706  12.505  66.109  1.00  0.00     0.000 HD 
HETATM   20  C   UNL     1      -9.935  11.988  68.628  1.00  0.00    -0.151 C  
HETATM   21  C   UNL     1     -12.488  14.184  64.709  1.00  0.00    -0.373 C  
HETATM   22  C   UNL     1     -12.648  14.238  66.151  1.00  0.00    -0.280 C  
HETATM   23  C   UNL     1     -11.239  12.649  69.100  1.00  0.00    -0.300 C  
HETATM   24  C   UNL     1     -11.567  13.915  68.333  1.00  0.00    -0.332 C  
HETATM   25  C   UNL     1     -11.619  13.718  66.846  1.00  0.00    -0.394 C  
HETATM   26  F   UNL     1     -12.765  14.374  68.801  1.00  0.00    -0.136 F  
ENDROOT
BRANCH   5  27
HETATM   27  C   UNL     1      -6.255   9.959  68.332  1.00  0.00    -0.050 C  
HETATM   28  O   UNL     1      -5.304  10.402  68.999  1.00  0.00    -0.039 OA 
BRANCH  27  29
HETATM   29  C   UNL     1      -5.802   9.020  67.127  1.00  0.00    -0.046 C  
BRANCH  29  30
HETATM   30  O   UNL     1      -5.178   7.741  67.677  1.00  0.00    -0.029 OA 
BRANCH  30  31
HETATM   31  C   UNL     1      -5.618   6.513  67.266  1.00  0.00    -0.013 C  
HETATM   32  C   UNL     1      -5.423   6.378  65.729  1.00  0.00    -0.014 C  
HETATM   33  O   UNL     1      -6.174   5.715  67.944  1.00  0.00    -0.033 OA 
ENDBRANCH  30  31
ENDBRANCH  29  30
ENDBRANCH  27  29
ENDBRANCH   5  27
TORSDOF 4
ENDMDL
MODEL       73
REMARK 921   NORMALIZED FREE ENERGY PREDICTED BY IDOCK:   -4.52 KCAL/MOL
REMARK 922        TOTAL FREE ENERGY PREDICTED BY IDOCK:   -5.39 KCAL/MOL
REMARK 923 INTER-LIGAND FREE ENERGY PREDICTED BY IDOCK:   -5.50 KCAL/MOL
REMARK 924 INTRA-LIGAND FREE ENERGY PREDICTED BY IDOCK:    0.11 KCAL/MOL
REMARK 927      BINDING AFFINITY PREDICTED BY RF-SCORE:    0.00 PKD
ROOT
HETATM    1  C   UNL     1     -10.659   7.751  68.448  1.00  0.00    -0.157 C  
HETATM    2  C   UNL     1     -10.392   6.952  69.561  1.00  0.00    -0.224 C  
HETATM    3  C   UNL     1      -9.288   7.894  69.184  1.00  0.00    -0.154 C  
HETATM    4  C   UNL     1      -8.252   7.215  70.330  1.00  0.00    -0.131 C  
HETATM    5  C   UNL     1      -9.849   9.412  67.879  1.00  0.00    -0.165 C  
HETATM    6  C   UNL     1      -7.751   7.287  64.380  1.00  0.00    -0.120 C  
HETATM    7  O   UNL     1     -11.283   9.545  67.437  1.00  0.00    -0.370 OA 
HETATM    8  C   UNL     1      -9.797   9.312  69.229  1.00  0.00    -0.172 C  
HETATM    9  C   UNL     1      -7.990   9.607  68.767  1.00  0.00    -0.089 C  
HETATM   10  H   UNL     1     -11.540  10.239  66.842  1.00  0.00     0.000 HD 
HETATM   11  C   UNL     1      -7.465   6.529  65.665  1.00  0.00    -0.082 C  
HETATM   12  C   UNL     1      -5.940   6.376  66.024  1.00  0.00    -0.025 C  
HETATM   13  C   UNL     1     -10.642  10.047  70.238  1.00  0.00    -0.354 C  
HETATM   14  O   UNL     1      -5.409   4.124  63.830  1.00  0.00    -0.012 OA 
HETATM   15  C   UNL     1      -7.568   8.804  67.233  1.00  0.00    -0.089 C  
HETATM   16  C   UNL     1      -5.344   5.173  65.952  1.00  0.00    -0.013 C  
HETATM   17  C   UNL     1      -8.131   7.244  66.881  1.00  0.00    -0.120 C  
HETATM   18  O   UNL     1      -7.992   9.686  66.179  1.00  0.00    -0.107 OA 
HETATM   19  H   UNL     1      -7.767   9.259  65.361  1.00  0.00     0.000 HD 
HETATM   20  C   UNL     1      -9.812   7.076  66.983  1.00  0.00    -0.239 C  
HETATM   21  C   UNL     1      -5.947   4.347  64.906  1.00  0.00    -0.022 C  
HETATM   22  C   UNL     1      -7.339   4.042  65.183  1.00  0.00    -0.072 C  
HETATM   23  C   UNL     1     -10.181   5.592  66.835  1.00  0.00    -0.275 C  
HETATM   24  C   UNL     1      -9.581   4.958  65.595  1.00  0.00    -0.155 C  
HETATM   25  C   UNL     1      -8.090   5.111  65.505  1.00  0.00    -0.117 C  
HETATM   26  F   UNL     1      -9.930   3.638  65.604  1.00  0.00    -0.169 F  
ENDROOT
BRANCH   5  27
HETATM   27  C   UNL     1      -9.757  11.217  67.757  1.00  0.00    -0.171 C  
HETATM   28  O   UNL     1      -8.899  11.903  68.338  1.00  0.00    -0.178 OA 
BRANCH  27  29
HETATM   29  C   UNL     1     -10.841  12.083  66.973  1.00  0.00    -0.253 C  
BRANCH  29  30
HETATM   30  O   UNL     1     -11.950  12.508  67.931  1.00  0.00    -0.351 OA 
BRANCH  30  31
HETATM   31  C   UNL     1     -11.927  13.737  68.529  1.00  0.00    -0.367 C  
HETATM   32  C   UNL     1     -12.135  13.574  70.062  1.00  0.00    -0.411 C  
HETATM   33  O   UNL     1     -11.877  14.780  67.967  1.00  0.00    -0.336 OA 
ENDBRANCH  30  31
ENDBRANCH  29  30
ENDBRANCH  27  29
ENDBRANCH   5  27
TORSDOF 4
ENDMDL
MODEL       74
REMARK 921   NORMALIZED FREE ENERGY PREDICTED BY IDOCK:   -4.37 KCAL/MOL
REMARK 922        TOTAL FREE ENERGY PREDICTED BY IDOCK:   -5.20 KCAL/MOL
REMARK 923 INTER-LIGAND FREE ENERGY PREDICTED BY IDOCK:   -6.01 KCAL/MOL
REMARK 924 INTRA-LIGAND FREE ENERGY PREDICTED BY IDOCK:    0.80 KCAL/MOL
REMARK 927      BINDING AFFINITY PREDICTED BY RF-SCORE:    0.00 PKD
ROOT
HETATM    1  C   UNL     1      -9.751  10.678  65.915  1.00  0.00    -0.273 C  
HETATM    2  C   UNL     1     -11.098  10.980  65.711  1.00  0.00    -0.018 C  
HETATM    3  C   UNL     1     -10.511  11.542  66.971  1.00  0.00    -0.263 C  
HETATM    4  C   UNL     1     -12.021  12.086  67.489  1.00  0.00    -0.144 C  
HETATM    5  C   UNL     1      -8.433  11.536  67.039  1.00  0.00    -0.164 C  
HETATM    6  C   UNL     1      -8.462   7.966  69.941  1.00  0.00    -0.127 C  
HETATM    7  O   UNL     1      -7.634  11.056  65.855  1.00  0.00    -0.301 OA 
HETATM    8  C   UNL     1      -9.351  12.443  66.630  1.00  0.00    -0.227 C  
HETATM    9  C   UNL     1      -9.395  12.631  68.508  1.00  0.00    -0.082 C  
HETATM   10  H   UNL     1      -6.685  11.053  65.886  1.00  0.00     0.000 HD 
HETATM   11  C   UNL     1      -9.891   8.424  69.702  1.00  0.00    -0.184 C  
HETATM   12  C   UNL     1     -10.681   8.846  70.995  1.00  0.00    -0.315 C  
HETATM   13  C   UNL     1      -9.182  13.513  65.581  1.00  0.00     0.414 C  
HETATM   14  O   UNL     1     -11.134   5.848  71.982  1.00  0.00    -0.254 OA 
HETATM   15  C   UNL     1      -9.165  11.066  69.327  1.00  0.00     0.085 C  
HETATM   16  C   UNL     1     -11.693   8.088  71.451  1.00  0.00    -0.320 C  
HETATM   17  C   UNL     1      -9.917   9.659  68.750  1.00  0.00    -0.184 C  
HETATM   18  O   UNL     1      -7.746  10.832  69.373  1.00  0.00    -0.199 OA 
HETATM   19  H   UNL     1      -7.622   9.997  69.809  1.00  0.00     0.000 HD 
HETATM   20  C   UNL     1      -9.597   9.322  67.123  1.00  0.00    -0.208 C  
HETATM   21  C   UNL     1     -11.472   6.674  71.145  1.00  0.00    -0.320 C  
HETATM   22  C   UNL     1     -11.446   6.420  69.715  1.00  0.00    -0.468 C  
HETATM   23  C   UNL     1     -10.478   8.148  66.668  1.00  0.00    -0.204 C  
HETATM   24  C   UNL     1     -10.358   6.938  67.575  1.00  0.00    -0.217 C  
HETATM   25  C   UNL     1     -10.639   7.241  69.018  1.00  0.00    -0.214 C  
HETATM   26  F   UNL     1     -11.222   5.992  67.104  1.00  0.00    -0.357 F  
ENDROOT
BRANCH   5  27
HETATM   27  C   UNL     1      -7.069  12.684  67.358  1.00  0.00    -0.138 C  
HETATM   28  O   UNL     1      -5.906  12.498  66.959  1.00  0.00    -0.304 OA 
BRANCH  27  29
HETATM   29  C   UNL     1      -7.229  13.980  68.271  1.00  0.00    -0.114 C  
BRANCH  29  30
HETATM   30  O   UNL     1      -6.910  15.228  67.454  1.00  0.00    -0.185 OA 
BRANCH  30  31
HETATM   31  C   UNL     1      -7.551  16.410  67.702  1.00  0.00    -0.142 C  
HETATM   32  C   UNL     1      -7.896  17.107  66.354  1.00  0.00    -0.352 C  
HETATM   33  O   UNL     1      -7.717  16.898  68.769  1.00  0.00    -0.227 OA 
ENDBRANCH  30  31
ENDBRANCH  29  30
ENDBRANCH  27  29
ENDBRANCH   5  27
TORSDOF 4
ENDMDL
MODEL       75
REMARK 921   NORMALIZED FREE ENERGY PREDICTED BY IDOCK:   -4.30 KCAL/MOL
REMARK 922        TOTAL FREE ENERGY PREDICTED BY IDOCK:   -5.12 KCAL/MOL
REMARK 923 INTER-LIGAND FREE ENERGY PREDICTED BY IDOCK:   -5.81 KCAL/MOL
REMARK 924 INTRA-LIGAND FREE ENERGY PREDICTED BY IDOCK:    0.69 KCAL/MOL
REMARK 927      BINDING AFFINITY PREDICTED BY RF-SCORE:    0.00 PKD
ROOT
HETATM    1  C   UNL     1      -7.213  11.983  67.308  1.00  0.00    -0.150 C  
HETATM    2  C   UNL     1      -6.478  12.010  68.495  1.00  0.00    -0.058 C  
HETATM    3  C   UNL     1      -7.571  10.984  68.455  1.00  0.00    -0.108 C  
HETATM    4  C   UNL     1      -7.326  10.589  70.077  1.00  0.00    -0.064 C  
HETATM    5  C   UNL     1      -8.326  10.591  66.558  1.00  0.00    -0.141 C  
HETATM    6  C   UNL     1     -12.126  13.013  67.481  1.00  0.00    -0.279 C  
HETATM    7  O   UNL     1      -7.731  11.265  65.348  1.00  0.00    -0.339 OA 
HETATM    8  C   UNL     1      -7.337  10.041  67.303  1.00  0.00    -0.090 C  
HETATM    9  C   UNL     1      -8.894   9.285  68.058  1.00  0.00    -0.128 C  
HETATM   10  H   UNL     1      -8.075  11.085  64.481  1.00  0.00     0.000 HD 
HETATM   11  C   UNL     1     -11.278  12.921  68.738  1.00  0.00    -0.323 C  
HETATM   12  C   UNL     1     -11.991  12.266  69.978  1.00  0.00    -0.379 C  
HETATM   13  C   UNL     1      -6.096   9.342  66.810  1.00  0.00    -0.064 C  
HETATM   14  O   UNL     1     -13.775  14.833  70.606  1.00  0.00    -0.160 OA 
HETATM   15  C   UNL     1     -10.246  10.445  68.068  1.00  0.00    -0.169 C  
HETATM   16  C   UNL     1     -12.323  13.014  71.044  1.00  0.00    -0.335 C  
HETATM   17  C   UNL     1      -9.996  12.073  68.472  1.00  0.00    -0.188 C  
HETATM   18  O   UNL     1     -10.842  10.390  66.760  1.00  0.00    -0.207 OA 
HETATM   19  H   UNL     1     -11.563  11.009  66.765  1.00  0.00     0.000 HD 
HETATM   20  C   UNL     1      -8.804  12.840  67.547  1.00  0.00    -0.187 C  
HETATM   21  C   UNL     1     -12.637  14.387  70.648  1.00  0.00    -0.357 C  
HETATM   22  C   UNL     1     -11.489  15.067  70.074  1.00  0.00    -0.310 C  
HETATM   23  C   UNL     1      -8.535  14.237  68.127  1.00  0.00    -0.167 C  
HETATM   24  C   UNL     1      -9.799  15.058  68.291  1.00  0.00    -0.219 C  
HETATM   25  C   UNL     1     -10.856  14.374  69.110  1.00  0.00    -0.275 C  
HETATM   26  F   UNL     1      -9.440  16.245  68.863  1.00  0.00    -0.209 F  
ENDROOT
BRANCH   5  27
HETATM   27  C   UNL     1      -8.646   9.174  65.477  1.00  0.00    -0.170 C  
HETATM   28  O   UNL     1      -9.304   9.246  64.425  1.00  0.00    -0.087 OA 
BRANCH  27  29
HETATM   29  C   UNL     1      -8.199   7.690  65.847  1.00  0.00    -0.133 C  
BRANCH  29  30
HETATM   30  O   UNL     1      -9.389   6.745  65.714  1.00  0.00     0.014 OA 
BRANCH  30  31
HETATM   31  C   UNL     1     -10.248   6.548  66.759  1.00  0.00    -0.191 C  
HETATM   32  C   UNL     1      -9.634   5.518  67.750  1.00  0.00    -0.138 C  
HETATM   33  O   UNL     1     -11.343   6.993  66.849  1.00  0.00    -0.199 OA 
ENDBRANCH  30  31
ENDBRANCH  29  30
ENDBRANCH  27  29
ENDBRANCH   5  27
TORSDOF 4
ENDMDL
MODEL       76
REMARK 921   NORMALIZED FREE ENERGY PREDICTED BY IDOCK:   -4.27 KCAL/MOL
REMARK 922        TOTAL FREE ENERGY PREDICTED BY IDOCK:   -5.08 KCAL/MOL
REMARK 923 INTER-LIGAND FREE ENERGY PREDICTED BY IDOCK:   -5.77 KCAL/MOL
REMARK 924 INTRA-LIGAND FREE ENERGY PREDICTED BY IDOCK:    0.69 KCAL/MOL
REMARK 927      BINDING AFFINITY PREDICTED BY RF-SCORE:    0.00 PKD
ROOT
HETATM    1  C   UNL     1      -8.526  11.287  69.315  1.00  0.00     0.197 C  
HETATM    2  C   UNL     1      -7.140  11.421  69.224  1.00  0.00    -0.100 C  
HETATM    3  C   UNL     1      -7.877  11.613  67.932  1.00  0.00    -0.129 C  
HETATM    4  C   UNL     1      -6.432  11.703  67.066  1.00  0.00    -0.148 C  
HETATM    5  C   UNL     1      -9.923  11.917  68.136  1.00  0.00    -0.197 C  
HETATM    6  C   UNL     1     -10.779   7.624  66.720  1.00  0.00    -0.143 C  
HETATM    7  O   UNL     1     -10.548  11.996  69.505  1.00  0.00    -0.434 OA 
HETATM    8  C   UNL     1      -8.857  12.749  68.075  1.00  0.00    -0.195 C  
HETATM    9  C   UNL     1      -9.124  12.286  66.264  1.00  0.00    -0.125 C  
HETATM   10  H   UNL     1     -11.483  12.135  69.598  1.00  0.00     0.000 HD 
HETATM   11  C   UNL     1      -9.291   7.901  66.596  1.00  0.00    -0.244 C  
HETATM   12  C   UNL     1      -8.700   7.732  65.147  1.00  0.00     0.051 C  
HETATM   13  C   UNL     1      -8.727  14.122  68.685  1.00  0.00    -0.126 C  
HETATM   14  O   UNL     1      -8.744   4.545  65.246  1.00  0.00    -0.123 OA 
HETATM   15  C   UNL     1      -9.658  10.595  66.093  1.00  0.00    -0.188 C  
HETATM   16  C   UNL     1      -7.869   6.713  64.867  1.00  0.00    -0.115 C  
HETATM   17  C   UNL     1      -8.968   9.363  67.033  1.00  0.00    -0.146 C  
HETATM   18  O   UNL     1     -11.079  10.590  66.315  1.00  0.00     0.008 OA 
HETATM   19  H   UNL     1     -11.365   9.688  66.224  1.00  0.00     0.000 HD 
HETATM   20  C   UNL     1      -9.031   9.647  68.700  1.00  0.00    -0.129 C  
HETATM   21  C   UNL     1      -8.181   5.539  65.683  1.00  0.00    -0.127 C  
HETATM   22  C   UNL     1      -7.981   5.788  67.100  1.00  0.00    -0.102 C  
HETATM   23  C   UNL     1      -8.213   8.569  69.427  1.00  0.00    -0.114 C  
HETATM   24  C   UNL     1      -8.617   7.161  69.035  1.00  0.00    -0.129 C  
HETATM   25  C   UNL     1      -8.563   6.913  67.556  1.00  0.00    -0.121 C  
HETATM   26  F   UNL     1      -7.788   6.302  69.699  1.00  0.00    -0.096 F  
ENDROOT
BRANCH   5  27
HETATM   27  C   UNL     1     -11.193  13.093  67.606  1.00  0.00    -0.282 C  
HETATM   28  O   UNL     1     -12.145  13.447  68.322  1.00  0.00    -0.343 OA 
BRANCH  27  29
HETATM   29  C   UNL     1     -11.252  13.691  66.129  1.00  0.00    -0.302 C  
BRANCH  29  30
HETATM   30  O   UNL     1     -12.500  13.181  65.417  1.00  0.00    -0.456 OA 
BRANCH  30  31
HETATM   31  C   UNL     1     -12.634  13.306  64.061  1.00  0.00    -0.143 C  
HETATM   32  C   UNL     1     -12.775  11.896  63.420  1.00  0.00    -0.496 C  
HETATM   33  O   UNL     1     -12.538  14.315  63.446  1.00  0.00    -0.777 OA 
ENDBRANCH  30  31
ENDBRANCH  29  30
ENDBRANCH  27  29
ENDBRANCH   5  27
TORSDOF 4
ENDMDL
MODEL       77
REMARK 921   NORMALIZED FREE ENERGY PREDICTED BY IDOCK:   -4.15 KCAL/MOL
REMARK 922        TOTAL FREE ENERGY PREDICTED BY IDOCK:   -4.93 KCAL/MOL
REMARK 923 INTER-LIGAND FREE ENERGY PREDICTED BY IDOCK:   -5.82 KCAL/MOL
REMARK 924 INTRA-LIGAND FREE ENERGY PREDICTED BY IDOCK:    0.89 KCAL/MOL
REMARK 927      BINDING AFFINITY PREDICTED BY RF-SCORE:    0.00 PKD
ROOT
HETATM    1  C   UNL     1      -7.482   7.726  68.591  1.00  0.00    -0.100 C  
HETATM    2  C   UNL     1      -7.261   8.596  67.522  1.00  0.00    -0.081 C  
HETATM    3  C   UNL     1      -8.698   8.233  67.752  1.00  0.00    -0.134 C  
HETATM    4  C   UNL     1      -9.174   9.030  66.343  1.00  0.00    -0.239 C  
HETATM    5  C   UNL     1      -9.091   7.369  69.601  1.00  0.00    -0.140 C  
HETATM    6  C   UNL     1      -9.486   3.215  67.663  1.00  0.00    -0.202 C  
HETATM    7  O   UNL     1      -7.989   7.210  70.617  1.00  0.00    -0.098 OA 
HETATM    8  C   UNL     1      -9.107   8.643  69.143  1.00  0.00    -0.142 C  
HETATM    9  C   UNL     1     -10.738   7.950  68.492  1.00  0.00    -0.069 C  
HETATM   10  H   UNL     1      -8.169   6.815  71.462  1.00  0.00     0.000 HD 
HETATM   11  C   UNL     1      -9.309   4.257  66.573  1.00  0.00    -0.174 C  
HETATM   12  C   UNL     1     -10.470   4.316  65.512  1.00  0.00    -0.177 C  
HETATM   13  C   UNL     1      -8.869   9.905  69.932  1.00  0.00    -0.222 C  
HETATM   14  O   UNL     1      -9.545   1.662  64.006  1.00  0.00    -0.124 OA 
HETATM   15  C   UNL     1     -10.581   6.240  68.021  1.00  0.00    -0.262 C  
HETATM   16  C   UNL     1     -10.257   3.908  64.249  1.00  0.00    -0.234 C  
HETATM   17  C   UNL     1      -9.209   5.685  67.192  1.00  0.00    -0.114 C  
HETATM   18  O   UNL     1     -10.722   5.468  69.227  1.00  0.00    -0.277 OA 
HETATM   19  H   UNL     1     -10.638   4.555  68.976  1.00  0.00     0.000 HD 
HETATM   20  C   UNL     1      -7.746   6.034  67.966  1.00  0.00    -0.101 C  
HETATM   21  C   UNL     1      -9.262   2.836  64.202  1.00  0.00    -0.119 C  
HETATM   22  C   UNL     1      -7.957   3.278  64.662  1.00  0.00    -0.082 C  
HETATM   23  C   UNL     1      -6.581   5.659  67.037  1.00  0.00    -0.056 C  
HETATM   24  C   UNL     1      -6.673   4.235  66.524  1.00  0.00    -0.050 C  
HETATM   25  C   UNL     1      -7.973   3.928  65.841  1.00  0.00    -0.093 C  
HETATM   26  F   UNL     1      -5.623   4.042  65.673  1.00  0.00    -0.012 F  
ENDROOT
BRANCH   5  27
HETATM   27  C   UNL     1     -10.209   7.592  71.008  1.00  0.00    -0.190 C  
HETATM   28  O   UNL     1     -10.681   6.650  71.668  1.00  0.00    -0.222 OA 
BRANCH  27  29
HETATM   29  C   UNL     1     -10.766   9.019  71.447  1.00  0.00    -0.331 C  
BRANCH  29  30
HETATM   30  O   UNL     1     -11.970   8.840  72.367  1.00  0.00    -0.359 OA 
BRANCH  30  31
HETATM   31  C   UNL     1     -13.171   9.423  72.071  1.00  0.00    -0.449 C  
HETATM   32  C   UNL     1     -14.193   8.326  71.654  1.00  0.00    -0.530 C  
HETATM   33  O   UNL     1     -13.382  10.588  72.020  1.00  0.00    -0.434 OA 
ENDBRANCH  30  31
ENDBRANCH  29  30
ENDBRANCH  27  29
ENDBRANCH   5  27
TORSDOF 4
ENDMDL
MODEL       78
REMARK 921   NORMALIZED FREE ENERGY PREDICTED BY IDOCK:   -4.13 KCAL/MOL
REMARK 922        TOTAL FREE ENERGY PREDICTED BY IDOCK:   -4.90 KCAL/MOL
REMARK 923 INTER-LIGAND FREE ENERGY PREDICTED BY IDOCK:   -4.77 KCAL/MOL
REMARK 924 INTRA-LIGAND FREE ENERGY PREDICTED BY IDOCK:   -0.13 KCAL/MOL
REMARK 927      BINDING AFFINITY PREDICTED BY RF-SCORE:    0.00 PKD
ROOT
HETATM    1  C   UNL     1      -6.992   5.313  69.852  1.00  0.00    -0.057 C  
HETATM    2  C   UNL     1      -5.926   6.076  69.374  1.00  0.00    -0.028 C  
HETATM    3  C   UNL     1      -6.516   6.559  70.665  1.00  0.00    -0.048 C  
HETATM    4  C   UNL     1      -5.556   7.947  70.639  1.00  0.00    -0.029 C  
HETATM    5  C   UNL     1      -7.737   5.182  71.632  1.00  0.00    -0.107 C  
HETATM    6  C   UNL     1     -11.500   7.478  70.317  1.00  0.00    -0.173 C  
HETATM    7  O   UNL     1      -7.920   3.798  71.065  1.00  0.00    -0.060 OA 
HETATM    8  C   UNL     1      -6.416   5.472  71.704  1.00  0.00    -0.044 C  
HETATM    9  C   UNL     1      -7.198   6.856  72.723  1.00  0.00    -0.074 C  
HETATM   10  H   UNL     1      -8.477   3.169  71.508  1.00  0.00     0.000 HD 
HETATM   11  C   UNL     1     -10.268   8.264  69.902  1.00  0.00    -0.201 C  
HETATM   12  C   UNL     1     -10.182   9.725  70.481  1.00  0.00    -0.321 C  
HETATM   13  C   UNL     1      -5.291   4.544  72.086  1.00  0.00    -0.004 C  
HETATM   14  O   UNL     1     -12.380  10.896  68.489  1.00  0.00    -0.490 OA 
HETATM   15  C   UNL     1      -8.762   7.367  72.040  1.00  0.00    -0.110 C  
HETATM   16  C   UNL     1     -10.329  10.787  69.669  1.00  0.00    -0.142 C  
HETATM   17  C   UNL     1      -8.971   7.533  70.365  1.00  0.00    -0.152 C  
HETATM   18  O   UNL     1      -9.746   6.437  72.528  1.00  0.00    -0.163 OA 
HETATM   19  H   UNL     1     -10.580   6.709  72.164  1.00  0.00     0.000 HD 
HETATM   20  C   UNL     1      -8.568   6.149  69.478  1.00  0.00    -0.127 C  
HETATM   21  C   UNL     1     -11.231  10.480  68.559  1.00  0.00    -0.274 C  
HETATM   22  C   UNL     1     -10.704   9.438  67.696  1.00  0.00    -0.295 C  
HETATM   23  C   UNL     1      -8.612   6.480  67.978  1.00  0.00    -0.118 C  
HETATM   24  C   UNL     1      -9.923   7.113  67.555  1.00  0.00    -0.167 C  
HETATM   25  C   UNL     1     -10.279   8.338  68.346  1.00  0.00    -0.242 C  
HETATM   26  F   UNL     1      -9.819   7.410  66.226  1.00  0.00    -0.239 F  
ENDROOT
BRANCH   5  27
HETATM   27  C   UNL     1      -7.918   4.422  73.265  1.00  0.00    -0.095 C  
HETATM   28  O   UNL     1      -7.662   5.010  74.330  1.00  0.00    -0.089 OA 
BRANCH  27  29
HETATM   29  C   UNL     1      -8.320   2.893  73.464  1.00  0.00    -0.073 C  
BRANCH  29  30
HETATM   30  O   UNL     1      -9.658   2.621  72.782  1.00  0.00    -0.094 OA 
BRANCH  30  31
HETATM   31  C   UNL     1     -10.836   2.938  73.399  1.00  0.00    -0.199 C  
HETATM   32  C   UNL     1     -11.640   1.637  73.684  1.00  0.00    -0.306 C  
HETATM   33  O   UNL     1     -11.248   4.033  73.585  1.00  0.00    -0.254 OA 
ENDBRANCH  30  31
ENDBRANCH  29  30
ENDBRANCH  27  29
ENDBRANCH   5  27
TORSDOF 4
ENDMDL
MODEL       79
REMARK 921   NORMALIZED FREE ENERGY PREDICTED BY IDOCK:   -4.08 KCAL/MOL
REMARK 922        TOTAL FREE ENERGY PREDICTED BY IDOCK:   -4.84 KCAL/MOL
REMARK 923 INTER-LIGAND FREE ENERGY PREDICTED BY IDOCK:   -5.74 KCAL/MOL
REMARK 924 INTRA-LIGAND FREE ENERGY PREDICTED BY IDOCK:    0.90 KCAL/MOL
REMARK 927      BINDING AFFINITY PREDICTED BY RF-SCORE:    0.00 PKD
ROOT
HETATM    1  C   UNL     1      -7.434  13.838  67.264  1.00  0.00    -0.048 C  
HETATM    2  C   UNL     1      -6.553  14.032  68.329  1.00  0.00    -0.110 C  
HETATM    3  C   UNL     1      -8.006  14.091  68.696  1.00  0.00    -0.122 C  
HETATM    4  C   UNL     1      -7.637  14.574  70.271  1.00  0.00     0.694 C  
HETATM    5  C   UNL     1      -9.297  13.319  67.262  1.00  0.00    -0.226 C  
HETATM    6  C   UNL     1     -10.564  17.560  66.008  1.00  0.00    -0.217 C  
HETATM    7  O   UNL     1      -8.751  12.698  66.002  1.00  0.00    -0.389 OA 
HETATM    8  C   UNL     1      -8.671  12.787  68.338  1.00  0.00    -0.119 C  
HETATM    9  C   UNL     1     -10.120  13.712  69.119  1.00  0.00     0.153 C  
HETATM   10  H   UNL     1      -9.341  12.345  65.346  1.00  0.00     0.000 HD 
HETATM   11  C   UNL     1      -9.647  17.652  67.215  1.00  0.00    -0.271 C  
HETATM   12  C   UNL     1     -10.267  18.373  68.469  1.00  0.00    -0.394 C  
HETATM   13  C   UNL     1      -8.251  11.353  68.541  1.00  0.00    -0.153 C  
HETATM   14  O   UNL     1      -9.973  21.295  67.229  1.00  0.00    -0.076 OA 
HETATM   15  C   UNL     1     -10.477  15.224  68.246  1.00  0.00    -0.244 C  
HETATM   16  C   UNL     1      -9.813  19.579  68.853  1.00  0.00    -0.522 C  
HETATM   17  C   UNL     1      -9.227  16.228  67.693  1.00  0.00    -0.206 C  
HETATM   18  O   UNL     1     -11.299  14.864  67.122  1.00  0.00    -0.337 OA 
HETATM   19  H   UNL     1     -11.489  15.670  66.656  1.00  0.00     0.000 HD 
HETATM   20  C   UNL     1      -8.095  15.444  66.709  1.00  0.00    -0.212 C  
HETATM   21  C   UNL     1      -9.349  20.356  67.704  1.00  0.00    -0.320 C  
HETATM   22  C   UNL     1      -8.212  19.737  67.045  1.00  0.00    -0.340 C  
HETATM   23  C   UNL     1      -6.921  16.396  66.432  1.00  0.00     0.175 C  
HETATM   24  C   UNL     1      -7.370  17.739  65.890  1.00  0.00    -0.199 C  
HETATM   25  C   UNL     1      -8.376  18.431  66.763  1.00  0.00    -0.271 C  
HETATM   26  F   UNL     1      -6.252  18.509  65.740  1.00  0.00    -0.203 F  
ENDROOT
BRANCH   5  27
HETATM   27  C   UNL     1     -10.649  12.121  67.138  1.00  0.00    -0.226 C  
HETATM   28  O   UNL     1     -11.851  12.438  67.137  1.00  0.00    -0.470 OA 
BRANCH  27  29
HETATM   29  C   UNL     1     -10.406  10.546  67.127  1.00  0.00    -0.235 C  
BRANCH  29  30
HETATM   30  O   UNL     1     -11.394   9.867  68.071  1.00  0.00    -0.158 OA 
BRANCH  30  31
HETATM   31  C   UNL     1     -10.975   9.335  69.259  1.00  0.00    -0.085 C  
HETATM   32  C   UNL     1     -11.252  10.348  70.407  1.00  0.00    -0.399 C  
HETATM   33  O   UNL     1     -10.384   8.317  69.393  1.00  0.00    -0.214 OA 
ENDBRANCH  30  31
ENDBRANCH  29  30
ENDBRANCH  27  29
ENDBRANCH   5  27
TORSDOF 4
ENDMDL
MODEL       80
REMARK 921   NORMALIZED FREE ENERGY PREDICTED BY IDOCK:   -4.08 KCAL/MOL
REMARK 922        TOTAL FREE ENERGY PREDICTED BY IDOCK:   -4.84 KCAL/MOL
REMARK 923 INTER-LIGAND FREE ENERGY PREDICTED BY IDOCK:   -5.24 KCAL/MOL
REMARK 924 INTRA-LIGAND FREE ENERGY PREDICTED BY IDOCK:    0.40 KCAL/MOL
REMARK 927      BINDING AFFINITY PREDICTED BY RF-SCORE:    0.00 PKD
ROOT
HETATM    1  C   UNL     1      -9.178   9.614  69.928  1.00  0.00    -0.255 C  
HETATM    2  C   UNL     1      -7.994   9.495  70.658  1.00  0.00    -0.152 C  
HETATM    3  C   UNL     1      -7.833   9.369  69.172  1.00  0.00    -0.080 C  
HETATM    4  C   UNL     1      -6.207   8.948  69.336  1.00  0.00    -0.041 C  
HETATM    5  C   UNL     1      -9.459  10.034  68.062  1.00  0.00    -0.137 C  
HETATM    6  C   UNL     1     -10.736   5.701  67.192  1.00  0.00    -0.316 C  
HETATM    7  O   UNL     1     -10.650  10.649  68.751  1.00  0.00    -0.182 OA 
HETATM    8  C   UNL     1      -8.324  10.626  68.502  1.00  0.00    -0.130 C  
HETATM    9  C   UNL     1      -7.724   9.647  67.004  1.00  0.00    -0.095 C  
HETATM   10  H   UNL     1     -11.394  10.954  68.243  1.00  0.00     0.000 HD 
HETATM   11  C   UNL     1      -9.410   5.689  67.932  1.00  0.00    -0.112 C  
HETATM   12  C   UNL     1      -8.232   4.970  67.176  1.00  0.00    -0.107 C  
HETATM   13  C   UNL     1      -8.112  12.085  68.819  1.00  0.00     0.007 C  
HETATM   14  O   UNL     1      -9.321   2.035  67.784  1.00  0.00    -0.174 OA 
HETATM   15  C   UNL     1      -8.587   8.096  66.848  1.00  0.00    -0.124 C  
HETATM   16  C   UNL     1      -7.748   3.800  67.629  1.00  0.00    -0.074 C  
HETATM   17  C   UNL     1      -8.926   7.145  68.211  1.00  0.00    -0.125 C  
HETATM   18  O   UNL     1      -9.827   8.383  66.177  1.00  0.00    -0.412 OA 
HETATM   19  H   UNL     1     -10.288   7.556  66.094  1.00  0.00     0.000 HD 
HETATM   20  C   UNL     1      -9.767   7.962  69.432  1.00  0.00    -0.170 C  
HETATM   21  C   UNL     1      -8.794   3.018  68.289  1.00  0.00    -0.123 C  
HETATM   22  C   UNL     1      -9.307   3.679  69.476  1.00  0.00    -0.247 C  
HETATM   23  C   UNL     1      -9.844   7.066  70.678  1.00  0.00    -0.187 C  
HETATM   24  C   UNL     1     -10.398   5.687  70.376  1.00  0.00    -0.260 C  
HETATM   25  C   UNL     1      -9.653   4.966  69.290  1.00  0.00    -0.241 C  
HETATM   26  F   UNL     1     -10.365   4.973  71.540  1.00  0.00    -0.247 F  
ENDROOT
BRANCH   5  27
HETATM   27  C   UNL     1      -9.812  11.156  66.685  1.00  0.00    -0.199 C  
HETATM   28  O   UNL     1     -10.894  11.750  66.541  1.00  0.00    -0.257 OA 
BRANCH  27  29
HETATM   29  C   UNL     1      -8.793  11.388  65.481  1.00  0.00    -0.030 C  
BRANCH  29  30
HETATM   30  O   UNL     1      -9.407  10.876  64.182  1.00  0.00    -0.217 OA 
BRANCH  30  31
HETATM   31  C   UNL     1      -8.692  10.070  63.339  1.00  0.00    -0.222 C  
HETATM   32  C   UNL     1      -7.883  10.949  62.342  1.00  0.00    -0.174 C  
HETATM   33  O   UNL     1      -8.761   8.888  63.286  1.00  0.00    -0.159 OA 
ENDBRANCH  30  31
ENDBRANCH  29  30
ENDBRANCH  27  29
ENDBRANCH   5  27
TORSDOF 4
ENDMDL
MODEL       81
REMARK 921   NORMALIZED FREE ENERGY PREDICTED BY IDOCK:   -4.05 KCAL/MOL
REMARK 922        TOTAL FREE ENERGY PREDICTED BY IDOCK:   -4.81 KCAL/MOL
REMARK 923 INTER-LIGAND FREE ENERGY PREDICTED BY IDOCK:   -5.03 KCAL/MOL
REMARK 924 INTRA-LIGAND FREE ENERGY PREDICTED BY IDOCK:    0.23 KCAL/MOL
REMARK 927      BINDING AFFINITY PREDICTED BY RF-SCORE:    0.00 PKD
ROOT
HETATM    1  C   UNL     1      -6.421  10.407  69.768  1.00  0.00    -0.089 C  
HETATM    2  C   UNL     1      -5.649   9.280  69.480  1.00  0.00    -0.034 C  
HETATM    3  C   UNL     1      -6.762   9.545  68.510  1.00  0.00    -0.053 C  
HETATM    4  C   UNL     1      -6.473   8.090  67.707  1.00  0.00    -0.053 C  
HETATM    5  C   UNL     1      -7.582  11.452  68.628  1.00  0.00    -0.130 C  
HETATM    6  C   UNL     1     -11.306   9.803  70.768  1.00  0.00    -0.416 C  
HETATM    7  O   UNL     1      -7.013  12.467  69.586  1.00  0.00    -0.337 OA 
HETATM    8  C   UNL     1      -6.582  10.909  67.895  1.00  0.00    -0.063 C  
HETATM    9  C   UNL     1      -8.128  10.320  66.985  1.00  0.00    -0.121 C  
HETATM   10  H   UNL     1      -7.387  13.338  69.640  1.00  0.00     0.000 HD 
HETATM   11  C   UNL     1     -10.421   8.643  70.346  1.00  0.00    -0.233 C  
HETATM   12  C   UNL     1     -11.108   7.590  69.399  1.00  0.00    -0.016 C  
HETATM   13  C   UNL     1      -5.370  11.609  67.334  1.00  0.00    -0.078 C  
HETATM   14  O   UNL     1     -12.823   6.259  71.735  1.00  0.00    -0.093 OA 
HETATM   15  C   UNL     1      -9.457   9.964  68.116  1.00  0.00    -0.138 C  
HETATM   16  C   UNL     1     -11.392   6.355  69.850  1.00  0.00    -0.500 C  
HETATM   17  C   UNL     1      -9.164   9.163  69.582  1.00  0.00    -0.172 C  
HETATM   18  O   UNL     1     -10.094  11.220  68.408  1.00  0.00    -0.181 OA 
HETATM   19  H   UNL     1     -10.803  11.031  69.011  1.00  0.00     0.000 HD 
HETATM   20  C   UNL     1      -7.988   9.900  70.550  1.00  0.00     0.067 C  
HETATM   21  C   UNL     1     -11.692   6.373  71.281  1.00  0.00    -0.300 C  
HETATM   22  C   UNL     1     -10.550   6.792  72.075  1.00  0.00    -0.239 C  
HETATM   23  C   UNL     1      -7.675   8.989  71.747  1.00  0.00     0.083 C  
HETATM   24  C   UNL     1      -8.917   8.575  72.510  1.00  0.00    -0.199 C  
HETATM   25  C   UNL     1      -9.960   7.924  71.649  1.00  0.00    -0.227 C  
HETATM   26  F   UNL     1      -8.518   7.729  73.506  1.00  0.00    -0.166 F  
ENDROOT
BRANCH   5  27
HETATM   27  C   UNL     1      -7.963  12.849  67.541  1.00  0.00    -0.178 C  
HETATM   28  O   UNL     1      -8.671  12.756  66.524  1.00  0.00    -0.117 OA 
BRANCH  27  29
HETATM   29  C   UNL     1      -7.329  14.297  67.746  1.00  0.00    -0.174 C  
BRANCH  29  30
HETATM   30  O   UNL     1      -8.000  14.990  68.928  1.00  0.00    -0.147 OA 
BRANCH  30  31
HETATM   31  C   UNL     1      -8.688  16.159  68.757  1.00  0.00    -0.240 C  
HETATM   32  C   UNL     1     -10.185  15.845  68.475  1.00  0.00    -0.226 C  
HETATM   33  O   UNL     1      -8.211  17.243  68.709  1.00  0.00    -0.263 OA 
ENDBRANCH  30  31
ENDBRANCH  29  30
ENDBRANCH  27  29
ENDBRANCH   5  27
TORSDOF 4
ENDMDL
MODEL       82
REMARK 921   NORMALIZED FREE ENERGY PREDICTED BY IDOCK:   -4.04 KCAL/MOL
REMARK 922        TOTAL FREE ENERGY PREDICTED BY IDOCK:   -4.79 KCAL/MOL
REMARK 923 INTER-LIGAND FREE ENERGY PREDICTED BY IDOCK:   -5.06 KCAL/MOL
REMARK 924 INTRA-LIGAND FREE ENERGY PREDICTED BY IDOCK:    0.27 KCAL/MOL
REMARK 927      BINDING AFFINITY PREDICTED BY RF-SCORE:    0.00 PKD
ROOT
HETATM    1  C   UNL     1      -7.556   8.290  65.226  1.00  0.00    -0.094 C  
HETATM    2  C   UNL     1      -6.483   8.997  64.681  1.00  0.00    -0.070 C  
HETATM    3  C   UNL     1      -6.617   9.106  66.170  1.00  0.00    -0.069 C  
HETATM    4  C   UNL     1      -5.388  10.260  66.244  1.00  0.00    -0.054 C  
HETATM    5  C   UNL     1      -7.865   7.688  67.038  1.00  0.00    -0.112 C  
HETATM    6  C   UNL     1     -11.173  10.834  67.607  1.00  0.00    -0.370 C  
HETATM    7  O   UNL     1      -8.502   6.616  66.191  1.00  0.00    -0.123 OA 
HETATM    8  C   UNL     1      -6.535   7.733  66.787  1.00  0.00    -0.054 C  
HETATM    9  C   UNL     1      -6.699   8.800  68.336  1.00  0.00    -0.064 C  
HETATM   10  H   UNL     1      -9.072   5.968  66.588  1.00  0.00     0.000 HD 
HETATM   11  C   UNL     1      -9.924  11.516  67.076  1.00  0.00    -0.225 C  
HETATM   12  C   UNL     1      -9.357  12.670  67.984  1.00  0.00    -0.209 C  
HETATM   13  C   UNL     1      -5.607   6.572  66.539  1.00  0.00    -0.014 C  
HETATM   14  O   UNL     1     -11.620  14.756  67.153  1.00  0.00    -0.370 OA 
HETATM   15  C   UNL     1      -8.212   9.740  68.325  1.00  0.00    -0.105 C  
HETATM   16  C   UNL     1      -9.435  13.951  67.583  1.00  0.00    -0.212 C  
HETATM   17  C   UNL     1      -8.767  10.485  66.906  1.00  0.00    -0.130 C  
HETATM   18  O   UNL     1      -9.245   8.862  68.807  1.00  0.00    -0.140 OA 
HETATM   19  H   UNL     1     -10.052   9.363  68.802  1.00  0.00     0.000 HD 
HETATM   20  C   UNL     1      -8.929   9.432  65.591  1.00  0.00    -0.236 C  
HETATM   21  C   UNL     1     -10.621  14.172  66.756  1.00  0.00    -0.277 C  
HETATM   22  C   UNL     1     -10.578  13.410  65.520  1.00  0.00    -0.294 C  
HETATM   23  C   UNL     1      -9.247  10.246  64.328  1.00  0.00    -0.300 C  
HETATM   24  C   UNL     1     -10.431  11.175  64.511  1.00  0.00    -0.350 C  
HETATM   25  C   UNL     1     -10.287  12.106  65.680  1.00  0.00    -0.289 C  
HETATM   26  F   UNL     1     -10.578  11.879  63.350  1.00  0.00    -0.360 F  
ENDROOT
BRANCH   5  27
HETATM   27  C   UNL     1      -7.829   6.464  68.371  1.00  0.00    -0.105 C  
HETATM   28  O   UNL     1      -7.014   6.492  69.309  1.00  0.00    -0.066 OA 
BRANCH  27  29
HETATM   29  C   UNL     1      -8.777   5.183  68.391  1.00  0.00    -0.101 C  
BRANCH  29  30
HETATM   30  O   UNL     1      -8.067   4.007  67.727  1.00  0.00    -0.089 OA 
BRANCH  30  31
HETATM   31  C   UNL     1      -7.886   2.829  68.397  1.00  0.00    -0.054 C  
HETATM   32  C   UNL     1      -8.395   2.979  69.860  1.00  0.00    -0.080 C  
HETATM   33  O   UNL     1      -7.323   1.873  67.979  1.00  0.00    -0.046 OA 
ENDBRANCH  30  31
ENDBRANCH  29  30
ENDBRANCH  27  29
ENDBRANCH   5  27
TORSDOF 4
ENDMDL
MODEL       83
REMARK 921   NORMALIZED FREE ENERGY PREDICTED BY IDOCK:   -4.04 KCAL/MOL
REMARK 922        TOTAL FREE ENERGY PREDICTED BY IDOCK:   -4.79 KCAL/MOL
REMARK 923 INTER-LIGAND FREE ENERGY PREDICTED BY IDOCK:   -6.47 KCAL/MOL
REMARK 924 INTRA-LIGAND FREE ENERGY PREDICTED BY IDOCK:    1.68 KCAL/MOL
REMARK 927      BINDING AFFINITY PREDICTED BY RF-SCORE:    0.00 PKD
ROOT
HETATM    1  C   UNL     1      -7.834  16.138  69.416  1.00  0.00    -0.126 C  
HETATM    2  C   UNL     1      -7.260  14.893  69.679  1.00  0.00    -0.166 C  
HETATM    3  C   UNL     1      -7.027  15.413  68.292  1.00  0.00    -0.119 C  
HETATM    4  C   UNL     1      -6.306  13.964  67.817  1.00  0.00    -0.169 C  
HETATM    5  C   UNL     1      -7.427  17.439  68.045  1.00  0.00    -0.201 C  
HETATM    6  C   UNL     1     -11.353  16.476  65.849  1.00  0.00     0.533 C  
HETATM    7  O   UNL     1      -7.847  18.280  69.222  1.00  0.00    -0.067 OA 
HETATM    8  C   UNL     1      -6.312  16.738  68.362  1.00  0.00    -0.139 C  
HETATM    9  C   UNL     1      -6.427  16.506  66.492  1.00  0.00     0.142 C  
HETATM   10  H   UNL     1      -8.029  19.206  69.109  1.00  0.00     0.000 HD 
HETATM   11  C   UNL     1     -10.608  15.182  66.125  1.00  0.00    -0.318 C  
HETATM   12  C   UNL     1     -10.264  14.326  64.850  1.00  0.00    -0.361 C  
HETATM   13  C   UNL     1      -5.136  17.205  69.181  1.00  0.00    -0.136 C  
HETATM   14  O   UNL     1     -13.247  13.268  64.465  1.00  0.00    -0.439 OA 
HETATM   15  C   UNL     1      -8.120  16.375  65.952  1.00  0.00     0.310 C  
HETATM   16  C   UNL     1     -10.887  13.155  64.629  1.00  0.00    -0.383 C  
HETATM   17  C   UNL     1      -9.251  15.473  66.837  1.00  0.00    -0.257 C  
HETATM   18  O   UNL     1      -8.615  17.720  65.826  1.00  0.00    -0.510 OA 
HETATM   19  H   UNL     1      -9.517  17.651  65.538  1.00  0.00     0.000 HD 
HETATM   20  C   UNL     1      -9.373  15.921  68.464  1.00  0.00    -0.206 C  
HETATM   21  C   UNL     1     -12.248  13.174  65.165  1.00  0.00    -0.450 C  
HETATM   22  C   UNL     1     -12.266  13.324  66.609  1.00  0.00    -0.359 C  
HETATM   23  C   UNL     1     -10.275  14.918  69.198  1.00  0.00    -0.243 C  
HETATM   24  C   UNL     1     -11.617  14.728  68.518  1.00  0.00    -0.321 C  
HETATM   25  C   UNL     1     -11.506  14.333  67.074  1.00  0.00    -0.377 C  
HETATM   26  F   UNL     1     -12.299  13.780  69.226  1.00  0.00    -0.369 F  
ENDROOT
BRANCH   5  27
HETATM   27  C   UNL     1      -6.617  18.927  67.407  1.00  0.00    -0.194 C  
HETATM   28  O   UNL     1      -6.159  19.021  66.255  1.00  0.00    -0.167 OA 
BRANCH  27  29
HETATM   29  C   UNL     1      -6.330  20.207  68.311  1.00  0.00    -0.287 C  
BRANCH  29  30
HETATM   30  O   UNL     1      -5.241  19.883  69.330  1.00  0.00    -0.189 OA 
BRANCH  30  31
HETATM   31  C   UNL     1      -5.413  20.174  70.655  1.00  0.00    -0.282 C  
HETATM   32  C   UNL     1      -5.221  18.882  71.500  1.00  0.00    -0.305 C  
HETATM   33  O   UNL     1      -5.770  21.215  71.095  1.00  0.00    -0.310 OA 
ENDBRANCH  30  31
ENDBRANCH  29  30
ENDBRANCH  27  29
ENDBRANCH   5  27
TORSDOF 4
ENDMDL
MODEL       84
REMARK 921   NORMALIZED FREE ENERGY PREDICTED BY IDOCK:   -3.99 KCAL/MOL
REMARK 922        TOTAL FREE ENERGY PREDICTED BY IDOCK:   -4.73 KCAL/MOL
REMARK 923 INTER-LIGAND FREE ENERGY PREDICTED BY IDOCK:   -5.03 KCAL/MOL
REMARK 924 INTRA-LIGAND FREE ENERGY PREDICTED BY IDOCK:    0.29 KCAL/MOL
REMARK 927      BINDING AFFINITY PREDICTED BY RF-SCORE:    0.00 PKD
ROOT
HETATM    1  C   UNL     1     -10.093   7.096  68.940  1.00  0.00    -0.177 C  
HETATM    2  C   UNL     1     -11.191   6.454  68.364  1.00  0.00    -0.297 C  
HETATM    3  C   UNL     1      -9.868   6.121  67.741  1.00  0.00    -0.131 C  
HETATM    4  C   UNL     1     -10.616   5.239  66.512  1.00  0.00    -0.348 C  
HETATM    5  C   UNL     1      -8.212   6.654  68.878  1.00  0.00    -0.120 C  
HETATM    6  C   UNL     1      -7.374  10.238  66.119  1.00  0.00    -0.122 C  
HETATM    7  O   UNL     1      -8.391   7.262  70.246  1.00  0.00    -0.131 OA 
HETATM    8  C   UNL     1      -8.955   5.526  68.782  1.00  0.00    -0.120 C  
HETATM    9  C   UNL     1      -7.851   5.425  67.253  1.00  0.00    -0.101 C  
HETATM   10  H   UNL     1      -7.635   7.505  70.766  1.00  0.00     0.000 HD 
HETATM   11  C   UNL     1      -8.519   9.424  65.542  1.00  0.00    -0.153 C  
HETATM   12  C   UNL     1      -8.282   8.880  64.085  1.00  0.00    -0.167 C  
HETATM   13  C   UNL     1      -9.185   4.483  69.846  1.00  0.00    -0.193 C  
HETATM   14  O   UNL     1      -8.758  11.711  62.698  1.00  0.00    -0.236 OA 
HETATM   15  C   UNL     1      -7.558   7.036  66.551  1.00  0.00    -0.089 C  
HETATM   16  C   UNL     1      -8.982   9.380  63.051  1.00  0.00    -0.175 C  
HETATM   17  C   UNL     1      -8.807   8.177  66.433  1.00  0.00    -0.182 C  
HETATM   18  O   UNL     1      -6.481   7.621  67.304  1.00  0.00    -0.055 OA 
HETATM   19  H   UNL     1      -6.324   8.480  66.929  1.00  0.00     0.000 HD 
HETATM   20  C   UNL     1      -9.585   8.504  67.900  1.00  0.00    -0.177 C  
HETATM   21  C   UNL     1      -9.316  10.787  63.273  1.00  0.00    -0.304 C  
HETATM   22  C   UNL     1     -10.189  10.969  64.420  1.00  0.00    -0.409 C  
HETATM   23  C   UNL     1     -10.808   9.395  67.636  1.00  0.00    -0.222 C  
HETATM   24  C   UNL     1     -10.468  10.639  66.838  1.00  0.00    -0.249 C  
HETATM   25  C   UNL     1      -9.775  10.345  65.538  1.00  0.00    -0.307 C  
HETATM   26  F   UNL     1     -11.635  11.313  66.620  1.00  0.00    -0.326 F  
ENDROOT
BRANCH   5  27
HETATM   27  C   UNL     1      -6.697   5.904  69.528  1.00  0.00    -0.059 C  
HETATM   28  O   UNL     1      -5.938   5.189  68.851  1.00  0.00    -0.019 OA 
BRANCH  27  29
HETATM   29  C   UNL     1      -6.270   6.014  71.060  1.00  0.00    -0.039 C  
BRANCH  29  30
HETATM   30  O   UNL     1      -5.855   4.640  71.578  1.00  0.00    -0.015 OA 
BRANCH  30  31
HETATM   31  C   UNL     1      -6.068   4.289  72.882  1.00  0.00    -0.016 C  
HETATM   32  C   UNL     1      -7.495   4.734  73.314  1.00  0.00    -0.087 C  
HETATM   33  O   UNL     1      -5.260   3.826  73.616  1.00  0.00     0.000 OA 
ENDBRANCH  30  31
ENDBRANCH  29  30
ENDBRANCH  27  29
ENDBRANCH   5  27
TORSDOF 4
ENDMDL
MODEL       85
REMARK 921   NORMALIZED FREE ENERGY PREDICTED BY IDOCK:   -3.90 KCAL/MOL
REMARK 922        TOTAL FREE ENERGY PREDICTED BY IDOCK:   -4.62 KCAL/MOL
REMARK 923 INTER-LIGAND FREE ENERGY PREDICTED BY IDOCK:   -5.49 KCAL/MOL
REMARK 924 INTRA-LIGAND FREE ENERGY PREDICTED BY IDOCK:    0.87 KCAL/MOL
REMARK 927      BINDING AFFINITY PREDICTED BY RF-SCORE:    0.00 PKD
ROOT
HETATM    1  C   UNL     1      -9.712   6.959  69.527  1.00  0.00    -0.159 C  
HETATM    2  C   UNL     1     -10.938   6.408  69.148  1.00  0.00    -0.416 C  
HETATM    3  C   UNL     1     -10.030   6.767  68.010  1.00  0.00    -0.162 C  
HETATM    4  C   UNL     1     -11.232   6.417  66.879  1.00  0.00    -0.208 C  
HETATM    5  C   UNL     1      -8.051   7.103  68.548  1.00  0.00    -0.125 C  
HETATM    6  C   UNL     1      -8.617  11.646  68.094  1.00  0.00    -0.158 C  
HETATM    7  O   UNL     1      -7.609   6.917  69.977  1.00  0.00    -0.094 OA 
HETATM    8  C   UNL     1      -8.734   6.009  68.138  1.00  0.00    -0.113 C  
HETATM    9  C   UNL     1      -8.433   6.937  66.522  1.00  0.00    -0.125 C  
HETATM   10  H   UNL     1      -6.704   7.070  70.223  1.00  0.00     0.000 HD 
HETATM   11  C   UNL     1      -9.882  10.939  67.639  1.00  0.00    -0.192 C  
HETATM   12  C   UNL     1     -10.315  11.237  66.156  1.00  0.00    -0.300 C  
HETATM   13  C   UNL     1      -8.439   4.566  68.463  1.00  0.00    -0.096 C  
HETATM   14  O   UNL     1     -11.422  14.153  66.815  1.00  0.00    -0.337 OA 
HETATM   15  C   UNL     1      -8.521   8.701  66.755  1.00  0.00    -0.115 C  
HETATM   16  C   UNL     1     -11.415  11.968  65.902  1.00  0.00    -0.392 C  
HETATM   17  C   UNL     1      -9.713   9.393  67.744  1.00  0.00    -0.182 C  
HETATM   18  O   UNL     1      -7.233   9.114  67.245  1.00  0.00    -0.082 OA 
HETATM   19  H   UNL     1      -7.279  10.055  67.369  1.00  0.00     0.000 HD 
HETATM   20  C   UNL     1      -9.755   8.768  69.316  1.00  0.00    -0.172 C  
HETATM   21  C   UNL     1     -11.643  12.958  66.955  1.00  0.00    -0.368 C  
HETATM   22  C   UNL     1     -11.910  12.340  68.241  1.00  0.00    -0.367 C  
HETATM   23  C   UNL     1     -10.985   9.326  70.049  1.00  0.00    -0.254 C  
HETATM   24  C   UNL     1     -11.066  10.839  69.993  1.00  0.00    -0.255 C  
HETATM   25  C   UNL     1     -11.025  11.390  68.597  1.00  0.00    -0.267 C  
HETATM   26  F   UNL     1     -12.220  11.207  70.623  1.00  0.00    -0.370 F  
ENDROOT
BRANCH   5  27
HETATM   27  C   UNL     1      -6.390   6.556  68.077  1.00  0.00    -0.040 C  
HETATM   28  O   UNL     1      -5.488   7.330  67.713  1.00  0.00    -0.022 OA 
BRANCH  27  29
HETATM   29  C   UNL     1      -5.983   5.018  67.987  1.00  0.00    -0.022 C  
BRANCH  29  30
HETATM   30  O   UNL     1      -5.410   4.717  66.606  1.00  0.00    -0.011 OA 
BRANCH  30  31
HETATM   31  C   UNL     1      -5.844   3.637  65.887  1.00  0.00    -0.019 C  
HETATM   32  C   UNL     1      -6.808   4.114  64.764  1.00  0.00    -0.049 C  
HETATM   33  O   UNL     1      -5.624   2.501  66.143  1.00  0.00    -0.016 OA 
ENDBRANCH  30  31
ENDBRANCH  29  30
ENDBRANCH  27  29
ENDBRANCH   5  27
TORSDOF 4
ENDMDL
MODEL       86
REMARK 921   NORMALIZED FREE ENERGY PREDICTED BY IDOCK:   -3.90 KCAL/MOL
REMARK 922        TOTAL FREE ENERGY PREDICTED BY IDOCK:   -4.62 KCAL/MOL
REMARK 923 INTER-LIGAND FREE ENERGY PREDICTED BY IDOCK:   -4.93 KCAL/MOL
REMARK 924 INTRA-LIGAND FREE ENERGY PREDICTED BY IDOCK:    0.31 KCAL/MOL
REMARK 927      BINDING AFFINITY PREDICTED BY RF-SCORE:    0.00 PKD
ROOT
HETATM    1  C   UNL     1      -8.602   8.398  69.726  1.00  0.00    -0.132 C  
HETATM    2  C   UNL     1      -8.702   9.236  68.613  1.00  0.00    -0.132 C  
HETATM    3  C   UNL     1      -9.860   8.303  68.805  1.00  0.00    -0.179 C  
HETATM    4  C   UNL     1     -10.536   8.762  67.328  1.00  0.00    -0.353 C  
HETATM    5  C   UNL     1      -9.971   7.429  70.688  1.00  0.00    -0.186 C  
HETATM    6  C   UNL     1      -8.438   3.430  69.008  1.00  0.00    -0.097 C  
HETATM    7  O   UNL     1      -8.975   7.798  71.757  1.00  0.00    -0.117 OA 
HETATM    8  C   UNL     1     -10.495   8.555  70.148  1.00  0.00    -0.226 C  
HETATM    9  C   UNL     1     -11.632   7.206  69.475  1.00  0.00     0.101 C  
HETATM   10  H   UNL     1      -9.026   7.399  72.618  1.00  0.00     0.000 HD 
HETATM   11  C   UNL     1      -8.648   4.403  67.861  1.00  0.00    -0.110 C  
HETATM   12  C   UNL     1      -9.652   3.917  66.750  1.00  0.00    -0.222 C  
HETATM   13  C   UNL     1     -10.868   9.829  70.862  1.00  0.00    -0.399 C  
HETATM   14  O   UNL     1      -7.592   1.853  65.460  1.00  0.00    -0.067 OA 
HETATM   15  C   UNL     1     -10.733   5.709  69.123  1.00  0.00    -0.255 C  
HETATM   16  C   UNL     1      -9.203   3.588  65.527  1.00  0.00    -0.156 C  
HETATM   17  C   UNL     1      -9.205   5.761  68.390  1.00  0.00    -0.121 C  
HETATM   18  O   UNL     1     -10.613   5.000  70.369  1.00  0.00    -0.215 OA 
HETATM   19  H   UNL     1     -10.133   4.202  70.182  1.00  0.00     0.000 HD 
HETATM   20  C   UNL     1      -8.082   6.732  69.201  1.00  0.00    -0.120 C  
HETATM   21  C   UNL     1      -7.847   3.043  65.591  1.00  0.00    -0.085 C  
HETATM   22  C   UNL     1      -6.886   4.018  66.077  1.00  0.00    -0.057 C  
HETATM   23  C   UNL     1      -6.809   6.854  68.348  1.00  0.00    -0.074 C  
HETATM   24  C   UNL     1      -6.255   5.507  67.926  1.00  0.00    -0.037 C  
HETATM   25  C   UNL     1      -7.254   4.646  67.209  1.00  0.00    -0.073 C  
HETATM   26  F   UNL     1      -5.169   5.747  67.133  1.00  0.00    -0.004 F  
ENDROOT
BRANCH   5  27
HETATM   27  C   UNL     1     -11.168   7.211  72.028  1.00  0.00    -0.251 C  
HETATM   28  O   UNL     1     -12.354   7.577  71.958  1.00  0.00    -0.298 OA 
BRANCH  27  29
HETATM   29  C   UNL     1     -10.767   6.623  73.454  1.00  0.00    -0.289 C  
BRANCH  29  30
HETATM   30  O   UNL     1     -11.167   5.153  73.536  1.00  0.00    -0.315 OA 
BRANCH  30  31
HETATM   31  C   UNL     1     -10.278   4.208  73.967  1.00  0.00    -0.176 C  
HETATM   32  C   UNL     1      -8.827   4.685  73.672  1.00  0.00    -0.105 C  
HETATM   33  O   UNL     1     -10.557   3.136  74.391  1.00  0.00    -0.182 OA 
ENDBRANCH  30  31
ENDBRANCH  29  30
ENDBRANCH  27  29
ENDBRANCH   5  27
TORSDOF 4
ENDMDL
MODEL       87
REMARK 921   NORMALIZED FREE ENERGY PREDICTED BY IDOCK:   -3.81 KCAL/MOL
REMARK 922        TOTAL FREE ENERGY PREDICTED BY IDOCK:   -4.51 KCAL/MOL
REMARK 923 INTER-LIGAND FREE ENERGY PREDICTED BY IDOCK:   -4.93 KCAL/MOL
REMARK 924 INTRA-LIGAND FREE ENERGY PREDICTED BY IDOCK:    0.42 KCAL/MOL
REMARK 927      BINDING AFFINITY PREDICTED BY RF-SCORE:    0.00 PKD
ROOT
HETATM    1  C   UNL     1      -7.576   9.823  67.471  1.00  0.00    -0.091 C  
HETATM    2  C   UNL     1      -6.580  10.136  68.397  1.00  0.00    -0.053 C  
HETATM    3  C   UNL     1      -7.888   9.717  68.998  1.00  0.00    -0.087 C  
HETATM    4  C   UNL     1      -7.348  10.089  70.553  1.00  0.00    -0.007 C  
HETATM    5  C   UNL     1      -9.192   8.780  67.677  1.00  0.00    -0.134 C  
HETATM    6  C   UNL     1     -11.776  12.577  67.413  1.00  0.00    -0.432 C  
HETATM    7  O   UNL     1      -8.770   8.509  66.256  1.00  0.00    -0.126 OA 
HETATM    8  C   UNL     1      -8.239   8.329  68.528  1.00  0.00    -0.131 C  
HETATM    9  C   UNL     1      -9.691   8.681  69.682  1.00  0.00    -0.179 C  
HETATM   10  H   UNL     1      -9.365   8.081  65.652  1.00  0.00     0.000 HD 
HETATM   11  C   UNL     1     -10.690  12.787  68.453  1.00  0.00    -0.269 C  
HETATM   12  C   UNL     1     -11.209  13.132  69.899  1.00  0.00     0.067 C  
HETATM   13  C   UNL     1      -7.419   7.070  68.404  1.00  0.00    -0.102 C  
HETATM   14  O   UNL     1     -11.968  16.140  69.162  1.00  0.00    -0.281 OA 
HETATM   15  C   UNL     1     -10.610  10.114  69.160  1.00  0.00    -0.224 C  
HETATM   16  C   UNL     1     -11.025  14.361  70.410  1.00  0.00     0.142 C  
HETATM   17  C   UNL     1      -9.815  11.503  68.598  1.00  0.00    -0.184 C  
HETATM   18  O   UNL     1     -11.518   9.669  68.137  1.00  0.00    -0.504 OA 
HETATM   19  H   UNL     1     -12.008  10.433  67.858  1.00  0.00     0.000 HD 
HETATM   20  C   UNL     1      -8.741  11.217  67.322  1.00  0.00    -0.139 C  
HETATM   21  C   UNL     1     -11.031  15.377  69.357  1.00  0.00    -0.276 C  
HETATM   22  C   UNL     1      -9.931  15.207  68.425  1.00  0.00    -0.222 C  
HETATM   23  C   UNL     1      -7.947  12.500  67.032  1.00  0.00    -0.086 C  
HETATM   24  C   UNL     1      -8.840  13.706  66.815  1.00  0.00    -0.133 C  
HETATM   25  C   UNL     1      -9.794  13.956  67.947  1.00  0.00    -0.228 C  
HETATM   26  F   UNL     1      -8.024  14.785  66.625  1.00  0.00    -0.183 F  
ENDROOT
BRANCH   5  27
HETATM   27  C   UNL     1     -10.170   7.261  67.564  1.00  0.00    -0.221 C  
HETATM   28  O   UNL     1     -10.872   6.824  68.491  1.00  0.00    -0.230 OA 
BRANCH  27  29
HETATM   29  C   UNL     1     -10.124   6.300  66.293  1.00  0.00     0.056 C  
BRANCH  29  30
HETATM   30  O   UNL     1     -10.172   4.844  66.748  1.00  0.00    -0.220 OA 
BRANCH  30  31
HETATM   31  C   UNL     1      -9.490   3.874  66.067  1.00  0.00    -0.180 C  
HETATM   32  C   UNL     1      -9.239   2.659  67.004  1.00  0.00    -0.142 C  
HETATM   33  O   UNL     1      -9.048   3.977  64.972  1.00  0.00    -0.126 OA 
ENDBRANCH  30  31
ENDBRANCH  29  30
ENDBRANCH  27  29
ENDBRANCH   5  27
TORSDOF 4
ENDMDL
MODEL       88
REMARK 921   NORMALIZED FREE ENERGY PREDICTED BY IDOCK:   -3.80 KCAL/MOL
REMARK 922        TOTAL FREE ENERGY PREDICTED BY IDOCK:   -4.49 KCAL/MOL
REMARK 923 INTER-LIGAND FREE ENERGY PREDICTED BY IDOCK:   -5.20 KCAL/MOL
REMARK 924 INTRA-LIGAND FREE ENERGY PREDICTED BY IDOCK:    0.71 KCAL/MOL
REMARK 927      BINDING AFFINITY PREDICTED BY RF-SCORE:    0.00 PKD
ROOT
HETATM    1  C   UNL     1     -11.148   8.003  69.722  1.00  0.00    -0.067 C  
HETATM    2  C   UNL     1     -11.379   7.967  71.098  1.00  0.00    -0.292 C  
HETATM    3  C   UNL     1     -10.105   8.645  70.692  1.00  0.00    -0.237 C  
HETATM    4  C   UNL     1      -9.617   8.797  72.300  1.00  0.00    -0.270 C  
HETATM    5  C   UNL     1      -9.992   9.149  68.678  1.00  0.00    -0.170 C  
HETATM    6  C   UNL     1      -7.106   5.656  67.886  1.00  0.00    -0.071 C  
HETATM    7  O   UNL     1     -11.161   8.890  67.763  1.00  0.00    -0.493 OA 
HETATM    8  C   UNL     1     -10.418   9.806  69.783  1.00  0.00    -0.278 C  
HETATM    9  C   UNL     1      -8.540   9.961  69.909  1.00  0.00    -0.216 C  
HETATM   10  H   UNL     1     -11.110   9.121  66.843  1.00  0.00     0.000 HD 
HETATM   11  C   UNL     1      -7.373   5.751  69.378  1.00  0.00    -0.071 C  
HETATM   12  C   UNL     1      -6.095   5.954  70.273  1.00  0.00    -0.026 C  
HETATM   13  C   UNL     1     -11.458  10.894  69.861  1.00  0.00    -0.402 C  
HETATM   14  O   UNL     1      -5.130   2.928  69.995  1.00  0.00    -0.003 OA 
HETATM   15  C   UNL     1      -7.722   8.493  69.316  1.00  0.00    -0.093 C  
HETATM   16  C   UNL     1      -5.664   4.966  71.076  1.00  0.00    -0.016 C  
HETATM   17  C   UNL     1      -8.320   6.950  69.689  1.00  0.00    -0.133 C  
HETATM   18  O   UNL     1      -7.647   8.615  67.885  1.00  0.00    -0.095 OA 
HETATM   19  H   UNL     1      -7.211   7.832  67.569  1.00  0.00     0.000 HD 
HETATM   20  C   UNL     1      -9.942   6.716  69.264  1.00  0.00    -0.171 C  
HETATM   21  C   UNL     1      -5.971   3.653  70.508  1.00  0.00    -0.018 C  
HETATM   22  C   UNL     1      -7.401   3.426  70.393  1.00  0.00    -0.041 C  
HETATM   23  C   UNL     1     -10.420   5.366  69.820  1.00  0.00    -0.378 C  
HETATM   24  C   UNL     1      -9.516   4.215  69.424  1.00  0.00    -0.190 C  
HETATM   25  C   UNL     1      -8.078   4.426  69.799  1.00  0.00    -0.061 C  
HETATM   26  F   UNL     1     -10.009   3.089  70.019  1.00  0.00    -0.165 F  
ENDROOT
BRANCH   5  27
HETATM   27  C   UNL     1      -9.640  10.594  67.645  1.00  0.00    -0.161 C  
HETATM   28  O   UNL     1     -10.121  10.762  66.511  1.00  0.00    -0.212 OA 
BRANCH  27  29
HETATM   29  C   UNL     1      -8.596  11.721  68.067  1.00  0.00    -0.158 C  
BRANCH  29  30
HETATM   30  O   UNL     1      -7.299  11.539  67.284  1.00  0.00    -0.114 OA 
BRANCH  30  31
HETATM   31  C   UNL     1      -6.280  12.445  67.396  1.00  0.00    -0.158 C  
HETATM   32  C   UNL     1      -6.759  13.666  68.232  1.00  0.00    -0.108 C  
HETATM   33  O   UNL     1      -5.232  12.379  66.847  1.00  0.00    -0.329 OA 
ENDBRANCH  30  31
ENDBRANCH  29  30
ENDBRANCH  27  29
ENDBRANCH   5  27
TORSDOF 4
ENDMDL
MODEL       89
REMARK 921   NORMALIZED FREE ENERGY PREDICTED BY IDOCK:   -3.78 KCAL/MOL
REMARK 922        TOTAL FREE ENERGY PREDICTED BY IDOCK:   -4.48 KCAL/MOL
REMARK 923 INTER-LIGAND FREE ENERGY PREDICTED BY IDOCK:   -5.01 KCAL/MOL
REMARK 924 INTRA-LIGAND FREE ENERGY PREDICTED BY IDOCK:    0.53 KCAL/MOL
REMARK 927      BINDING AFFINITY PREDICTED BY RF-SCORE:    0.00 PKD
ROOT
HETATM    1  C   UNL     1     -10.634   6.769  69.144  1.00  0.00    -0.261 C  
HETATM    2  C   UNL     1     -10.673   5.755  68.187  1.00  0.00    -0.288 C  
HETATM    3  C   UNL     1      -9.379   5.863  68.935  1.00  0.00    -0.139 C  
HETATM    4  C   UNL     1      -8.653   4.708  67.943  1.00  0.00    -0.106 C  
HETATM    5  C   UNL     1      -9.471   7.002  70.672  1.00  0.00    -0.165 C  
HETATM    6  C   UNL     1      -7.303  10.488  68.596  1.00  0.00    -0.091 C  
HETATM    7  O   UNL     1     -10.783   7.589  71.128  1.00  0.00    -0.225 OA 
HETATM    8  C   UNL     1      -9.631   5.683  70.410  1.00  0.00    -0.217 C  
HETATM    9  C   UNL     1      -7.753   5.881  70.402  1.00  0.00    -0.096 C  
HETATM   10  H   UNL     1     -10.825   8.109  71.922  1.00  0.00     0.000 HD 
HETATM   11  C   UNL     1      -7.341   9.296  67.655  1.00  0.00    -0.084 C  
HETATM   12  C   UNL     1      -5.934   8.783  67.171  1.00  0.00    -0.053 C  
HETATM   13  C   UNL     1     -10.468   4.689  71.174  1.00  0.00    -0.065 C  
HETATM   14  O   UNL     1      -5.500  11.189  65.124  1.00  0.00    -0.179 OA 
HETATM   15  C   UNL     1      -7.265   7.450  69.713  1.00  0.00    -0.081 C  
HETATM   16  C   UNL     1      -5.554   8.949  65.892  1.00  0.00    -0.045 C  
HETATM   17  C   UNL     1      -8.037   8.080  68.341  1.00  0.00    -0.122 C  
HETATM   18  O   UNL     1      -7.372   8.415  70.775  1.00  0.00    -0.052 OA 
HETATM   19  H   UNL     1      -7.112   9.252  70.408  1.00  0.00     0.000 HD 
HETATM   20  C   UNL     1      -9.719   8.203  68.490  1.00  0.00    -0.170 C  
HETATM   21  C   UNL     1      -6.138  10.164  65.322  1.00  0.00    -0.117 C  
HETATM   22  C   UNL     1      -7.588  10.099  65.262  1.00  0.00    -0.144 C  
HETATM   23  C   UNL     1     -10.318   8.598  67.131  1.00  0.00    -0.369 C  
HETATM   24  C   UNL     1      -9.669   9.834  66.540  1.00  0.00    -0.209 C  
HETATM   25  C   UNL     1      -8.177   9.723  66.412  1.00  0.00    -0.120 C  
HETATM   26  F   UNL     1     -10.242  10.049  65.320  1.00  0.00    -0.379 F  
ENDROOT
BRANCH   5  27
HETATM   27  C   UNL     1      -9.047   6.862  72.427  1.00  0.00    -0.133 C  
HETATM   28  O   UNL     1      -8.780   5.784  72.986  1.00  0.00    -0.124 OA 
BRANCH  27  29
HETATM   29  C   UNL     1      -9.086   8.104  73.424  1.00  0.00    -0.239 C  
BRANCH  29  30
HETATM   30  O   UNL     1      -7.941   7.994  74.427  1.00  0.00    -0.210 OA 
BRANCH  30  31
HETATM   31  C   UNL     1      -6.659   8.297  74.062  1.00  0.00    -0.127 C  
HETATM   32  C   UNL     1      -5.706   7.152  74.511  1.00  0.00    -0.070 C  
HETATM   33  O   UNL     1      -6.297   9.320  73.585  1.00  0.00    -0.324 OA 
ENDBRANCH  30  31
ENDBRANCH  29  30
ENDBRANCH  27  29
ENDBRANCH   5  27
TORSDOF 4
ENDMDL
MODEL       90
REMARK 921   NORMALIZED FREE ENERGY PREDICTED BY IDOCK:   -3.77 KCAL/MOL
REMARK 922        TOTAL FREE ENERGY PREDICTED BY IDOCK:   -4.45 KCAL/MOL
REMARK 923 INTER-LIGAND FREE ENERGY PREDICTED BY IDOCK:   -4.49 KCAL/MOL
REMARK 924 INTRA-LIGAND FREE ENERGY PREDICTED BY IDOCK:    0.03 KCAL/MOL
REMARK 927      BINDING AFFINITY PREDICTED BY RF-SCORE:    0.00 PKD
ROOT
HETATM    1  C   UNL     1     -10.061   6.200  67.926  1.00  0.00    -0.179 C  
HETATM    2  C   UNL     1     -10.467   5.391  66.864  1.00  0.00    -0.337 C  
HETATM    3  C   UNL     1      -9.022   5.257  67.240  1.00  0.00    -0.111 C  
HETATM    4  C   UNL     1      -8.720   4.258  65.914  1.00  0.00    -0.115 C  
HETATM    5  C   UNL     1      -8.530   6.050  69.097  1.00  0.00    -0.114 C  
HETATM    6  C   UNL     1      -6.544   9.689  67.103  1.00  0.00    -0.071 C  
HETATM    7  O   UNL     1      -9.599   6.639  69.981  1.00  0.00    -0.157 OA 
HETATM    8  C   UNL     1      -8.912   4.821  68.679  1.00  0.00    -0.136 C  
HETATM    9  C   UNL     1      -7.089   4.873  68.193  1.00  0.00    -0.062 C  
HETATM   10  H   UNL     1      -9.375   7.001  70.830  1.00  0.00     0.000 HD 
HETATM   11  C   UNL     1      -6.966   8.703  66.029  1.00  0.00    -0.079 C  
HETATM   12  C   UNL     1      -5.803   8.185  65.104  1.00  0.00    -0.045 C  
HETATM   13  C   UNL     1      -9.645   3.767  69.470  1.00  0.00    -0.230 C  
HETATM   14  O   UNL     1      -5.607  10.894  63.434  1.00  0.00    -0.103 OA 
HETATM   15  C   UNL     1      -6.600   6.502  67.661  1.00  0.00    -0.061 C  
HETATM   16  C   UNL     1      -5.742   8.561  63.814  1.00  0.00    -0.070 C  
HETATM   17  C   UNL     1      -7.611   7.437  66.671  1.00  0.00    -0.100 C  
HETATM   18  O   UNL     1      -6.315   7.254  68.854  1.00  0.00    -0.036 OA 
HETATM   19  H   UNL     1      -6.054   8.123  68.571  1.00  0.00     0.000 HD 
HETATM   20  C   UNL     1      -9.171   7.657  67.289  1.00  0.00    -0.154 C  
HETATM   21  C   UNL     1      -6.296   9.902  63.629  1.00  0.00    -0.125 C  
HETATM   22  C   UNL     1      -7.710   9.961  63.955  1.00  0.00    -0.141 C  
HETATM   23  C   UNL     1     -10.042   8.347  66.227  1.00  0.00    -0.136 C  
HETATM   24  C   UNL     1      -9.415   9.619  65.690  1.00  0.00    -0.255 C  
HETATM   25  C   UNL     1      -8.030   9.421  65.145  1.00  0.00    -0.116 C  
HETATM   26  F   UNL     1     -10.249  10.104  64.723  1.00  0.00    -0.405 F  
ENDROOT
BRANCH   5  27
HETATM   27  C   UNL     1      -7.695   5.549  70.624  1.00  0.00    -0.090 C  
HETATM   28  O   UNL     1      -6.704   4.798  70.652  1.00  0.00    -0.034 OA 
BRANCH  27  29
HETATM   29  C   UNL     1      -8.233   5.946  72.070  1.00  0.00    -0.112 C  
BRANCH  29  30
HETATM   30  O   UNL     1      -9.318   4.965  72.504  1.00  0.00    -0.133 OA 
BRANCH  30  31
HETATM   31  C   UNL     1     -10.503   5.413  73.018  1.00  0.00    -0.211 C  
HETATM   32  C   UNL     1     -11.262   4.229  73.683  1.00  0.00    -0.325 C  
HETATM   33  O   UNL     1     -10.950   6.502  72.881  1.00  0.00    -0.245 OA 
ENDBRANCH  30  31
ENDBRANCH  29  30
ENDBRANCH  27  29
ENDBRANCH   5  27
TORSDOF 4
ENDMDL
MODEL       91
REMARK 921   NORMALIZED FREE ENERGY PREDICTED BY IDOCK:   -3.70 KCAL/MOL
REMARK 922        TOTAL FREE ENERGY PREDICTED BY IDOCK:   -4.37 KCAL/MOL
REMARK 923 INTER-LIGAND FREE ENERGY PREDICTED BY IDOCK:   -4.53 KCAL/MOL
REMARK 924 INTRA-LIGAND FREE ENERGY PREDICTED BY IDOCK:    0.15 KCAL/MOL
REMARK 927      BINDING AFFINITY PREDICTED BY RF-SCORE:    0.00 PKD
ROOT
HETATM    1  C   UNL     1      -5.864  14.365  67.731  1.00  0.00    -0.093 C  
HETATM    2  C   UNL     1      -5.248  14.947  68.841  1.00  0.00    -0.092 C  
HETATM    3  C   UNL     1      -6.680  14.552  69.050  1.00  0.00    -0.105 C  
HETATM    4  C   UNL     1      -6.709  15.283  70.570  1.00  0.00     0.254 C  
HETATM    5  C   UNL     1      -7.443  13.255  67.616  1.00  0.00    -0.171 C  
HETATM    6  C   UNL     1      -9.812  16.682  65.665  1.00  0.00    -0.147 C  
HETATM    7  O   UNL     1      -6.557  12.732  66.515  1.00  0.00    -0.137 OA 
HETATM    8  C   UNL     1      -6.836  13.072  68.813  1.00  0.00    -0.102 C  
HETATM    9  C   UNL     1      -8.599  13.532  69.310  1.00  0.00     0.705 C  
HETATM   10  H   UNL     1      -6.906  12.139  65.860  1.00  0.00     0.000 HD 
HETATM   11  C   UNL     1      -9.151  17.194  66.932  1.00  0.00    -0.254 C  
HETATM   12  C   UNL     1     -10.137  17.787  68.006  1.00  0.00    -0.355 C  
HETATM   13  C   UNL     1      -6.013  11.889  69.254  1.00  0.00    -0.079 C  
HETATM   14  O   UNL     1     -10.623  20.501  66.406  1.00  0.00    -0.093 OA 
HETATM   15  C   UNL     1      -9.295  14.743  68.204  1.00  0.00    -0.197 C  
HETATM   16  C   UNL     1     -10.150  19.106  68.261  1.00  0.00    -0.499 C  
HETATM   17  C   UNL     1      -8.368  16.047  67.643  1.00  0.00    -0.164 C  
HETATM   18  O   UNL     1      -9.794  14.020  67.065  1.00  0.00    -0.248 OA 
HETATM   19  H   UNL     1     -10.165  14.665  66.475  1.00  0.00     0.000 HD 
HETATM   20  C   UNL     1      -6.919  15.594  66.895  1.00  0.00     0.081 C  
HETATM   21  C   UNL     1      -9.804  19.877  67.067  1.00  0.00    -0.411 C  
HETATM   22  C   UNL     1      -8.449  19.611  66.617  1.00  0.00    -0.356 C  
HETATM   23  C   UNL     1      -6.085  16.852  66.606  1.00  0.00    -0.186 C  
HETATM   24  C   UNL     1      -6.859  17.907  65.840  1.00  0.00    -0.280 C  
HETATM   25  C   UNL     1      -8.146  18.305  66.504  1.00  0.00    -0.293 C  
HETATM   26  F   UNL     1      -6.037  18.988  65.696  1.00  0.00    -0.189 F  
ENDROOT
BRANCH   5  27
HETATM   27  C   UNL     1      -8.310  11.668  67.527  1.00  0.00    -0.151 C  
HETATM   28  O   UNL     1      -9.298  11.383  68.226  1.00  0.00    -0.174 OA 
BRANCH  27  29
HETATM   29  C   UNL     1      -7.807  10.462  66.615  1.00  0.00    -0.120 C  
BRANCH  29  30
HETATM   30  O   UNL     1      -8.348  10.627  65.198  1.00  0.00    -0.168 OA 
BRANCH  30  31
HETATM   31  C   UNL     1      -9.150   9.672  64.638  1.00  0.00    -0.235 C  
HETATM   32  C   UNL     1      -9.659   8.705  65.746  1.00  0.00    -0.134 C  
HETATM   33  O   UNL     1      -9.339   9.519  63.478  1.00  0.00    -0.138 OA 
ENDBRANCH  30  31
ENDBRANCH  29  30
ENDBRANCH  27  29
ENDBRANCH   5  27
TORSDOF 4
ENDMDL
MODEL       92
REMARK 921   NORMALIZED FREE ENERGY PREDICTED BY IDOCK:   -3.59 KCAL/MOL
REMARK 922        TOTAL FREE ENERGY PREDICTED BY IDOCK:   -4.24 KCAL/MOL
REMARK 923 INTER-LIGAND FREE ENERGY PREDICTED BY IDOCK:   -4.96 KCAL/MOL
REMARK 924 INTRA-LIGAND FREE ENERGY PREDICTED BY IDOCK:    0.73 KCAL/MOL
REMARK 927      BINDING AFFINITY PREDICTED BY RF-SCORE:    0.00 PKD
ROOT
HETATM    1  C   UNL     1      -8.041   6.365  70.552  1.00  0.00    -0.117 C  
HETATM    2  C   UNL     1      -6.840   6.901  71.019  1.00  0.00    -0.058 C  
HETATM    3  C   UNL     1      -8.072   7.610  71.495  1.00  0.00    -0.102 C  
HETATM    4  C   UNL     1      -7.151   8.827  72.215  1.00  0.00     0.022 C  
HETATM    5  C   UNL     1      -9.841   6.549  71.235  1.00  0.00    -0.181 C  
HETATM    6  C   UNL     1     -11.008   9.217  67.674  1.00  0.00    -0.024 C  
HETATM    7  O   UNL     1      -9.815   5.152  70.670  1.00  0.00    -0.177 OA 
HETATM    8  C   UNL     1      -8.950   6.645  72.251  1.00  0.00    -0.134 C  
HETATM    9  C   UNL     1      -9.951   8.236  72.428  1.00  0.00    -0.379 C  
HETATM   10  H   UNL     1     -10.623   4.667  70.552  1.00  0.00     0.000 HD 
HETATM   11  C   UNL     1      -9.736   9.757  68.304  1.00  0.00    -0.160 C  
HETATM   12  C   UNL     1      -9.823  11.245  68.809  1.00  0.00    -0.194 C  
HETATM   13  C   UNL     1      -8.637   5.609  73.300  1.00  0.00    -0.116 C  
HETATM   14  O   UNL     1      -9.660  12.497  65.882  1.00  0.00    -0.240 OA 
HETATM   15  C   UNL     1     -10.420   8.894  70.840  1.00  0.00    -0.236 C  
HETATM   16  C   UNL     1      -9.145  12.218  68.176  1.00  0.00    -0.196 C  
HETATM   17  C   UNL     1      -9.330   8.898  69.541  1.00  0.00    -0.155 C  
HETATM   18  O   UNL     1     -11.603   8.183  70.435  1.00  0.00    -0.436 OA 
HETATM   19  H   UNL     1     -11.854   8.533  69.588  1.00  0.00     0.000 HD 
HETATM   20  C   UNL     1      -8.680   7.379  69.179  1.00  0.00    -0.136 C  
HETATM   21  C   UNL     1      -9.013  11.926  66.749  1.00  0.00    -0.196 C  
HETATM   22  C   UNL     1      -8.233  10.726  66.505  1.00  0.00    -0.148 C  
HETATM   23  C   UNL     1      -7.574   7.540  68.124  1.00  0.00    -0.114 C  
HETATM   24  C   UNL     1      -8.036   8.310  66.902  1.00  0.00    -0.103 C  
HETATM   25  C   UNL     1      -8.616   9.656  67.226  1.00  0.00    -0.132 C  
HETATM   26  F   UNL     1      -6.960   8.435  66.072  1.00  0.00    -0.061 F  
ENDROOT
BRANCH   5  27
HETATM   27  C   UNL     1     -11.273   6.014  72.206  1.00  0.00    -0.293 C  
HETATM   28  O   UNL     1     -12.383   6.572  72.159  1.00  0.00    -0.297 OA 
BRANCH  27  29
HETATM   29  C   UNL     1     -11.194   4.843  73.284  1.00  0.00    -0.345 C  
BRANCH  29  30
HETATM   30  O   UNL     1     -11.275   3.491  72.582  1.00  0.00     0.169 OA 
BRANCH  30  31
HETATM   31  C   UNL     1     -10.310   2.542  72.778  1.00  0.00    -0.157 C  
HETATM   32  C   UNL     1     -10.248   2.168  74.286  1.00  0.00    -0.171 C  
HETATM   33  O   UNL     1      -9.553   2.144  71.957  1.00  0.00    -0.097 OA 
ENDBRANCH  30  31
ENDBRANCH  29  30
ENDBRANCH  27  29
ENDBRANCH   5  27
TORSDOF 4
ENDMDL
MODEL       93
REMARK 921   NORMALIZED FREE ENERGY PREDICTED BY IDOCK:   -3.56 KCAL/MOL
REMARK 922        TOTAL FREE ENERGY PREDICTED BY IDOCK:   -4.21 KCAL/MOL
REMARK 923 INTER-LIGAND FREE ENERGY PREDICTED BY IDOCK:   -4.51 KCAL/MOL
REMARK 924 INTRA-LIGAND FREE ENERGY PREDICTED BY IDOCK:    0.31 KCAL/MOL
REMARK 927      BINDING AFFINITY PREDICTED BY RF-SCORE:    0.00 PKD
ROOT
HETATM    1  C   UNL     1      -8.468  12.859  69.310  1.00  0.00     0.871 C  
HETATM    2  C   UNL     1      -7.087  13.062  69.343  1.00  0.00     0.179 C  
HETATM    3  C   UNL     1      -7.758  13.502  68.076  1.00  0.00    -0.143 C  
HETATM    4  C   UNL     1      -6.272  13.833  67.348  1.00  0.00     0.130 C  
HETATM    5  C   UNL     1      -9.826  13.676  68.202  1.00  0.00    -0.236 C  
HETATM    6  C   UNL     1     -10.376   9.764  65.845  1.00  0.00    -0.148 C  
HETATM    7  O   UNL     1     -10.532  13.432  69.511  1.00  0.00    -0.410 OA 
HETATM    8  C   UNL     1      -8.802  14.542  68.392  1.00  0.00    -0.180 C  
HETATM    9  C   UNL     1      -8.941  14.473  66.511  1.00  0.00    -0.211 C  
HETATM   10  H   UNL     1     -11.476  13.512  69.569  1.00  0.00     0.000 HD 
HETATM   11  C   UNL     1      -8.899  10.117  65.884  1.00  0.00    -0.167 C  
HETATM   12  C   UNL     1      -8.218  10.290  64.475  1.00  0.00    -0.158 C  
HETATM   13  C   UNL     1      -8.779  15.753  69.290  1.00  0.00    -0.261 C  
HETATM   14  O   UNL     1      -8.103   7.158  63.886  1.00  0.00    -0.105 OA 
HETATM   15  C   UNL     1      -9.376  12.841  65.946  1.00  0.00     0.017 C  
HETATM   16  C   UNL     1      -7.320   9.388  64.040  1.00  0.00    -0.105 C  
HETATM   17  C   UNL     1      -8.678  11.461  66.644  1.00  0.00    -0.178 C  
HETATM   18  O   UNL     1     -10.805  12.733  66.066  1.00  0.00    -0.270 OA 
HETATM   19  H   UNL     1     -11.038  11.862  65.765  1.00  0.00     0.000 HD 
HETATM   20  C   UNL     1      -8.851  11.374  68.325  1.00  0.00    -0.167 C  
HETATM   21  C   UNL     1      -7.618   8.055  64.563  1.00  0.00    -0.114 C  
HETATM   22  C   UNL     1      -7.513   7.997  66.010  1.00  0.00    -0.077 C  
HETATM   23  C   UNL     1      -8.021  10.196  68.858  1.00  0.00    -0.110 C  
HETATM   24  C   UNL     1      -8.329   8.892  68.147  1.00  0.00    -0.125 C  
HETATM   25  C   UNL     1      -8.177   8.973  66.656  1.00  0.00    -0.118 C  
HETATM   26  F   UNL     1      -7.496   7.942  68.665  1.00  0.00    -0.088 F  
ENDROOT
BRANCH   5  27
HETATM   27  C   UNL     1     -11.123  14.890  67.852  1.00  0.00    -0.298 C  
HETATM   28  O   UNL     1     -11.133  15.613  66.841  1.00  0.00    -0.287 OA 
BRANCH  27  29
HETATM   29  C   UNL     1     -12.305  15.206  68.873  1.00  0.00     0.014 C  
BRANCH  29  30
HETATM   30  O   UNL     1     -11.771  16.029  70.041  1.00  0.00    -0.330 OA 
BRANCH  30  31
HETATM   31  C   UNL     1     -12.222  15.814  71.314  1.00  0.00    -0.438 C  
HETATM   32  C   UNL     1     -13.715  15.380  71.269  1.00  0.00    -0.558 C  
HETATM   33  O   UNL     1     -11.619  16.035  72.310  1.00  0.00    -0.440 OA 
ENDBRANCH  30  31
ENDBRANCH  29  30
ENDBRANCH  27  29
ENDBRANCH   5  27
TORSDOF 4
ENDMDL
MODEL       94
REMARK 921   NORMALIZED FREE ENERGY PREDICTED BY IDOCK:   -3.45 KCAL/MOL
REMARK 922        TOTAL FREE ENERGY PREDICTED BY IDOCK:   -4.07 KCAL/MOL
REMARK 923 INTER-LIGAND FREE ENERGY PREDICTED BY IDOCK:   -5.17 KCAL/MOL
REMARK 924 INTRA-LIGAND FREE ENERGY PREDICTED BY IDOCK:    1.10 KCAL/MOL
REMARK 927      BINDING AFFINITY PREDICTED BY RF-SCORE:    0.00 PKD
ROOT
HETATM    1  C   UNL     1     -10.496   5.317  67.399  1.00  0.00    -0.213 C  
HETATM    2  C   UNL     1     -10.809   6.588  66.914  1.00  0.00    -0.427 C  
HETATM    3  C   UNL     1      -9.347   6.344  67.140  1.00  0.00    -0.133 C  
HETATM    4  C   UNL     1      -8.978   7.957  66.808  1.00  0.00    -0.169 C  
HETATM    5  C   UNL     1      -8.825   4.345  67.369  1.00  0.00    -0.108 C  
HETATM    6  C   UNL     1      -8.314   4.918  71.905  1.00  0.00    -0.119 C  
HETATM    7  O   UNL     1      -9.869   3.266  67.238  1.00  0.00    -0.336 OA 
HETATM    8  C   UNL     1      -8.895   5.176  66.302  1.00  0.00    -0.124 C  
HETATM    9  C   UNL     1      -7.263   5.676  67.109  1.00  0.00    -0.075 C  
HETATM   10  H   UNL     1      -9.631   2.352  67.342  1.00  0.00     0.000 HD 
HETATM   11  C   UNL     1      -8.594   6.265  71.262  1.00  0.00    -0.124 C  
HETATM   12  C   UNL     1      -7.488   7.359  71.500  1.00  0.00    -0.080 C  
HETATM   13  C   UNL     1      -9.158   4.805  64.865  1.00  0.00    -0.141 C  
HETATM   14  O   UNL     1      -8.348   7.909  74.521  1.00  0.00    -0.225 OA 
HETATM   15  C   UNL     1      -7.356   5.583  68.886  1.00  0.00    -0.081 C  
HETATM   16  C   UNL     1      -7.739   8.418  72.290  1.00  0.00    -0.153 C  
HETATM   17  C   UNL     1      -8.736   6.115  69.717  1.00  0.00    -0.135 C  
HETATM   18  O   UNL     1      -7.121   4.207  69.237  1.00  0.00    -0.049 OA 
HETATM   19  H   UNL     1      -7.170   4.157  70.184  1.00  0.00     0.000 HD 
HETATM   20  C   UNL     1     -10.177   5.401  69.191  1.00  0.00    -0.302 C  
HETATM   21  C   UNL     1      -8.680   8.070  73.354  1.00  0.00    -0.259 C  
HETATM   22  C   UNL     1      -9.983   7.693  72.834  1.00  0.00    -0.319 C  
HETATM   23  C   UNL     1     -11.364   6.096  69.876  1.00  0.00    -0.454 C  
HETATM   24  C   UNL     1     -11.225   6.146  71.385  1.00  0.00    -0.287 C  
HETATM   25  C   UNL     1      -9.944   6.777  71.848  1.00  0.00    -0.187 C  
HETATM   26  F   UNL     1     -12.302   6.831  71.869  1.00  0.00    -0.345 F  
ENDROOT
BRANCH   5  27
HETATM   27  C   UNL     1      -7.655   3.147  66.680  1.00  0.00    -0.076 C  
HETATM   28  O   UNL     1      -6.517   2.953  67.142  1.00  0.00    -0.035 OA 
BRANCH  27  29
HETATM   29  C   UNL     1      -7.953   2.316  65.354  1.00  0.00    -0.078 C  
BRANCH  29  30
HETATM   30  O   UNL     1      -6.920   2.664  64.286  1.00  0.00    -0.042 OA 
BRANCH  30  31
HETATM   31  C   UNL     1      -6.886   1.988  63.098  1.00  0.00    -0.026 C  
HETATM   32  C   UNL     1      -8.338   1.683  62.631  1.00  0.00    -0.061 C  
HETATM   33  O   UNL     1      -5.910   1.586  62.558  1.00  0.00    -0.007 OA 
ENDBRANCH  30  31
ENDBRANCH  29  30
ENDBRANCH  27  29
ENDBRANCH   5  27
TORSDOF 4
ENDMDL
MODEL       95
REMARK 921   NORMALIZED FREE ENERGY PREDICTED BY IDOCK:   -3.45 KCAL/MOL
REMARK 922        TOTAL FREE ENERGY PREDICTED BY IDOCK:   -4.07 KCAL/MOL
REMARK 923 INTER-LIGAND FREE ENERGY PREDICTED BY IDOCK:   -5.03 KCAL/MOL
REMARK 924 INTRA-LIGAND FREE ENERGY PREDICTED BY IDOCK:    0.97 KCAL/MOL
REMARK 927      BINDING AFFINITY PREDICTED BY RF-SCORE:    0.00 PKD
ROOT
HETATM    1  C   UNL     1      -6.363   7.878  68.898  1.00  0.00    -0.040 C  
HETATM    2  C   UNL     1      -5.485   8.951  69.061  1.00  0.00    -0.036 C  
HETATM    3  C   UNL     1      -6.762   9.059  69.839  1.00  0.00    -0.046 C  
HETATM    4  C   UNL     1      -6.386  10.630  70.328  1.00  0.00    -0.141 C  
HETATM    5  C   UNL     1      -7.831   7.284  70.008  1.00  0.00    -0.111 C  
HETATM    6  C   UNL     1     -10.886   8.736  66.890  1.00  0.00     0.019 C  
HETATM    7  O   UNL     1      -7.279   6.006  69.432  1.00  0.00    -0.070 OA 
HETATM    8  C   UNL     1      -6.887   7.883  70.773  1.00  0.00    -0.041 C  
HETATM    9  C   UNL     1      -8.449   8.845  71.218  1.00  0.00    -0.239 C  
HETATM   10  H   UNL     1      -7.767   5.195  69.510  1.00  0.00     0.000 HD 
HETATM   11  C   UNL     1      -9.913   9.862  67.194  1.00  0.00    -0.252 C  
HETATM   12  C   UNL     1     -10.573  11.187  67.729  1.00  0.00    -0.248 C  
HETATM   13  C   UNL     1      -5.896   7.219  71.695  1.00  0.00    -0.037 C  
HETATM   14  O   UNL     1     -11.684  12.065  64.872  1.00  0.00    -0.324 OA 
HETATM   15  C   UNL     1      -9.517   9.047  69.807  1.00  0.00    -0.175 C  
HETATM   16  C   UNL     1     -10.595  12.292  66.963  1.00  0.00    -0.248 C  
HETATM   17  C   UNL     1      -8.883   9.417  68.278  1.00  0.00    -0.128 C  
HETATM   18  O   UNL     1     -10.283   7.834  69.695  1.00  0.00    -0.196 OA 
HETATM   19  H   UNL     1     -10.853   7.941  68.943  1.00  0.00     0.000 HD 
HETATM   20  C   UNL     1      -7.695   8.338  67.742  1.00  0.00    -0.103 C  
HETATM   21  C   UNL     1     -10.667  11.947  65.543  1.00  0.00    -0.283 C  
HETATM   22  C   UNL     1      -9.492  11.222  65.094  1.00  0.00    -0.242 C  
HETATM   23  C   UNL     1      -7.066   8.880  66.449  1.00  0.00    -0.083 C  
HETATM   24  C   UNL     1      -8.098   9.221  65.392  1.00  0.00    -0.122 C  
HETATM   25  C   UNL     1      -9.153  10.176  65.871  1.00  0.00    -0.190 C  
HETATM   26  F   UNL     1      -7.426   9.741  64.323  1.00  0.00    -0.111 F  
ENDROOT
BRANCH   5  27
HETATM   27  C   UNL     1      -8.582   6.254  71.294  1.00  0.00    -0.124 C  
HETATM   28  O   UNL     1      -8.881   5.059  71.131  1.00  0.00    -0.125 OA 
BRANCH  27  29
HETATM   29  C   UNL     1      -9.020   6.831  72.714  1.00  0.00    -0.127 C  
BRANCH  29  30
HETATM   30  O   UNL     1     -10.492   7.229  72.675  1.00  0.00    -0.212 OA 
BRANCH  30  31
HETATM   31  C   UNL     1     -11.459   6.312  72.368  1.00  0.00    -0.293 C  
HETATM   32  C   UNL     1     -11.316   5.075  73.300  1.00  0.00    -0.393 C  
HETATM   33  O   UNL     1     -12.216   6.381  71.459  1.00  0.00    -0.312 OA 
ENDBRANCH  30  31
ENDBRANCH  29  30
ENDBRANCH  27  29
ENDBRANCH   5  27
TORSDOF 4
ENDMDL
MODEL       96
REMARK 921   NORMALIZED FREE ENERGY PREDICTED BY IDOCK:   -3.44 KCAL/MOL
REMARK 922        TOTAL FREE ENERGY PREDICTED BY IDOCK:   -4.05 KCAL/MOL
REMARK 923 INTER-LIGAND FREE ENERGY PREDICTED BY IDOCK:   -4.20 KCAL/MOL
REMARK 924 INTRA-LIGAND FREE ENERGY PREDICTED BY IDOCK:    0.15 KCAL/MOL
REMARK 927      BINDING AFFINITY PREDICTED BY RF-SCORE:    0.00 PKD
ROOT
HETATM    1  C   UNL     1     -10.371   8.875  67.769  1.00  0.00    -0.301 C  
HETATM    2  C   UNL     1     -10.579   8.566  69.114  1.00  0.00    -0.188 C  
HETATM    3  C   UNL     1      -9.210   9.085  68.793  1.00  0.00    -0.133 C  
HETATM    4  C   UNL     1      -8.672   8.775  70.362  1.00  0.00    -0.181 C  
HETATM    5  C   UNL     1      -9.044  10.010  66.938  1.00  0.00    -0.139 C  
HETATM    6  C   UNL     1      -6.866   6.341  65.217  1.00  0.00    -0.048 C  
HETATM    7  O   UNL     1     -10.257  10.177  66.060  1.00  0.00    -0.252 OA 
HETATM    8  C   UNL     1      -9.320  10.460  68.185  1.00  0.00    -0.149 C  
HETATM    9  C   UNL     1      -7.445  10.250  68.228  1.00  0.00    -0.086 C  
HETATM   10  H   UNL     1     -10.182  10.600  65.213  1.00  0.00     0.000 HD 
HETATM   11  C   UNL     1      -7.084   6.137  66.706  1.00  0.00    -0.073 C  
HETATM   12  C   UNL     1      -5.773   5.902  67.545  1.00  0.00    -0.016 C  
HETATM   13  C   UNL     1     -10.141  11.666  68.566  1.00  0.00    -0.210 C  
HETATM   14  O   UNL     1      -5.388   2.900  66.543  1.00  0.00    -0.014 OA 
HETATM   15  C   UNL     1      -6.922   8.838  67.277  1.00  0.00    -0.075 C  
HETATM   16  C   UNL     1      -5.517   4.696  68.081  1.00  0.00    -0.016 C  
HETATM   17  C   UNL     1      -7.787   7.379  67.332  1.00  0.00    -0.111 C  
HETATM   18  O   UNL     1      -6.853   9.269  65.906  1.00  0.00    -0.085 OA 
HETATM   19  H   UNL     1      -6.575   8.516  65.398  1.00  0.00     0.000 HD 
HETATM   20  C   UNL     1      -9.432   7.537  66.964  1.00  0.00    -0.206 C  
HETATM   21  C   UNL     1      -6.071   3.624  67.255  1.00  0.00    -0.028 C  
HETATM   22  C   UNL     1      -7.520   3.683  67.179  1.00  0.00    -0.071 C  
HETATM   23  C   UNL     1     -10.140   6.200  67.234  1.00  0.00    -0.202 C  
HETATM   24  C   UNL     1      -9.471   5.031  66.538  1.00  0.00    -0.149 C  
HETATM   25  C   UNL     1      -8.012   4.895  66.864  1.00  0.00    -0.103 C  
HETATM   26  F   UNL     1     -10.152   3.903  66.897  1.00  0.00    -0.230 F  
ENDROOT
BRANCH   5  27
HETATM   27  C   UNL     1      -8.451  11.568  66.233  1.00  0.00    -0.108 C  
HETATM   28  O   UNL     1      -7.561  12.264  66.752  1.00  0.00    -0.046 OA 
BRANCH  27  29
HETATM   29  C   UNL     1      -9.102  12.231  64.938  1.00  0.00     0.654 C  
BRANCH  29  30
HETATM   30  O   UNL     1     -10.345  13.022  65.334  1.00  0.00    -0.291 OA 
BRANCH  30  31
HETATM   31  C   UNL     1     -11.438  13.068  64.513  1.00  0.00    -0.347 C  
HETATM   32  C   UNL     1     -12.648  13.661  65.291  1.00  0.00    -0.512 C  
HETATM   33  O   UNL     1     -11.501  12.619  63.418  1.00  0.00    -0.487 OA 
ENDBRANCH  30  31
ENDBRANCH  29  30
ENDBRANCH  27  29
ENDBRANCH   5  27
TORSDOF 4
ENDMDL
MODEL       97
REMARK 921   NORMALIZED FREE ENERGY PREDICTED BY IDOCK:   -3.43 KCAL/MOL
REMARK 922        TOTAL FREE ENERGY PREDICTED BY IDOCK:   -4.04 KCAL/MOL
REMARK 923 INTER-LIGAND FREE ENERGY PREDICTED BY IDOCK:   -4.26 KCAL/MOL
REMARK 924 INTRA-LIGAND FREE ENERGY PREDICTED BY IDOCK:    0.23 KCAL/MOL
REMARK 927      BINDING AFFINITY PREDICTED BY RF-SCORE:    0.00 PKD
ROOT
HETATM    1  C   UNL     1      -9.191   8.397  68.987  1.00  0.00    -0.147 C  
HETATM    2  C   UNL     1      -9.841   8.468  67.754  1.00  0.00    -0.218 C  
HETATM    3  C   UNL     1     -10.337   7.385  68.665  1.00  0.00    -0.215 C  
HETATM    4  C   UNL     1     -11.336   6.760  67.457  1.00  0.00    -0.064 C  
HETATM    5  C   UNL     1      -9.750   7.582  70.649  1.00  0.00    -0.175 C  
HETATM    6  C   UNL     1      -6.643   4.227  70.144  1.00  0.00    -0.033 C  
HETATM    7  O   UNL     1      -8.946   8.779  71.090  1.00  0.00    -0.182 OA 
HETATM    8  C   UNL     1     -10.834   7.995  69.951  1.00  0.00    -0.217 C  
HETATM    9  C   UNL     1     -11.213   6.172  70.263  1.00  0.00    -0.439 C  
HETATM   10  H   UNL     1      -8.678   8.869  71.997  1.00  0.00     0.000 HD 
HETATM   11  C   UNL     1      -7.460   4.344  68.869  1.00  0.00    -0.056 C  
HETATM   12  C   UNL     1      -8.216   3.032  68.439  1.00  0.00    -0.079 C  
HETATM   13  C   UNL     1     -11.701   9.197  70.226  1.00  0.00    -0.047 C  
HETATM   14  O   UNL     1      -5.584   1.583  67.372  1.00  0.00    -0.016 OA 
HETATM   15  C   UNL     1      -9.737   5.177  70.199  1.00  0.00    -0.204 C  
HETATM   16  C   UNL     1      -7.825   2.349  67.349  1.00  0.00    -0.065 C  
HETATM   17  C   UNL     1      -8.551   5.448  69.017  1.00  0.00    -0.102 C  
HETATM   18  O   UNL     1      -9.117   5.280  71.493  1.00  0.00    -0.142 OA 
HETATM   19  H   UNL     1      -8.330   4.749  71.460  1.00  0.00     0.000 HD 
HETATM   20  C   UNL     1      -7.976   7.039  68.969  1.00  0.00    -0.116 C  
HETATM   21  C   UNL     1      -6.384   2.478  67.135  1.00  0.00    -0.032 C  
HETATM   22  C   UNL     1      -5.991   3.849  66.861  1.00  0.00    -0.024 C  
HETATM   23  C   UNL     1      -7.060   7.208  67.747  1.00  0.00    -0.085 C  
HETATM   24  C   UNL     1      -5.963   6.163  67.687  1.00  0.00    -0.017 C  
HETATM   25  C   UNL     1      -6.476   4.753  67.733  1.00  0.00    -0.045 C  
HETATM   26  F   UNL     1      -5.257   6.381  66.538  1.00  0.00    -0.011 F  
ENDROOT
BRANCH   5  27
HETATM   27  C   UNL     1     -10.490   7.605  72.301  1.00  0.00    -0.237 C  
HETATM   28  O   UNL     1     -11.707   7.754  72.508  1.00  0.00    -0.344 OA 
BRANCH  27  29
HETATM   29  C   UNL     1      -9.621   7.543  73.636  1.00  0.00    -0.293 C  
BRANCH  29  30
HETATM   30  O   UNL     1      -8.185   7.155  73.297  1.00  0.00    -0.105 OA 
BRANCH  30  31
HETATM   31  C   UNL     1      -7.131   7.893  73.762  1.00  0.00    -0.126 C  
HETATM   32  C   UNL     1      -6.136   6.963  74.513  1.00  0.00    -0.072 C  
HETATM   33  O   UNL     1      -7.037   9.073  73.712  1.00  0.00    -0.356 OA 
ENDBRANCH  30  31
ENDBRANCH  29  30
ENDBRANCH  27  29
ENDBRANCH   5  27
TORSDOF 4
ENDMDL
MODEL       98
REMARK 921   NORMALIZED FREE ENERGY PREDICTED BY IDOCK:   -3.39 KCAL/MOL
REMARK 922        TOTAL FREE ENERGY PREDICTED BY IDOCK:   -3.99 KCAL/MOL
REMARK 923 INTER-LIGAND FREE ENERGY PREDICTED BY IDOCK:   -4.41 KCAL/MOL
REMARK 924 INTRA-LIGAND FREE ENERGY PREDICTED BY IDOCK:    0.42 KCAL/MOL
REMARK 927      BINDING AFFINITY PREDICTED BY RF-SCORE:    0.00 PKD
ROOT
HETATM    1  C   UNL     1     -10.577   7.006  68.626  1.00  0.00    -0.238 C  
HETATM    2  C   UNL     1     -11.239   6.059  69.408  1.00  0.00    -0.397 C  
HETATM    3  C   UNL     1      -9.799   6.272  69.764  1.00  0.00    -0.195 C  
HETATM    4  C   UNL     1      -9.832   4.994  70.865  1.00  0.00    -0.274 C  
HETATM    5  C   UNL     1      -8.954   7.999  68.972  1.00  0.00    -0.145 C  
HETATM    6  C   UNL     1      -6.678   5.534  65.824  1.00  0.00    -0.056 C  
HETATM    7  O   UNL     1      -9.794   8.957  68.168  1.00  0.00    -0.157 OA 
HETATM    8  C   UNL     1      -9.579   7.715  70.139  1.00  0.00    -0.168 C  
HETATM    9  C   UNL     1      -7.847   7.017  70.419  1.00  0.00    -0.108 C  
HETATM   10  H   UNL     1      -9.408   9.746  67.806  1.00  0.00     0.000 HD 
HETATM   11  C   UNL     1      -7.387   4.588  66.778  1.00  0.00    -0.081 C  
HETATM   12  C   UNL     1      -6.448   3.573  67.530  1.00  0.00    -0.037 C  
HETATM   13  C   UNL     1     -10.365   8.659  71.013  1.00  0.00    -0.275 C  
HETATM   14  O   UNL     1      -6.033   1.704  64.980  1.00  0.00    -0.016 OA 
HETATM   15  C   UNL     1      -7.174   6.319  68.925  1.00  0.00    -0.084 C  
HETATM   16  C   UNL     1      -6.492   2.262  67.236  1.00  0.00    -0.032 C  
HETATM   17  C   UNL     1      -8.140   5.390  67.884  1.00  0.00    -0.100 C  
HETATM   18  O   UNL     1      -6.623   7.413  68.172  1.00  0.00    -0.047 OA 
HETATM   19  H   UNL     1      -6.265   7.041  67.375  1.00  0.00     0.000 HD 
HETATM   20  C   UNL     1      -9.553   6.168  67.373  1.00  0.00    -0.122 C  
HETATM   21  C   UNL     1      -6.842   2.048  65.832  1.00  0.00    -0.039 C  
HETATM   22  C   UNL     1      -8.175   2.532  65.519  1.00  0.00    -0.086 C  
HETATM   23  C   UNL     1     -10.429   5.169  66.601  1.00  0.00    -0.328 C  
HETATM   24  C   UNL     1      -9.679   4.474  65.482  1.00  0.00    -0.195 C  
HETATM   25  C   UNL     1      -8.425   3.787  65.937  1.00  0.00    -0.110 C  
HETATM   26  F   UNL     1     -10.540   3.579  64.913  1.00  0.00    -0.090 F  
ENDROOT
BRANCH   5  27
HETATM   27  C   UNL     1      -8.024   9.449  69.529  1.00  0.00    -0.098 C  
HETATM   28  O   UNL     1      -7.935   9.793  70.720  1.00  0.00    -0.288 OA 
BRANCH  27  29
HETATM   29  C   UNL     1      -7.329  10.467  68.519  1.00  0.00    -0.088 C  
BRANCH  29  30
HETATM   30  O   UNL     1      -7.376   9.900  67.103  1.00  0.00    -0.090 OA 
BRANCH  30  31
HETATM   31  C   UNL     1      -8.223  10.422  66.166  1.00  0.00    -0.144 C  
HETATM   32  C   UNL     1      -8.118   9.597  64.852  1.00  0.00    -0.133 C  
HETATM   33  O   UNL     1      -8.855  11.419  66.282  1.00  0.00    -0.191 OA 
ENDBRANCH  30  31
ENDBRANCH  29  30
ENDBRANCH  27  29
ENDBRANCH   5  27
TORSDOF 4
ENDMDL
MODEL       99
REMARK 921   NORMALIZED FREE ENERGY PREDICTED BY IDOCK:   -3.35 KCAL/MOL
REMARK 922        TOTAL FREE ENERGY PREDICTED BY IDOCK:   -3.94 KCAL/MOL
REMARK 923 INTER-LIGAND FREE ENERGY PREDICTED BY IDOCK:   -4.78 KCAL/MOL
REMARK 924 INTRA-LIGAND FREE ENERGY PREDICTED BY IDOCK:    0.84 KCAL/MOL
REMARK 927      BINDING AFFINITY PREDICTED BY RF-SCORE:    0.00 PKD
ROOT
HETATM    1  C   UNL     1     -10.909   8.396  69.003  1.00  0.00    -0.015 C  
HETATM    2  C   UNL     1     -10.680   9.464  69.872  1.00  0.00    -0.258 C  
HETATM    3  C   UNL     1      -9.441   8.842  69.300  1.00  0.00    -0.161 C  
HETATM    4  C   UNL     1      -8.453   9.787  70.288  1.00  0.00    -0.163 C  
HETATM    5  C   UNL     1      -9.765   7.616  67.652  1.00  0.00    -0.152 C  
HETATM    6  C   UNL     1      -9.145   3.856  70.230  1.00  0.00    -0.189 C  
HETATM    7  O   UNL     1     -11.151   7.460  67.081  1.00  0.00    -0.557 OA 
HETATM    8  C   UNL     1      -9.479   8.932  67.796  1.00  0.00    -0.163 C  
HETATM    9  C   UNL     1      -7.797   8.113  68.052  1.00  0.00    -0.122 C  
HETATM   10  H   UNL     1     -11.300   6.900  66.328  1.00  0.00     0.000 HD 
HETATM   11  C   UNL     1      -8.852   5.088  71.069  1.00  0.00    -0.153 C  
HETATM   12  C   UNL     1      -7.406   5.146  71.686  1.00  0.00    -0.083 C  
HETATM   13  C   UNL     1      -9.845  10.059  66.863  1.00  0.00    -0.248 C  
HETATM   14  O   UNL     1      -8.025   2.978  73.940  1.00  0.00    -0.066 OA 
HETATM   15  C   UNL     1      -7.950   6.558  68.908  1.00  0.00    -0.111 C  
HETATM   16  C   UNL     1      -7.226   5.004  73.011  1.00  0.00    -0.086 C  
HETATM   17  C   UNL     1      -9.016   6.383  70.216  1.00  0.00    -0.154 C  
HETATM   18  O   UNL     1      -8.290   5.575  67.914  1.00  0.00    -0.100 OA 
HETATM   19  H   UNL     1      -8.372   4.745  68.370  1.00  0.00     0.000 HD 
HETATM   20  C   UNL     1     -10.614   6.820  69.868  1.00  0.00    -0.257 C  
HETATM   21  C   UNL     1      -8.245   4.129  73.590  1.00  0.00    -0.089 C  
HETATM   22  C   UNL     1      -9.581   4.686  73.465  1.00  0.00    -0.138 C  
HETATM   23  C   UNL     1     -11.435   6.804  71.167  1.00  0.00    -0.361 C  
HETATM   24  C   UNL     1     -11.313   5.495  71.923  1.00  0.00    -0.071 C  
HETATM   25  C   UNL     1      -9.895   5.109  72.226  1.00  0.00    -0.216 C  
HETATM   26  F   UNL     1     -12.035   5.624  73.075  1.00  0.00    -0.255 F  
ENDROOT
BRANCH   5  27
HETATM   27  C   UNL     1      -9.160   7.409  65.958  1.00  0.00    -0.085 C  
HETATM   28  O   UNL     1      -8.932   6.302  65.440  1.00  0.00    -0.054 OA 
BRANCH  27  29
HETATM   29  C   UNL     1      -8.768   8.641  65.027  1.00  0.00    -0.118 C  
BRANCH  29  30
HETATM   30  O   UNL     1      -7.671   8.221  64.053  1.00  0.00    -0.124 OA 
BRANCH  30  31
HETATM   31  C   UNL     1      -6.479   8.890  64.010  1.00  0.00    -0.083 C  
HETATM   32  C   UNL     1      -5.463   8.203  64.968  1.00  0.00    -0.040 C  
HETATM   33  O   UNL     1      -6.274   9.904  63.432  1.00  0.00    -0.108 OA 
ENDBRANCH  30  31
ENDBRANCH  29  30
ENDBRANCH  27  29
ENDBRANCH   5  27
TORSDOF 4
ENDMDL
MODEL      100
REMARK 921   NORMALIZED FREE ENERGY PREDICTED BY IDOCK:   -3.34 KCAL/MOL
REMARK 922        TOTAL FREE ENERGY PREDICTED BY IDOCK:   -3.93 KCAL/MOL
REMARK 923 INTER-LIGAND FREE ENERGY PREDICTED BY IDOCK:   -3.83 KCAL/MOL
REMARK 924 INTRA-LIGAND FREE ENERGY PREDICTED BY IDOCK:   -0.10 KCAL/MOL
REMARK 927      BINDING AFFINITY PREDICTED BY RF-SCORE:    0.00 PKD
ROOT
HETATM    1  C   UNL     1     -10.417   8.095  68.655  1.00  0.00    -0.195 C  
HETATM    2  C   UNL     1     -10.906   8.231  69.955  1.00  0.00    -0.232 C  
HETATM    3  C   UNL     1      -9.506   8.729  69.755  1.00  0.00    -0.168 C  
HETATM    4  C   UNL     1      -9.316   9.003  71.408  1.00  0.00    -0.310 C  
HETATM    5  C   UNL     1      -8.955   8.998  67.768  1.00  0.00    -0.127 C  
HETATM    6  C   UNL     1      -6.412   5.166  67.872  1.00  0.00    -0.048 C  
HETATM    7  O   UNL     1      -9.952   8.762  66.663  1.00  0.00    -0.239 OA 
HETATM    8  C   UNL     1      -9.500   9.810  68.705  1.00  0.00    -0.151 C  
HETATM    9  C   UNL     1      -7.675   9.787  69.189  1.00  0.00    -0.092 C  
HETATM   10  H   UNL     1      -9.701   8.885  65.756  1.00  0.00     0.000 HD 
HETATM   11  C   UNL     1      -6.944   5.448  69.267  1.00  0.00    -0.056 C  
HETATM   12  C   UNL     1      -5.842   5.616  70.378  1.00  0.00    -0.024 C  
HETATM   13  C   UNL     1     -10.398  11.000  68.480  1.00  0.00    -0.204 C  
HETATM   14  O   UNL     1      -5.213   2.496  70.560  1.00  0.00    -0.004 OA 
HETATM   15  C   UNL     1      -6.942   8.189  68.901  1.00  0.00    -0.062 C  
HETATM   16  C   UNL     1      -5.693   4.682  71.334  1.00  0.00    -0.012 C  
HETATM   17  C   UNL     1      -7.781   6.763  69.278  1.00  0.00    -0.105 C  
HETATM   18  O   UNL     1      -6.584   8.147  67.508  1.00  0.00    -0.056 OA 
HETATM   19  H   UNL     1      -6.194   7.295  67.354  1.00  0.00     0.000 HD 
HETATM   20  C   UNL     1      -9.309   6.650  68.559  1.00  0.00    -0.125 C  
HETATM   21  C   UNL     1      -6.042   3.354  70.831  1.00  0.00    -0.018 C  
HETATM   22  C   UNL     1      -7.442   3.261  70.452  1.00  0.00    -0.040 C  
HETATM   23  C   UNL     1     -10.042   5.423  69.123  1.00  0.00    -0.293 C  
HETATM   24  C   UNL     1      -9.225   4.150  69.016  1.00  0.00    -0.150 C  
HETATM   25  C   UNL     1      -7.869   4.255  69.651  1.00  0.00    -0.057 C  
HETATM   26  F   UNL     1      -9.953   3.151  69.595  1.00  0.00    -0.160 F  
ENDROOT
BRANCH   5  27
HETATM   27  C   UNL     1      -8.243  10.280  66.706  1.00  0.00    -0.124 C  
HETATM   28  O   UNL     1      -7.833  11.375  67.129  1.00  0.00    -0.140 OA 
BRANCH  27  29
HETATM   29  C   UNL     1      -8.184  10.148  65.118  1.00  0.00    -0.151 C  
BRANCH  29  30
HETATM   30  O   UNL     1      -7.353   8.928  64.734  1.00  0.00    -0.093 OA 
BRANCH  30  31
HETATM   31  C   UNL     1      -7.874   7.949  63.934  1.00  0.00    -0.141 C  
HETATM   32  C   UNL     1      -8.048   6.641  64.758  1.00  0.00    -0.099 C  
HETATM   33  O   UNL     1      -8.057   8.034  62.766  1.00  0.00    -0.156 OA 
ENDBRANCH  30  31
ENDBRANCH  29  30
ENDBRANCH  27  29
ENDBRANCH   5  27
TORSDOF 4
ENDMDL
MODEL      101
REMARK 921   NORMALIZED FREE ENERGY PREDICTED BY IDOCK:   -3.26 KCAL/MOL
REMARK 922        TOTAL FREE ENERGY PREDICTED BY IDOCK:   -3.83 KCAL/MOL
REMARK 923 INTER-LIGAND FREE ENERGY PREDICTED BY IDOCK:   -4.85 KCAL/MOL
REMARK 924 INTRA-LIGAND FREE ENERGY PREDICTED BY IDOCK:    1.02 KCAL/MOL
REMARK 927      BINDING AFFINITY PREDICTED BY RF-SCORE:    0.00 PKD
ROOT
HETATM    1  C   UNL     1      -8.460  12.552  69.313  1.00  0.00     0.861 C  
HETATM    2  C   UNL     1      -7.065  12.590  69.315  1.00  0.00     0.091 C  
HETATM    3  C   UNL     1      -7.697  12.816  67.975  1.00  0.00    -0.137 C  
HETATM    4  C   UNL     1      -6.194  12.796  67.209  1.00  0.00    -0.053 C  
HETATM    5  C   UNL     1      -9.727  13.261  68.036  1.00  0.00    -0.223 C  
HETATM    6  C   UNL     1     -10.779   9.019  66.600  1.00  0.00    -0.043 C  
HETATM    7  O   UNL     1     -10.436  13.400  69.358  1.00  0.00    -0.431 OA 
HETATM    8  C   UNL     1      -8.605  14.018  68.041  1.00  0.00    -0.179 C  
HETATM    9  C   UNL     1      -8.780  13.551  66.220  1.00  0.00     0.372 C  
HETATM   10  H   UNL     1     -11.364  13.604  69.386  1.00  0.00     0.000 HD 
HETATM   11  C   UNL     1      -9.271   9.192  66.576  1.00  0.00    -0.221 C  
HETATM   12  C   UNL     1      -8.596   8.964  65.172  1.00  0.00    -0.208 C  
HETATM   13  C   UNL     1      -8.422  15.386  68.647  1.00  0.00    -0.170 C  
HETATM   14  O   UNL     1      -8.866   5.790  65.294  1.00  0.00    -0.137 OA 
HETATM   15  C   UNL     1      -9.416  11.898  66.027  1.00  0.00    -0.229 C  
HETATM   16  C   UNL     1      -7.820   7.888  64.958  1.00  0.00    -0.120 C  
HETATM   17  C   UNL     1      -8.878  10.634  67.021  1.00  0.00    -0.141 C  
HETATM   18  O   UNL     1     -10.846  11.992  66.151  1.00  0.00    -0.264 OA 
HETATM   19  H   UNL     1     -11.186  11.111  66.049  1.00  0.00     0.000 HD 
HETATM   20  C   UNL     1      -9.034  10.943  68.678  1.00  0.00    -0.162 C  
HETATM   21  C   UNL     1      -8.266   6.748  65.760  1.00  0.00    -0.135 C  
HETATM   22  C   UNL     1      -8.146   7.001  67.186  1.00  0.00    -0.118 C  
HETATM   23  C   UNL     1      -8.343   9.821  69.469  1.00  0.00    -0.165 C  
HETATM   24  C   UNL     1      -8.815   8.439  69.061  1.00  0.00    -0.146 C  
HETATM   25  C   UNL     1      -8.679   8.169  67.591  1.00  0.00    -0.130 C  
HETATM   26  F   UNL     1      -8.094   7.534  69.787  1.00  0.00    -0.115 F  
ENDROOT
BRANCH   5  27
HETATM   27  C   UNL     1     -10.875  14.514  67.410  1.00  0.00    -0.291 C  
HETATM   28  O   UNL     1     -12.041  14.645  67.820  1.00  0.00    -0.314 OA 
BRANCH  27  29
HETATM   29  C   UNL     1     -10.512  15.488  66.202  1.00  0.00    -0.313 C  
BRANCH  29  30
HETATM   30  O   UNL     1     -10.370  16.917  66.718  1.00  0.00    -0.304 OA 
BRANCH  30  31
HETATM   31  C   UNL     1     -10.698  17.983  65.927  1.00  0.00    -0.116 C  
HETATM   32  C   UNL     1     -10.702  19.283  66.781  1.00  0.00    -0.526 C  
HETATM   33  O   UNL     1     -11.044  17.925  64.794  1.00  0.00    -0.785 OA 
ENDBRANCH  30  31
ENDBRANCH  29  30
ENDBRANCH  27  29
ENDBRANCH   5  27
TORSDOF 4
ENDMDL
MODEL      102
REMARK 921   NORMALIZED FREE ENERGY PREDICTED BY IDOCK:   -3.08 KCAL/MOL
REMARK 922        TOTAL FREE ENERGY PREDICTED BY IDOCK:   -3.61 KCAL/MOL
REMARK 923 INTER-LIGAND FREE ENERGY PREDICTED BY IDOCK:   -5.08 KCAL/MOL
REMARK 924 INTRA-LIGAND FREE ENERGY PREDICTED BY IDOCK:    1.48 KCAL/MOL
REMARK 927      BINDING AFFINITY PREDICTED BY RF-SCORE:    0.00 PKD
ROOT
HETATM    1  C   UNL     1     -10.275  15.480  66.436  1.00  0.00    -0.300 C  
HETATM    2  C   UNL     1      -9.293  14.661  65.876  1.00  0.00    -0.155 C  
HETATM    3  C   UNL     1      -9.317  14.679  67.375  1.00  0.00    -0.196 C  
HETATM    4  C   UNL     1      -7.905  13.758  67.456  1.00  0.00    -0.189 C  
HETATM    5  C   UNL     1     -11.050  15.470  68.208  1.00  0.00    -0.322 C  
HETATM    6  C   UNL     1      -8.850  19.364  69.284  1.00  0.00    -0.034 C  
HETATM    7  O   UNL     1     -12.188  15.909  67.322  1.00  0.00     0.475 OA 
HETATM    8  C   UNL     1     -10.665  14.217  67.865  1.00  0.00    -0.244 C  
HETATM    9  C   UNL     1      -9.774  14.488  69.507  1.00  0.00     0.193 C  
HETATM   10  H   UNL     1     -12.980  16.270  67.703  1.00  0.00     0.000 HD 
HETATM   11  C   UNL     1      -7.851  18.367  68.722  1.00  0.00    -0.286 C  
HETATM   12  C   UNL     1      -6.655  18.010  69.681  1.00  0.00    -0.076 C  
HETATM   13  C   UNL     1     -11.547  13.066  67.451  1.00  0.00    -0.407 C  
HETATM   14  O   UNL     1      -5.134  20.770  69.199  1.00  0.00    -0.256 OA 
HETATM   15  C   UNL     1      -9.233  16.175  69.687  1.00  0.00     0.077 C  
HETATM   16  C   UNL     1      -5.409  18.426  69.397  1.00  0.00    -0.205 C  
HETATM   17  C   UNL     1      -8.556  17.019  68.381  1.00  0.00    -0.243 C  
HETATM   18  O   UNL     1     -10.366  16.920  70.167  1.00  0.00     0.080 OA 
HETATM   19  H   UNL     1     -10.077  17.821  70.263  1.00  0.00     0.000 HD 
HETATM   20  C   UNL     1      -9.529  17.045  66.996  1.00  0.00    -0.256 C  
HETATM   21  C   UNL     1      -5.430  19.702  68.681  1.00  0.00    -0.200 C  
HETATM   22  C   UNL     1      -6.077  19.593  67.385  1.00  0.00    -0.204 C  
HETATM   23  C   UNL     1      -8.736  17.663  65.834  1.00  0.00     0.083 C  
HETATM   24  C   UNL     1      -8.138  19.012  66.182  1.00  0.00    -0.244 C  
HETATM   25  C   UNL     1      -7.278  18.986  67.412  1.00  0.00    -0.228 C  
HETATM   26  F   UNL     1      -7.418  19.428  65.099  1.00  0.00    -0.142 F  
ENDROOT
BRANCH   5  27
HETATM   27  C   UNL     1     -12.313  15.021  69.426  1.00  0.00    -0.126 C  
HETATM   28  O   UNL     1     -13.242  15.775  69.762  1.00  0.00     0.178 OA 
BRANCH  27  29
HETATM   29  C   UNL     1     -12.271  13.656  70.247  1.00  0.00    -0.353 C  
BRANCH  29  30
HETATM   30  O   UNL     1     -12.847  13.878  71.642  1.00  0.00    -0.327 OA 
BRANCH  30  31
HETATM   31  C   UNL     1     -12.449  14.943  72.403  1.00  0.00    -0.343 C  
HETATM   32  C   UNL     1     -13.635  15.936  72.567  1.00  0.00    -0.488 C  
HETATM   33  O   UNL     1     -11.346  15.148  72.784  1.00  0.00    -0.344 OA 
ENDBRANCH  30  31
ENDBRANCH  29  30
ENDBRANCH  27  29
ENDBRANCH   5  27
TORSDOF 4
ENDMDL
MODEL      103
REMARK 921   NORMALIZED FREE ENERGY PREDICTED BY IDOCK:   -3.02 KCAL/MOL
REMARK 922        TOTAL FREE ENERGY PREDICTED BY IDOCK:   -3.53 KCAL/MOL
REMARK 923 INTER-LIGAND FREE ENERGY PREDICTED BY IDOCK:   -3.71 KCAL/MOL
REMARK 924 INTRA-LIGAND FREE ENERGY PREDICTED BY IDOCK:    0.17 KCAL/MOL
REMARK 927      BINDING AFFINITY PREDICTED BY RF-SCORE:    0.00 PKD
ROOT
HETATM    1  C   UNL     1     -10.005   4.512  67.502  1.00  0.00    -0.152 C  
HETATM    2  C   UNL     1      -9.980   4.220  66.137  1.00  0.00    -0.231 C  
HETATM    3  C   UNL     1      -8.638   4.210  66.807  1.00  0.00    -0.108 C  
HETATM    4  C   UNL     1      -7.848   4.011  65.330  1.00  0.00    -0.089 C  
HETATM    5  C   UNL     1      -8.705   4.141  68.884  1.00  0.00    -0.092 C  
HETATM    6  C   UNL     1      -7.587   8.595  69.147  1.00  0.00    -0.089 C  
HETATM    7  O   UNL     1     -10.027   4.039  69.600  1.00  0.00    -0.166 OA 
HETATM    8  C   UNL     1      -8.637   3.193  67.919  1.00  0.00    -0.119 C  
HETATM    9  C   UNL     1      -6.856   3.814  68.015  1.00  0.00    -0.047 C  
HETATM   10  H   UNL     1     -10.058   4.006  70.549  1.00  0.00     0.000 HD 
HETATM   11  C   UNL     1      -7.523   8.152  67.696  1.00  0.00    -0.094 C  
HETATM   12  C   UNL     1      -6.127   8.352  66.998  1.00  0.00    -0.055 C  
HETATM   13  C   UNL     1      -9.143   1.774  67.987  1.00  0.00    -0.198 C  
HETATM   14  O   UNL     1      -6.474  11.506  66.680  1.00  0.00    -0.136 OA 
HETATM   15  C   UNL     1      -6.790   5.564  68.338  1.00  0.00    -0.059 C  
HETATM   16  C   UNL     1      -5.974   9.281  66.038  1.00  0.00    -0.055 C  
HETATM   17  C   UNL     1      -7.860   6.634  67.572  1.00  0.00    -0.111 C  
HETATM   18  O   UNL     1      -6.934   5.724  69.761  1.00  0.00    -0.061 OA 
HETATM   19  H   UNL     1      -6.899   6.657  69.934  1.00  0.00     0.000 HD 
HETATM   20  C   UNL     1      -9.494   6.240  67.774  1.00  0.00    -0.118 C  
HETATM   21  C   UNL     1      -6.862  10.422  66.264  1.00  0.00    -0.117 C  
HETATM   22  C   UNL     1      -8.263  10.051  66.185  1.00  0.00    -0.121 C  
HETATM   23  C   UNL     1     -10.348   7.158  66.885  1.00  0.00    -0.349 C  
HETATM   24  C   UNL     1     -10.046   8.628  67.097  1.00  0.00    -0.261 C  
HETATM   25  C   UNL     1      -8.596   8.974  66.921  1.00  0.00    -0.128 C  
HETATM   26  F   UNL     1     -10.820   9.332  66.219  1.00  0.00    -0.148 F  
ENDROOT
BRANCH   5  27
HETATM   27  C   UNL     1      -8.015   3.166  70.245  1.00  0.00    -0.042 C  
HETATM   28  O   UNL     1      -7.372   2.114  70.081  1.00  0.00    -0.036 OA 
BRANCH  27  29
HETATM   29  C   UNL     1      -8.269   3.524  71.777  1.00  0.00    -0.066 C  
BRANCH  29  30
HETATM   30  O   UNL     1      -8.504   5.025  71.922  1.00  0.00    -0.121 OA 
BRANCH  30  31
HETATM   31  C   UNL     1      -8.242   5.664  73.102  1.00  0.00    -0.118 C  
HETATM   32  C   UNL     1      -8.057   7.186  72.839  1.00  0.00    -0.120 C  
HETATM   33  O   UNL     1      -8.062   5.139  74.149  1.00  0.00    -0.100 OA 
ENDBRANCH  30  31
ENDBRANCH  29  30
ENDBRANCH  27  29
ENDBRANCH   5  27
TORSDOF 4
ENDMDL
MODEL      104
REMARK 921   NORMALIZED FREE ENERGY PREDICTED BY IDOCK:   -2.92 KCAL/MOL
REMARK 922        TOTAL FREE ENERGY PREDICTED BY IDOCK:   -3.41 KCAL/MOL
REMARK 923 INTER-LIGAND FREE ENERGY PREDICTED BY IDOCK:   -4.22 KCAL/MOL
REMARK 924 INTRA-LIGAND FREE ENERGY PREDICTED BY IDOCK:    0.81 KCAL/MOL
REMARK 927      BINDING AFFINITY PREDICTED BY RF-SCORE:    0.00 PKD
ROOT
HETATM    1  C   UNL     1      -9.573   5.068  69.235  1.00  0.00    -0.230 C  
HETATM    2  C   UNL     1     -10.713   4.721  68.508  1.00  0.00     0.610 C  
HETATM    3  C   UNL     1      -9.837   5.747  67.853  1.00  0.00    -0.147 C  
HETATM    4  C   UNL     1     -10.966   5.994  66.623  1.00  0.00    -0.229 C  
HETATM    5  C   UNL     1      -7.925   5.899  68.655  1.00  0.00    -0.103 C  
HETATM    6  C   UNL     1      -9.049   9.814  70.793  1.00  0.00     0.166 C  
HETATM    7  O   UNL     1      -7.489   4.974  69.762  1.00  0.00    -0.055 OA 
HETATM    8  C   UNL     1      -8.459   5.175  67.642  1.00  0.00    -0.105 C  
HETATM    9  C   UNL     1      -8.248   6.882  66.863  1.00  0.00    -0.113 C  
HETATM   10  H   UNL     1      -6.616   5.043  70.129  1.00  0.00     0.000 HD 
HETATM   11  C   UNL     1     -10.207   9.379  69.912  1.00  0.00    -0.247 C  
HETATM   12  C   UNL     1     -10.647  10.427  68.823  1.00  0.00    -0.232 C  
HETATM   13  C   UNL     1      -7.991   3.839  67.122  1.00  0.00    -0.091 C  
HETATM   14  O   UNL     1     -12.123  12.330  70.913  1.00  0.00    -0.296 OA 
HETATM   15  C   UNL     1      -8.560   8.181  68.041  1.00  0.00    -0.129 C  
HETATM   16  C   UNL     1     -11.825  11.065  68.932  1.00  0.00    -0.378 C  
HETATM   17  C   UNL     1      -9.847   8.072  69.141  1.00  0.00    -0.178 C  
HETATM   18  O   UNL     1      -7.343   8.360  68.787  1.00  0.00    -0.083 OA 
HETATM   19  H   UNL     1      -7.509   9.052  69.415  1.00  0.00     0.000 HD 
HETATM   20  C   UNL     1      -9.838   6.662  70.077  1.00  0.00    -0.178 C  
HETATM   21  C   UNL     1     -12.194  11.253  70.335  1.00  0.00    -0.365 C  
HETATM   22  C   UNL     1     -12.405   9.990  71.021  1.00  0.00    -0.458 C  
HETATM   23  C   UNL     1     -11.142   6.586  70.887  1.00  0.00    -0.345 C  
HETATM   24  C   UNL     1     -11.410   7.846  71.687  1.00  0.00    -0.258 C  
HETATM   25  C   UNL     1     -11.414   9.095  70.855  1.00  0.00    -0.357 C  
HETATM   26  F   UNL     1     -12.613   7.680  72.313  1.00  0.00    -0.298 F  
ENDROOT
BRANCH   5  27
HETATM   27  C   UNL     1      -6.201   5.875  68.102  1.00  0.00    -0.032 C  
HETATM   28  O   UNL     1      -5.340   6.678  68.500  1.00  0.00    -0.014 OA 
BRANCH  27  29
HETATM   29  C   UNL     1      -5.673   4.883  66.972  1.00  0.00    -0.014 C  
BRANCH  29  30
HETATM   30  O   UNL     1      -5.258   5.682  65.740  1.00  0.00    -0.009 OA 
BRANCH  30  31
HETATM   31  C   UNL     1      -5.570   5.243  64.483  1.00  0.00    -0.017 C  
HETATM   32  C   UNL     1      -6.077   6.438  63.625  1.00  0.00    -0.023 C  
HETATM   33  O   UNL     1      -5.574   4.113  64.125  1.00  0.00    -0.013 OA 
ENDBRANCH  30  31
ENDBRANCH  29  30
ENDBRANCH  27  29
ENDBRANCH   5  27
TORSDOF 4
ENDMDL
MODEL      105
REMARK 921   NORMALIZED FREE ENERGY PREDICTED BY IDOCK:   -2.83 KCAL/MOL
REMARK 922        TOTAL FREE ENERGY PREDICTED BY IDOCK:   -3.29 KCAL/MOL
REMARK 923 INTER-LIGAND FREE ENERGY PREDICTED BY IDOCK:   -3.98 KCAL/MOL
REMARK 924 INTRA-LIGAND FREE ENERGY PREDICTED BY IDOCK:    0.69 KCAL/MOL
REMARK 927      BINDING AFFINITY PREDICTED BY RF-SCORE:    0.00 PKD
ROOT
HETATM    1  C   UNL     1      -9.711   8.747  67.770  1.00  0.00    -0.194 C  
HETATM    2  C   UNL     1     -10.585   8.587  66.693  1.00  0.00    -0.118 C  
HETATM    3  C   UNL     1      -9.288   9.261  66.357  1.00  0.00    -0.247 C  
HETATM    4  C   UNL     1      -9.813   9.595  64.788  1.00  0.00     0.015 C  
HETATM    5  C   UNL     1      -7.803   9.055  67.796  1.00  0.00    -0.101 C  
HETATM    6  C   UNL     1      -8.440  13.395  69.184  1.00  0.00     0.540 C  
HETATM    7  O   UNL     1      -8.048   8.223  69.029  1.00  0.00    -0.114 OA 
HETATM    8  C   UNL     1      -8.140   8.345  66.694  1.00  0.00    -0.101 C  
HETATM    9  C   UNL     1      -7.207   9.816  65.967  1.00  0.00    -0.101 C  
HETATM   10  H   UNL     1      -7.369   8.129  69.686  1.00  0.00     0.000 HD 
HETATM   11  C   UNL     1      -9.302  13.133  67.962  1.00  0.00    -0.219 C  
HETATM   12  C   UNL     1      -9.032  14.086  66.739  1.00  0.00    -0.217 C  
HETATM   13  C   UNL     1      -7.918   6.874  66.446  1.00  0.00    -0.106 C  
HETATM   14  O   UNL     1     -10.533  16.576  68.048  1.00  0.00    -0.287 OA 
HETATM   15  C   UNL     1      -7.523  11.310  66.885  1.00  0.00    -0.145 C  
HETATM   16  C   UNL     1      -9.947  15.003  66.378  1.00  0.00    -0.295 C  
HETATM   17  C   UNL     1      -9.083  11.680  67.439  1.00  0.00    -0.169 C  
HETATM   18  O   UNL     1      -6.634  11.292  68.016  1.00  0.00    -0.057 OA 
HETATM   19  H   UNL     1      -6.803  12.088  68.506  1.00  0.00     0.000 HD 
HETATM   20  C   UNL     1      -9.789  10.463  68.380  1.00  0.00    -0.173 C  
HETATM   21  C   UNL     1     -10.703  15.478  67.537  1.00  0.00    -0.300 C  
HETATM   22  C   UNL     1     -11.480  14.418  68.156  1.00  0.00    -0.337 C  
HETATM   23  C   UNL     1     -11.256  10.826  68.658  1.00  0.00    -0.333 C  
HETATM   24  C   UNL     1     -11.416  12.216  69.242  1.00  0.00    -0.302 C  
HETATM   25  C   UNL     1     -10.786  13.293  68.408  1.00  0.00    -0.273 C  
HETATM   26  F   UNL     1     -12.754  12.442  69.391  1.00  0.00     0.032 F  
ENDROOT
BRANCH   5  27
HETATM   27  C   UNL     1      -6.074   8.531  67.916  1.00  0.00    -0.048 C  
HETATM   28  O   UNL     1      -5.432   8.055  66.964  1.00  0.00    -0.031 OA 
BRANCH  27  29
HETATM   29  C   UNL     1      -5.264   8.538  69.289  1.00  0.00    -0.031 C  
BRANCH  29  30
HETATM   30  O   UNL     1      -5.982   9.422  70.304  1.00  0.00    -0.034 OA 
BRANCH  30  31
HETATM   31  C   UNL     1      -6.149   9.010  71.598  1.00  0.00    -0.074 C  
HETATM   32  C   UNL     1      -7.640   8.638  71.836  1.00  0.00    -0.106 C  
HETATM   33  O   UNL     1      -5.322   9.040  72.447  1.00  0.00    -0.059 OA 
ENDBRANCH  30  31
ENDBRANCH  29  30
ENDBRANCH  27  29
ENDBRANCH   5  27
TORSDOF 4
ENDMDL
MODEL      106
REMARK 921   NORMALIZED FREE ENERGY PREDICTED BY IDOCK:   -2.77 KCAL/MOL
REMARK 922        TOTAL FREE ENERGY PREDICTED BY IDOCK:   -3.23 KCAL/MOL
REMARK 923 INTER-LIGAND FREE ENERGY PREDICTED BY IDOCK:   -3.55 KCAL/MOL
REMARK 924 INTRA-LIGAND FREE ENERGY PREDICTED BY IDOCK:    0.32 KCAL/MOL
REMARK 927      BINDING AFFINITY PREDICTED BY RF-SCORE:    0.00 PKD
ROOT
HETATM    1  C   UNL     1      -6.754  15.657  69.580  1.00  0.00    -0.185 C  
HETATM    2  C   UNL     1      -5.462  15.903  69.111  1.00  0.00    -0.110 C  
HETATM    3  C   UNL     1      -6.493  15.707  68.040  1.00  0.00    -0.151 C  
HETATM    4  C   UNL     1      -5.313  15.731  66.834  1.00  0.00     0.667 C  
HETATM    5  C   UNL     1      -8.462  15.845  68.693  1.00  0.00    -0.200 C  
HETATM    6  C   UNL     1      -8.938  11.275  68.464  1.00  0.00    -0.166 C  
HETATM    7  O   UNL     1      -8.765  16.186  70.129  1.00  0.00     0.682 OA 
HETATM    8  C   UNL     1      -7.580  16.741  68.190  1.00  0.00    -0.177 C  
HETATM    9  C   UNL     1      -8.174  15.834  66.644  1.00  0.00    -0.305 C  
HETATM   10  H   UNL     1      -9.665  16.249  70.427  1.00  0.00     0.000 HD 
HETATM   11  C   UNL     1      -7.578  11.661  67.909  1.00  0.00    -0.115 C  
HETATM   12  C   UNL     1      -7.311  11.211  66.425  1.00  0.00    -0.099 C  
HETATM   13  C   UNL     1      -7.530  18.225  68.449  1.00  0.00    -0.292 C  
HETATM   14  O   UNL     1      -6.837   8.152  67.190  1.00  0.00    -0.067 OA 
HETATM   15  C   UNL     1      -8.464  14.106  66.970  1.00  0.00    -0.156 C  
HETATM   16  C   UNL     1      -6.417  10.243  66.159  1.00  0.00    -0.103 C  
HETATM   17  C   UNL     1      -7.396  13.210  67.936  1.00  0.00    -0.131 C  
HETATM   18  O   UNL     1      -9.779  14.012  67.544  1.00  0.00    -0.224 OA 
HETATM   19  H   UNL     1      -9.934  13.091  67.718  1.00  0.00     0.000 HD 
HETATM   20  C   UNL     1      -7.124  13.876  69.467  1.00  0.00     0.081 C  
HETATM   21  C   UNL     1      -6.350   9.273  67.252  1.00  0.00    -0.059 C  
HETATM   22  C   UNL     1      -5.876   9.871  68.488  1.00  0.00    -0.042 C  
HETATM   23  C   UNL     1      -6.005  13.090  70.169  1.00  0.00    -0.135 C  
HETATM   24  C   UNL     1      -6.263  11.597  70.193  1.00  0.00    -0.121 C  
HETATM   25  C   UNL     1      -6.508  11.008  68.834  1.00  0.00    -0.054 C  
HETATM   26  F   UNL     1      -5.182  11.008  70.786  1.00  0.00    -0.070 F  
ENDROOT
BRANCH   5  27
HETATM   27  C   UNL     1      -9.986  16.727  68.273  1.00  0.00    -0.273 C  
HETATM   28  O   UNL     1     -10.156  17.335  67.202  1.00  0.00    -0.280 OA 
BRANCH  27  29
HETATM   29  C   UNL     1     -11.199  16.886  69.295  1.00  0.00     0.131 C  
BRANCH  29  30
HETATM   30  O   UNL     1     -12.026  15.605  69.314  1.00  0.00    -0.365 OA 
BRANCH  30  31
HETATM   31  C   UNL     1     -12.476  15.079  70.493  1.00  0.00    -0.371 C  
HETATM   32  C   UNL     1     -12.346  13.529  70.455  1.00  0.00    -0.397 C  
HETATM   33  O   UNL     1     -12.998  15.685  71.368  1.00  0.00    -0.457 OA 
ENDBRANCH  30  31
ENDBRANCH  29  30
ENDBRANCH  27  29
ENDBRANCH   5  27
TORSDOF 4
ENDMDL
MODEL      107
REMARK 921   NORMALIZED FREE ENERGY PREDICTED BY IDOCK:   -2.74 KCAL/MOL
REMARK 922        TOTAL FREE ENERGY PREDICTED BY IDOCK:   -3.19 KCAL/MOL
REMARK 923 INTER-LIGAND FREE ENERGY PREDICTED BY IDOCK:   -3.65 KCAL/MOL
REMARK 924 INTRA-LIGAND FREE ENERGY PREDICTED BY IDOCK:    0.46 KCAL/MOL
REMARK 927      BINDING AFFINITY PREDICTED BY RF-SCORE:    0.00 PKD
ROOT
HETATM    1  C   UNL     1      -7.148   6.703  69.692  1.00  0.00    -0.068 C  
HETATM    2  C   UNL     1      -5.946   6.915  69.014  1.00  0.00    -0.022 C  
HETATM    3  C   UNL     1      -6.380   8.049  69.895  1.00  0.00    -0.030 C  
HETATM    4  C   UNL     1      -5.128   9.029  69.330  1.00  0.00    -0.036 C  
HETATM    5  C   UNL     1      -7.862   7.564  71.270  1.00  0.00    -0.094 C  
HETATM    6  C   UNL     1     -11.027   9.751  68.747  1.00  0.00    -0.185 C  
HETATM    7  O   UNL     1      -8.371   6.149  71.373  1.00  0.00    -0.121 OA 
HETATM    8  C   UNL     1      -6.509   7.564  71.316  1.00  0.00    -0.038 C  
HETATM    9  C   UNL     1      -6.930   9.392  71.533  1.00  0.00     0.156 C  
HETATM   10  H   UNL     1      -9.048   5.927  72.002  1.00  0.00     0.000 HD 
HETATM   11  C   UNL     1      -9.658   9.975  68.130  1.00  0.00    -0.152 C  
HETATM   12  C   UNL     1      -9.226  11.482  67.995  1.00  0.00    -0.175 C  
HETATM   13  C   UNL     1      -5.618   6.696  72.169  1.00  0.00    -0.037 C  
HETATM   14  O   UNL     1     -11.141  12.053  65.510  1.00  0.00    -0.297 OA 
HETATM   15  C   UNL     1      -8.350   9.856  70.563  1.00  0.00     0.200 C  
HETATM   16  C   UNL     1      -9.144  12.060  66.783  1.00  0.00    -0.197 C  
HETATM   17  C   UNL     1      -8.553   9.278  68.981  1.00  0.00    -0.134 C  
HETATM   18  O   UNL     1      -9.509   9.486  71.331  1.00  0.00    -0.289 OA 
HETATM   19  H   UNL     1     -10.267   9.733  70.814  1.00  0.00     0.000 HD 
HETATM   20  C   UNL     1      -8.498   7.592  68.849  1.00  0.00    -0.129 C  
HETATM   21  C   UNL     1     -10.117  11.480  65.857  1.00  0.00    -0.231 C  
HETATM   22  C   UNL     1      -9.862  10.073  65.603  1.00  0.00    -0.363 C  
HETATM   23  C   UNL     1      -8.499   7.201  67.363  1.00  0.00    -0.122 C  
HETATM   24  C   UNL     1      -9.639   7.835  66.590  1.00  0.00    -0.220 C  
HETATM   25  C   UNL     1      -9.687   9.330  66.712  1.00  0.00    -0.260 C  
HETATM   26  F   UNL     1      -9.500   7.462  65.284  1.00  0.00     0.215 F  
ENDROOT
BRANCH   5  27
HETATM   27  C   UNL     1      -8.176   7.693  73.048  1.00  0.00    -0.127 C  
HETATM   28  O   UNL     1      -7.800   8.651  73.745  1.00  0.00    -0.407 OA 
BRANCH  27  29
HETATM   29  C   UNL     1      -8.870   6.529  73.887  1.00  0.00    -0.133 C  
BRANCH  29  30
HETATM   30  O   UNL     1      -8.072   5.238  73.734  1.00  0.00    -0.108 OA 
BRANCH  30  31
HETATM   31  C   UNL     1      -8.631   4.028  74.040  1.00  0.00    -0.093 C  
HETATM   32  C   UNL     1      -7.514   2.951  74.145  1.00  0.00    -0.047 C  
HETATM   33  O   UNL     1      -9.792   3.797  74.100  1.00  0.00    -0.105 OA 
ENDBRANCH  30  31
ENDBRANCH  29  30
ENDBRANCH  27  29
ENDBRANCH   5  27
TORSDOF 4
ENDMDL
MODEL      108
REMARK 921   NORMALIZED FREE ENERGY PREDICTED BY IDOCK:   -2.71 KCAL/MOL
REMARK 922        TOTAL FREE ENERGY PREDICTED BY IDOCK:   -3.16 KCAL/MOL
REMARK 923 INTER-LIGAND FREE ENERGY PREDICTED BY IDOCK:   -3.50 KCAL/MOL
REMARK 924 INTRA-LIGAND FREE ENERGY PREDICTED BY IDOCK:    0.34 KCAL/MOL
REMARK 927      BINDING AFFINITY PREDICTED BY RF-SCORE:    0.00 PKD
ROOT
HETATM    1  C   UNL     1     -10.257   5.862  69.036  1.00  0.00    -0.261 C  
HETATM    2  C   UNL     1     -10.860   7.115  68.907  1.00  0.00    -0.160 C  
HETATM    3  C   UNL     1      -9.457   7.034  68.382  1.00  0.00    -0.133 C  
HETATM    4  C   UNL     1      -9.415   8.697  68.102  1.00  0.00    -0.152 C  
HETATM    5  C   UNL     1      -8.743   5.101  68.105  1.00  0.00    -0.102 C  
HETATM    6  C   UNL     1      -6.144   5.435  71.886  1.00  0.00    -0.033 C  
HETATM    7  O   UNL     1      -9.637   3.915  68.362  1.00  0.00    -0.162 OA 
HETATM    8  C   UNL     1      -9.382   5.985  67.302  1.00  0.00    -0.115 C  
HETATM    9  C   UNL     1      -7.605   6.625  67.289  1.00  0.00    -0.100 C  
HETATM   10  H   UNL     1      -9.311   3.032  68.235  1.00  0.00     0.000 HD 
HETATM   11  C   UNL     1      -6.799   6.778  71.613  1.00  0.00    -0.066 C  
HETATM   12  C   UNL     1      -5.801   7.980  71.421  1.00  0.00    -0.034 C  
HETATM   13  C   UNL     1     -10.280   5.680  66.130  1.00  0.00    -0.093 C  
HETATM   14  O   UNL     1      -5.129   8.225  74.528  1.00  0.00    -0.068 OA 
HETATM   15  C   UNL     1      -6.820   6.406  68.873  1.00  0.00    -0.066 C  
HETATM   16  C   UNL     1      -5.716   8.948  72.351  1.00  0.00    -0.076 C  
HETATM   17  C   UNL     1      -7.660   6.713  70.314  1.00  0.00    -0.096 C  
HETATM   18  O   UNL     1      -6.342   5.049  68.910  1.00  0.00    -0.029 OA 
HETATM   19  H   UNL     1      -5.924   4.931  69.754  1.00  0.00     0.000 HD 
HETATM   20  C   UNL     1      -9.118   5.866  70.458  1.00  0.00    -0.158 C  
HETATM   21  C   UNL     1      -5.996   8.421  73.687  1.00  0.00    -0.108 C  
HETATM   22  C   UNL     1      -7.355   7.924  73.807  1.00  0.00    -0.172 C  
HETATM   23  C   UNL     1      -9.873   6.368  71.699  1.00  0.00    -0.184 C  
HETATM   24  C   UNL     1      -9.025   6.336  72.955  1.00  0.00    -0.130 C  
HETATM   25  C   UNL     1      -7.731   7.085  72.823  1.00  0.00    -0.092 C  
HETATM   26  F   UNL     1      -9.781   6.854  73.968  1.00  0.00    -0.210 F  
ENDROOT
BRANCH   5  27
HETATM   27  C   UNL     1      -7.967   4.100  66.811  1.00  0.00    -0.097 C  
HETATM   28  O   UNL     1      -7.025   4.498  66.105  1.00  0.00    -0.060 OA 
BRANCH  27  29
HETATM   29  C   UNL     1      -8.505   2.657  66.400  1.00  0.00    -0.105 C  
BRANCH  29  30
HETATM   30  O   UNL     1      -9.494   2.786  65.246  1.00  0.00    -0.129 OA 
BRANCH  30  31
HETATM   31  C   UNL     1      -9.087   2.616  63.951  1.00  0.00    -0.105 C  
HETATM   32  C   UNL     1      -9.072   3.992  63.225  1.00  0.00    -0.121 C  
HETATM   33  O   UNL     1      -8.890   1.576  63.418  1.00  0.00    -0.081 OA 
ENDBRANCH  30  31
ENDBRANCH  29  30
ENDBRANCH  27  29
ENDBRANCH   5  27
TORSDOF 4
ENDMDL
MODEL      109
REMARK 921   NORMALIZED FREE ENERGY PREDICTED BY IDOCK:   -2.69 KCAL/MOL
REMARK 922        TOTAL FREE ENERGY PREDICTED BY IDOCK:   -3.13 KCAL/MOL
REMARK 923 INTER-LIGAND FREE ENERGY PREDICTED BY IDOCK:   -3.85 KCAL/MOL
REMARK 924 INTRA-LIGAND FREE ENERGY PREDICTED BY IDOCK:    0.72 KCAL/MOL
REMARK 927      BINDING AFFINITY PREDICTED BY RF-SCORE:    0.00 PKD
ROOT
HETATM    1  C   UNL     1      -9.550   8.544  70.274  1.00  0.00    -0.177 C  
HETATM    2  C   UNL     1     -10.873   8.384  69.855  1.00  0.00    -0.207 C  
HETATM    3  C   UNL     1     -10.027   7.150  69.753  1.00  0.00    -0.180 C  
HETATM    4  C   UNL     1     -11.259   6.314  68.960  1.00  0.00    -0.415 C  
HETATM    5  C   UNL     1      -8.244   7.227  70.819  1.00  0.00    -0.112 C  
HETATM    6  C   UNL     1      -5.858   7.864  66.937  1.00  0.00    -0.044 C  
HETATM    7  O   UNL     1      -7.916   8.429  71.667  1.00  0.00    -0.112 OA 
HETATM    8  C   UNL     1      -9.491   6.790  71.115  1.00  0.00    -0.164 C  
HETATM    9  C   UNL     1      -8.791   5.373  70.081  1.00  0.00    -0.142 C  
HETATM   10  H   UNL     1      -7.101   8.464  72.155  1.00  0.00     0.000 HD 
HETATM   11  C   UNL     1      -7.315   7.610  66.590  1.00  0.00    -0.088 C  
HETATM   12  C   UNL     1      -7.570   6.376  65.646  1.00  0.00    -0.086 C  
HETATM   13  C   UNL     1     -10.146   6.730  72.471  1.00  0.00    -0.190 C  
HETATM   14  O   UNL     1      -6.545   7.872  63.023  1.00  0.00    -0.077 OA 
HETATM   15  C   UNL     1      -7.732   5.974  68.780  1.00  0.00    -0.095 C  
HETATM   16  C   UNL     1      -7.980   6.563  64.379  1.00  0.00    -0.103 C  
HETATM   17  C   UNL     1      -8.149   7.352  67.882  1.00  0.00    -0.119 C  
HETATM   18  O   UNL     1      -6.440   6.195  69.372  1.00  0.00    -0.039 OA 
HETATM   19  H   UNL     1      -5.875   6.516  68.679  1.00  0.00     0.000 HD 
HETATM   20  C   UNL     1      -8.461   8.723  68.824  1.00  0.00    -0.129 C  
HETATM   21  C   UNL     1      -7.458   7.818  63.837  1.00  0.00    -0.107 C  
HETATM   22  C   UNL     1      -7.961   8.977  64.553  1.00  0.00    -0.131 C  
HETATM   23  C   UNL     1      -9.010   9.840  67.923  1.00  0.00    -0.119 C  
HETATM   24  C   UNL     1      -8.125  10.115  66.723  1.00  0.00    -0.119 C  
HETATM   25  C   UNL     1      -7.847   8.897  65.891  1.00  0.00    -0.102 C  
HETATM   26  F   UNL     1      -8.741  11.078  65.977  1.00  0.00    -0.167 F  
ENDROOT
BRANCH   5  27
HETATM   27  C   UNL     1      -7.337   6.250  72.044  1.00  0.00    -0.093 C  
HETATM   28  O   UNL     1      -6.492   6.730  72.819  1.00  0.00    -0.057 OA 
BRANCH  27  29
HETATM   29  C   UNL     1      -7.473   4.666  72.154  1.00  0.00    -0.082 C  
BRANCH  29  30
HETATM   30  O   UNL     1      -8.058   4.293  73.513  1.00  0.00    -0.089 OA 
BRANCH  30  31
HETATM   31  C   UNL     1      -9.037   3.344  73.617  1.00  0.00    -0.093 C  
HETATM   32  C   UNL     1      -8.985   2.405  72.379  1.00  0.00    -0.110 C  
HETATM   33  O   UNL     1      -9.876   3.304  74.454  1.00  0.00    -0.106 OA 
ENDBRANCH  30  31
ENDBRANCH  29  30
ENDBRANCH  27  29
ENDBRANCH   5  27
TORSDOF 4
ENDMDL
MODEL      110
REMARK 921   NORMALIZED FREE ENERGY PREDICTED BY IDOCK:   -2.62 KCAL/MOL
REMARK 922        TOTAL FREE ENERGY PREDICTED BY IDOCK:   -3.04 KCAL/MOL
REMARK 923 INTER-LIGAND FREE ENERGY PREDICTED BY IDOCK:   -4.11 KCAL/MOL
REMARK 924 INTRA-LIGAND FREE ENERGY PREDICTED BY IDOCK:    1.07 KCAL/MOL
REMARK 927      BINDING AFFINITY PREDICTED BY RF-SCORE:    0.00 PKD
ROOT
HETATM    1  C   UNL     1      -9.924  14.484  69.731  1.00  0.00     0.308 C  
HETATM    2  C   UNL     1     -11.012  15.003  70.435  1.00  0.00    -0.222 C  
HETATM    3  C   UNL     1     -11.300  14.641  69.008  1.00  0.00    -0.299 C  
HETATM    4  C   UNL     1     -12.845  15.312  69.100  1.00  0.00     0.562 C  
HETATM    5  C   UNL     1      -9.871  13.424  68.115  1.00  0.00    -0.234 C  
HETATM    6  C   UNL     1      -8.210  16.991  65.731  1.00  0.00     0.250 C  
HETATM    7  O   UNL     1      -8.695  12.921  68.912  1.00  0.00    -0.365 OA 
HETATM    8  C   UNL     1     -11.017  13.177  68.792  1.00  0.00    -0.298 C  
HETATM    9  C   UNL     1     -11.645  13.665  67.080  1.00  0.00    -0.389 C  
HETATM   10  H   UNL     1      -8.042  12.364  68.505  1.00  0.00     0.000 HD 
HETATM   11  C   UNL     1      -9.450  17.433  66.488  1.00  0.00    -0.288 C  
HETATM   12  C   UNL     1     -10.608  18.009  65.591  1.00  0.00    -0.104 C  
HETATM   13  C   UNL     1     -11.358  11.954  69.606  1.00  0.00    -0.266 C  
HETATM   14  O   UNL     1      -9.148  20.798  65.085  1.00  0.00     0.796 OA 
HETATM   15  C   UNL     1     -10.635  14.938  66.351  1.00  0.00    -0.307 C  
HETATM   16  C   UNL     1     -10.914  19.318  65.634  1.00  0.00    -0.127 C  
HETATM   17  C   UNL     1     -10.064  16.238  67.279  1.00  0.00    -0.264 C  
HETATM   18  O   UNL     1      -9.504  14.275  65.759  1.00  0.00    -0.505 OA 
HETATM   19  H   UNL     1      -8.964  14.954  65.370  1.00  0.00     0.000 HD 
HETATM   20  C   UNL     1      -9.206  15.774  68.663  1.00  0.00    -0.207 C  
HETATM   21  C   UNL     1      -9.729  20.126  65.926  1.00  0.00    -0.247 C  
HETATM   22  C   UNL     1      -9.182  19.840  67.241  1.00  0.00    -0.437 C  
HETATM   23  C   UNL     1      -8.911  17.019  69.514  1.00  0.00     0.492 C  
HETATM   24  C   UNL     1      -8.239  18.125  68.725  1.00  0.00    -0.225 C  
HETATM   25  C   UNL     1      -9.000  18.532  67.496  1.00  0.00    -0.286 C  
HETATM   26  F   UNL     1      -8.081  19.187  69.568  1.00  0.00    -0.191 F  
ENDROOT
BRANCH   5  27
HETATM   27  C   UNL     1      -9.778  11.866  67.197  1.00  0.00    -0.185 C  
HETATM   28  O   UNL     1      -8.711  11.284  66.936  1.00  0.00    -0.147 OA 
BRANCH  27  29
HETATM   29  C   UNL     1     -11.058  11.168  66.553  1.00  0.00    -0.167 C  
BRANCH  29  30
HETATM   30  O   UNL     1     -11.437   9.936  67.370  1.00  0.00    -0.022 OA 
BRANCH  30  31
HETATM   31  C   UNL     1     -10.624   8.837  67.398  1.00  0.00    -0.233 C  
HETATM   32  C   UNL     1     -10.322   8.451  68.874  1.00  0.00    -0.231 C  
HETATM   33  O   UNL     1     -10.123   8.322  66.455  1.00  0.00    -0.273 OA 
ENDBRANCH  30  31
ENDBRANCH  29  30
ENDBRANCH  27  29
ENDBRANCH   5  27
TORSDOF 4
ENDMDL
MODEL      111
REMARK 921   NORMALIZED FREE ENERGY PREDICTED BY IDOCK:   -2.49 KCAL/MOL
REMARK 922        TOTAL FREE ENERGY PREDICTED BY IDOCK:   -2.88 KCAL/MOL
REMARK 923 INTER-LIGAND FREE ENERGY PREDICTED BY IDOCK:   -3.68 KCAL/MOL
REMARK 924 INTRA-LIGAND FREE ENERGY PREDICTED BY IDOCK:    0.80 KCAL/MOL
REMARK 927      BINDING AFFINITY PREDICTED BY RF-SCORE:    0.00 PKD
ROOT
HETATM    1  C   UNL     1     -10.833   9.687  67.821  1.00  0.00    -0.278 C  
HETATM    2  C   UNL     1     -11.831   9.371  68.744  1.00  0.00     1.111 C  
HETATM    3  C   UNL     1     -10.452   9.483  69.322  1.00  0.00    -0.226 C  
HETATM    4  C   UNL     1     -10.986   8.934  70.825  1.00  0.00    -0.305 C  
HETATM    5  C   UNL     1      -9.069  10.430  68.093  1.00  0.00    -0.142 C  
HETATM    6  C   UNL     1      -7.119   6.396  67.049  1.00  0.00    -0.073 C  
HETATM    7  O   UNL     1      -9.496  10.999  66.764  1.00  0.00    -0.177 OA 
HETATM    8  C   UNL     1      -9.907  10.864  69.064  1.00  0.00    -0.196 C  
HETATM    9  C   UNL     1      -8.486  10.110  70.052  1.00  0.00    -0.036 C  
HETATM   10  H   UNL     1      -8.864  11.433  66.203  1.00  0.00     0.000 HD 
HETATM   11  C   UNL     1      -8.186   6.173  68.107  1.00  0.00    -0.114 C  
HETATM   12  C   UNL     1      -7.674   5.513  69.441  1.00  0.00    -0.086 C  
HETATM   13  C   UNL     1     -10.525  12.233  69.199  1.00  0.00     0.043 C  
HETATM   14  O   UNL     1      -7.420   2.597  68.177  1.00  0.00    -0.051 OA 
HETATM   15  C   UNL     1      -7.822   8.667  69.245  1.00  0.00    -0.101 C  
HETATM   16  C   UNL     1      -8.027   4.254  69.755  1.00  0.00    -0.056 C  
HETATM   17  C   UNL     1      -8.844   7.527  68.514  1.00  0.00    -0.126 C  
HETATM   18  O   UNL     1      -6.894   9.142  68.254  1.00  0.00    -0.063 OA 
HETATM   19  H   UNL     1      -6.539   8.373  67.823  1.00  0.00     0.000 HD 
HETATM   20  C   UNL     1      -9.906   8.184  67.373  1.00  0.00    -0.242 C  
HETATM   21  C   UNL     1      -8.218   3.445  68.552  1.00  0.00    -0.072 C  
HETATM   22  C   UNL     1      -9.313   3.932  67.731  1.00  0.00    -0.230 C  
HETATM   23  C   UNL     1     -10.901   7.100  66.927  1.00  0.00    -0.307 C  
HETATM   24  C   UNL     1     -10.215   5.831  66.460  1.00  0.00    -0.189 C  
HETATM   25  C   UNL     1      -9.271   5.252  67.474  1.00  0.00    -0.119 C  
HETATM   26  F   UNL     1     -11.196   4.933  66.147  1.00  0.00    -0.248 F  
ENDROOT
BRANCH   5  27
HETATM   27  C   UNL     1      -7.871  11.785  68.168  1.00  0.00    -0.135 C  
HETATM   28  O   UNL     1      -7.054  11.931  69.094  1.00  0.00    -0.105 OA 
BRANCH  27  29
HETATM   29  C   UNL     1      -7.839  12.968  67.100  1.00  0.00    -0.063 C  
BRANCH  29  30
HETATM   30  O   UNL     1      -9.255  13.483  66.862  1.00  0.00    -0.237 OA 
BRANCH  30  31
HETATM   31  C   UNL     1      -9.473  14.629  66.148  1.00  0.00    -0.276 C  
HETATM   32  C   UNL     1      -9.128  15.864  67.028  1.00  0.00    -0.236 C  
HETATM   33  O   UNL     1      -9.962  14.691  65.070  1.00  0.00    -0.339 OA 
ENDBRANCH  30  31
ENDBRANCH  29  30
ENDBRANCH  27  29
ENDBRANCH   5  27
TORSDOF 4
ENDMDL
MODEL      112
REMARK 921   NORMALIZED FREE ENERGY PREDICTED BY IDOCK:   -2.49 KCAL/MOL
REMARK 922        TOTAL FREE ENERGY PREDICTED BY IDOCK:   -2.88 KCAL/MOL
REMARK 923 INTER-LIGAND FREE ENERGY PREDICTED BY IDOCK:   -3.70 KCAL/MOL
REMARK 924 INTRA-LIGAND FREE ENERGY PREDICTED BY IDOCK:    0.82 KCAL/MOL
REMARK 927      BINDING AFFINITY PREDICTED BY RF-SCORE:    0.00 PKD
ROOT
HETATM    1  C   UNL     1     -10.114  11.548  69.794  1.00  0.00     0.809 C  
HETATM    2  C   UNL     1     -11.396  11.690  70.329  1.00  0.00     0.038 C  
HETATM    3  C   UNL     1     -11.245  10.569  69.345  1.00  0.00    -0.327 C  
HETATM    4  C   UNL     1     -12.905  10.264  69.365  1.00  0.00     1.010 C  
HETATM    5  C   UNL     1      -9.279  10.031  68.933  1.00  0.00    -0.169 C  
HETATM    6  C   UNL     1      -9.478  12.136  64.847  1.00  0.00     0.107 C  
HETATM    7  O   UNL     1      -8.140  10.706  69.652  1.00  0.00    -0.345 OA 
HETATM    8  C   UNL     1     -10.195   9.604  69.834  1.00  0.00    -0.279 C  
HETATM    9  C   UNL     1     -10.745   8.742  68.247  1.00  0.00    -0.121 C  
HETATM   10  H   UNL     1      -7.242  10.460  69.465  1.00  0.00     0.000 HD 
HETATM   11  C   UNL     1     -10.852  12.173  65.493  1.00  0.00    -0.324 C  
HETATM   12  C   UNL     1     -12.003  11.507  64.650  1.00  0.00     0.101 C  
HETATM   13  C   UNL     1      -9.937   9.000  71.192  1.00  0.00    -0.365 C  
HETATM   14  O   UNL     1     -12.210  13.926  62.583  1.00  0.00     0.063 OA 
HETATM   15  C   UNL     1     -10.484   9.774  66.819  1.00  0.00    -0.189 C  
HETATM   16  C   UNL     1     -12.964  12.265  64.094  1.00  0.00    -0.276 C  
HETATM   17  C   UNL     1     -10.832  11.434  66.866  1.00  0.00    -0.335 C  
HETATM   18  O   UNL     1      -9.105   9.613  66.442  1.00  0.00    -0.147 OA 
HETATM   19  H   UNL     1      -8.966  10.163  65.680  1.00  0.00     0.000 HD 
HETATM   20  C   UNL     1     -10.060  12.266  68.120  1.00  0.00    -0.211 C  
HETATM   21  C   UNL     1     -12.450  13.586  63.734  1.00  0.00    -0.227 C  
HETATM   22  C   UNL     1     -12.022  14.344  64.897  1.00  0.00    -0.430 C  
HETATM   23  C   UNL     1     -10.597  13.705  68.178  1.00  0.00    -0.255 C  
HETATM   24  C   UNL     1     -10.521  14.414  66.840  1.00  0.00    -0.269 C  
HETATM   25  C   UNL     1     -11.204  13.672  65.729  1.00  0.00    -0.302 C  
HETATM   26  F   UNL     1     -11.075  15.651  67.006  1.00  0.00    -0.321 F  
ENDROOT
BRANCH   5  27
HETATM   27  C   UNL     1      -8.242   8.548  68.905  1.00  0.00    -0.117 C  
HETATM   28  O   UNL     1      -7.002   8.577  68.820  1.00  0.00    -0.061 OA 
BRANCH  27  29
HETATM   29  C   UNL     1      -8.847   7.074  68.879  1.00  0.00    -0.130 C  
BRANCH  29  30
HETATM   30  O   UNL     1      -8.252   6.254  70.020  1.00  0.00    -0.120 OA 
BRANCH  30  31
HETATM   31  C   UNL     1      -8.891   5.139  70.489  1.00  0.00    -0.119 C  
HETATM   32  C   UNL     1      -9.468   4.328  69.294  1.00  0.00    -0.254 C  
HETATM   33  O   UNL     1      -9.087   4.882  71.630  1.00  0.00    -0.135 OA 
ENDBRANCH  30  31
ENDBRANCH  29  30
ENDBRANCH  27  29
ENDBRANCH   5  27
TORSDOF 4
ENDMDL
MODEL      113
REMARK 921   NORMALIZED FREE ENERGY PREDICTED BY IDOCK:   -2.44 KCAL/MOL
REMARK 922        TOTAL FREE ENERGY PREDICTED BY IDOCK:   -2.82 KCAL/MOL
REMARK 923 INTER-LIGAND FREE ENERGY PREDICTED BY IDOCK:   -4.12 KCAL/MOL
REMARK 924 INTRA-LIGAND FREE ENERGY PREDICTED BY IDOCK:    1.30 KCAL/MOL
REMARK 927      BINDING AFFINITY PREDICTED BY RF-SCORE:    0.00 PKD
ROOT
HETATM    1  C   UNL     1     -10.569  15.512  69.203  1.00  0.00    -0.234 C  
HETATM    2  C   UNL     1      -9.861  15.374  70.398  1.00  0.00     0.308 C  
HETATM    3  C   UNL     1      -9.041  15.188  69.156  1.00  0.00    -0.215 C  
HETATM    4  C   UNL     1      -7.697  14.710  70.056  1.00  0.00     0.370 C  
HETATM    5  C   UNL     1      -9.939  15.876  67.411  1.00  0.00    -0.239 C  
HETATM    6  C   UNL     1     -10.893  11.567  66.111  1.00  0.00    -0.330 C  
HETATM    7  O   UNL     1     -11.280  16.561  67.465  1.00  0.00    -0.152 OA 
HETATM    8  C   UNL     1      -9.105  16.439  68.317  1.00  0.00    -0.207 C  
HETATM    9  C   UNL     1      -7.934  15.384  67.277  1.00  0.00    -0.231 C  
HETATM   10  H   UNL     1     -11.691  16.876  66.668  1.00  0.00     0.000 HD 
HETATM   11  C   UNL     1     -10.058  11.530  67.379  1.00  0.00    -0.213 C  
HETATM   12  C   UNL     1      -8.703  10.739  67.262  1.00  0.00    -0.130 C  
HETATM   13  C   UNL     1      -8.988  17.899  68.675  1.00  0.00    -0.262 C  
HETATM   14  O   UNL     1     -10.097   7.873  67.340  1.00  0.00    -0.183 OA 
HETATM   15  C   UNL     1      -8.707  13.863  66.763  1.00  0.00    -0.097 C  
HETATM   16  C   UNL     1      -8.542   9.568  67.903  1.00  0.00    -0.119 C  
HETATM   17  C   UNL     1      -9.683  12.976  67.829  1.00  0.00    -0.218 C  
HETATM   18  O   UNL     1      -9.484  14.173  65.592  1.00  0.00    -0.518 OA 
HETATM   19  H   UNL     1      -9.896  13.363  65.318  1.00  0.00     0.000 HD 
HETATM   20  C   UNL     1     -10.947  13.868  68.514  1.00  0.00    -0.277 C  
HETATM   21  C   UNL     1      -9.812   8.852  68.017  1.00  0.00    -0.168 C  
HETATM   22  C   UNL     1     -10.779   9.575  68.825  1.00  0.00    -0.218 C  
HETATM   23  C   UNL     1     -11.635  13.021  69.596  1.00  0.00    -0.322 C  
HETATM   24  C   UNL     1     -12.058  11.655  69.093  1.00  0.00    -0.251 C  
HETATM   25  C   UNL     1     -10.934  10.867  68.483  1.00  0.00    -0.278 C  
HETATM   26  F   UNL     1     -12.599  10.983  70.151  1.00  0.00    -0.352 F  
ENDROOT
BRANCH   5  27
HETATM   27  C   UNL     1      -9.561  16.960  66.011  1.00  0.00    -0.209 C  
HETATM   28  O   UNL     1      -8.409  17.314  65.706  1.00  0.00    -0.535 OA 
BRANCH  27  29
HETATM   29  C   UNL     1     -10.692  17.638  65.116  1.00  0.00     0.311 C  
BRANCH  29  30
HETATM   30  O   UNL     1     -11.824  16.642  64.877  1.00  0.00     0.220 OA 
BRANCH  30  31
HETATM   31  C   UNL     1     -11.567  15.397  64.375  1.00  0.00    -0.264 C  
HETATM   32  C   UNL     1     -12.610  14.386  64.932  1.00  0.00    -0.298 C  
HETATM   33  O   UNL     1     -10.630  15.096  63.714  1.00  0.00     1.193 OA 
ENDBRANCH  30  31
ENDBRANCH  29  30
ENDBRANCH  27  29
ENDBRANCH   5  27
TORSDOF 4
ENDMDL
MODEL      114
REMARK 921   NORMALIZED FREE ENERGY PREDICTED BY IDOCK:   -2.08 KCAL/MOL
REMARK 922        TOTAL FREE ENERGY PREDICTED BY IDOCK:   -2.37 KCAL/MOL
REMARK 923 INTER-LIGAND FREE ENERGY PREDICTED BY IDOCK:   -3.29 KCAL/MOL
REMARK 924 INTRA-LIGAND FREE ENERGY PREDICTED BY IDOCK:    0.91 KCAL/MOL
REMARK 927      BINDING AFFINITY PREDICTED BY RF-SCORE:    0.00 PKD
ROOT
HETATM    1  C   UNL     1      -7.233   6.161  64.859  1.00  0.00    -0.063 C  
HETATM    2  C   UNL     1      -5.931   6.664  64.909  1.00  0.00    -0.035 C  
HETATM    3  C   UNL     1      -6.500   6.259  66.236  1.00  0.00    -0.047 C  
HETATM    4  C   UNL     1      -5.164   6.885  67.054  1.00  0.00    -0.016 C  
HETATM    5  C   UNL     1      -8.198   5.064  66.126  1.00  0.00    -0.109 C  
HETATM    6  C   UNL     1     -10.873   8.620  67.294  1.00  0.00    -0.077 C  
HETATM    7  O   UNL     1      -8.727   4.615  64.788  1.00  0.00    -0.138 OA 
HETATM    8  C   UNL     1      -6.872   4.799  66.202  1.00  0.00    -0.058 C  
HETATM    9  C   UNL     1      -7.311   5.227  67.988  1.00  0.00    -0.072 C  
HETATM   10  H   UNL     1      -9.502   4.069  64.737  1.00  0.00     0.000 HD 
HETATM   11  C   UNL     1      -9.417   9.043  67.382  1.00  0.00    -0.179 C  
HETATM   12  C   UNL     1      -8.957   9.563  68.795  1.00  0.00    -0.133 C  
HETATM   13  C   UNL     1      -6.146   3.587  65.676  1.00  0.00    -0.027 C  
HETATM   14  O   UNL     1     -10.418  12.381  68.494  1.00  0.00    -0.226 OA 
HETATM   15  C   UNL     1      -8.542   6.512  68.069  1.00  0.00    -0.118 C  
HETATM   16  C   UNL     1      -8.667  10.863  68.979  1.00  0.00    -0.108 C  
HETATM   17  C   UNL     1      -8.477   7.850  67.028  1.00  0.00    -0.124 C  
HETATM   18  O   UNL     1      -9.818   5.869  67.898  1.00  0.00    -0.115 OA 
HETATM   19  H   UNL     1     -10.475   6.553  67.941  1.00  0.00     0.000 HD 
HETATM   20  C   UNL     1      -8.413   7.446  65.386  1.00  0.00    -0.101 C  
HETATM   21  C   UNL     1      -9.472  11.712  68.101  1.00  0.00    -0.191 C  
HETATM   22  C   UNL     1      -9.188  11.475  66.697  1.00  0.00    -0.194 C  
HETATM   23  C   UNL     1      -8.164   8.719  64.562  1.00  0.00    -0.168 C  
HETATM   24  C   UNL     1      -9.152   9.825  64.878  1.00  0.00    -0.229 C  
HETATM   25  C   UNL     1      -9.209  10.179  66.336  1.00  0.00    -0.190 C  
HETATM   26  F   UNL     1      -8.795  10.911  64.131  1.00  0.00    -0.179 F  
ENDROOT
BRANCH   5  27
HETATM   27  C   UNL     1      -8.808   3.488  66.775  1.00  0.00    -0.134 C  
HETATM   28  O   UNL     1      -9.523   2.706  66.125  1.00  0.00    -0.037 OA 
BRANCH  27  29
HETATM   29  C   UNL     1      -8.564   3.024  68.280  1.00  0.00    -0.092 C  
BRANCH  29  30
HETATM   30  O   UNL     1      -7.693   1.771  68.297  1.00  0.00    -0.052 OA 
BRANCH  30  31
HETATM   31  C   UNL     1      -6.760   1.579  69.278  1.00  0.00    -0.029 C  
HETATM   32  C   UNL     1      -7.454   1.612  70.670  1.00  0.00    -0.033 C  
HETATM   33  O   UNL     1      -5.587   1.517  69.116  1.00  0.00    -0.013 OA 
ENDBRANCH  30  31
ENDBRANCH  29  30
ENDBRANCH  27  29
ENDBRANCH   5  27
TORSDOF 4
ENDMDL
MODEL      115
REMARK 921   NORMALIZED FREE ENERGY PREDICTED BY IDOCK:   -2.03 KCAL/MOL
REMARK 922        TOTAL FREE ENERGY PREDICTED BY IDOCK:   -2.31 KCAL/MOL
REMARK 923 INTER-LIGAND FREE ENERGY PREDICTED BY IDOCK:   -3.03 KCAL/MOL
REMARK 924 INTRA-LIGAND FREE ENERGY PREDICTED BY IDOCK:    0.72 KCAL/MOL
REMARK 927      BINDING AFFINITY PREDICTED BY RF-SCORE:    0.00 PKD
ROOT
HETATM    1  C   UNL     1      -8.829   8.367  68.881  1.00  0.00    -0.143 C  
HETATM    2  C   UNL     1      -9.612   9.121  68.005  1.00  0.00    -0.165 C  
HETATM    3  C   UNL     1     -10.020   7.684  68.135  1.00  0.00    -0.203 C  
HETATM    4  C   UNL     1     -11.157   7.846  66.899  1.00  0.00     0.483 C  
HETATM    5  C   UNL     1      -9.211   6.696  69.776  1.00  0.00    -0.146 C  
HETATM    6  C   UNL     1      -6.235   4.469  67.065  1.00  0.00    -0.036 C  
HETATM    7  O   UNL     1      -8.345   7.439  70.760  1.00  0.00    -0.116 OA 
HETATM    8  C   UNL     1     -10.360   7.384  69.573  1.00  0.00    -0.218 C  
HETATM    9  C   UNL     1     -10.731   5.715  68.773  1.00  0.00    -0.267 C  
HETATM   10  H   UNL     1      -7.976   6.987  71.510  1.00  0.00     0.000 HD 
HETATM   11  C   UNL     1      -7.188   5.276  66.200  1.00  0.00    -0.073 C  
HETATM   12  C   UNL     1      -8.008   4.437  65.151  1.00  0.00    -0.097 C  
HETATM   13  C   UNL     1     -11.172   8.139  70.594  1.00  0.00    -0.268 C  
HETATM   14  O   UNL     1      -5.535   4.049  63.176  1.00  0.00    -0.012 OA 
HETATM   15  C   UNL     1      -9.288   5.032  67.982  1.00  0.00    -0.125 C  
HETATM   16  C   UNL     1      -7.752   4.557  63.836  1.00  0.00    -0.076 C  
HETATM   17  C   UNL     1      -8.237   6.016  67.085  1.00  0.00    -0.105 C  
HETATM   18  O   UNL     1      -8.525   4.380  69.013  1.00  0.00    -0.081 OA 
HETATM   19  H   UNL     1      -7.755   4.017  68.593  1.00  0.00     0.000 HD 
HETATM   20  C   UNL     1      -7.645   7.353  67.937  1.00  0.00    -0.114 C  
HETATM   21  C   UNL     1      -6.342   4.865  63.600  1.00  0.00    -0.026 C  
HETATM   22  C   UNL     1      -5.960   6.150  64.159  1.00  0.00    -0.022 C  
HETATM   23  C   UNL     1      -6.869   8.263  66.972  1.00  0.00    -0.070 C  
HETATM   24  C   UNL     1      -5.803   7.519  66.193  1.00  0.00    -0.037 C  
HETATM   25  C   UNL     1      -6.330   6.331  65.441  1.00  0.00    -0.038 C  
HETATM   26  F   UNL     1      -5.226   8.414  65.338  1.00  0.00    -0.033 F  
ENDROOT
BRANCH   5  27
HETATM   27  C   UNL     1      -9.762   5.694  71.180  1.00  0.00    -0.172 C  
HETATM   28  O   UNL     1     -10.951   5.588  71.525  1.00  0.00    -0.230 OA 
BRANCH  27  29
HETATM   29  C   UNL     1      -8.747   4.948  72.157  1.00  0.00    -0.128 C  
BRANCH  29  30
HETATM   30  O   UNL     1      -8.448   3.552  71.619  1.00  0.00    -0.074 OA 
BRANCH  30  31
HETATM   31  C   UNL     1      -9.406   2.576  71.632  1.00  0.00    -0.119 C  
HETATM   32  C   UNL     1      -9.202   1.631  70.413  1.00  0.00    -0.158 C  
HETATM   33  O   UNL     1     -10.325   2.517  72.378  1.00  0.00    -0.161 OA 
ENDBRANCH  30  31
ENDBRANCH  29  30
ENDBRANCH  27  29
ENDBRANCH   5  27
TORSDOF 4
ENDMDL
MODEL      116
REMARK 921   NORMALIZED FREE ENERGY PREDICTED BY IDOCK:   -1.71 KCAL/MOL
REMARK 922        TOTAL FREE ENERGY PREDICTED BY IDOCK:   -1.92 KCAL/MOL
REMARK 923 INTER-LIGAND FREE ENERGY PREDICTED BY IDOCK:   -2.45 KCAL/MOL
REMARK 924 INTRA-LIGAND FREE ENERGY PREDICTED BY IDOCK:    0.53 KCAL/MOL
REMARK 927      BINDING AFFINITY PREDICTED BY RF-SCORE:    0.00 PKD
ROOT
HETATM    1  C   UNL     1      -8.752   6.872  68.341  1.00  0.00    -0.124 C  
HETATM    2  C   UNL     1      -9.947   7.319  68.907  1.00  0.00    -0.166 C  
HETATM    3  C   UNL     1      -9.648   7.877  67.548  1.00  0.00    -0.190 C  
HETATM    4  C   UNL     1     -10.968   8.924  67.634  1.00  0.00     0.042 C  
HETATM    5  C   UNL     1      -8.169   6.861  66.497  1.00  0.00    -0.117 C  
HETATM    6  C   UNL     1      -5.147  10.224  67.344  1.00  0.00    -0.040 C  
HETATM    7  O   UNL     1      -7.534   5.625  67.081  1.00  0.00    -0.082 OA 
HETATM    8  C   UNL     1      -9.517   6.749  66.556  1.00  0.00    -0.193 C  
HETATM    9  C   UNL     1      -9.275   8.239  65.421  1.00  0.00     0.088 C  
HETATM   10  H   UNL     1      -6.859   5.160  66.601  1.00  0.00     0.000 HD 
HETATM   11  C   UNL     1      -6.512  10.640  67.864  1.00  0.00    -0.059 C  
HETATM   12  C   UNL     1      -7.078  11.977  67.255  1.00  0.00    -0.149 C  
HETATM   13  C   UNL     1     -10.348   5.513  66.321  1.00  0.00    -0.215 C  
HETATM   14  O   UNL     1      -5.151  13.850  68.971  1.00  0.00    -0.074 OA 
HETATM   15  C   UNL     1      -7.876   9.221  65.921  1.00  0.00    -0.099 C  
HETATM   16  C   UNL     1      -7.177  13.081  68.016  1.00  0.00    -0.119 C  
HETATM   17  C   UNL     1      -7.573   9.538  67.560  1.00  0.00    -0.095 C  
HETATM   18  O   UNL     1      -6.710   8.591  65.360  1.00  0.00    -0.062 OA 
HETATM   19  H   UNL     1      -5.964   9.114  65.627  1.00  0.00     0.000 HD 
HETATM   20  C   UNL     1      -7.466   8.151  68.524  1.00  0.00    -0.099 C  
HETATM   21  C   UNL     1      -6.127  13.115  69.034  1.00  0.00    -0.089 C  
HETATM   22  C   UNL     1      -6.242  12.017  69.977  1.00  0.00    -0.110 C  
HETATM   23  C   UNL     1      -7.384   8.567  70.001  1.00  0.00    -0.055 C  
HETATM   24  C   UNL     1      -6.285   9.578  70.266  1.00  0.00    -0.061 C  
HETATM   25  C   UNL     1      -6.380  10.805  69.407  1.00  0.00    -0.068 C  
HETATM   26  F   UNL     1      -6.350   9.909  71.589  1.00  0.00     0.011 F  
ENDROOT
BRANCH   5  27
HETATM   27  C   UNL     1      -7.922   6.092  64.877  1.00  0.00    -0.126 C  
HETATM   28  O   UNL     1      -8.593   6.378  63.870  1.00  0.00     0.166 OA 
BRANCH  27  29
HETATM   29  C   UNL     1      -6.889   4.903  64.636  1.00  0.00    -0.049 C  
BRANCH  29  30
HETATM   30  O   UNL     1      -7.288   4.119  63.389  1.00  0.00    -0.049 OA 
BRANCH  30  31
HETATM   31  C   UNL     1      -8.370   3.282  63.404  1.00  0.00    -0.089 C  
HETATM   32  C   UNL     1      -8.363   2.448  64.717  1.00  0.00    -0.088 C  
HETATM   33  O   UNL     1      -9.133   3.120  62.512  1.00  0.00    -0.087 OA 
ENDBRANCH  30  31
ENDBRANCH  29  30
ENDBRANCH  27  29
ENDBRANCH   5  27
TORSDOF 4
ENDMDL
MODEL      117
REMARK 921   NORMALIZED FREE ENERGY PREDICTED BY IDOCK:   -1.26 KCAL/MOL
REMARK 922        TOTAL FREE ENERGY PREDICTED BY IDOCK:   -1.37 KCAL/MOL
REMARK 923 INTER-LIGAND FREE ENERGY PREDICTED BY IDOCK:   -1.84 KCAL/MOL
REMARK 924 INTRA-LIGAND FREE ENERGY PREDICTED BY IDOCK:    0.48 KCAL/MOL
REMARK 927      BINDING AFFINITY PREDICTED BY RF-SCORE:    0.00 PKD
ROOT
HETATM    1  C   UNL     1     -10.515   9.294  67.294  1.00  0.00    -0.334 C  
HETATM    2  C   UNL     1     -10.934   9.671  66.017  1.00  0.00     0.817 C  
HETATM    3  C   UNL     1      -9.458   9.445  66.154  1.00  0.00    -0.287 C  
HETATM    4  C   UNL     1      -9.178  10.009  64.589  1.00  0.00    -0.310 C  
HETATM    5  C   UNL     1      -8.892   8.414  67.869  1.00  0.00    -0.138 C  
HETATM    6  C   UNL     1      -7.368  12.303  69.796  1.00  0.00     0.786 C  
HETATM    7  O   UNL     1      -9.936   7.900  68.826  1.00  0.00    -0.176 OA 
HETATM    8  C   UNL     1      -9.204   8.030  66.608  1.00  0.00    -0.225 C  
HETATM    9  C   UNL     1      -7.433   8.658  66.422  1.00  0.00    -0.087 C  
HETATM   10  H   UNL     1      -9.677   7.429  69.610  1.00  0.00     0.000 HD 
HETATM   11  C   UNL     1      -7.789  12.590  68.366  1.00  0.00    -0.141 C  
HETATM   12  C   UNL     1      -6.662  13.188  67.445  1.00  0.00    -0.107 C  
HETATM   13  C   UNL     1      -9.786   6.711  66.167  1.00  0.00     0.030 C  
HETATM   14  O   UNL     1      -6.816  16.096  68.744  1.00  0.00    -0.129 OA 
HETATM   15  C   UNL     1      -7.121  10.058  67.478  1.00  0.00    -0.087 C  
HETATM   16  C   UNL     1      -6.730  14.464  67.029  1.00  0.00     0.796 C  
HETATM   17  C   UNL     1      -8.278  11.284  67.667  1.00  0.00    -0.120 C  
HETATM   18  O   UNL     1      -6.808   9.528  68.779  1.00  0.00    -0.052 OA 
HETATM   19  H   UNL     1      -6.642  10.275  69.343  1.00  0.00     0.000 HD 
HETATM   20  C   UNL     1      -9.799  10.729  68.159  1.00  0.00    -0.171 C  
HETATM   21  C   UNL     1      -7.404  15.305  68.018  1.00  0.00    -0.124 C  
HETATM   22  C   UNL     1      -8.789  14.917  68.216  1.00  0.00    -0.172 C  
HETATM   23  C   UNL     1     -10.801  11.893  68.108  1.00  0.00    -0.259 C  
HETATM   24  C   UNL     1     -10.324  13.113  68.870  1.00  0.00    -0.048 C  
HETATM   25  C   UNL     1      -8.973  13.601  68.434  1.00  0.00    -0.160 C  
HETATM   26  F   UNL     1     -11.265  14.088  68.704  1.00  0.00    -0.240 F  
ENDROOT
BRANCH   5  27
HETATM   27  C   UNL     1      -7.906   6.970  68.336  1.00  0.00    -0.122 C  
HETATM   28  O   UNL     1      -7.691   6.009  67.577  1.00  0.00    -0.095 OA 
BRANCH  27  29
HETATM   29  C   UNL     1      -7.319   6.766  69.804  1.00  0.00    -0.089 C  
BRANCH  29  30
HETATM   30  O   UNL     1      -8.068   7.660  70.786  1.00  0.00    -0.101 OA 
BRANCH  30  31
HETATM   31  C   UNL     1      -7.532   7.962  72.008  1.00  0.00    -0.082 C  
HETATM   32  C   UNL     1      -7.472   6.677  72.881  1.00  0.00    -0.088 C  
HETATM   33  O   UNL     1      -7.264   9.049  72.397  1.00  0.00    -0.332 OA 
ENDBRANCH  30  31
ENDBRANCH  29  30
ENDBRANCH  27  29
ENDBRANCH   5  27
TORSDOF 4
ENDMDL
MODEL      118
REMARK 921   NORMALIZED FREE ENERGY PREDICTED BY IDOCK:   -1.22 KCAL/MOL
REMARK 922        TOTAL FREE ENERGY PREDICTED BY IDOCK:   -1.31 KCAL/MOL
REMARK 923 INTER-LIGAND FREE ENERGY PREDICTED BY IDOCK:   -2.14 KCAL/MOL
REMARK 924 INTRA-LIGAND FREE ENERGY PREDICTED BY IDOCK:    0.83 KCAL/MOL
REMARK 927      BINDING AFFINITY PREDICTED BY RF-SCORE:    0.00 PKD
ROOT
HETATM    1  C   UNL     1      -9.935  16.751  69.353  1.00  0.00    -0.140 C  
HETATM    2  C   UNL     1     -11.000  17.652  69.301  1.00  0.00     0.646 C  
HETATM    3  C   UNL     1     -10.689  16.971  68.002  1.00  0.00    -0.365 C  
HETATM    4  C   UNL     1     -11.800  17.935  67.175  1.00  0.00     2.341 C  
HETATM    5  C   UNL     1      -9.473  15.293  68.170  1.00  0.00    -0.203 C  
HETATM    6  C   UNL     1      -5.869  17.645  66.544  1.00  0.00    -0.231 C  
HETATM    7  O   UNL     1      -9.029  14.808  69.526  1.00  0.00    -0.416 OA 
HETATM    8  C   UNL     1     -10.814  15.479  68.171  1.00  0.00    -0.296 C  
HETATM    9  C   UNL     1     -10.385  15.584  66.336  1.00  0.00    -0.303 C  
HETATM   10  H   UNL     1      -8.474  14.041  69.603  1.00  0.00     0.000 HD 
HETATM   11  C   UNL     1      -7.108  18.519  66.468  1.00  0.00    -0.246 C  
HETATM   12  C   UNL     1      -7.469  19.041  65.028  1.00  0.00     1.051 C  
HETATM   13  C   UNL     1     -11.859  14.626  68.845  1.00  0.00    -0.344 C  
HETATM   14  O   UNL     1      -5.148  21.228  64.983  1.00  0.00    -0.192 OA 
HETATM   15  C   UNL     1      -8.809  16.374  66.077  1.00  0.00    -0.261 C  
HETATM   16  C   UNL     1      -7.330  20.343  64.723  1.00  0.00     0.374 C  
HETATM   17  C   UNL     1      -8.360  17.740  66.977  1.00  0.00    -0.242 C  
HETATM   18  O   UNL     1      -7.806  15.360  66.265  1.00  0.00    -0.162 OA 
HETATM   19  H   UNL     1      -6.966  15.782  66.127  1.00  0.00     0.000 HD 
HETATM   20  C   UNL     1      -8.439  17.520  68.653  1.00  0.00    -0.258 C  
HETATM   21  C   UNL     1      -6.232  20.947  65.478  1.00  0.00    -0.227 C  
HETATM   22  C   UNL     1      -6.480  20.937  66.909  1.00  0.00    -0.370 C  
HETATM   23  C   UNL     1      -8.199  18.868  69.351  1.00  0.00     0.195 C  
HETATM   24  C   UNL     1      -6.928  19.552  68.887  1.00  0.00    -0.351 C  
HETATM   25  C   UNL     1      -6.860  19.743  67.400  1.00  0.00    -0.243 C  
HETATM   26  F   UNL     1      -6.857  20.754  69.531  1.00  0.00    -0.082 F  
ENDROOT
BRANCH   5  27
HETATM   27  C   UNL     1      -9.459  13.555  67.663  1.00  0.00    -0.222 C  
HETATM   28  O   UNL     1      -8.678  12.708  68.129  1.00  0.00    -0.180 OA 
BRANCH  27  29
HETATM   29  C   UNL     1     -10.382  12.992  66.492  1.00  0.00    -0.274 C  
BRANCH  29  30
HETATM   30  O   UNL     1      -9.569  12.061  65.598  1.00  0.00    -0.239 OA 
BRANCH  30  31
HETATM   31  C   UNL     1     -10.041  10.823  65.260  1.00  0.00    -0.290 C  
HETATM   32  C   UNL     1      -9.977   9.886  66.500  1.00  0.00    -0.291 C  
HETATM   33  O   UNL     1     -10.343  10.471  64.169  1.00  0.00    -0.313 OA 
ENDBRANCH  30  31
ENDBRANCH  29  30
ENDBRANCH  27  29
ENDBRANCH   5  27
TORSDOF 4
ENDMDL
MODEL      119
REMARK 921   NORMALIZED FREE ENERGY PREDICTED BY IDOCK:   -0.95 KCAL/MOL
REMARK 922        TOTAL FREE ENERGY PREDICTED BY IDOCK:   -0.98 KCAL/MOL
REMARK 923 INTER-LIGAND FREE ENERGY PREDICTED BY IDOCK:   -2.33 KCAL/MOL
REMARK 924 INTRA-LIGAND FREE ENERGY PREDICTED BY IDOCK:    1.35 KCAL/MOL
REMARK 927      BINDING AFFINITY PREDICTED BY RF-SCORE:    0.00 PKD
ROOT
HETATM    1  C   UNL     1      -6.843   8.351  71.415  1.00  0.00    -0.069 C  
HETATM    2  C   UNL     1      -7.394   8.828  72.605  1.00  0.00     0.107 C  
HETATM    3  C   UNL     1      -8.269   7.877  71.844  1.00  0.00    -0.142 C  
HETATM    4  C   UNL     1      -9.557   8.140  72.902  1.00  0.00    -0.345 C  
HETATM    5  C   UNL     1      -7.290   6.786  70.370  1.00  0.00    -0.081 C  
HETATM    6  C   UNL     1      -9.150   9.411  67.082  1.00  0.00    -0.148 C  
HETATM    7  O   UNL     1      -5.802   6.933  70.177  1.00  0.00    -0.023 OA 
HETATM    8  C   UNL     1      -7.557   6.559  71.678  1.00  0.00    -0.094 C  
HETATM    9  C   UNL     1      -9.206   6.170  70.846  1.00  0.00    -0.163 C  
HETATM   10  H   UNL     1      -5.355   6.434  69.503  1.00  0.00     0.000 HD 
HETATM   11  C   UNL     1      -9.738   9.806  68.425  1.00  0.00    -0.162 C  
HETATM   12  C   UNL     1     -11.304   9.689  68.528  1.00  0.00     0.106 C  
HETATM   13  C   UNL     1      -6.767   5.712  72.644  1.00  0.00    -0.072 C  
HETATM   14  O   UNL     1     -11.849  12.315  66.803  1.00  0.00    -0.533 OA 
HETATM   15  C   UNL     1      -9.516   7.254  69.468  1.00  0.00    -0.155 C  
HETATM   16  C   UNL     1     -12.065  10.795  68.606  1.00  0.00     0.021 C  
HETATM   17  C   UNL     1      -9.158   8.910  69.562  1.00  0.00    -0.146 C  
HETATM   18  O   UNL     1      -8.807   6.703  68.344  1.00  0.00    -0.122 OA 
HETATM   19  H   UNL     1      -8.971   7.281  67.609  1.00  0.00     0.000 HD 
HETATM   20  C   UNL     1      -7.558   9.247  69.999  1.00  0.00    -0.099 C  
HETATM   21  C   UNL     1     -11.449  11.910  67.886  1.00  0.00    -0.316 C  
HETATM   22  C   UNL     1     -10.178  12.304  68.468  1.00  0.00    -0.213 C  
HETATM   23  C   UNL     1      -7.407  10.757  70.238  1.00  0.00     0.483 C  
HETATM   24  C   UNL     1      -7.907  11.589  69.073  1.00  0.00    -0.004 C  
HETATM   25  C   UNL     1      -9.326  11.286  68.686  1.00  0.00    -0.167 C  
HETATM   26  F   UNL     1      -7.774  12.902  69.426  1.00  0.00     0.140 F  
ENDROOT
BRANCH   5  27
HETATM   27  C   UNL     1      -7.079   5.064  69.853  1.00  0.00    -0.054 C  
HETATM   28  O   UNL     1      -6.557   4.728  68.776  1.00  0.00    -0.042 OA 
BRANCH  27  29
HETATM   29  C   UNL     1      -7.646   3.836  70.695  1.00  0.00    -0.041 C  
BRANCH  29  30
HETATM   30  O   UNL     1      -8.946   3.340  70.070  1.00  0.00    -0.082 OA 
BRANCH  30  31
HETATM   31  C   UNL     1      -9.849   2.623  70.806  1.00  0.00     0.092 C  
HETATM   32  C   UNL     1     -10.351   3.487  71.998  1.00  0.00    -0.050 C  
HETATM   33  O   UNL     1     -10.125   1.482  70.643  1.00  0.00     0.044 OA 
ENDBRANCH  30  31
ENDBRANCH  29  30
ENDBRANCH  27  29
ENDBRANCH   5  27
TORSDOF 4
ENDMDL
MODEL      120
REMARK 921   NORMALIZED FREE ENERGY PREDICTED BY IDOCK:   -0.51 KCAL/MOL
REMARK 922        TOTAL FREE ENERGY PREDICTED BY IDOCK:   -0.44 KCAL/MOL
REMARK 923 INTER-LIGAND FREE ENERGY PREDICTED BY IDOCK:   -2.42 KCAL/MOL
REMARK 924 INTRA-LIGAND FREE ENERGY PREDICTED BY IDOCK:    1.98 KCAL/MOL
REMARK 927      BINDING AFFINITY PREDICTED BY RF-SCORE:    0.00 PKD
ROOT
HETATM    1  C   UNL     1      -6.283  15.895  68.823  1.00  0.00    -0.109 C  
HETATM    2  C   UNL     1      -5.255  15.477  67.976  1.00  0.00    -0.133 C  
HETATM    3  C   UNL     1      -6.234  16.428  67.355  1.00  0.00    -0.200 C  
HETATM    4  C   UNL     1      -5.522  16.244  65.836  1.00  0.00     2.576 C  
HETATM    5  C   UNL     1      -7.446  17.436  68.711  1.00  0.00    -0.258 C  
HETATM    6  C   UNL     1     -11.024  14.758  67.619  1.00  0.00    -0.292 C  
HETATM    7  O   UNL     1      -7.261  17.234  70.193  1.00  0.00     0.826 OA 
HETATM    8  C   UNL     1      -6.252  17.716  68.138  1.00  0.00    -0.167 C  
HETATM    9  C   UNL     1      -7.477  18.130  66.762  1.00  0.00    -0.242 C  
HETATM   10  H   UNL     1      -7.814  17.695  70.813  1.00  0.00     0.000 HD 
HETATM   11  C   UNL     1      -9.859  14.430  66.701  1.00  0.00    -0.287 C  
HETATM   12  C   UNL     1     -10.152  14.600  65.165  1.00  0.00    -0.359 C  
HETATM   13  C   UNL     1      -5.143  18.571  68.697  1.00  0.00    -0.181 C  
HETATM   14  O   UNL     1     -11.890  11.935  64.960  1.00  0.00    -0.272 OA 
HETATM   15  C   UNL     1      -8.861  17.008  66.760  1.00  0.00    -0.242 C  
HETATM   16  C   UNL     1     -10.236  13.523  64.365  1.00  0.00    -0.194 C  
HETATM   17  C   UNL     1      -8.638  15.346  67.018  1.00  0.00    -0.262 C  
HETATM   18  O   UNL     1      -9.787  17.497  67.747  1.00  0.00    -0.269 OA 
HETATM   19  H   UNL     1     -10.525  16.899  67.746  1.00  0.00     0.000 HD 
HETATM   20  C   UNL     1      -7.809  14.973  68.446  1.00  0.00    -0.125 C  
HETATM   21  C   UNL     1     -10.752  12.364  65.095  1.00  0.00    -0.292 C  
HETATM   22  C   UNL     1      -9.863  11.950  66.166  1.00  0.00    -0.254 C  
HETATM   23  C   UNL     1      -7.501  13.468  68.472  1.00  0.00    -0.122 C  
HETATM   24  C   UNL     1      -8.731  12.613  68.243  1.00  0.00    -0.169 C  
HETATM   25  C   UNL     1      -9.466  12.948  66.978  1.00  0.00    -0.235 C  
HETATM   26  F   UNL     1      -8.323  11.310  68.232  1.00  0.00    -0.121 F  
ENDROOT
BRANCH   5  27
HETATM   27  C   UNL     1      -7.939  19.131  69.111  1.00  0.00    -0.160 C  
HETATM   28  O   UNL     1      -7.154  19.991  69.547  1.00  0.00    -0.257 OA 
BRANCH  27  29
HETATM   29  C   UNL     1      -9.451  19.629  69.038  1.00  0.00    -0.269 C  
BRANCH  29  30
HETATM   30  O   UNL     1      -9.729  20.231  67.664  1.00  0.00    -0.391 OA 
BRANCH  30  31
HETATM   31  C   UNL     1     -10.780  19.795  66.907  1.00  0.00    -0.421 C  
HETATM   32  C   UNL     1     -10.556  20.202  65.422  1.00  0.00    -0.123 C  
HETATM   33  O   UNL     1     -11.770  19.291  67.321  1.00  0.00     0.588 OA 
ENDBRANCH  30  31
ENDBRANCH  29  30
ENDBRANCH  27  29
ENDBRANCH   5  27
TORSDOF 4
ENDMDL
MODEL      121
REMARK 921   NORMALIZED FREE ENERGY PREDICTED BY IDOCK:   -0.42 KCAL/MOL
REMARK 922        TOTAL FREE ENERGY PREDICTED BY IDOCK:   -0.33 KCAL/MOL
REMARK 923 INTER-LIGAND FREE ENERGY PREDICTED BY IDOCK:   -2.75 KCAL/MOL
REMARK 924 INTRA-LIGAND FREE ENERGY PREDICTED BY IDOCK:    2.42 KCAL/MOL
REMARK 927      BINDING AFFINITY PREDICTED BY RF-SCORE:    0.00 PKD
ROOT
HETATM    1  C   UNL     1      -7.386  17.165  68.862  1.00  0.00    -0.241 C  
HETATM    2  C   UNL     1      -6.103  17.573  68.495  1.00  0.00    -0.173 C  
HETATM    3  C   UNL     1      -6.833  16.781  67.453  1.00  0.00    -0.186 C  
HETATM    4  C   UNL     1      -5.462  16.718  66.471  1.00  0.00     0.086 C  
HETATM    5  C   UNL     1      -8.880  16.606  67.769  1.00  0.00    -0.206 C  
HETATM    6  C   UNL     1      -8.372  12.250  69.158  1.00  0.00     0.522 C  
HETATM    7  O   UNL     1      -9.532  17.302  68.936  1.00  0.00    -0.265 OA 
HETATM    8  C   UNL     1      -8.113  17.487  67.085  1.00  0.00    -0.229 C  
HETATM    9  C   UNL     1      -8.186  16.008  65.915  1.00  0.00     0.460 C  
HETATM   10  H   UNL     1     -10.467  17.223  69.081  1.00  0.00     0.000 HD 
HETATM   11  C   UNL     1      -7.033  12.775  68.669  1.00  0.00    -0.101 C  
HETATM   12  C   UNL     1      -6.385  11.954  67.493  1.00  0.00    -0.105 C  
HETATM   13  C   UNL     1      -8.416  18.935  66.792  1.00  0.00    -0.304 C  
HETATM   14  O   UNL     1      -5.471   9.541  69.366  1.00  0.00    -0.035 OA 
HETATM   15  C   UNL     1      -8.182  14.466  66.807  1.00  0.00     0.115 C  
HETATM   16  C   UNL     1      -5.279  11.219  67.706  1.00  0.00    -0.041 C  
HETATM   17  C   UNL     1      -7.175  14.240  68.154  1.00  0.00    -0.127 C  
HETATM   18  O   UNL     1      -9.541  14.225  67.214  1.00  0.00    -0.221 OA 
HETATM   19  H   UNL     1      -9.539  13.403  67.691  1.00  0.00     0.000 HD 
HETATM   20  C   UNL     1      -7.360  15.412  69.360  1.00  0.00    -0.213 C  
HETATM   21  C   UNL     1      -5.243  10.708  69.076  1.00  0.00    -0.041 C  
HETATM   22  C   UNL     1      -5.160  11.775  70.057  1.00  0.00    -0.075 C  
HETATM   23  C   UNL     1      -6.272  15.214  70.427  1.00  0.00    -0.072 C  
HETATM   24  C   UNL     1      -6.225  13.796  70.961  1.00  0.00     0.116 C  
HETATM   25  C   UNL     1      -6.064  12.758  69.889  1.00  0.00    -0.122 C  
HETATM   26  F   UNL     1      -5.191  13.733  71.852  1.00  0.00    -0.132 F  
ENDROOT
BRANCH   5  27
HETATM   27  C   UNL     1     -10.433  16.878  66.878  1.00  0.00    -0.271 C  
HETATM   28  O   UNL     1     -10.490  17.212  65.682  1.00  0.00    -0.541 OA 
BRANCH  27  29
HETATM   29  C   UNL     1     -11.857  16.812  67.590  1.00  0.00     0.968 C  
BRANCH  29  30
HETATM   30  O   UNL     1     -11.955  15.543  68.431  1.00  0.00    -0.296 OA 
BRANCH  30  31
HETATM   31  C   UNL     1     -11.985  14.311  67.839  1.00  0.00    -0.329 C  
HETATM   32  C   UNL     1     -11.119  13.317  68.664  1.00  0.00    -0.301 C  
HETATM   33  O   UNL     1     -12.489  14.055  66.797  1.00  0.00    -0.391 OA 
ENDBRANCH  30  31
ENDBRANCH  29  30
ENDBRANCH  27  29
ENDBRANCH   5  27
TORSDOF 4
ENDMDL
MODEL      122
REMARK 921   NORMALIZED FREE ENERGY PREDICTED BY IDOCK:   -0.34 KCAL/MOL
REMARK 922        TOTAL FREE ENERGY PREDICTED BY IDOCK:   -0.23 KCAL/MOL
REMARK 923 INTER-LIGAND FREE ENERGY PREDICTED BY IDOCK:   -2.42 KCAL/MOL
REMARK 924 INTRA-LIGAND FREE ENERGY PREDICTED BY IDOCK:    2.19 KCAL/MOL
REMARK 927      BINDING AFFINITY PREDICTED BY RF-SCORE:    0.00 PKD
ROOT
HETATM    1  C   UNL     1     -11.425  11.811  66.574  1.00  0.00    -0.325 C  
HETATM    2  C   UNL     1     -12.349  12.303  65.651  1.00  0.00    -0.032 C  
HETATM    3  C   UNL     1     -10.918  12.627  65.343  1.00  0.00    -0.320 C  
HETATM    4  C   UNL     1     -11.371  13.623  64.058  1.00  0.00    -0.247 C  
HETATM    5  C   UNL     1      -9.524  11.501  66.397  1.00  0.00    -0.213 C  
HETATM    6  C   UNL     1      -8.601  15.073  69.145  1.00  0.00    -0.188 C  
HETATM    7  O   UNL     1      -9.979  10.410  67.332  1.00  0.00    -0.176 OA 
HETATM    8  C   UNL     1     -10.131  11.351  65.195  1.00  0.00    -0.319 C  
HETATM    9  C   UNL     1      -8.791  12.628  64.824  1.00  0.00     1.658 C  
HETATM   10  H   UNL     1      -9.342   9.895  67.814  1.00  0.00     0.000 HD 
HETATM   11  C   UNL     1      -9.555  15.521  68.052  1.00  0.00    -0.203 C  
HETATM   12  C   UNL     1      -9.037  16.709  67.159  1.00  0.00    -0.227 C  
HETATM   13  C   UNL     1     -10.428  10.062  64.471  1.00  0.00     0.736 C  
HETATM   14  O   UNL     1      -9.552  18.923  69.395  1.00  0.00    -0.120 OA 
HETATM   15  C   UNL     1      -8.544  13.735  66.198  1.00  0.00     0.770 C  
HETATM   16  C   UNL     1      -9.605  17.924  67.248  1.00  0.00    -0.273 C  
HETATM   17  C   UNL     1      -9.862  14.343  67.077  1.00  0.00    -0.252 C  
HETATM   18  O   UNL     1      -7.663  13.061  67.114  1.00  0.00    -0.325 OA 
HETATM   19  H   UNL     1      -7.532  13.651  67.847  1.00  0.00     0.000 HD 
HETATM   20  C   UNL     1     -10.893  13.150  67.691  1.00  0.00    -0.269 C  
HETATM   21  C   UNL     1     -10.104  18.174  68.601  1.00  0.00    -0.392 C  
HETATM   22  C   UNL     1     -11.163  17.253  68.974  1.00  0.00     0.449 C  
HETATM   23  C   UNL     1     -12.138  13.819  68.294  1.00  0.00    -0.314 C  
HETATM   24  C   UNL     1     -11.794  14.901  69.299  1.00  0.00    -0.318 C  
HETATM   25  C   UNL     1     -10.877  15.957  68.752  1.00  0.00    -0.284 C  
HETATM   26  F   UNL     1     -12.971  15.454  69.717  1.00  0.00    -0.193 F  
ENDROOT
BRANCH   5  27
HETATM   27  C   UNL     1      -8.069  10.472  66.076  1.00  0.00    -0.148 C  
HETATM   28  O   UNL     1      -6.957  10.932  65.766  1.00  0.00    -0.093 OA 
BRANCH  27  29
HETATM   29  C   UNL     1      -8.127   8.880  66.061  1.00  0.00    -0.111 C  
BRANCH  29  30
HETATM   30  O   UNL     1      -9.506   8.410  66.513  1.00  0.00    -0.186 OA 
BRANCH  30  31
HETATM   31  C   UNL     1      -9.656   7.237  67.199  1.00  0.00    -0.160 C  
HETATM   32  C   UNL     1     -10.382   7.511  68.547  1.00  0.00    -0.224 C  
HETATM   33  O   UNL     1      -9.204   6.187  66.883  1.00  0.00    -0.122 OA 
ENDBRANCH  30  31
ENDBRANCH  29  30
ENDBRANCH  27  29
ENDBRANCH   5  27
TORSDOF 4
ENDMDL
MODEL      123
REMARK 921   NORMALIZED FREE ENERGY PREDICTED BY IDOCK:   -0.33 KCAL/MOL
REMARK 922        TOTAL FREE ENERGY PREDICTED BY IDOCK:   -0.22 KCAL/MOL
REMARK 923 INTER-LIGAND FREE ENERGY PREDICTED BY IDOCK:   -3.05 KCAL/MOL
REMARK 924 INTRA-LIGAND FREE ENERGY PREDICTED BY IDOCK:    2.83 KCAL/MOL
REMARK 927      BINDING AFFINITY PREDICTED BY RF-SCORE:    0.00 PKD
ROOT
HETATM    1  C   UNL     1      -6.255   8.063  67.450  1.00  0.00    -0.055 C  
HETATM    2  C   UNL     1      -5.419   9.180  67.403  1.00  0.00    -0.041 C  
HETATM    3  C   UNL     1      -6.499   9.246  68.442  1.00  0.00    -0.054 C  
HETATM    4  C   UNL     1      -6.106  10.843  68.818  1.00  0.00    -0.039 C  
HETATM    5  C   UNL     1      -7.412   7.426  68.862  1.00  0.00    -0.101 C  
HETATM    6  C   UNL     1     -11.146   8.660  66.475  1.00  0.00     1.215 C  
HETATM    7  O   UNL     1      -6.935   6.163  68.193  1.00  0.00    -0.074 OA 
HETATM    8  C   UNL     1      -6.355   8.085  69.393  1.00  0.00    -0.035 C  
HETATM    9  C   UNL     1      -7.829   8.982  70.160  1.00  0.00    -0.100 C  
HETATM   10  H   UNL     1      -7.352   5.331  68.386  1.00  0.00     0.000 HD 
HETATM   11  C   UNL     1     -10.189   9.838  66.545  1.00  0.00    -0.289 C  
HETATM   12  C   UNL     1     -10.783  11.142  67.197  1.00  0.00    -0.305 C  
HETATM   13  C   UNL     1      -5.154   7.491  70.083  1.00  0.00    -0.023 C  
HETATM   14  O   UNL     1     -12.536  11.902  64.644  1.00  0.00    -0.284 OA 
HETATM   15  C   UNL     1      -9.190   9.101  69.016  1.00  0.00    -0.143 C  
HETATM   16  C   UNL     1     -11.028  12.227  66.442  1.00  0.00    -0.326 C  
HETATM   17  C   UNL     1      -8.926   9.467  67.381  1.00  0.00    -0.141 C  
HETATM   18  O   UNL     1      -9.898   7.851  69.090  1.00  0.00    -0.168 OA 
HETATM   19  H   UNL     1     -10.624   7.914  68.480  1.00  0.00     0.000 HD 
HETATM   20  C   UNL     1      -7.830   8.434  66.610  1.00  0.00    -0.093 C  
HETATM   21  C   UNL     1     -11.392  11.847  65.077  1.00  0.00    -0.273 C  
HETATM   22  C   UNL     1     -10.308  11.168  64.389  1.00  0.00    -0.407 C  
HETATM   23  C   UNL     1      -7.528   8.976  65.204  1.00  0.00    -0.097 C  
HETATM   24  C   UNL     1      -8.782   9.244  64.396  1.00  0.00    -0.181 C  
HETATM   25  C   UNL     1      -9.754  10.158  65.084  1.00  0.00    -0.370 C  
HETATM   26  F   UNL     1      -8.389   9.771  63.199  1.00  0.00    -0.130 F  
ENDROOT
BRANCH   5  27
HETATM   27  C   UNL     1      -7.809   6.391  70.294  1.00  0.00    -0.103 C  
HETATM   28  O   UNL     1      -8.921   5.866  70.476  1.00  0.00    -0.141 OA 
BRANCH  27  29
HETATM   29  C   UNL     1      -6.790   6.155  71.496  1.00  0.00    -0.067 C  
BRANCH  29  30
HETATM   30  O   UNL     1      -6.522   7.477  72.210  1.00  0.00    -0.049 OA 
BRANCH  30  31
HETATM   31  C   UNL     1      -6.114   7.499  73.515  1.00  0.00    -0.060 C  
HETATM   32  C   UNL     1      -6.569   8.830  74.179  1.00  0.00    -0.065 C  
HETATM   33  O   UNL     1      -5.420   6.692  74.037  1.00  0.00    -0.048 OA 
ENDBRANCH  30  31
ENDBRANCH  29  30
ENDBRANCH  27  29
ENDBRANCH   5  27
TORSDOF 4
ENDMDL
MODEL      124
REMARK 921   NORMALIZED FREE ENERGY PREDICTED BY IDOCK:   -0.32 KCAL/MOL
REMARK 922        TOTAL FREE ENERGY PREDICTED BY IDOCK:   -0.20 KCAL/MOL
REMARK 923 INTER-LIGAND FREE ENERGY PREDICTED BY IDOCK:   -0.92 KCAL/MOL
REMARK 924 INTRA-LIGAND FREE ENERGY PREDICTED BY IDOCK:    0.72 KCAL/MOL
REMARK 927      BINDING AFFINITY PREDICTED BY RF-SCORE:    0.00 PKD
ROOT
HETATM    1  C   UNL     1      -9.091  15.283  69.011  1.00  0.00    -0.225 C  
HETATM    2  C   UNL     1      -9.121  15.215  70.405  1.00  0.00     0.957 C  
HETATM    3  C   UNL     1      -7.747  15.238  69.806  1.00  0.00    -0.079 C  
HETATM    4  C   UNL     1      -7.034  14.964  71.311  1.00  0.00     1.295 C  
HETATM    5  C   UNL     1      -7.675  15.838  67.817  1.00  0.00    -0.143 C  
HETATM    6  C   UNL     1      -7.012  11.495  66.450  1.00  0.00     0.068 C  
HETATM    7  O   UNL     1      -8.932  16.271  67.107  1.00  0.00    -0.188 OA 
HETATM    8  C   UNL     1      -7.569  16.496  68.996  1.00  0.00    -0.233 C  
HETATM    9  C   UNL     1      -5.861  15.716  68.804  1.00  0.00    -0.100 C  
HETATM   10  H   UNL     1      -8.900  16.545  66.199  1.00  0.00     0.000 HD 
HETATM   11  C   UNL     1      -6.994  11.547  67.968  1.00  0.00    -0.077 C  
HETATM   12  C   UNL     1      -5.673  11.015  68.638  1.00  0.00    -0.043 C  
HETATM   13  C   UNL     1      -7.920  17.934  69.279  1.00  0.00     0.183 C  
HETATM   14  O   UNL     1      -6.365   7.946  68.117  1.00  0.00    -0.047 OA 
HETATM   15  C   UNL     1      -5.957  14.109  68.041  1.00  0.00    -0.142 C  
HETATM   16  C   UNL     1      -5.678   9.862  69.329  1.00  0.00    -0.034 C  
HETATM   17  C   UNL     1      -7.179  13.012  68.468  1.00  0.00    -0.104 C  
HETATM   18  O   UNL     1      -6.027  14.332  66.622  1.00  0.00     0.812 OA 
HETATM   19  H   UNL     1      -6.078  13.475  66.215  1.00  0.00     0.000 HD 
HETATM   20  C   UNL     1      -8.746  13.632  68.320  1.00  0.00    -0.171 C  
HETATM   21  C   UNL     1      -6.663   8.927  68.786  1.00  0.00    -0.054 C  
HETATM   22  C   UNL     1      -8.021   9.427  68.910  1.00  0.00    -0.087 C  
HETATM   23  C   UNL     1      -9.745  12.626  68.912  1.00  0.00     0.183 C  
HETATM   24  C   UNL     1      -9.586  11.232  68.337  1.00  0.00    -0.195 C  
HETATM   25  C   UNL     1      -8.193  10.686  68.467  1.00  0.00    -0.128 C  
HETATM   26  F   UNL     1     -10.482  10.424  68.977  1.00  0.00    -0.176 F  
ENDROOT
BRANCH   5  27
HETATM   27  C   UNL     1      -6.803  17.037  66.778  1.00  0.00    -0.230 C  
HETATM   28  O   UNL     1      -5.586  17.271  66.871  1.00  0.00    -0.143 OA 
BRANCH  27  29
HETATM   29  C   UNL     1      -7.553  17.973  65.728  1.00  0.00    -0.035 C  
BRANCH  29  30
HETATM   30  O   UNL     1      -8.315  19.068  66.467  1.00  0.00    -0.284 OA 
BRANCH  30  31
HETATM   31  C   UNL     1      -9.683  19.089  66.472  1.00  0.00    -0.357 C  
HETATM   32  C   UNL     1     -10.191  19.608  67.847  1.00  0.00    -0.574 C  
HETATM   33  O   UNL     1     -10.385  18.667  65.614  1.00  0.00    -0.572 OA 
ENDBRANCH  30  31
ENDBRANCH  29  30
ENDBRANCH  27  29
ENDBRANCH   5  27
TORSDOF 4
ENDMDL
MODEL      125
REMARK 921   NORMALIZED FREE ENERGY PREDICTED BY IDOCK:   -0.25 KCAL/MOL
REMARK 922        TOTAL FREE ENERGY PREDICTED BY IDOCK:   -0.12 KCAL/MOL
REMARK 923 INTER-LIGAND FREE ENERGY PREDICTED BY IDOCK:   -3.43 KCAL/MOL
REMARK 924 INTRA-LIGAND FREE ENERGY PREDICTED BY IDOCK:    3.31 KCAL/MOL
REMARK 927      BINDING AFFINITY PREDICTED BY RF-SCORE:    0.00 PKD
ROOT
HETATM    1  C   UNL     1     -10.765   8.039  70.860  1.00  0.00    -0.240 C  
HETATM    2  C   UNL     1     -11.790   7.827  69.937  1.00  0.00     0.443 C  
HETATM    3  C   UNL     1     -10.638   6.873  69.828  1.00  0.00    -0.261 C  
HETATM    4  C   UNL     1     -11.273   6.193  68.421  1.00  0.00    -0.215 C  
HETATM    5  C   UNL     1      -9.370   6.849  71.476  1.00  0.00    -0.155 C  
HETATM    6  C   UNL     1      -6.193   9.241  69.165  1.00  0.00    -0.042 C  
HETATM    7  O   UNL     1      -9.677   7.695  72.684  1.00  0.00    -0.165 OA 
HETATM    8  C   UNL     1     -10.468   6.135  71.131  1.00  0.00    -0.281 C  
HETATM    9  C   UNL     1      -9.110   5.329  70.096  1.00  0.00    -0.168 C  
HETATM   10  H   UNL     1      -9.099   7.684  73.438  1.00  0.00     0.000 HD 
HETATM   11  C   UNL     1      -7.335   8.895  68.225  1.00  0.00    -0.083 C  
HETATM   12  C   UNL     1      -6.923   8.067  66.952  1.00  0.00    -0.074 C  
HETATM   13  C   UNL     1     -11.463   5.477  72.053  1.00  0.00    -0.128 C  
HETATM   14  O   UNL     1      -5.613  10.564  65.462  1.00  0.00    -0.094 OA 
HETATM   15  C   UNL     1      -7.920   6.529  69.530  1.00  0.00    -0.117 C  
HETATM   16  C   UNL     1      -6.958   8.633  65.733  1.00  0.00    -0.075 C  
HETATM   17  C   UNL     1      -8.416   8.050  68.966  1.00  0.00    -0.130 C  
HETATM   18  O   UNL     1      -6.993   6.729  70.612  1.00  0.00    -0.061 OA 
HETATM   19  H   UNL     1      -6.359   7.368  70.311  1.00  0.00     0.000 HD 
HETATM   20  C   UNL     1      -9.380   8.911  70.058  1.00  0.00    -0.184 C  
HETATM   21  C   UNL     1      -6.676  10.067  65.809  1.00  0.00    -0.106 C  
HETATM   22  C   UNL     1      -7.684  10.784  66.569  1.00  0.00    -0.145 C  
HETATM   23  C   UNL     1      -9.921  10.173  69.367  1.00  0.00    -0.247 C  
HETATM   24  C   UNL     1      -8.827  11.009  68.732  1.00  0.00    -0.147 C  
HETATM   25  C   UNL     1      -7.970  10.242  67.767  1.00  0.00    -0.102 C  
HETATM   26  F   UNL     1      -9.432  12.062  68.108  1.00  0.00    -0.174 F  
ENDROOT
BRANCH   5  27
HETATM   27  C   UNL     1      -8.645   5.656  72.629  1.00  0.00    -0.120 C  
HETATM   28  O   UNL     1      -8.243   5.956  73.766  1.00  0.00    -0.112 OA 
BRANCH  27  29
HETATM   29  C   UNL     1      -8.364   4.138  72.234  1.00  0.00    -0.102 C  
BRANCH  29  30
HETATM   30  O   UNL     1      -7.641   4.080  70.892  1.00  0.00    -0.046 OA 
BRANCH  30  31
HETATM   31  C   UNL     1      -6.933   2.970  70.525  1.00  0.00    -0.033 C  
HETATM   32  C   UNL     1      -7.812   2.070  69.611  1.00  0.00    -0.049 C  
HETATM   33  O   UNL     1      -5.860   2.668  70.929  1.00  0.00    -0.016 OA 
ENDBRANCH  30  31
ENDBRANCH  29  30
ENDBRANCH  27  29
ENDBRANCH   5  27
TORSDOF 4
ENDMDL
MODEL      126
REMARK 921   NORMALIZED FREE ENERGY PREDICTED BY IDOCK:   -0.20 KCAL/MOL
REMARK 922        TOTAL FREE ENERGY PREDICTED BY IDOCK:   -0.05 KCAL/MOL
REMARK 923 INTER-LIGAND FREE ENERGY PREDICTED BY IDOCK:   -0.68 KCAL/MOL
REMARK 924 INTRA-LIGAND FREE ENERGY PREDICTED BY IDOCK:    0.63 KCAL/MOL
REMARK 927      BINDING AFFINITY PREDICTED BY RF-SCORE:    0.00 PKD
ROOT
HETATM    1  C   UNL     1     -11.123  13.832  69.380  1.00  0.00    -0.206 C  
HETATM    2  C   UNL     1     -12.474  13.977  69.058  1.00  0.00     0.065 C  
HETATM    3  C   UNL     1     -11.575  13.697  67.891  1.00  0.00    -0.376 C  
HETATM    4  C   UNL     1     -12.840  13.929  66.800  1.00  0.00     0.418 C  
HETATM    5  C   UNL     1      -9.687  12.990  68.398  1.00  0.00    -0.192 C  
HETATM    6  C   UNL     1      -7.815  17.086  67.458  1.00  0.00    -0.186 C  
HETATM    7  O   UNL     1      -9.332  12.733  69.840  1.00  0.00     1.547 OA 
HETATM    8  C   UNL     1     -10.863  12.386  68.105  1.00  0.00    -0.250 C  
HETATM    9  C   UNL     1     -10.207  12.862  66.399  1.00  0.00    -0.273 C  
HETATM   10  H   UNL     1      -8.470  12.409  70.072  1.00  0.00     0.000 HD 
HETATM   11  C   UNL     1      -9.285  17.112  67.076  1.00  0.00    -0.251 C  
HETATM   12  C   UNL     1      -9.577  17.453  65.568  1.00  0.00     0.479 C  
HETATM   13  C   UNL     1     -11.349  11.042  68.584  1.00  0.00    -0.346 C  
HETATM   14  O   UNL     1      -8.956  20.562  65.907  1.00  0.00     0.014 OA 
HETATM   15  C   UNL     1      -9.346  14.421  66.442  1.00  0.00    -0.258 C  
HETATM   16  C   UNL     1     -10.143  18.626  65.234  1.00  0.00     1.070 C  
HETATM   17  C   UNL     1      -9.945  15.725  67.347  1.00  0.00    -0.237 C  
HETATM   18  O   UNL     1      -8.008  14.138  66.889  1.00  0.00    -0.377 OA 
HETATM   19  H   UNL     1      -7.548  14.969  66.912  1.00  0.00     0.000 HD 
HETATM   20  C   UNL     1     -10.223  15.365  68.977  1.00  0.00    -0.233 C  
HETATM   21  C   UNL     1      -9.762  19.681  66.174  1.00  0.00    -0.406 C  
HETATM   22  C   UNL     1     -10.245  19.418  67.518  1.00  0.00    -0.536 C  
HETATM   23  C   UNL     1     -10.939  16.552  69.641  1.00  0.00    -0.287 C  
HETATM   24  C   UNL     1     -10.218  17.868  69.423  1.00  0.00     0.041 C  
HETATM   25  C   UNL     1      -9.970  18.183  67.977  1.00  0.00    -0.353 C  
HETATM   26  F   UNL     1     -10.974  18.845  70.006  1.00  0.00     0.950 F  
ENDROOT
BRANCH   5  27
HETATM   27  C   UNL     1      -8.586  11.610  67.993  1.00  0.00    -0.152 C  
HETATM   28  O   UNL     1      -7.981  11.507  66.912  1.00  0.00    -0.154 OA 
BRANCH  27  29
HETATM   29  C   UNL     1      -8.388  10.355  68.956  1.00  0.00    -0.150 C  
BRANCH  29  30
HETATM   30  O   UNL     1      -7.574  10.768  70.178  1.00  0.00    -0.012 OA 
BRANCH  30  31
HETATM   31  C   UNL     1      -6.216  10.908  70.101  1.00  0.00    -0.142 C  
HETATM   32  C   UNL     1      -5.588  10.663  71.503  1.00  0.00     0.156 C  
HETATM   33  O   UNL     1      -5.610  11.276  69.151  1.00  0.00    -0.041 OA 
ENDBRANCH  30  31
ENDBRANCH  29  30
ENDBRANCH  27  29
ENDBRANCH   5  27
TORSDOF 4
ENDMDL
MODEL      127
REMARK 921   NORMALIZED FREE ENERGY PREDICTED BY IDOCK:    0.24 KCAL/MOL
REMARK 922        TOTAL FREE ENERGY PREDICTED BY IDOCK:    0.49 KCAL/MOL
REMARK 923 INTER-LIGAND FREE ENERGY PREDICTED BY IDOCK:   -0.64 KCAL/MOL
REMARK 924 INTRA-LIGAND FREE ENERGY PREDICTED BY IDOCK:    1.13 KCAL/MOL
REMARK 927      BINDING AFFINITY PREDICTED BY RF-SCORE:    0.00 PKD
ROOT
HETATM    1  C   UNL     1      -9.445  17.775  69.740  1.00  0.00     0.930 C  
HETATM    2  C   UNL     1     -10.381  18.809  69.803  1.00  0.00     0.810 C  
HETATM    3  C   UNL     1     -10.422  17.999  68.542  1.00  0.00    -0.291 C  
HETATM    4  C   UNL     1     -11.551  19.044  67.850  1.00  0.00     1.297 C  
HETATM    5  C   UNL     1      -9.410  16.185  68.641  1.00  0.00    -0.222 C  
HETATM    6  C   UNL     1      -5.949  17.891  66.137  1.00  0.00    -0.248 C  
HETATM    7  O   UNL     1      -8.765  15.743  69.929  1.00  0.00    -0.034 OA 
HETATM    8  C   UNL     1     -10.691  16.554  68.878  1.00  0.00    -0.337 C  
HETATM    9  C   UNL     1     -10.630  16.466  66.993  1.00  0.00    -0.260 C  
HETATM   10  H   UNL     1      -8.303  14.914  69.974  1.00  0.00     0.000 HD 
HETATM   11  C   UNL     1      -7.062  18.921  66.211  1.00  0.00    -0.268 C  
HETATM   12  C   UNL     1      -7.639  19.382  64.822  1.00  0.00     1.596 C  
HETATM   13  C   UNL     1     -11.675  15.906  69.819  1.00  0.00    -0.323 C  
HETATM   14  O   UNL     1      -5.127  21.217  64.122  1.00  0.00    -0.194 OA 
HETATM   15  C   UNL     1      -9.055  17.009  66.364  1.00  0.00    -0.270 C  
HETATM   16  C   UNL     1      -7.407  20.626  64.369  1.00  0.00     0.687 C  
HETATM   17  C   UNL     1      -8.271  18.362  67.023  1.00  0.00    -0.253 C  
HETATM   18  O   UNL     1      -8.165  15.883  66.456  1.00  0.00    -0.270 OA 
HETATM   19  H   UNL     1      -7.325  16.172  66.121  1.00  0.00     0.000 HD 
HETATM   20  C   UNL     1      -8.037  18.277  68.697  1.00  0.00    -0.304 C  
HETATM   21  C   UNL     1      -6.115  21.126  64.838  1.00  0.00    -0.149 C  
HETATM   22  C   UNL     1      -6.069  21.254  66.284  1.00  0.00    -0.312 C  
HETATM   23  C   UNL     1      -7.501  19.626  69.201  1.00  0.00    -0.310 C  
HETATM   24  C   UNL     1      -6.275  20.092  68.439  1.00  0.00    -0.272 C  
HETATM   25  C   UNL     1      -6.485  20.163  66.954  1.00  0.00    -0.230 C  
HETATM   26  F   UNL     1      -5.930  21.316  68.936  1.00  0.00    -0.356 F  
ENDROOT
BRANCH   5  27
HETATM   27  C   UNL     1      -9.710  14.430  68.313  1.00  0.00    -0.222 C  
HETATM   28  O   UNL     1     -10.729  13.824  68.688  1.00  0.00    -0.246 OA 
BRANCH  27  29
HETATM   29  C   UNL     1      -8.635  13.489  67.607  1.00  0.00    -0.185 C  
BRANCH  29  30
HETATM   30  O   UNL     1      -7.802  12.774  68.667  1.00  0.00    -0.120 OA 
BRANCH  30  31
HETATM   31  C   UNL     1      -6.437  12.851  68.655  1.00  0.00    -0.087 C  
HETATM   32  C   UNL     1      -5.998  14.197  68.011  1.00  0.00    -0.146 C  
HETATM   33  O   UNL     1      -5.691  11.986  68.972  1.00  0.00    -0.054 OA 
ENDBRANCH  30  31
ENDBRANCH  29  30
ENDBRANCH  27  29
ENDBRANCH   5  27
TORSDOF 4
ENDMDL
MODEL      128
REMARK 921   NORMALIZED FREE ENERGY PREDICTED BY IDOCK:    0.30 KCAL/MOL
REMARK 922        TOTAL FREE ENERGY PREDICTED BY IDOCK:    0.56 KCAL/MOL
REMARK 923 INTER-LIGAND FREE ENERGY PREDICTED BY IDOCK:   -0.47 KCAL/MOL
REMARK 924 INTRA-LIGAND FREE ENERGY PREDICTED BY IDOCK:    1.03 KCAL/MOL
REMARK 927      BINDING AFFINITY PREDICTED BY RF-SCORE:    0.00 PKD
ROOT
HETATM    1  C   UNL     1      -6.719   5.863  67.860  1.00  0.00    -0.058 C  
HETATM    2  C   UNL     1      -7.003   7.186  67.516  1.00  0.00    -0.079 C  
HETATM    3  C   UNL     1      -8.140   6.442  68.151  1.00  0.00    -0.113 C  
HETATM    4  C   UNL     1      -9.200   7.723  67.867  1.00  0.00    -0.141 C  
HETATM    5  C   UNL     1      -7.597   4.679  69.111  1.00  0.00    -0.056 C  
HETATM    6  C   UNL     1      -9.325   2.177  65.659  1.00  0.00     0.067 C  
HETATM    7  O   UNL     1      -6.149   4.270  69.188  1.00  0.00    -0.025 OA 
HETATM    8  C   UNL     1      -7.728   5.963  69.520  1.00  0.00    -0.097 C  
HETATM    9  C   UNL     1      -9.518   5.362  69.466  1.00  0.00    -0.182 C  
HETATM   10  H   UNL     1      -5.901   3.464  69.627  1.00  0.00     0.000 HD 
HETATM   11  C   UNL     1      -9.642   3.643  65.417  1.00  0.00    -0.156 C  
HETATM   12  C   UNL     1     -11.173   3.980  65.281  1.00  0.00     0.838 C  
HETATM   13  C   UNL     1      -6.999   6.647  70.649  1.00  0.00    -0.064 C  
HETATM   14  O   UNL     1     -11.416   2.787  62.335  1.00  0.00    -0.047 OA 
HETATM   15  C   UNL     1      -9.788   4.234  68.115  1.00  0.00    -0.041 C  
HETATM   16  C   UNL     1     -11.685   4.350  64.094  1.00  0.00     1.604 C  
HETATM   17  C   UNL     1      -9.103   4.519  66.589  1.00  0.00    -0.123 C  
HETATM   18  O   UNL     1      -9.356   2.939  68.568  1.00  0.00    -0.176 OA 
HETATM   19  H   UNL     1      -9.499   2.337  67.848  1.00  0.00     0.000 HD 
HETATM   20  C   UNL     1      -7.425   4.735  66.614  1.00  0.00    -0.086 C  
HETATM   21  C   UNL     1     -10.963   3.716  62.990  1.00  0.00    -0.058 C  
HETATM   22  C   UNL     1      -9.574   4.136  62.930  1.00  0.00    -0.137 C  
HETATM   23  C   UNL     1      -6.951   5.173  65.220  1.00  0.00    -0.062 C  
HETATM   24  C   UNL     1      -7.428   4.246  64.119  1.00  0.00    -0.070 C  
HETATM   25  C   UNL     1      -8.917   4.054  64.101  1.00  0.00    -0.135 C  
HETATM   26  F   UNL     1      -6.995   4.768  62.934  1.00  0.00    -0.035 F  
ENDROOT
BRANCH   5  27
HETATM   27  C   UNL     1      -7.798   3.879  70.722  1.00  0.00    -0.051 C  
HETATM   28  O   UNL     1      -6.874   3.311  71.329  1.00  0.00    -0.030 OA 
BRANCH  27  29
HETATM   29  C   UNL     1      -9.211   3.745  71.448  1.00  0.00    -0.126 C  
BRANCH  29  30
HETATM   30  O   UNL     1      -9.189   4.516  72.764  1.00  0.00    -0.126 OA 
BRANCH  30  31
HETATM   31  C   UNL     1     -10.351   4.824  73.415  1.00  0.00    -0.190 C  
HETATM   32  C   UNL     1     -10.831   6.238  72.980  1.00  0.00    -0.286 C  
HETATM   33  O   UNL     1     -10.859   4.178  74.269  1.00  0.00    -0.229 OA 
ENDBRANCH  30  31
ENDBRANCH  29  30
ENDBRANCH  27  29
ENDBRANCH   5  27
TORSDOF 4
ENDMDL
MODEL      129
REMARK 921   NORMALIZED FREE ENERGY PREDICTED BY IDOCK:    2.45 KCAL/MOL
REMARK 922        TOTAL FREE ENERGY PREDICTED BY IDOCK:    3.22 KCAL/MOL
REMARK 923 INTER-LIGAND FREE ENERGY PREDICTED BY IDOCK:   -0.33 KCAL/MOL
REMARK 924 INTRA-LIGAND FREE ENERGY PREDICTED BY IDOCK:    3.55 KCAL/MOL
REMARK 927      BINDING AFFINITY PREDICTED BY RF-SCORE:    0.00 PKD
ROOT
HETATM    1  C   UNL     1      -6.933  15.931  67.916  1.00  0.00    -0.155 C  
HETATM    2  C   UNL     1      -6.675  15.508  66.611  1.00  0.00     0.965 C  
HETATM    3  C   UNL     1      -7.989  16.206  66.798  1.00  0.00    -0.307 C  
HETATM    4  C   UNL     1      -8.454  15.856  65.214  1.00  0.00     2.576 C  
HETATM    5  C   UNL     1      -8.164  17.268  68.576  1.00  0.00    -0.267 C  
HETATM    6  C   UNL     1     -10.887  14.009  70.344  1.00  0.00     0.635 C  
HETATM    7  O   UNL     1      -7.001  17.350  69.532  1.00  0.00    -0.175 OA 
HETATM    8  C   UNL     1      -7.751  17.596  67.329  1.00  0.00    -0.222 C  
HETATM    9  C   UNL     1      -9.631  17.608  67.158  1.00  0.00    -0.278 C  
HETATM   10  H   UNL     1      -7.081  17.835  70.344  1.00  0.00     0.000 HD 
HETATM   11  C   UNL     1     -10.597  13.679  68.891  1.00  0.00    -0.211 C  
HETATM   12  C   UNL     1     -11.867  13.545  67.971  1.00  0.00    -0.400 C  
HETATM   13  C   UNL     1      -6.765  18.668  66.940  1.00  0.00    -0.206 C  
HETATM   14  O   UNL     1     -12.685  10.684  69.117  1.00  0.00    -0.160 OA 
HETATM   15  C   UNL     1     -10.386  16.335  68.150  1.00  0.00    -0.277 C  
HETATM   16  C   UNL     1     -12.233  12.344  67.489  1.00  0.00     0.188 C  
HETATM   17  C   UNL     1      -9.705  14.784  68.246  1.00  0.00    -0.218 C  
HETATM   18  O   UNL     1     -10.494  16.864  69.483  1.00  0.00    -0.303 OA 
HETATM   19  H   UNL     1     -10.896  16.186  70.013  1.00  0.00     0.000 HD 
HETATM   20  C   UNL     1      -8.082  14.771  68.726  1.00  0.00    -0.158 C  
HETATM   21  C   UNL     1     -11.872  11.272  68.417  1.00  0.00    -0.261 C  
HETATM   22  C   UNL     1     -10.435  11.165  68.598  1.00  0.00    -0.220 C  
HETATM   23  C   UNL     1      -7.527  13.344  68.591  1.00  0.00    -0.104 C  
HETATM   24  C   UNL     1      -8.380  12.313  69.302  1.00  0.00     0.755 C  
HETATM   25  C   UNL     1      -9.820  12.329  68.877  1.00  0.00     0.087 C  
HETATM   26  F   UNL     1      -7.821  11.090  69.063  1.00  0.00    -0.120 F  
ENDROOT
BRANCH   5  27
HETATM   27  C   UNL     1      -8.607  18.930  69.142  1.00  0.00    -0.013 C  
HETATM   28  O   UNL     1      -7.773  19.780  69.500  1.00  0.00    -0.173 OA 
BRANCH  27  29
HETATM   29  C   UNL     1     -10.117  19.404  69.328  1.00  0.00    -0.169 C  
BRANCH  29  30
HETATM   30  O   UNL     1     -10.760  19.621  67.961  1.00  0.00    -0.381 OA 
BRANCH  30  31
HETATM   31  C   UNL     1     -10.207  20.484  67.056  1.00  0.00    -0.174 C  
HETATM   32  C   UNL     1     -10.648  20.084  65.619  1.00  0.00    -0.380 C  
HETATM   33  O   UNL     1      -9.419  21.335  67.302  1.00  0.00    -0.206 OA 
ENDBRANCH  30  31
ENDBRANCH  29  30
ENDBRANCH  27  29
ENDBRANCH   5  27
TORSDOF 4
ENDMDL
MODEL      130
REMARK 921   NORMALIZED FREE ENERGY PREDICTED BY IDOCK:    2.83 KCAL/MOL
REMARK 922        TOTAL FREE ENERGY PREDICTED BY IDOCK:    3.69 KCAL/MOL
REMARK 923 INTER-LIGAND FREE ENERGY PREDICTED BY IDOCK:   -4.44 KCAL/MOL
REMARK 924 INTRA-LIGAND FREE ENERGY PREDICTED BY IDOCK:    8.13 KCAL/MOL
REMARK 927      BINDING AFFINITY PREDICTED BY RF-SCORE:    0.00 PKD
ROOT
HETATM    1  C   UNL     1     -12.140  13.405  69.130  1.00  0.00    -0.306 C  
HETATM    2  C   UNL     1     -11.366  14.200  69.977  1.00  0.00    -0.195 C  
HETATM    3  C   UNL     1     -10.618  13.593  68.828  1.00  0.00    -0.247 C  
HETATM    4  C   UNL     1      -9.145  14.153  69.429  1.00  0.00     0.501 C  
HETATM    5  C   UNL     1     -11.821  12.842  67.307  1.00  0.00    -0.356 C  
HETATM    6  C   UNL     1     -11.014   8.530  68.691  1.00  0.00     0.131 C  
HETATM    7  O   UNL     1     -13.319  12.990  67.379  1.00  0.00     2.074 OA 
HETATM    8  C   UNL     1     -11.236  14.043  67.529  1.00  0.00    -0.328 C  
HETATM    9  C   UNL     1      -9.801  12.997  66.887  1.00  0.00    -0.240 C  
HETATM   10  H   UNL     1     -13.869  12.647  66.684  1.00  0.00     0.000 HD 
HETATM   11  C   UNL     1     -10.162   9.483  69.511  1.00  0.00    -0.225 C  
HETATM   12  C   UNL     1      -8.611   9.223  69.437  1.00  0.00    -0.142 C  
HETATM   13  C   UNL     1     -11.702  15.395  67.050  1.00  0.00     0.074 C  
HETATM   14  O   UNL     1      -8.711   6.666  71.340  1.00  0.00    -0.128 OA 
HETATM   15  C   UNL     1      -9.917  11.311  67.451  1.00  0.00    -0.182 C  
HETATM   16  C   UNL     1      -7.950   8.749  70.507  1.00  0.00    -0.117 C  
HETATM   17  C   UNL     1     -10.381  10.954  69.043  1.00  0.00    -0.230 C  
HETATM   18  O   UNL     1     -10.821  10.640  66.556  1.00  0.00    -0.199 OA 
HETATM   19  H   UNL     1     -10.884   9.741  66.857  1.00  0.00     0.000 HD 
HETATM   20  C   UNL     1     -11.856  11.644  69.504  1.00  0.00    -0.414 C  
HETATM   21  C   UNL     1      -8.809   7.886  71.318  1.00  0.00    -0.135 C  
HETATM   22  C   UNL     1      -9.936   8.608  71.882  1.00  0.00    -0.392 C  
HETATM   23  C   UNL     1     -12.073  11.414  71.008  1.00  0.00    -0.303 C  
HETATM   24  C   UNL     1     -11.933   9.958  71.406  1.00  0.00    -0.404 C  
HETATM   25  C   UNL     1     -10.625   9.348  70.993  1.00  0.00    -0.400 C  
HETATM   26  F   UNL     1     -12.089   9.891  72.761  1.00  0.00     0.245 F  
ENDROOT
BRANCH   5  27
HETATM   27  C   UNL     1     -12.002  12.977  65.511  1.00  0.00    -0.424 C  
HETATM   28  O   UNL     1     -12.601  12.139  64.815  1.00  0.00    -0.473 OA 
BRANCH  27  29
HETATM   29  C   UNL     1     -11.310  14.133  64.659  1.00  0.00    -0.371 C  
BRANCH  29  30
HETATM   30  O   UNL     1     -11.564  15.483  65.324  1.00  0.00    -0.161 OA 
BRANCH  30  31
HETATM   31  C   UNL     1     -10.590  16.443  65.355  1.00  0.00    -0.320 C  
HETATM   32  C   UNL     1      -9.223  15.785  65.700  1.00  0.00    -0.123 C  
HETATM   33  O   UNL     1     -10.765  17.611  65.256  1.00  0.00    -0.649 OA 
ENDBRANCH  30  31
ENDBRANCH  29  30
ENDBRANCH  27  29
ENDBRANCH   5  27
TORSDOF 4
ENDMDL
MODEL      131
REMARK 921   NORMALIZED FREE ENERGY PREDICTED BY IDOCK:    3.61 KCAL/MOL
REMARK 922        TOTAL FREE ENERGY PREDICTED BY IDOCK:    4.65 KCAL/MOL
REMARK 923 INTER-LIGAND FREE ENERGY PREDICTED BY IDOCK:    4.31 KCAL/MOL
REMARK 924 INTRA-LIGAND FREE ENERGY PREDICTED BY IDOCK:    0.34 KCAL/MOL
REMARK 927      BINDING AFFINITY PREDICTED BY RF-SCORE:    0.00 PKD
ROOT
HETATM    1  C   UNL     1      -7.541  13.422  66.716  1.00  0.00     0.624 C  
HETATM    2  C   UNL     1      -8.636  13.619  65.874  1.00  0.00     1.219 C  
HETATM    3  C   UNL     1      -8.985  13.204  67.272  1.00  0.00    -0.216 C  
HETATM    4  C   UNL     1     -10.616  13.047  66.870  1.00  0.00    -0.260 C  
HETATM    5  C   UNL     1      -7.437  13.396  68.647  1.00  0.00    -0.104 C  
HETATM    6  C   UNL     1      -6.755   8.847  68.633  1.00  0.00    -0.059 C  
HETATM    7  O   UNL     1      -6.113  13.979  68.226  1.00  0.00    -0.095 OA 
HETATM    8  C   UNL     1      -8.441  14.214  68.250  1.00  0.00    -0.169 C  
HETATM    9  C   UNL     1      -9.317  13.028  69.428  1.00  0.00     1.153 C  
HETATM   10  H   UNL     1      -5.406  14.068  68.854  1.00  0.00     0.000 HD 
HETATM   11  C   UNL     1      -7.978   9.168  67.792  1.00  0.00    -0.101 C  
HETATM   12  C   UNL     1      -9.309   8.468  68.255  1.00  0.00    -0.143 C  
HETATM   13  C   UNL     1      -8.453  15.721  68.251  1.00  0.00    -0.164 C  
HETATM   14  O   UNL     1      -8.484   5.611  67.105  1.00  0.00    -0.111 OA 
HETATM   15  C   UNL     1      -8.654  11.379  69.309  1.00  0.00     0.320 C  
HETATM   16  C   UNL     1      -9.861   7.496  67.509  1.00  0.00    -0.209 C  
HETATM   17  C   UNL     1      -8.263  10.702  67.804  1.00  0.00    -0.111 C  
HETATM   18  O   UNL     1      -7.478  11.349  70.137  1.00  0.00    -0.194 OA 
HETATM   19  H   UNL     1      -7.124  10.470  70.074  1.00  0.00     0.000 HD 
HETATM   20  C   UNL     1      -7.200  11.639  66.880  1.00  0.00    -0.125 C  
HETATM   21  C   UNL     1      -8.836   6.739  66.788  1.00  0.00    -0.124 C  
HETATM   22  C   UNL     1      -8.118   7.563  65.832  1.00  0.00    -0.127 C  
HETATM   23  C   UNL     1      -7.074  11.026  65.477  1.00  0.00     0.224 C  
HETATM   24  C   UNL     1      -6.714   9.553  65.510  1.00  0.00    -0.080 C  
HETATM   25  C   UNL     1      -7.657   8.724  66.333  1.00  0.00    -0.091 C  
HETATM   26  F   UNL     1      -6.688   9.113  64.218  1.00  0.00    -0.081 F  
ENDROOT
BRANCH   5  27
HETATM   27  C   UNL     1      -7.130  14.143  70.267  1.00  0.00     0.423 C  
HETATM   28  O   UNL     1      -7.932  14.086  71.215  1.00  0.00     3.351 OA 
BRANCH  27  29
HETATM   29  C   UNL     1      -5.843  15.031  70.576  1.00  0.00    -0.126 C  
BRANCH  29  30
HETATM   30  O   UNL     1      -6.006  16.411  69.946  1.00  0.00    -0.190 OA 
BRANCH  30  31
HETATM   31  C   UNL     1      -5.873  17.545  70.698  1.00  0.00     0.189 C  
HETATM   32  C   UNL     1      -6.104  18.794  69.800  1.00  0.00    -0.260 C  
HETATM   33  O   UNL     1      -5.520  17.589  71.829  1.00  0.00    -0.050 OA 
ENDBRANCH  30  31
ENDBRANCH  29  30
ENDBRANCH  27  29
ENDBRANCH   5  27
TORSDOF 4
ENDMDL
MODEL      132
REMARK 921   NORMALIZED FREE ENERGY PREDICTED BY IDOCK:    3.90 KCAL/MOL
REMARK 922        TOTAL FREE ENERGY PREDICTED BY IDOCK:    5.00 KCAL/MOL
REMARK 923 INTER-LIGAND FREE ENERGY PREDICTED BY IDOCK:   -1.60 KCAL/MOL
REMARK 924 INTRA-LIGAND FREE ENERGY PREDICTED BY IDOCK:    6.61 KCAL/MOL
REMARK 927      BINDING AFFINITY PREDICTED BY RF-SCORE:    0.00 PKD
ROOT
HETATM    1  C   UNL     1      -7.386  17.165  68.862  1.00  0.00    -0.241 C  
HETATM    2  C   UNL     1      -6.103  17.573  68.495  1.00  0.00    -0.173 C  
HETATM    3  C   UNL     1      -6.833  16.781  67.453  1.00  0.00    -0.186 C  
HETATM    4  C   UNL     1      -5.462  16.718  66.471  1.00  0.00     0.086 C  
HETATM    5  C   UNL     1      -8.880  16.606  67.769  1.00  0.00    -0.206 C  
HETATM    6  C   UNL     1      -8.372  12.250  69.158  1.00  0.00     0.522 C  
HETATM    7  O   UNL     1      -9.532  17.302  68.936  1.00  0.00    -0.265 OA 
HETATM    8  C   UNL     1      -8.113  17.487  67.085  1.00  0.00    -0.229 C  
HETATM    9  C   UNL     1      -8.186  16.008  65.915  1.00  0.00     0.460 C  
HETATM   10  H   UNL     1     -10.467  17.223  69.081  1.00  0.00     0.000 HD 
HETATM   11  C   UNL     1      -7.033  12.775  68.669  1.00  0.00    -0.101 C  
HETATM   12  C   UNL     1      -6.385  11.954  67.493  1.00  0.00    -0.105 C  
HETATM   13  C   UNL     1      -8.416  18.935  66.792  1.00  0.00    -0.304 C  
HETATM   14  O   UNL     1      -5.471   9.541  69.366  1.00  0.00    -0.035 OA 
HETATM   15  C   UNL     1      -8.182  14.466  66.807  1.00  0.00     0.115 C  
HETATM   16  C   UNL     1      -5.279  11.219  67.706  1.00  0.00    -0.041 C  
HETATM   17  C   UNL     1      -7.175  14.240  68.154  1.00  0.00    -0.127 C  
HETATM   18  O   UNL     1      -9.541  14.225  67.214  1.00  0.00    -0.221 OA 
HETATM   19  H   UNL     1      -9.539  13.403  67.691  1.00  0.00     0.000 HD 
HETATM   20  C   UNL     1      -7.360  15.412  69.360  1.00  0.00    -0.213 C  
HETATM   21  C   UNL     1      -5.243  10.708  69.076  1.00  0.00    -0.041 C  
HETATM   22  C   UNL     1      -5.160  11.775  70.057  1.00  0.00    -0.075 C  
HETATM   23  C   UNL     1      -6.272  15.214  70.427  1.00  0.00    -0.072 C  
HETATM   24  C   UNL     1      -6.225  13.796  70.961  1.00  0.00     0.116 C  
HETATM   25  C   UNL     1      -6.064  12.758  69.889  1.00  0.00    -0.122 C  
HETATM   26  F   UNL     1      -5.191  13.733  71.852  1.00  0.00    -0.132 F  
ENDROOT
BRANCH   5  27
HETATM   27  C   UNL     1     -10.433  16.878  66.878  1.00  0.00    -0.271 C  
HETATM   28  O   UNL     1     -11.437  16.156  67.010  1.00  0.00     0.110 OA 
BRANCH  27  29
HETATM   29  C   UNL     1     -10.602  18.008  65.767  1.00  0.00    -0.169 C  
BRANCH  29  30
HETATM   30  O   UNL     1     -10.066  19.334  66.297  1.00  0.00    -0.382 OA 
BRANCH  30  31
HETATM   31  C   UNL     1     -10.695  19.984  67.323  1.00  0.00    -0.224 C  
HETATM   32  C   UNL     1      -9.632  20.579  68.291  1.00  0.00    -0.052 C  
HETATM   33  O   UNL     1     -11.863  19.998  67.521  1.00  0.00     0.974 OA 
ENDBRANCH  30  31
ENDBRANCH  29  30
ENDBRANCH  27  29
ENDBRANCH   5  27
TORSDOF 4
ENDMDL
MODEL      133
REMARK 921   NORMALIZED FREE ENERGY PREDICTED BY IDOCK:    4.21 KCAL/MOL
REMARK 922        TOTAL FREE ENERGY PREDICTED BY IDOCK:    5.38 KCAL/MOL
REMARK 923 INTER-LIGAND FREE ENERGY PREDICTED BY IDOCK:    1.50 KCAL/MOL
REMARK 924 INTRA-LIGAND FREE ENERGY PREDICTED BY IDOCK:    3.88 KCAL/MOL
REMARK 927      BINDING AFFINITY PREDICTED BY RF-SCORE:    0.00 PKD
ROOT
HETATM    1  C   UNL     1      -9.909  10.402  65.643  1.00  0.00    -0.321 C  
HETATM    2  C   UNL     1     -10.805  11.147  66.412  1.00  0.00    -0.284 C  
HETATM    3  C   UNL     1      -9.430  11.017  66.996  1.00  0.00    -0.191 C  
HETATM    4  C   UNL     1      -9.916  11.767  68.428  1.00  0.00    -0.202 C  
HETATM    5  C   UNL     1      -7.976  10.363  65.662  1.00  0.00    -0.153 C  
HETATM    6  C   UNL     1      -7.997   6.178  67.572  1.00  0.00    -0.106 C  
HETATM    7  O   UNL     1      -8.324  10.122  64.216  1.00  0.00    -0.158 OA 
HETATM    8  C   UNL     1      -8.417  11.587  66.037  1.00  0.00    -0.005 C  
HETATM    9  C   UNL     1      -7.295  11.095  67.474  1.00  0.00    -0.102 C  
HETATM   10  H   UNL     1      -7.660   9.823  63.606  1.00  0.00     0.000 HD 
HETATM   11  C   UNL     1      -8.896   7.097  68.380  1.00  0.00    -0.127 C  
HETATM   12  C   UNL     1      -8.507   7.245  69.898  1.00  0.00    -0.140 C  
HETATM   13  C   UNL     1      -8.402  12.857  65.225  1.00  0.00     2.754 C  
HETATM   14  O   UNL     1      -9.639   4.378  70.711  1.00  0.00    -0.158 OA 
HETATM   15  C   UNL     1      -7.395   9.349  67.813  1.00  0.00    -0.083 C  
HETATM   16  C   UNL     1      -9.289   6.716  70.854  1.00  0.00    -0.159 C  
HETATM   17  C   UNL     1      -8.884   8.538  67.783  1.00  0.00    -0.137 C  
HETATM   18  O   UNL     1      -6.508   8.700  66.884  1.00  0.00    -0.059 OA 
HETATM   19  H   UNL     1      -6.561   7.768  67.064  1.00  0.00     0.000 HD 
HETATM   20  C   UNL     1      -9.744   8.725  66.337  1.00  0.00    -0.335 C  
HETATM   21  C   UNL     1      -9.963   5.509  70.375  1.00  0.00    -0.214 C  
HETATM   22  C   UNL     1     -10.874   5.788  69.279  1.00  0.00    -0.374 C  
HETATM   23  C   UNL     1     -11.145   8.114  66.500  1.00  0.00     1.329 C  
HETATM   24  C   UNL     1     -11.106   6.684  67.004  1.00  0.00    -0.325 C  
HETATM   25  C   UNL     1     -10.340   6.520  68.284  1.00  0.00    -0.223 C  
HETATM   26  F   UNL     1     -12.400   6.275  67.160  1.00  0.00     1.435 F  
ENDROOT
BRANCH   5  27
HETATM   27  C   UNL     1      -6.336  10.854  65.074  1.00  0.00     0.250 C  
HETATM   28  O   UNL     1      -5.466  11.361  65.805  1.00  0.00    -0.239 OA 
BRANCH  27  29
HETATM   29  C   UNL     1      -5.910  10.774  63.541  1.00  0.00     0.065 C  
BRANCH  29  30
HETATM   30  O   UNL     1      -5.870   9.316  63.094  1.00  0.00    -0.087 OA 
BRANCH  30  31
HETATM   31  C   UNL     1      -5.879   8.302  64.010  1.00  0.00    -0.065 C  
HETATM   32  C   UNL     1      -5.300   7.011  63.363  1.00  0.00    -0.032 C  
HETATM   33  O   UNL     1      -6.359   8.350  65.093  1.00  0.00    -0.052 OA 
ENDBRANCH  30  31
ENDBRANCH  29  30
ENDBRANCH  27  29
ENDBRANCH   5  27
TORSDOF 4
ENDMDL
MODEL      134
REMARK 921   NORMALIZED FREE ENERGY PREDICTED BY IDOCK:    5.13 KCAL/MOL
REMARK 922        TOTAL FREE ENERGY PREDICTED BY IDOCK:    6.52 KCAL/MOL
REMARK 923 INTER-LIGAND FREE ENERGY PREDICTED BY IDOCK:    2.40 KCAL/MOL
REMARK 924 INTRA-LIGAND FREE ENERGY PREDICTED BY IDOCK:    4.12 KCAL/MOL
REMARK 927      BINDING AFFINITY PREDICTED BY RF-SCORE:    0.00 PKD
ROOT
HETATM    1  C   UNL     1      -9.083   7.779  70.924  1.00  0.00    -0.150 C  
HETATM    2  C   UNL     1     -10.337   7.836  70.314  1.00  0.00    -0.215 C  
HETATM    3  C   UNL     1      -9.295   7.084  69.541  1.00  0.00    -0.148 C  
HETATM    4  C   UNL     1     -10.330   6.913  68.219  1.00  0.00    -0.220 C  
HETATM    5  C   UNL     1      -7.607   6.563  70.637  1.00  0.00    -0.102 C  
HETATM    6  C   UNL     1      -5.162   9.882  68.593  1.00  0.00    -0.036 C  
HETATM    7  O   UNL     1      -7.526   6.884  72.107  1.00  0.00    -0.089 OA 
HETATM    8  C   UNL     1      -8.778   5.938  70.373  1.00  0.00    -0.139 C  
HETATM    9  C   UNL     1      -7.802   5.677  68.778  1.00  0.00    -0.096 C  
HETATM   10  H   UNL     1      -6.754   6.646  72.608  1.00  0.00     0.000 HD 
HETATM   11  C   UNL     1      -6.537   9.810  67.951  1.00  0.00    -0.061 C  
HETATM   12  C   UNL     1      -6.536   9.539  66.401  1.00  0.00    -0.071 C  
HETATM   13  C   UNL     1      -9.484   4.911  71.222  1.00  0.00    -0.214 C  
HETATM   14  O   UNL     1      -5.639  12.503  65.645  1.00  0.00     2.323 OA 
HETATM   15  C   UNL     1      -6.792   7.092  68.391  1.00  0.00    -0.073 C  
HETATM   16  C   UNL     1      -6.906  10.505  65.542  1.00  0.00    -0.100 C  
HETATM   17  C   UNL     1      -7.383   8.669  68.595  1.00  0.00    -0.081 C  
HETATM   18  O   UNL     1      -5.585   6.959  69.163  1.00  0.00    -0.017 OA 
HETATM   19  H   UNL     1      -5.046   7.713  68.957  1.00  0.00     0.000 HD 
HETATM   20  C   UNL     1      -7.964   8.993  70.151  1.00  0.00    -0.115 C  
HETATM   21  C   UNL     1      -6.570  11.830  66.064  1.00  0.00     0.799 C  
HETATM   22  C   UNL     1      -7.294  12.138  67.285  1.00  0.00    -0.149 C  
HETATM   23  C   UNL     1      -8.643  10.371  70.160  1.00  0.00     0.425 C  
HETATM   24  C   UNL     1      -7.755  11.467  69.602  1.00  0.00     0.442 C  
HETATM   25  C   UNL     1      -7.238  11.175  68.223  1.00  0.00    -0.083 C  
HETATM   26  F   UNL     1      -8.483  12.622  69.610  1.00  0.00     0.810 F  
ENDROOT
BRANCH   5  27
HETATM   27  C   UNL     1      -6.615   5.096  71.011  1.00  0.00    -0.039 C  
HETATM   28  O   UNL     1      -5.819   5.028  71.964  1.00  0.00    -0.021 OA 
BRANCH  27  29
HETATM   29  C   UNL     1      -6.605   3.802  70.080  1.00  0.00    -0.033 C  
BRANCH  29  30
HETATM   30  O   UNL     1      -6.664   4.223  68.615  1.00  0.00    -0.044 OA 
BRANCH  30  31
HETATM   31  C   UNL     1      -6.334   3.344  67.620  1.00  0.00    -0.036 C  
HETATM   32  C   UNL     1      -7.365   2.179  67.592  1.00  0.00    -0.055 C  
HETATM   33  O   UNL     1      -5.354   3.387  66.955  1.00  0.00    -0.011 OA 
ENDBRANCH  30  31
ENDBRANCH  29  30
ENDBRANCH  27  29
ENDBRANCH   5  27
TORSDOF 4
ENDMDL
MODEL      135
REMARK 921   NORMALIZED FREE ENERGY PREDICTED BY IDOCK:    5.14 KCAL/MOL
REMARK 922        TOTAL FREE ENERGY PREDICTED BY IDOCK:    6.54 KCAL/MOL
REMARK 923 INTER-LIGAND FREE ENERGY PREDICTED BY IDOCK:    5.33 KCAL/MOL
REMARK 924 INTRA-LIGAND FREE ENERGY PREDICTED BY IDOCK:    1.21 KCAL/MOL
REMARK 927      BINDING AFFINITY PREDICTED BY RF-SCORE:    0.00 PKD
ROOT
HETATM    1  C   UNL     1     -11.120  17.265  66.972  1.00  0.00     0.250 C  
HETATM    2  C   UNL     1     -11.236  18.364  66.120  1.00  0.00     0.782 C  
HETATM    3  C   UNL     1      -9.991  17.551  65.930  1.00  0.00    -0.155 C  
HETATM    4  C   UNL     1      -9.369  18.671  64.832  1.00  0.00     3.643 C  
HETATM    5  C   UNL     1     -10.039  15.669  66.812  1.00  0.00    -0.272 C  
HETATM    6  C   UNL     1      -7.275  17.102  70.200  1.00  0.00     1.375 C  
HETATM    7  O   UNL     1     -11.283  15.190  67.515  1.00  0.00    -0.318 OA 
HETATM    8  C   UNL     1     -10.363  16.132  65.582  1.00  0.00    -0.405 C  
HETATM    9  C   UNL     1      -8.479  16.027  65.501  1.00  0.00     1.317 C  
HETATM   10  H   UNL     1     -11.305  14.330  67.918  1.00  0.00     0.000 HD 
HETATM   11  C   UNL     1      -7.417  18.210  69.171  1.00  0.00    -0.099 C  
HETATM   12  C   UNL     1      -6.066  18.703  68.531  1.00  0.00    -0.214 C  
HETATM   13  C   UNL     1     -11.378  15.563  64.624  1.00  0.00    -0.363 C  
HETATM   14  O   UNL     1      -5.169  20.345  71.113  1.00  0.00    -0.243 OA 
HETATM   15  C   UNL     1      -7.733  16.450  67.062  1.00  0.00    -0.215 C  
HETATM   16  C   UNL     1      -5.584  19.924  68.819  1.00  0.00    -0.244 C  
HETATM   17  C   UNL     1      -8.319  17.746  67.987  1.00  0.00    -0.249 C  
HETATM   18  O   UNL     1      -7.775  15.262  67.872  1.00  0.00    -0.120 OA 
HETATM   19  H   UNL     1      -7.378  15.488  68.705  1.00  0.00     0.000 HD 
HETATM   20  C   UNL     1      -9.973  17.656  68.333  1.00  0.00    -0.356 C  
HETATM   21  C   UNL     1      -5.954  20.331  70.175  1.00  0.00    -0.351 C  
HETATM   22  C   UNL     1      -7.392  20.465  70.333  1.00  0.00     0.977 C  
HETATM   23  C   UNL     1     -10.421  18.965  69.001  1.00  0.00     0.153 C  
HETATM   24  C   UNL     1      -9.569  19.336  70.199  1.00  0.00     0.936 C  
HETATM   25  C   UNL     1      -8.102  19.412  69.889  1.00  0.00     0.685 C  
HETATM   26  F   UNL     1     -10.026  20.535  70.666  1.00  0.00     0.138 F  
ENDROOT
BRANCH   5  27
HETATM   27  C   UNL     1      -9.755  13.938  66.364  1.00  0.00    -0.297 C  
HETATM   28  O   UNL     1     -10.080  13.449  65.268  1.00  0.00    -0.297 OA 
BRANCH  27  29
HETATM   29  C   UNL     1      -9.157  12.871  67.385  1.00  0.00    -0.197 C  
BRANCH  29  30
HETATM   30  O   UNL     1      -8.477  11.744  66.612  1.00  0.00    -0.176 OA 
BRANCH  30  31
HETATM   31  C   UNL     1      -8.535  10.453  67.060  1.00  0.00    -0.127 C  
HETATM   32  C   UNL     1      -7.444   9.606  66.345  1.00  0.00    -0.094 C  
HETATM   33  O   UNL     1      -9.359  10.009  67.787  1.00  0.00    -0.140 OA 
ENDBRANCH  30  31
ENDBRANCH  29  30
ENDBRANCH  27  29
ENDBRANCH   5  27
TORSDOF 4
ENDMDL
MODEL      136
REMARK 921   NORMALIZED FREE ENERGY PREDICTED BY IDOCK:    5.56 KCAL/MOL
REMARK 922        TOTAL FREE ENERGY PREDICTED BY IDOCK:    7.06 KCAL/MOL
REMARK 923 INTER-LIGAND FREE ENERGY PREDICTED BY IDOCK:    4.98 KCAL/MOL
REMARK 924 INTRA-LIGAND FREE ENERGY PREDICTED BY IDOCK:    2.07 KCAL/MOL
REMARK 927      BINDING AFFINITY PREDICTED BY RF-SCORE:    0.00 PKD
ROOT
HETATM    1  C   UNL     1      -9.234  18.815  69.503  1.00  0.00     0.384 C  
HETATM    2  C   UNL     1      -9.854  20.052  69.686  1.00  0.00     0.104 C  
HETATM    3  C   UNL     1     -10.321  19.286  68.485  1.00  0.00    -0.385 C  
HETATM    4  C   UNL     1     -11.256  20.588  67.958  1.00  0.00     1.300 C  
HETATM    5  C   UNL     1      -9.796  17.274  68.479  1.00  0.00    -0.307 C  
HETATM    6  C   UNL     1      -6.519  18.057  65.347  1.00  0.00    -0.093 C  
HETATM    7  O   UNL     1      -9.064  16.675  69.652  1.00  0.00     0.112 OA 
HETATM    8  C   UNL     1     -10.880  17.955  68.920  1.00  0.00     0.361 C  
HETATM    9  C   UNL     1     -11.179  17.864  67.058  1.00  0.00     0.502 C  
HETATM   10  H   UNL     1      -8.825  15.756  69.650  1.00  0.00     0.000 HD 
HETATM   11  C   UNL     1      -7.307  19.336  65.572  1.00  0.00    -0.079 C  
HETATM   12  C   UNL     1      -7.987  19.936  64.286  1.00  0.00     3.164 C  
HETATM   13  C   UNL     1     -11.812  17.573  70.042  1.00  0.00     3.803 C  
HETATM   14  O   UNL     1      -5.261  21.075  63.089  1.00  0.00    -0.185 OA 
HETATM   15  C   UNL     1      -9.656  17.993  66.144  1.00  0.00    -0.173 C  
HETATM   16  C   UNL     1      -7.535  21.083  63.750  1.00  0.00     1.110 C  
HETATM   17  C   UNL     1      -8.453  19.098  66.603  1.00  0.00    -0.319 C  
HETATM   18  O   UNL     1      -9.076  16.677  66.126  1.00  0.00    -0.316 OA 
HETATM   19  H   UNL     1      -8.263  16.745  65.639  1.00  0.00     0.000 HD 
HETATM   20  C   UNL     1      -7.955  18.948  68.213  1.00  0.00    -0.343 C  
HETATM   21  C   UNL     1      -6.096  21.234  63.968  1.00  0.00    -0.214 C  
HETATM   22  C   UNL     1      -5.763  21.339  65.378  1.00  0.00    -0.190 C  
HETATM   23  C   UNL     1      -7.016  20.113  68.561  1.00  0.00    -0.289 C  
HETATM   24  C   UNL     1      -5.868  20.256  67.580  1.00  0.00    -0.196 C  
HETATM   25  C   UNL     1      -6.313  20.386  66.153  1.00  0.00    -0.247 C  
HETATM   26  F   UNL     1      -5.144  21.350  67.961  1.00  0.00    -0.265 F  
ENDROOT
BRANCH   5  27
HETATM   27  C   UNL     1     -10.580  15.654  68.279  1.00  0.00    -0.262 C  
HETATM   28  O   UNL     1     -11.231  15.090  69.176  1.00  0.00    -0.252 OA 
BRANCH  27  29
HETATM   29  C   UNL     1     -10.408  14.769  66.965  1.00  0.00    -0.255 C  
BRANCH  29  30
HETATM   30  O   UNL     1     -11.775  14.498  66.344  1.00  0.00    -0.372 OA 
BRANCH  30  31
HETATM   31  C   UNL     1     -12.341  13.255  66.412  1.00  0.00    -0.282 C  
HETATM   32  C   UNL     1     -11.833  12.521  67.686  1.00  0.00    -0.381 C  
HETATM   33  O   UNL     1     -13.019  12.757  65.577  1.00  0.00    -0.448 OA 
ENDBRANCH  30  31
ENDBRANCH  29  30
ENDBRANCH  27  29
ENDBRANCH   5  27
TORSDOF 4
ENDMDL
MODEL      137
REMARK 921   NORMALIZED FREE ENERGY PREDICTED BY IDOCK:    5.57 KCAL/MOL
REMARK 922        TOTAL FREE ENERGY PREDICTED BY IDOCK:    7.07 KCAL/MOL
REMARK 923 INTER-LIGAND FREE ENERGY PREDICTED BY IDOCK:    4.58 KCAL/MOL
REMARK 924 INTRA-LIGAND FREE ENERGY PREDICTED BY IDOCK:    2.49 KCAL/MOL
REMARK 927      BINDING AFFINITY PREDICTED BY RF-SCORE:    0.00 PKD
ROOT
HETATM    1  C   UNL     1     -12.257  13.461  68.521  1.00  0.00    -0.132 C  
HETATM    2  C   UNL     1     -12.619  14.255  69.610  1.00  0.00    -0.095 C  
HETATM    3  C   UNL     1     -11.156  13.940  69.520  1.00  0.00    -0.178 C  
HETATM    4  C   UNL     1     -10.860  14.655  71.020  1.00  0.00     0.401 C  
HETATM    5  C   UNL     1     -10.536  13.207  67.676  1.00  0.00    -0.228 C  
HETATM    6  C   UNL     1     -10.233   8.946  69.384  1.00  0.00    -0.210 C  
HETATM    7  O   UNL     1     -11.516  13.090  66.536  1.00  0.00    -0.309 OA 
HETATM    8  C   UNL     1     -10.609  14.449  68.211  1.00  0.00    -0.243 C  
HETATM    9  C   UNL     1      -9.039  13.753  68.994  1.00  0.00     0.267 C  
HETATM   10  H   UNL     1     -11.233  12.755  65.693  1.00  0.00     0.000 HD 
HETATM   11  C   UNL     1     -10.559   9.911  70.510  1.00  0.00    -0.359 C  
HETATM   12  C   UNL     1      -9.524   9.927  71.695  1.00  0.00     2.010 C  
HETATM   13  C   UNL     1     -10.797  15.754  67.480  1.00  0.00    -0.315 C  
HETATM   14  O   UNL     1     -10.528   7.161  72.922  1.00  0.00    -0.219 OA 
HETATM   15  C   UNL     1      -9.196  12.012  69.338  1.00  0.00     1.020 C  
HETATM   16  C   UNL     1      -9.861   9.433  72.899  1.00  0.00     2.759 C  
HETATM   17  C   UNL     1     -10.633  11.374  69.974  1.00  0.00     0.543 C  
HETATM   18  O   UNL     1      -8.901  11.323  68.110  1.00  0.00    -0.145 OA 
HETATM   19  H   UNL     1      -8.984  10.395  68.293  1.00  0.00     0.000 HD 
HETATM   20  C   UNL     1     -12.013  11.739  69.065  1.00  0.00    -0.341 C  
HETATM   21  C   UNL     1     -10.823   8.338  72.769  1.00  0.00    -0.238 C  
HETATM   22  C   UNL     1     -12.082   8.780  72.195  1.00  0.00    -0.441 C  
HETATM   23  C   UNL     1     -13.261  11.278  69.834  1.00  0.00     0.817 C  
HETATM   24  C   UNL     1     -13.183   9.826  70.264  1.00  0.00     0.427 C  
HETATM   25  C   UNL     1     -11.956   9.505  71.068  1.00  0.00    -0.407 C  
HETATM   26  F   UNL     1     -14.313   9.555  70.981  1.00  0.00    -0.246 F  
ENDROOT
BRANCH   5  27
HETATM   27  C   UNL     1      -9.278  13.546  66.419  1.00  0.00    -0.119 C  
HETATM   28  O   UNL     1      -8.094  13.183  66.515  1.00  0.00     0.249 OA 
BRANCH  27  29
HETATM   29  C   UNL     1      -9.567  14.437  65.129  1.00  0.00     0.262 C  
BRANCH  29  30
HETATM   30  O   UNL     1     -11.073  14.551  64.910  1.00  0.00    -0.357 OA 
BRANCH  30  31
HETATM   31  C   UNL     1     -11.626  15.710  64.441  1.00  0.00    -0.249 C  
HETATM   32  C   UNL     1     -10.581  16.859  64.528  1.00  0.00     1.103 C  
HETATM   33  O   UNL     1     -12.760  15.859  64.126  1.00  0.00    -0.447 OA 
ENDBRANCH  30  31
ENDBRANCH  29  30
ENDBRANCH  27  29
ENDBRANCH   5  27
TORSDOF 4
ENDMDL
MODEL      138
REMARK 921   NORMALIZED FREE ENERGY PREDICTED BY IDOCK:    6.01 KCAL/MOL
REMARK 922        TOTAL FREE ENERGY PREDICTED BY IDOCK:    7.61 KCAL/MOL
REMARK 923 INTER-LIGAND FREE ENERGY PREDICTED BY IDOCK:    6.15 KCAL/MOL
REMARK 924 INTRA-LIGAND FREE ENERGY PREDICTED BY IDOCK:    1.46 KCAL/MOL
REMARK 927      BINDING AFFINITY PREDICTED BY RF-SCORE:    0.00 PKD
ROOT
HETATM    1  C   UNL     1     -12.206  13.233  68.407  1.00  0.00    -0.100 C  
HETATM    2  C   UNL     1     -12.224  12.263  69.410  1.00  0.00    -0.120 C  
HETATM    3  C   UNL     1     -10.924  12.996  69.268  1.00  0.00    -0.122 C  
HETATM    4  C   UNL     1     -10.174  11.980  70.386  1.00  0.00     3.168 C  
HETATM    5  C   UNL     1     -11.032  14.749  68.155  1.00  0.00    -0.268 C  
HETATM    6  C   UNL     1      -9.007  12.692  64.573  1.00  0.00     1.485 C  
HETATM    7  O   UNL     1     -12.356  15.229  67.618  1.00  0.00    -0.239 OA 
HETATM    8  C   UNL     1     -11.152  14.472  69.475  1.00  0.00    -0.285 C  
HETATM    9  C   UNL     1      -9.282  14.443  69.215  1.00  0.00     0.174 C  
HETATM   10  H   UNL     1     -12.406  16.030  67.110  1.00  0.00     0.000 HD 
HETATM   11  C   UNL     1      -9.018  11.737  65.754  1.00  0.00    -0.011 C  
HETATM   12  C   UNL     1      -7.602  11.228  66.214  1.00  0.00    -0.032 C  
HETATM   13  C   UNL     1     -11.946  15.234  70.506  1.00  0.00    -0.384 C  
HETATM   14  O   UNL     1      -7.274   9.208  63.769  1.00  0.00    -0.095 OA 
HETATM   15  C   UNL     1      -8.854  13.769  67.622  1.00  0.00    -0.189 C  
HETATM   16  C   UNL     1      -7.244   9.946  66.019  1.00  0.00    -0.106 C  
HETATM   17  C   UNL     1      -9.665  12.415  67.001  1.00  0.00    -0.211 C  
HETATM   18  O   UNL     1      -8.980  14.844  66.675  1.00  0.00    -0.255 OA 
HETATM   19  H   UNL     1      -8.752  14.485  65.825  1.00  0.00     0.000 HD 
HETATM   20  C   UNL     1     -11.347  12.586  66.936  1.00  0.00    -0.383 C  
HETATM   21  C   UNL     1      -7.875   9.400  64.817  1.00  0.00    -0.118 C  
HETATM   22  C   UNL     1      -9.322   9.357  64.929  1.00  0.00    -0.218 C  
HETATM   23  C   UNL     1     -11.977  11.241  66.543  1.00  0.00     0.963 C  
HETATM   24  C   UNL     1     -11.377  10.658  65.279  1.00  0.00     0.845 C  
HETATM   25  C   UNL     1      -9.884  10.510  65.338  1.00  0.00    -0.335 C  
HETATM   26  F   UNL     1     -11.973   9.447  65.068  1.00  0.00     5.312 F  
ENDROOT
BRANCH   5  27
HETATM   27  C   UNL     1     -10.581  16.496  68.304  1.00  0.00    -0.326 C  
HETATM   28  O   UNL     1     -10.638  17.134  69.370  1.00  0.00    -0.321 OA 
BRANCH  27  29
HETATM   29  C   UNL     1     -10.172  17.390  67.049  1.00  0.00    -0.323 C  
BRANCH  29  30
HETATM   30  O   UNL     1     -10.399  18.864  67.373  1.00  0.00    -0.376 OA 
BRANCH  30  31
HETATM   31  C   UNL     1      -9.398  19.625  67.910  1.00  0.00    -0.337 C  
HETATM   32  C   UNL     1      -8.501  20.185  66.769  1.00  0.00    -0.365 C  
HETATM   33  O   UNL     1      -9.167  19.750  69.066  1.00  0.00    -0.274 OA 
ENDBRANCH  30  31
ENDBRANCH  29  30
ENDBRANCH  27  29
ENDBRANCH   5  27
TORSDOF 4
ENDMDL
MODEL      139
REMARK 921   NORMALIZED FREE ENERGY PREDICTED BY IDOCK:    8.04 KCAL/MOL
REMARK 922        TOTAL FREE ENERGY PREDICTED BY IDOCK:   10.11 KCAL/MOL
REMARK 923 INTER-LIGAND FREE ENERGY PREDICTED BY IDOCK:    6.66 KCAL/MOL
REMARK 924 INTRA-LIGAND FREE ENERGY PREDICTED BY IDOCK:    3.45 KCAL/MOL
REMARK 927      BINDING AFFINITY PREDICTED BY RF-SCORE:    0.00 PKD
ROOT
HETATM    1  C   UNL     1      -7.624  10.225  70.572  1.00  0.00     0.413 C  
HETATM    2  C   UNL     1      -8.880  10.827  70.677  1.00  0.00     2.715 C  
HETATM    3  C   UNL     1      -8.873   9.504  69.972  1.00  0.00    -0.246 C  
HETATM    4  C   UNL     1     -10.499   9.666  69.552  1.00  0.00    -0.240 C  
HETATM    5  C   UNL     1      -7.145   8.380  70.246  1.00  0.00    -0.040 C  
HETATM    6  C   UNL     1      -5.704   9.418  66.002  1.00  0.00    -0.049 C  
HETATM    7  O   UNL     1      -6.049   8.880  71.152  1.00  0.00    -0.042 OA 
HETATM    8  C   UNL     1      -8.333   8.441  70.894  1.00  0.00    -0.149 C  
HETATM    9  C   UNL     1      -8.746   7.402  69.373  1.00  0.00    -0.137 C  
HETATM   10  H   UNL     1      -5.260   8.367  71.277  1.00  0.00     0.000 HD 
HETATM   11  C   UNL     1      -7.104   9.972  66.201  1.00  0.00    -0.108 C  
HETATM   12  C   UNL     1      -8.178   9.454  65.174  1.00  0.00    -0.136 C  
HETATM   13  C   UNL     1      -8.604   8.135  72.345  1.00  0.00    -0.245 C  
HETATM   14  O   UNL     1      -7.112  11.271  62.781  1.00  0.00     0.326 OA 
HETATM   15  C   UNL     1      -7.844   7.953  67.940  1.00  0.00    -0.127 C  
HETATM   16  C   UNL     1      -8.688  10.284  64.248  1.00  0.00    -0.217 C  
HETATM   17  C   UNL     1      -7.641   9.607  67.619  1.00  0.00    -0.091 C  
HETATM   18  O   UNL     1      -6.542   7.345  68.015  1.00  0.00    -0.050 OA 
HETATM   19  H   UNL     1      -6.060   7.639  67.251  1.00  0.00     0.000 HD 
HETATM   20  C   UNL     1      -6.955  10.480  68.896  1.00  0.00    -0.070 C  
HETATM   21  C   UNL     1      -7.708  11.295  63.850  1.00  0.00     1.124 C  
HETATM   22  C   UNL     1      -7.341  12.167  64.952  1.00  0.00     4.078 C  
HETATM   23  C   UNL     1      -7.000  11.979  68.564  1.00  0.00    -0.090 C  
HETATM   24  C   UNL     1      -6.392  12.300  67.213  1.00  0.00    -0.150 C  
HETATM   25  C   UNL     1      -7.000  11.522  66.082  1.00  0.00     0.249 C  
HETATM   26  F   UNL     1      -6.542  13.642  67.010  1.00  0.00    -0.060 F  
ENDROOT
BRANCH   5  27
HETATM   27  C   UNL     1      -6.663   6.713  70.759  1.00  0.00    -0.054 C  
HETATM   28  O   UNL     1      -5.878   6.481  71.695  1.00  0.00    -0.035 OA 
BRANCH  27  29
HETATM   29  C   UNL     1      -7.125   5.403  69.978  1.00  0.00    -0.062 C  
BRANCH  29  30
HETATM   30  O   UNL     1      -8.590   5.110  70.288  1.00  0.00    -0.108 OA 
BRANCH  30  31
HETATM   31  C   UNL     1      -9.381   4.459  69.382  1.00  0.00    -0.156 C  
HETATM   32  C   UNL     1      -8.896   4.783  67.940  1.00  0.00    -0.114 C  
HETATM   33  O   UNL     1     -10.359   3.839  69.635  1.00  0.00     0.529 OA 
ENDBRANCH  30  31
ENDBRANCH  29  30
ENDBRANCH  27  29
ENDBRANCH   5  27
TORSDOF 4
ENDMDL
MODEL      140
REMARK 921   NORMALIZED FREE ENERGY PREDICTED BY IDOCK:    8.54 KCAL/MOL
REMARK 922        TOTAL FREE ENERGY PREDICTED BY IDOCK:   10.73 KCAL/MOL
REMARK 923 INTER-LIGAND FREE ENERGY PREDICTED BY IDOCK:    8.89 KCAL/MOL
REMARK 924 INTRA-LIGAND FREE ENERGY PREDICTED BY IDOCK:    1.84 KCAL/MOL
REMARK 927      BINDING AFFINITY PREDICTED BY RF-SCORE:    0.00 PKD
ROOT
HETATM    1  C   UNL     1      -8.182   9.672  67.947  1.00  0.00    -0.106 C  
HETATM    2  C   UNL     1      -7.257  10.710  68.070  1.00  0.00    -0.087 C  
HETATM    3  C   UNL     1      -7.564   9.986  69.347  1.00  0.00    -0.123 C  
HETATM    4  C   UNL     1      -6.656  11.088  70.246  1.00  0.00    -0.015 C  
HETATM    5  C   UNL     1      -8.524   8.159  69.100  1.00  0.00    -0.135 C  
HETATM    6  C   UNL     1     -12.522   9.989  70.455  1.00  0.00    -0.179 C  
HETATM    7  O   UNL     1      -8.801   7.625  67.718  1.00  0.00    -0.126 OA 
HETATM    8  C   UNL     1      -7.224   8.526  69.194  1.00  0.00    -0.068 C  
HETATM    9  C   UNL     1      -7.794   8.562  70.994  1.00  0.00    -0.122 C  
HETATM   10  H   UNL     1      -9.239   6.790  67.606  1.00  0.00     0.000 HD 
HETATM   11  C   UNL     1     -11.422  11.024  70.615  1.00  0.00    -0.133 C  
HETATM   12  C   UNL     1     -11.239  11.583  72.075  1.00  0.00     5.401 C  
HETATM   13  C   UNL     1      -6.027   7.827  68.600  1.00  0.00    -0.035 C  
HETATM   14  O   UNL     1     -13.834  13.432  71.944  1.00  0.00    -0.393 OA 
HETATM   15  C   UNL     1      -9.477   9.129  71.136  1.00  0.00    -0.261 C  
HETATM   16  C   UNL     1     -11.576  12.852  72.363  1.00  0.00     4.350 C  
HETATM   17  C   UNL     1     -10.043  10.426  70.200  1.00  0.00     0.022 C  
HETATM   18  O   UNL     1     -10.316   7.989  70.882  1.00  0.00    -0.199 OA 
HETATM   19  H   UNL     1     -11.214   8.291  70.957  1.00  0.00     0.000 HD 
HETATM   20  C   UNL     1      -9.816  10.227  68.535  1.00  0.00    -0.174 C  
HETATM   21  C   UNL     1     -12.690  13.304  71.529  1.00  0.00    -0.281 C  
HETATM   22  C   UNL     1     -12.342  13.336  70.119  1.00  0.00    -0.306 C  
HETATM   23  C   UNL     1     -10.186  11.533  67.815  1.00  0.00    -0.200 C  
HETATM   24  C   UNL     1     -11.569  12.035  68.184  1.00  0.00    -0.340 C  
HETATM   25  C   UNL     1     -11.768  12.207  69.662  1.00  0.00    -0.396 C  
HETATM   26  F   UNL     1     -11.757  13.219  67.531  1.00  0.00    -0.316 F  
ENDROOT
BRANCH   5  27
HETATM   27  C   UNL     1      -8.337   6.433  69.614  1.00  0.00    -0.126 C  
HETATM   28  O   UNL     1      -7.819   6.087  70.689  1.00  0.00    -0.101 OA 
BRANCH  27  29
HETATM   29  C   UNL     1      -8.728   5.207  68.673  1.00  0.00    -0.093 C  
BRANCH  29  30
HETATM   30  O   UNL     1      -9.572   4.206  69.457  1.00  0.00    -0.181 OA 
BRANCH  30  31
HETATM   31  C   UNL     1     -10.475   4.631  70.391  1.00  0.00     0.121 C  
HETATM   32  C   UNL     1     -11.215   3.403  70.995  1.00  0.00     3.753 C  
HETATM   33  O   UNL     1     -10.748   5.760  70.628  1.00  0.00    -0.261 OA 
ENDBRANCH  30  31
ENDBRANCH  29  30
ENDBRANCH  27  29
ENDBRANCH   5  27
TORSDOF 4
ENDMDL
MODEL      141
REMARK 921   NORMALIZED FREE ENERGY PREDICTED BY IDOCK:    9.17 KCAL/MOL
REMARK 922        TOTAL FREE ENERGY PREDICTED BY IDOCK:   11.51 KCAL/MOL
REMARK 923 INTER-LIGAND FREE ENERGY PREDICTED BY IDOCK:   11.21 KCAL/MOL
REMARK 924 INTRA-LIGAND FREE ENERGY PREDICTED BY IDOCK:    0.31 KCAL/MOL
REMARK 927      BINDING AFFINITY PREDICTED BY RF-SCORE:    0.00 PKD
ROOT
HETATM    1  C   UNL     1      -7.400   5.711  67.715  1.00  0.00    -0.077 C  
HETATM    2  C   UNL     1      -7.214   6.810  66.874  1.00  0.00    -0.081 C  
HETATM    3  C   UNL     1      -8.595   6.681  67.444  1.00  0.00    -0.119 C  
HETATM    4  C   UNL     1      -9.160   7.952  66.490  1.00  0.00    -0.209 C  
HETATM    5  C   UNL     1      -8.751   5.380  69.058  1.00  0.00    -0.101 C  
HETATM    6  C   UNL     1     -10.734   2.193  66.398  1.00  0.00     4.363 C  
HETATM    7  O   UNL     1      -7.524   4.702  69.610  1.00  0.00    -0.051 OA 
HETATM    8  C   UNL     1      -8.525   6.710  68.949  1.00  0.00    -0.123 C  
HETATM    9  C   UNL     1     -10.391   6.586  68.692  1.00  0.00    -0.216 C  
HETATM   10  H   UNL     1      -7.595   4.108  70.348  1.00  0.00     0.000 HD 
HETATM   11  C   UNL     1     -10.546   3.467  65.592  1.00  0.00     1.170 C  
HETATM   12  C   UNL     1     -11.867   4.077  64.992  1.00  0.00     2.695 C  
HETATM   13  C   UNL     1      -7.764   7.594  69.905  1.00  0.00    -0.097 C  
HETATM   14  O   UNL     1     -12.105   1.894  62.680  1.00  0.00     0.044 OA 
HETATM   15  C   UNL     1     -10.831   5.110  67.797  1.00  0.00     0.354 C  
HETATM   16  C   UNL     1     -12.088   4.048  63.666  1.00  0.00     3.052 C  
HETATM   17  C   UNL     1      -9.910   4.584  66.474  1.00  0.00    -0.244 C  
HETATM   18  O   UNL     1     -10.883   4.045  68.763  1.00  0.00     1.721 OA 
HETATM   19  H   UNL     1     -11.118   3.258  68.287  1.00  0.00     0.000 HD 
HETATM   20  C   UNL     1      -8.264   4.383  66.815  1.00  0.00    -0.102 C  
HETATM   21  C   UNL     1     -11.470   2.871  63.055  1.00  0.00     0.442 C  
HETATM   22  C   UNL     1     -10.023   2.885  63.179  1.00  0.00    -0.107 C  
HETATM   23  C   UNL     1      -7.509   4.095  65.507  1.00  0.00    -0.077 C  
HETATM   24  C   UNL     1      -8.112   2.947  64.722  1.00  0.00    -0.086 C  
HETATM   25  C   UNL     1      -9.573   3.127  64.424  1.00  0.00    -0.151 C  
HETATM   26  F   UNL     1      -7.396   2.827  63.565  1.00  0.00    -0.050 F  
ENDROOT
BRANCH   5  27
HETATM   27  C   UNL     1      -9.388   5.369  70.753  1.00  0.00    -0.159 C  
HETATM   28  O   UNL     1     -10.486   5.854  71.078  1.00  0.00    -0.216 OA 
BRANCH  27  29
HETATM   29  C   UNL     1      -8.540   4.830  71.989  1.00  0.00    -0.120 C  
BRANCH  29  30
HETATM   30  O   UNL     1      -7.704   5.965  72.574  1.00  0.00    -0.099 OA 
BRANCH  30  31
HETATM   31  C   UNL     1      -6.512   5.710  73.194  1.00  0.00    -0.067 C  
HETATM   32  C   UNL     1      -5.451   5.302  72.132  1.00  0.00    -0.016 C  
HETATM   33  O   UNL     1      -6.332   5.683  74.365  1.00  0.00    -0.067 OA 
ENDBRANCH  30  31
ENDBRANCH  29  30
ENDBRANCH  27  29
ENDBRANCH   5  27
TORSDOF 4
ENDMDL
MODEL      142
REMARK 921   NORMALIZED FREE ENERGY PREDICTED BY IDOCK:    9.19 KCAL/MOL
REMARK 922        TOTAL FREE ENERGY PREDICTED BY IDOCK:   11.53 KCAL/MOL
REMARK 923 INTER-LIGAND FREE ENERGY PREDICTED BY IDOCK:    8.51 KCAL/MOL
REMARK 924 INTRA-LIGAND FREE ENERGY PREDICTED BY IDOCK:    3.03 KCAL/MOL
REMARK 927      BINDING AFFINITY PREDICTED BY RF-SCORE:    0.00 PKD
ROOT
HETATM    1  C   UNL     1     -10.519  16.571  67.735  1.00  0.00    -0.308 C  
HETATM    2  C   UNL     1     -10.892  16.113  69.000  1.00  0.00    -0.299 C  
HETATM    3  C   UNL     1      -9.532  15.673  68.548  1.00  0.00    -0.200 C  
HETATM    4  C   UNL     1      -9.359  14.665  69.889  1.00  0.00     0.539 C  
HETATM    5  C   UNL     1      -8.768  16.735  66.931  1.00  0.00    -0.216 C  
HETATM    6  C   UNL     1      -9.645  13.213  64.104  1.00  0.00     0.873 C  
HETATM    7  O   UNL     1      -9.539  17.891  66.348  1.00  0.00    -0.295 OA 
HETATM    8  C   UNL     1      -8.675  16.883  68.274  1.00  0.00    -0.235 C  
HETATM    9  C   UNL     1      -7.440  15.498  67.926  1.00  0.00    -0.150 C  
HETATM   10  H   UNL     1      -9.190  18.376  65.609  1.00  0.00     0.000 HD 
HETATM   11  C   UNL     1      -9.955  12.794  65.531  1.00  0.00    -0.234 C  
HETATM   12  C   UNL     1      -9.159  11.538  66.046  1.00  0.00    -0.206 C  
HETATM   13  C   UNL     1      -8.462  18.161  69.045  1.00  0.00    -0.025 C  
HETATM   14  O   UNL     1     -10.905   9.454  64.381  1.00  0.00     3.253 OA 
HETATM   15  C   UNL     1      -8.008  14.430  66.618  1.00  0.00     0.522 C  
HETATM   16  C   UNL     1      -9.793  10.372  66.259  1.00  0.00    -0.272 C  
HETATM   17  C   UNL     1      -9.633  13.953  66.524  1.00  0.00    -0.299 C  
HETATM   18  O   UNL     1      -7.654  15.072  65.381  1.00  0.00     3.712 OA 
HETATM   19  H   UNL     1      -7.956  14.502  64.683  1.00  0.00     0.000 HD 
HETATM   20  C   UNL     1     -10.731  15.241  66.507  1.00  0.00    -0.311 C  
HETATM   21  C   UNL     1     -10.921  10.211  65.342  1.00  0.00     0.872 C  
HETATM   22  C   UNL     1     -11.945  11.221  65.549  1.00  0.00     1.022 C  
HETATM   23  C   UNL     1     -12.161  14.688  66.615  1.00  0.00    -0.229 C  
HETATM   24  C   UNL     1     -12.458  13.623  65.578  1.00  0.00    -0.503 C  
HETATM   25  C   UNL     1     -11.480  12.483  65.592  1.00  0.00    -0.400 C  
HETATM   26  F   UNL     1     -13.726  13.173  65.810  1.00  0.00     0.625 F  
ENDROOT
BRANCH   5  27
HETATM   27  C   UNL     1      -7.270  17.642  66.473  1.00  0.00    -0.252 C  
HETATM   28  O   UNL     1      -6.323  17.135  65.847  1.00  0.00    -0.104 OA 
BRANCH  27  29
HETATM   29  C   UNL     1      -6.997  19.144  66.931  1.00  0.00    -0.199 C  
BRANCH  29  30
HETATM   30  O   UNL     1      -8.325  19.872  67.122  1.00  0.00    -0.297 OA 
BRANCH  30  31
HETATM   31  C   UNL     1      -8.461  20.842  68.076  1.00  0.00     0.293 C  
HETATM   32  C   UNL     1      -7.054  21.306  68.551  1.00  0.00     1.059 C  
HETATM   33  O   UNL     1      -9.482  21.198  68.561  1.00  0.00     0.773 OA 
ENDBRANCH  30  31
ENDBRANCH  29  30
ENDBRANCH  27  29
ENDBRANCH   5  27
TORSDOF 4
ENDMDL
MODEL      143
REMARK 921   NORMALIZED FREE ENERGY PREDICTED BY IDOCK:    9.29 KCAL/MOL
REMARK 922        TOTAL FREE ENERGY PREDICTED BY IDOCK:   11.66 KCAL/MOL
REMARK 923 INTER-LIGAND FREE ENERGY PREDICTED BY IDOCK:    9.48 KCAL/MOL
REMARK 924 INTRA-LIGAND FREE ENERGY PREDICTED BY IDOCK:    2.18 KCAL/MOL
REMARK 927      BINDING AFFINITY PREDICTED BY RF-SCORE:    0.00 PKD
ROOT
HETATM    1  C   UNL     1      -7.072   8.427  70.895  1.00  0.00    -0.057 C  
HETATM    2  C   UNL     1      -6.148   7.502  70.406  1.00  0.00    -0.030 C  
HETATM    3  C   UNL     1      -7.404   7.624  69.596  1.00  0.00    -0.089 C  
HETATM    4  C   UNL     1      -6.954   6.327  68.616  1.00  0.00    -0.080 C  
HETATM    5  C   UNL     1      -8.541   9.315  70.005  1.00  0.00    -0.182 C  
HETATM    6  C   UNL     1     -11.594   6.792  72.345  1.00  0.00    -0.284 C  
HETATM    7  O   UNL     1      -8.053  10.338  70.999  1.00  0.00     0.041 OA 
HETATM    8  C   UNL     1      -7.558   9.043  69.114  1.00  0.00    -0.073 C  
HETATM    9  C   UNL     1      -9.070   8.241  68.318  1.00  0.00    -0.135 C  
HETATM   10  H   UNL     1      -8.573  11.111  71.186  1.00  0.00     0.000 HD 
HETATM   11  C   UNL     1     -10.570   5.869  71.708  1.00  0.00    -0.286 C  
HETATM   12  C   UNL     1     -11.164   4.785  70.734  1.00  0.00     1.395 C  
HETATM   13  C   UNL     1      -6.577  10.012  68.504  1.00  0.00    -0.053 C  
HETATM   14  O   UNL     1     -12.294   2.951  73.085  1.00  0.00     0.398 OA 
HETATM   15  C   UNL     1     -10.157   7.537  69.542  1.00  0.00    -0.189 C  
HETATM   16  C   UNL     1     -11.156   3.485  71.078  1.00  0.00     2.979 C  
HETATM   17  C   UNL     1      -9.538   6.688  70.874  1.00  0.00    -0.183 C  
HETATM   18  O   UNL     1     -10.974   8.614  70.033  1.00  0.00    -0.253 OA 
HETATM   19  H   UNL     1     -11.554   8.239  70.686  1.00  0.00     0.000 HD 
HETATM   20  C   UNL     1      -8.406   7.558  71.782  1.00  0.00    -0.116 C  
HETATM   21  C   UNL     1     -11.271   3.323  72.527  1.00  0.00     0.622 C  
HETATM   22  C   UNL     1     -10.135   3.889  73.234  1.00  0.00    -0.204 C  
HETATM   23  C   UNL     1      -7.781   6.628  72.834  1.00  0.00    -0.096 C  
HETATM   24  C   UNL     1      -8.819   5.915  73.678  1.00  0.00    -0.124 C  
HETATM   25  C   UNL     1      -9.824   5.147  72.870  1.00  0.00    -0.181 C  
HETATM   26  F   UNL     1      -8.148   5.084  74.529  1.00  0.00    -0.096 F  
ENDROOT
BRANCH   5  27
HETATM   27  C   UNL     1      -9.308  10.697  69.122  1.00  0.00    -0.160 C  
HETATM   28  O   UNL     1     -10.476  10.678  68.696  1.00  0.00    -0.171 OA 
BRANCH  27  29
HETATM   29  C   UNL     1      -8.507  12.016  68.724  1.00  0.00     0.068 C  
BRANCH  29  30
HETATM   30  O   UNL     1      -8.790  13.117  69.742  1.00  0.00     1.685 OA 
BRANCH  30  31
HETATM   31  C   UNL     1     -10.070  13.393  70.137  1.00  0.00     2.330 C  
HETATM   32  C   UNL     1     -10.041  14.399  71.324  1.00  0.00     3.017 C  
HETATM   33  O   UNL     1     -11.050  12.866  69.730  1.00  0.00    -0.015 OA 
ENDBRANCH  30  31
ENDBRANCH  29  30
ENDBRANCH  27  29
ENDBRANCH   5  27
TORSDOF 4
ENDMDL
MODEL      144
REMARK 921   NORMALIZED FREE ENERGY PREDICTED BY IDOCK:   11.37 KCAL/MOL
REMARK 922        TOTAL FREE ENERGY PREDICTED BY IDOCK:   14.22 KCAL/MOL
REMARK 923 INTER-LIGAND FREE ENERGY PREDICTED BY IDOCK:   13.32 KCAL/MOL
REMARK 924 INTRA-LIGAND FREE ENERGY PREDICTED BY IDOCK:    0.89 KCAL/MOL
REMARK 927      BINDING AFFINITY PREDICTED BY RF-SCORE:    0.00 PKD
ROOT
HETATM    1  C   UNL     1      -8.779  15.462  66.705  1.00  0.00    -0.332 C  
HETATM    2  C   UNL     1      -7.529  15.336  66.097  1.00  0.00     2.107 C  
HETATM    3  C   UNL     1      -7.628  14.728  67.464  1.00  0.00    -0.215 C  
HETATM    4  C   UNL     1      -5.973  14.400  67.490  1.00  0.00     0.084 C  
HETATM    5  C   UNL     1      -9.570  14.461  68.158  1.00  0.00    -0.218 C  
HETATM    6  C   UNL     1      -9.137  18.064  70.986  1.00  0.00     6.395 C  
HETATM    7  O   UNL     1     -10.745  14.807  67.281  1.00  0.00    -0.282 OA 
HETATM    8  C   UNL     1      -8.707  13.675  67.472  1.00  0.00    -0.198 C  
HETATM    9  C   UNL     1      -8.072  13.535  69.244  1.00  0.00     0.530 C  
HETATM   10  H   UNL     1     -11.632  14.684  67.598  1.00  0.00     0.000 HD 
HETATM   11  C   UNL     1      -7.800  17.794  70.316  1.00  0.00     2.703 C  
HETATM   12  C   UNL     1      -6.607  17.508  71.301  1.00  0.00     3.146 C  
HETATM   13  C   UNL     1      -9.042  12.570  66.503  1.00  0.00    -0.177 C  
HETATM   14  O   UNL     1      -6.277  20.560  72.164  1.00  0.00    -0.478 OA 
HETATM   15  C   UNL     1      -8.249  15.072  70.126  1.00  0.00     0.580 C  
HETATM   16  C   UNL     1      -5.614  18.403  71.444  1.00  0.00     0.120 C  
HETATM   17  C   UNL     1      -7.899  16.553  69.377  1.00  0.00    -0.006 C  
HETATM   18  O   UNL     1      -9.605  15.118  70.604  1.00  0.00    -0.118 OA 
HETATM   19  H   UNL     1      -9.700  15.938  71.074  1.00  0.00     0.000 HD 
HETATM   20  C   UNL     1      -8.738  16.811  67.930  1.00  0.00    -0.203 C  
HETATM   21  C   UNL     1      -6.103  19.768  71.248  1.00  0.00    -0.088 C  
HETATM   22  C   UNL     1      -6.593  19.986  69.898  1.00  0.00    -0.316 C  
HETATM   23  C   UNL     1      -8.200  18.082  67.253  1.00  0.00    -0.224 C  
HETATM   24  C   UNL     1      -8.199  19.283  68.177  1.00  0.00    -0.318 C  
HETATM   25  C   UNL     1      -7.457  19.051  69.462  1.00  0.00     0.035 C  
HETATM   26  F   UNL     1      -7.651  20.326  67.486  1.00  0.00    -0.295 F  
ENDROOT
BRANCH   5  27
HETATM   27  C   UNL     1     -10.608  13.150  68.851  1.00  0.00    -0.131 C  
HETATM   28  O   UNL     1     -11.850  13.199  68.879  1.00  0.00    -0.300 OA 
BRANCH  27  29
HETATM   29  C   UNL     1     -10.006  11.869  69.582  1.00  0.00     1.062 C  
BRANCH  29  30
HETATM   30  O   UNL     1     -10.939  11.432  70.707  1.00  0.00     0.829 OA 
BRANCH  30  31
HETATM   31  C   UNL     1     -11.648  10.266  70.616  1.00  0.00    -0.347 C  
HETATM   32  C   UNL     1     -11.672   9.563  72.004  1.00  0.00    -0.172 C  
HETATM   33  O   UNL     1     -12.079   9.793  69.619  1.00  0.00     0.151 OA 
ENDBRANCH  30  31
ENDBRANCH  29  30
ENDBRANCH  27  29
ENDBRANCH   5  27
TORSDOF 4
ENDMDL
MODEL      145
REMARK 921   NORMALIZED FREE ENERGY PREDICTED BY IDOCK:   11.40 KCAL/MOL
REMARK 922        TOTAL FREE ENERGY PREDICTED BY IDOCK:   14.25 KCAL/MOL
REMARK 923 INTER-LIGAND FREE ENERGY PREDICTED BY IDOCK:   12.71 KCAL/MOL
REMARK 924 INTRA-LIGAND FREE ENERGY PREDICTED BY IDOCK:    1.54 KCAL/MOL
REMARK 927      BINDING AFFINITY PREDICTED BY RF-SCORE:    0.00 PKD
ROOT
HETATM    1  C   UNL     1      -8.632  16.474  66.731  1.00  0.00    -0.263 C  
HETATM    2  C   UNL     1      -7.437  16.479  66.010  1.00  0.00     0.327 C  
HETATM    3  C   UNL     1      -7.872  15.130  66.496  1.00  0.00     0.394 C  
HETATM    4  C   UNL     1      -6.430  14.424  65.977  1.00  0.00     6.328 C  
HETATM    5  C   UNL     1      -9.854  15.026  67.115  1.00  0.00    -0.233 C  
HETATM    6  C   UNL     1      -8.556  14.989  71.528  1.00  0.00     4.282 C  
HETATM    7  O   UNL     1     -10.753  16.230  66.994  1.00  0.00    -0.306 OA 
HETATM    8  C   UNL     1      -9.232  14.803  65.933  1.00  0.00    -0.076 C  
HETATM    9  C   UNL     1      -8.867  13.221  66.896  1.00  0.00    -0.186 C  
HETATM   10  H   UNL     1     -11.659  16.182  67.277  1.00  0.00     0.000 HD 
HETATM   11  C   UNL     1      -7.321  14.927  70.647  1.00  0.00     0.849 C  
HETATM   12  C   UNL     1      -6.398  13.674  70.879  1.00  0.00     0.292 C  
HETATM   13  C   UNL     1      -9.810  14.950  64.549  1.00  0.00     1.071 C  
HETATM   14  O   UNL     1      -5.173  14.787  73.605  1.00  0.00    -0.185 OA 
HETATM   15  C   UNL     1      -8.618  13.552  68.629  1.00  0.00    -0.009 C  
HETATM   16  C   UNL     1      -5.186  13.818  71.443  1.00  0.00    -0.174 C  
HETATM   17  C   UNL     1      -7.725  14.900  69.140  1.00  0.00    -0.164 C  
HETATM   18  O   UNL     1      -9.926  13.625  69.224  1.00  0.00    -0.410 OA 
HETATM   19  H   UNL     1      -9.794  13.802  70.148  1.00  0.00     0.000 HD 
HETATM   20  C   UNL     1      -8.277  16.373  68.516  1.00  0.00    -0.201 C  
HETATM   21  C   UNL     1      -5.175  14.934  72.390  1.00  0.00    -0.043 C  
HETATM   22  C   UNL     1      -5.423  16.208  71.738  1.00  0.00     0.453 C  
HETATM   23  C   UNL     1      -7.283  17.484  68.889  1.00  0.00    -0.249 C  
HETATM   24  C   UNL     1      -6.983  17.528  70.375  1.00  0.00     1.717 C  
HETATM   25  C   UNL     1      -6.496  16.219  70.927  1.00  0.00     1.353 C  
HETATM   26  F   UNL     1      -6.053  18.509  70.571  1.00  0.00    -0.188 F  
ENDROOT
BRANCH   5  27
HETATM   27  C   UNL     1     -11.333  14.025  66.814  1.00  0.00    -0.334 C  
HETATM   28  O   UNL     1     -11.326  12.783  66.769  1.00  0.00    -0.282 OA 
BRANCH  27  29
HETATM   29  C   UNL     1     -12.752  14.666  66.474  1.00  0.00     0.531 C  
BRANCH  29  30
HETATM   30  O   UNL     1     -13.110  14.380  65.019  1.00  0.00    -0.615 OA 
BRANCH  30  31
HETATM   31  C   UNL     1     -12.869  13.153  64.466  1.00  0.00    -0.102 C  
HETATM   32  C   UNL     1     -11.915  13.310  63.248  1.00  0.00    -0.376 C  
HETATM   33  O   UNL     1     -13.393  12.137  64.780  1.00  0.00    -0.488 OA 
ENDBRANCH  30  31
ENDBRANCH  29  30
ENDBRANCH  27  29
ENDBRANCH   5  27
TORSDOF 4
ENDMDL
MODEL      146
REMARK 921   NORMALIZED FREE ENERGY PREDICTED BY IDOCK:   12.14 KCAL/MOL
REMARK 922        TOTAL FREE ENERGY PREDICTED BY IDOCK:   15.17 KCAL/MOL
REMARK 923 INTER-LIGAND FREE ENERGY PREDICTED BY IDOCK:   11.45 KCAL/MOL
REMARK 924 INTRA-LIGAND FREE ENERGY PREDICTED BY IDOCK:    3.71 KCAL/MOL
REMARK 927      BINDING AFFINITY PREDICTED BY RF-SCORE:    0.00 PKD
ROOT
HETATM    1  C   UNL     1      -6.808  14.157  66.640  1.00  0.00     2.073 C  
HETATM    2  C   UNL     1      -7.730  14.295  65.601  1.00  0.00     5.249 C  
HETATM    3  C   UNL     1      -8.314  13.834  66.903  1.00  0.00    -0.029 C  
HETATM    4  C   UNL     1      -9.821  13.576  66.190  1.00  0.00    -0.292 C  
HETATM    5  C   UNL     1      -7.079  14.105  68.554  1.00  0.00    -0.103 C  
HETATM    6  C   UNL     1      -6.099   9.612  68.656  1.00  0.00    -0.043 C  
HETATM    7  O   UNL     1      -5.742  14.782  68.400  1.00  0.00    -0.091 OA 
HETATM    8  C   UNL     1      -8.040  14.861  67.971  1.00  0.00    -0.137 C  
HETATM    9  C   UNL     1      -9.046  13.600  68.952  1.00  0.00     0.174 C  
HETATM   10  H   UNL     1      -5.178  14.906  69.155  1.00  0.00     0.000 HD 
HETATM   11  C   UNL     1      -7.154   9.866  67.594  1.00  0.00    -0.087 C  
HETATM   12  C   UNL     1      -8.499   9.072  67.787  1.00  0.00    -0.117 C  
HETATM   13  C   UNL     1      -8.155  16.365  67.976  1.00  0.00    -0.159 C  
HETATM   14  O   UNL     1      -7.274   6.295  66.809  1.00  0.00    -0.071 OA 
HETATM   15  C   UNL     1      -8.261  12.001  68.959  1.00  0.00     0.252 C  
HETATM   16  C   UNL     1      -8.828   8.077  66.944  1.00  0.00    -0.146 C  
HETATM   17  C   UNL     1      -7.540  11.377  67.556  1.00  0.00    -0.117 C  
HETATM   18  O   UNL     1      -7.269  12.035  70.000  1.00  0.00    -0.156 OA 
HETATM   19  H   UNL     1      -6.850  11.182  70.004  1.00  0.00     0.000 HD 
HETATM   20  C   UNL     1      -6.384  12.398  66.861  1.00  0.00     0.166 C  
HETATM   21  C   UNL     1      -7.634   7.403  66.434  1.00  0.00    -0.088 C  
HETATM   22  C   UNL     1      -6.801   8.288  65.639  1.00  0.00    -0.066 C  
HETATM   23  C   UNL     1      -5.947  11.818  65.507  1.00  0.00     1.720 C  
HETATM   24  C   UNL     1      -5.501  10.372  65.604  1.00  0.00    -0.093 C  
HETATM   25  C   UNL     1      -6.527   9.469  66.224  1.00  0.00    -0.070 C  
HETATM   26  F   UNL     1      -5.194   9.956  64.340  1.00  0.00    -0.054 F  
ENDROOT
BRANCH   5  27
HETATM   27  C   UNL     1      -7.144  14.844  70.206  1.00  0.00     0.162 C  
HETATM   28  O   UNL     1      -6.563  14.366  71.196  1.00  0.00     0.119 OA 
BRANCH  27  29
HETATM   29  C   UNL     1      -8.042  16.115  70.547  1.00  0.00     2.411 C  
BRANCH  29  30
HETATM   30  O   UNL     1      -9.460  15.897  70.029  1.00  0.00    -0.031 OA 
BRANCH  30  31
HETATM   31  C   UNL     1     -10.501  15.703  70.895  1.00  0.00     0.252 C  
HETATM   32  C   UNL     1     -11.779  15.321  70.095  1.00  0.00    -0.342 C  
HETATM   33  O   UNL     1     -10.477  15.907  72.062  1.00  0.00     1.170 OA 
ENDBRANCH  30  31
ENDBRANCH  29  30
ENDBRANCH  27  29
ENDBRANCH   5  27
TORSDOF 4
ENDMDL
MODEL      147
REMARK 921   NORMALIZED FREE ENERGY PREDICTED BY IDOCK:   12.46 KCAL/MOL
REMARK 922        TOTAL FREE ENERGY PREDICTED BY IDOCK:   15.56 KCAL/MOL
REMARK 923 INTER-LIGAND FREE ENERGY PREDICTED BY IDOCK:   14.43 KCAL/MOL
REMARK 924 INTRA-LIGAND FREE ENERGY PREDICTED BY IDOCK:    1.13 KCAL/MOL
REMARK 927      BINDING AFFINITY PREDICTED BY RF-SCORE:    0.00 PKD
ROOT
HETATM    1  C   UNL     1      -8.389  15.713  65.368  1.00  0.00     2.531 C  
HETATM    2  C   UNL     1      -7.085  16.165  65.575  1.00  0.00     3.838 C  
HETATM    3  C   UNL     1      -7.743  15.567  66.782  1.00  0.00    -0.111 C  
HETATM    4  C   UNL     1      -6.449  16.015  67.768  1.00  0.00    -0.178 C  
HETATM    5  C   UNL     1      -9.452  14.453  66.379  1.00  0.00    -0.285 C  
HETATM    6  C   UNL     1     -12.129  17.847  67.953  1.00  0.00     2.934 C  
HETATM    7  O   UNL     1      -9.904  14.242  64.958  1.00  0.00    -0.555 OA 
HETATM    8  C   UNL     1      -8.138  14.142  66.489  1.00  0.00     0.679 C  
HETATM    9  C   UNL     1      -8.680  14.288  68.292  1.00  0.00    -0.179 C  
HETATM   10  H   UNL     1     -10.685  13.732  64.773  1.00  0.00     0.000 HD 
HETATM   11  C   UNL     1     -10.674  18.210  68.194  1.00  0.00    -0.242 C  
HETATM   12  C   UNL     1     -10.294  18.481  69.697  1.00  0.00     0.643 C  
HETATM   13  C   UNL     1      -7.403  13.011  65.816  1.00  0.00     4.200 C  
HETATM   14  O   UNL     1     -11.682  21.351  69.775  1.00  0.00     1.957 OA 
HETATM   15  C   UNL     1      -9.890  15.577  68.509  1.00  0.00    -0.202 C  
HETATM   16  C   UNL     1      -9.992  19.725  70.107  1.00  0.00     0.553 C  
HETATM   17  C   UNL     1      -9.736  17.063  67.706  1.00  0.00    -0.258 C  
HETATM   18  O   UNL     1     -11.164  15.006  68.161  1.00  0.00    -0.281 OA 
HETATM   19  H   UNL     1     -11.810  15.693  68.277  1.00  0.00     0.000 HD 
HETATM   20  C   UNL     1      -9.577  16.928  66.027  1.00  0.00    -0.238 C  
HETATM   21  C   UNL     1     -10.726  20.728  69.334  1.00  0.00     0.962 C  
HETATM   22  C   UNL     1     -10.359  20.713  67.929  1.00  0.00    -0.063 C  
HETATM   23  C   UNL     1      -9.254  18.310  65.437  1.00  0.00     1.412 C  
HETATM   24  C   UNL     1     -10.239  19.378  65.871  1.00  0.00    -0.391 C  
HETATM   25  C   UNL     1     -10.381  19.493  67.361  1.00  0.00    -0.572 C  
HETATM   26  F   UNL     1      -9.817  20.560  65.334  1.00  0.00    -0.361 F  
ENDROOT
BRANCH   5  27
HETATM   27  C   UNL     1     -10.130  12.811  66.727  1.00  0.00    -0.236 C  
HETATM   28  O   UNL     1      -9.494  11.755  66.562  1.00  0.00    -0.202 OA 
BRANCH  27  29
HETATM   29  C   UNL     1     -11.642  12.580  67.172  1.00  0.00    -0.368 C  
BRANCH  29  30
HETATM   30  O   UNL     1     -11.729  11.360  68.085  1.00  0.00    -0.459 OA 
BRANCH  30  31
HETATM   31  C   UNL     1     -12.073  11.493  69.402  1.00  0.00    -0.279 C  
HETATM   32  C   UNL     1     -13.031  10.336  69.808  1.00  0.00     0.508 C  
HETATM   33  O   UNL     1     -11.790  12.406  70.103  1.00  0.00    -0.324 OA 
ENDBRANCH  30  31
ENDBRANCH  29  30
ENDBRANCH  27  29
ENDBRANCH   5  27
TORSDOF 4
ENDMDL
MODEL      148
REMARK 921   NORMALIZED FREE ENERGY PREDICTED BY IDOCK:   12.68 KCAL/MOL
REMARK 922        TOTAL FREE ENERGY PREDICTED BY IDOCK:   15.84 KCAL/MOL
REMARK 923 INTER-LIGAND FREE ENERGY PREDICTED BY IDOCK:   10.61 KCAL/MOL
REMARK 924 INTRA-LIGAND FREE ENERGY PREDICTED BY IDOCK:    5.24 KCAL/MOL
REMARK 927      BINDING AFFINITY PREDICTED BY RF-SCORE:    0.00 PKD
ROOT
HETATM    1  C   UNL     1      -7.630  13.481  68.137  1.00  0.00    -0.138 C  
HETATM    2  C   UNL     1      -6.312  13.405  68.590  1.00  0.00    -0.091 C  
HETATM    3  C   UNL     1      -7.264  14.076  69.534  1.00  0.00     0.095 C  
HETATM    4  C   UNL     1      -6.005  14.518  70.566  1.00  0.00    -0.178 C  
HETATM    5  C   UNL     1      -9.275  13.754  69.115  1.00  0.00     0.408 C  
HETATM    6  C   UNL     1      -9.682  18.007  67.410  1.00  0.00    -0.296 C  
HETATM    7  O   UNL     1      -9.680  12.850  67.980  1.00  0.00    -0.211 OA 
HETATM    8  C   UNL     1      -8.371  13.121  69.900  1.00  0.00     2.442 C  
HETATM    9  C   UNL     1      -8.847  14.619  70.946  1.00  0.00     2.930 C  
HETATM   10  H   UNL     1     -10.599  12.702  67.789  1.00  0.00     0.000 HD 
HETATM   11  C   UNL     1      -8.291  17.838  67.997  1.00  0.00    -0.249 C  
HETATM   12  C   UNL     1      -7.918  18.863  69.132  1.00  0.00    -0.123 C  
HETATM   13  C   UNL     1      -8.356  11.665  70.293  1.00  0.00     3.355 C  
HETATM   14  O   UNL     1      -7.461  21.290  67.116  1.00  0.00    -0.416 OA 
HETATM   15  C   UNL     1      -9.138  16.056  69.935  1.00  0.00     0.391 C  
HETATM   16  C   UNL     1      -6.996  19.816  68.910  1.00  0.00    -0.367 C  
HETATM   17  C   UNL     1      -8.129  16.417  68.620  1.00  0.00    -0.218 C  
HETATM   18  O   UNL     1     -10.489  15.951  69.451  1.00  0.00    -0.225 OA 
HETATM   19  H   UNL     1     -10.645  16.717  68.912  1.00  0.00     0.000 HD 
HETATM   20  C   UNL     1      -7.970  15.156  67.503  1.00  0.00    -0.194 C  
HETATM   21  C   UNL     1      -6.993  20.229  67.507  1.00  0.00    -0.283 C  
HETATM   22  C   UNL     1      -6.612  19.146  66.617  1.00  0.00    -0.201 C  
HETATM   23  C   UNL     1      -6.893  15.526  66.472  1.00  0.00     1.241 C  
HETATM   24  C   UNL     1      -7.135  16.879  65.831  1.00  0.00     0.385 C  
HETATM   25  C   UNL     1      -7.279  17.996  66.823  1.00  0.00    -0.238 C  
HETATM   26  F   UNL     1      -6.091  17.118  64.984  1.00  0.00     0.728 F  
ENDROOT
BRANCH   5  27
HETATM   27  C   UNL     1     -10.777  13.193  69.957  1.00  0.00     1.023 C  
HETATM   28  O   UNL     1     -10.947  13.272  71.186  1.00  0.00     2.248 OA 
BRANCH  27  29
HETATM   29  C   UNL     1     -11.964  12.450  69.196  1.00  0.00    -0.240 C  
BRANCH  29  30
HETATM   30  O   UNL     1     -12.417  13.289  68.005  1.00  0.00    -0.012 OA 
BRANCH  30  31
HETATM   31  C   UNL     1     -11.518  14.026  67.285  1.00  0.00    -0.348 C  
HETATM   32  C   UNL     1     -10.846  13.122  66.212  1.00  0.00    -0.292 C  
HETATM   33  O   UNL     1     -11.202  15.146  67.510  1.00  0.00    -0.318 OA 
ENDBRANCH  30  31
ENDBRANCH  29  30
ENDBRANCH  27  29
ENDBRANCH   5  27
TORSDOF 4
ENDMDL
MODEL      149
REMARK 921   NORMALIZED FREE ENERGY PREDICTED BY IDOCK:   13.81 KCAL/MOL
REMARK 922        TOTAL FREE ENERGY PREDICTED BY IDOCK:   17.23 KCAL/MOL
REMARK 923 INTER-LIGAND FREE ENERGY PREDICTED BY IDOCK:   16.35 KCAL/MOL
REMARK 924 INTRA-LIGAND FREE ENERGY PREDICTED BY IDOCK:    0.89 KCAL/MOL
REMARK 927      BINDING AFFINITY PREDICTED BY RF-SCORE:    0.00 PKD
ROOT
HETATM    1  C   UNL     1      -9.260  18.809  69.508  1.00  0.00     0.384 C  
HETATM    2  C   UNL     1      -9.795  20.097  69.572  1.00  0.00     0.097 C  
HETATM    3  C   UNL     1     -10.382  19.224  68.503  1.00  0.00    -0.385 C  
HETATM    4  C   UNL     1     -11.274  20.512  67.876  1.00  0.00     1.295 C  
HETATM    5  C   UNL     1      -9.974  17.197  68.714  1.00  0.00    -0.315 C  
HETATM    6  C   UNL     1      -6.869  17.390  65.325  1.00  0.00     1.318 C  
HETATM    7  O   UNL     1      -9.201  16.696  69.908  1.00  0.00     0.443 OA 
HETATM    8  C   UNL     1     -10.986  17.994  69.130  1.00  0.00     0.924 C  
HETATM    9  C   UNL     1     -11.411  17.701  67.314  1.00  0.00     0.627 C  
HETATM   10  H   UNL     1      -9.015  15.770  70.004  1.00  0.00     0.000 HD 
HETATM   11  C   UNL     1      -7.566  18.734  65.437  1.00  0.00     0.453 C  
HETATM   12  C   UNL     1      -8.294  19.219  64.128  1.00  0.00     6.778 C  
HETATM   13  C   UNL     1     -11.863  17.808  70.343  1.00  0.00     5.127 C  
HETATM   14  O   UNL     1      -5.591  20.031  62.645  1.00  0.00    -0.263 OA 
HETATM   15  C   UNL     1      -9.945  17.622  66.304  1.00  0.00    -0.318 C  
HETATM   16  C   UNL     1      -7.813  20.263  63.431  1.00  0.00     4.295 C  
HETATM   17  C   UNL     1      -8.655  18.695  66.553  1.00  0.00    -0.307 C  
HETATM   18  O   UNL     1      -9.443  16.279  66.414  1.00  0.00    -0.254 OA 
HETATM   19  H   UNL     1      -8.661  16.236  65.876  1.00  0.00     0.000 HD 
HETATM   20  C   UNL     1      -8.061  18.705  68.138  1.00  0.00    -0.318 C  
HETATM   21  C   UNL     1      -6.357  20.347  63.545  1.00  0.00     0.015 C  
HETATM   22  C   UNL     1      -5.927  20.597  64.910  1.00  0.00    -0.299 C  
HETATM   23  C   UNL     1      -7.037  19.841  68.286  1.00  0.00    -0.336 C  
HETATM   24  C   UNL     1      -5.950  19.793  67.231  1.00  0.00    -0.180 C  
HETATM   25  C   UNL     1      -6.479  19.780  65.826  1.00  0.00    -0.253 C  
HETATM   26  F   UNL     1      -5.142  20.875  67.431  1.00  0.00    -0.173 F  
ENDROOT
BRANCH   5  27
HETATM   27  C   UNL     1     -10.860  15.618  68.760  1.00  0.00    -0.262 C  
HETATM   28  O   UNL     1     -11.639  15.241  67.869  1.00  0.00    -0.339 OA 
BRANCH  27  29
HETATM   29  C   UNL     1     -10.792  14.628  70.008  1.00  0.00    -0.060 C  
BRANCH  29  30
HETATM   30  O   UNL     1     -11.607  15.201  71.163  1.00  0.00    -0.312 OA 
BRANCH  30  31
HETATM   31  C   UNL     1     -12.902  14.811  71.368  1.00  0.00    -0.336 C  
HETATM   32  C   UNL     1     -13.311  15.116  72.837  1.00  0.00    -0.603 C  
HETATM   33  O   UNL     1     -13.579  14.223  70.592  1.00  0.00    -0.099 OA 
ENDBRANCH  30  31
ENDBRANCH  29  30
ENDBRANCH  27  29
ENDBRANCH   5  27
TORSDOF 4
ENDMDL
MODEL      150
REMARK 921   NORMALIZED FREE ENERGY PREDICTED BY IDOCK:   19.25 KCAL/MOL
REMARK 922        TOTAL FREE ENERGY PREDICTED BY IDOCK:   23.94 KCAL/MOL
REMARK 923 INTER-LIGAND FREE ENERGY PREDICTED BY IDOCK:   20.53 KCAL/MOL
REMARK 924 INTRA-LIGAND FREE ENERGY PREDICTED BY IDOCK:    3.41 KCAL/MOL
REMARK 927      BINDING AFFINITY PREDICTED BY RF-SCORE:    0.00 PKD
ROOT
HETATM    1  C   UNL     1      -9.450  17.481  64.787  1.00  0.00     3.830 C  
HETATM    2  C   UNL     1     -10.603  17.864  64.099  1.00  0.00     5.332 C  
HETATM    3  C   UNL     1     -10.708  17.939  65.593  1.00  0.00    -0.055 C  
HETATM    4  C   UNL     1     -12.354  18.300  65.507  1.00  0.00     7.329 C  
HETATM    5  C   UNL     1      -8.889  17.867  66.597  1.00  0.00    -0.268 C  
HETATM    6  C   UNL     1      -9.669  13.511  67.856  1.00  0.00    -0.225 C  
HETATM    7  O   UNL     1      -7.595  17.812  65.825  1.00  0.00    -0.536 OA 
HETATM    8  C   UNL     1      -9.656  18.878  66.126  1.00  0.00    -0.266 C  
HETATM    9  C   UNL     1     -10.538  18.401  67.726  1.00  0.00    -0.419 C  
HETATM   10  H   UNL     1      -6.764  17.780  66.284  1.00  0.00     0.000 HD 
HETATM   11  C   UNL     1     -10.900  14.053  67.151  1.00  0.00    -0.288 C  
HETATM   12  C   UNL     1     -12.225  14.014  67.999  1.00  0.00    -0.188 C  
HETATM   13  C   UNL     1      -9.201  20.243  65.674  1.00  0.00     0.184 C  
HETATM   14  O   UNL     1     -12.632  10.871  67.656  1.00  0.00     1.232 OA 
HETATM   15  C   UNL     1     -10.467  16.644  68.013  1.00  0.00    -0.320 C  
HETATM   16  C   UNL     1     -13.216  13.166  67.674  1.00  0.00     4.008 C  
HETATM   17  C   UNL     1     -10.686  15.543  66.742  1.00  0.00    -0.305 C  
HETATM   18  O   UNL     1      -9.191  16.380  68.625  1.00  0.00    -0.213 OA 
HETATM   19  H   UNL     1      -9.153  15.443  68.778  1.00  0.00     0.000 HD 
HETATM   20  C   UNL     1      -9.647  15.787  65.429  1.00  0.00    -0.072 C  
HETATM   21  C   UNL     1     -12.685  11.943  67.070  1.00  0.00     2.819 C  
HETATM   22  C   UNL     1     -12.006  12.203  65.813  1.00  0.00    -0.267 C  
HETATM   23  C   UNL     1     -10.066  14.863  64.275  1.00  0.00     1.456 C  
HETATM   24  C   UNL     1     -10.181  13.411  64.697  1.00  0.00    -0.315 C  
HETATM   25  C   UNL     1     -11.101  13.198  65.864  1.00  0.00    -0.298 C  
HETATM   26  F   UNL     1     -10.611  12.706  63.610  1.00  0.00    -0.387 F  
ENDROOT
BRANCH   5  27
HETATM   27  C   UNL     1      -7.977  18.803  67.850  1.00  0.00    -0.259 C  
HETATM   28  O   UNL     1      -8.504  19.644  68.599  1.00  0.00    -0.342 OA 
BRANCH  27  29
HETATM   29  C   UNL     1      -6.396  18.701  68.021  1.00  0.00    -0.205 C  
BRANCH  29  30
HETATM   30  O   UNL     1      -5.751  18.399  66.672  1.00  0.00    -0.143 OA 
BRANCH  30  31
HETATM   31  C   UNL     1      -5.847  19.286  65.636  1.00  0.00    -0.171 C  
HETATM   32  C   UNL     1      -5.730  18.522  64.285  1.00  0.00     0.056 C  
HETATM   33  O   UNL     1      -5.892  20.466  65.735  1.00  0.00    -0.175 OA 
ENDBRANCH  30  31
ENDBRANCH  29  30
ENDBRANCH  27  29
ENDBRANCH   5  27
TORSDOF 4
ENDMDL
MODEL      151
REMARK 921   NORMALIZED FREE ENERGY PREDICTED BY IDOCK:   20.00 KCAL/MOL
REMARK 922        TOTAL FREE ENERGY PREDICTED BY IDOCK:   24.87 KCAL/MOL
REMARK 923 INTER-LIGAND FREE ENERGY PREDICTED BY IDOCK:   21.85 KCAL/MOL
REMARK 924 INTRA-LIGAND FREE ENERGY PREDICTED BY IDOCK:    3.02 KCAL/MOL
REMARK 927      BINDING AFFINITY PREDICTED BY RF-SCORE:    0.00 PKD
ROOT
HETATM    1  C   UNL     1     -11.830  15.054  66.395  1.00  0.00    -0.039 C  
HETATM    2  C   UNL     1     -12.846  14.496  65.617  1.00  0.00    -0.109 C  
HETATM    3  C   UNL     1     -12.534  13.745  66.877  1.00  0.00    -0.196 C  
HETATM    4  C   UNL     1     -13.572  12.488  66.441  1.00  0.00     5.900 C  
HETATM    5  C   UNL     1     -11.411  14.807  68.267  1.00  0.00    -0.317 C  
HETATM    6  C   UNL     1      -7.649  12.389  67.191  1.00  0.00    -0.104 C  
HETATM    7  O   UNL     1     -11.029  16.241  68.000  1.00  0.00    -0.334 OA 
HETATM    8  C   UNL     1     -12.741  14.647  68.066  1.00  0.00     0.966 C  
HETATM    9  C   UNL     1     -12.257  13.039  68.930  1.00  0.00    -0.072 C  
HETATM   10  H   UNL     1     -10.517  16.726  68.636  1.00  0.00     0.000 HD 
HETATM   11  C   UNL     1      -8.839  11.815  66.442  1.00  0.00    -0.170 C  
HETATM   12  C   UNL     1      -9.133  10.294  66.722  1.00  0.00    -0.161 C  
HETATM   13  C   UNL     1     -13.846  15.609  68.421  1.00  0.00     6.633 C  
HETATM   14  O   UNL     1      -6.703   9.253  64.939  1.00  0.00    -0.076 OA 
HETATM   15  C   UNL     1     -10.636  12.492  68.432  1.00  0.00    -0.242 C  
HETATM   16  C   UNL     1      -8.920   9.374  65.766  1.00  0.00    -0.227 C  
HETATM   17  C   UNL     1     -10.142  12.588  66.812  1.00  0.00    -0.233 C  
HETATM   18  O   UNL     1      -9.692  13.221  69.236  1.00  0.00    -0.234 OA 
HETATM   19  H   UNL     1      -8.827  12.929  68.970  1.00  0.00     0.000 HD 
HETATM   20  C   UNL     1     -10.278  14.134  66.139  1.00  0.00    -0.313 C  
HETATM   21  C   UNL     1      -7.813   9.767  64.894  1.00  0.00    -0.133 C  
HETATM   22  C   UNL     1      -8.100  10.988  64.161  1.00  0.00     0.431 C  
HETATM   23  C   UNL     1      -9.989  14.056  64.631  1.00  0.00     0.079 C  
HETATM   24  C   UNL     1      -8.672  13.371  64.321  1.00  0.00     4.874 C  
HETATM   25  C   UNL     1      -8.553  12.001  64.922  1.00  0.00     1.168 C  
HETATM   26  F   UNL     1      -8.557  13.313  62.961  1.00  0.00     3.920 F  
ENDROOT
BRANCH   5  27
HETATM   27  C   UNL     1     -11.472  15.261  70.018  1.00  0.00    -0.292 C  
HETATM   28  O   UNL     1     -12.019  14.564  70.891  1.00  0.00    -0.300 OA 
BRANCH  27  29
HETATM   29  C   UNL     1     -10.920  16.651  70.568  1.00  0.00     0.072 C  
BRANCH  29  30
HETATM   30  O   UNL     1     -10.643  16.539  72.064  1.00  0.00     1.782 OA 
BRANCH  30  31
HETATM   31  C   UNL     1     -11.661  16.329  72.952  1.00  0.00    -0.284 C  
HETATM   32  C   UNL     1     -11.929  14.803  73.086  1.00  0.00    -0.237 C  
HETATM   33  O   UNL     1     -12.325  17.172  73.456  1.00  0.00     0.100 OA 
ENDBRANCH  30  31
ENDBRANCH  29  30
ENDBRANCH  27  29
ENDBRANCH   5  27
TORSDOF 4
ENDMDL
MODEL      152
REMARK 921   NORMALIZED FREE ENERGY PREDICTED BY IDOCK:   27.34 KCAL/MOL
REMARK 922        TOTAL FREE ENERGY PREDICTED BY IDOCK:   33.93 KCAL/MOL
REMARK 923 INTER-LIGAND FREE ENERGY PREDICTED BY IDOCK:   31.13 KCAL/MOL
REMARK 924 INTRA-LIGAND FREE ENERGY PREDICTED BY IDOCK:    2.79 KCAL/MOL
REMARK 927      BINDING AFFINITY PREDICTED BY RF-SCORE:    0.00 PKD
ROOT
HETATM    1  C   UNL     1      -7.378  16.090  69.280  1.00  0.00    -0.231 C  
HETATM    2  C   UNL     1      -6.729  15.376  70.288  1.00  0.00     0.088 C  
HETATM    3  C   UNL     1      -7.848  14.639  69.616  1.00  0.00     0.101 C  
HETATM    4  C   UNL     1      -7.731  13.363  70.713  1.00  0.00     4.220 C  
HETATM    5  C   UNL     1      -8.477  15.468  67.816  1.00  0.00    -0.152 C  
HETATM    6  C   UNL     1     -12.255  17.158  69.826  1.00  0.00     3.524 C  
HETATM    7  O   UNL     1      -7.777  16.676  67.249  1.00  0.00    -0.150 OA 
HETATM    8  C   UNL     1      -7.563  14.523  68.140  1.00  0.00    -0.125 C  
HETATM    9  C   UNL     1      -9.192  13.576  68.253  1.00  0.00    -0.195 C  
HETATM   10  H   UNL     1      -8.064  17.054  66.426  1.00  0.00     0.000 HD 
HETATM   11  C   UNL     1     -11.501  16.299  70.826  1.00  0.00    -0.327 C  
HETATM   12  C   UNL     1     -12.322  15.096  71.424  1.00  0.00    -0.411 C  
HETATM   13  C   UNL     1      -6.312  14.157  67.382  1.00  0.00     0.142 C  
HETATM   14  O   UNL     1     -14.063  16.940  73.358  1.00  0.00     0.488 OA 
HETATM   15  C   UNL     1     -10.504  14.604  68.882  1.00  0.00    -0.248 C  
HETATM   16  C   UNL     1     -12.705  15.110  72.713  1.00  0.00    -0.494 C  
HETATM   17  C   UNL     1     -10.232  15.677  70.168  1.00  0.00    -0.210 C  
HETATM   18  O   UNL     1     -11.007  15.357  67.764  1.00  0.00    -0.294 OA 
HETATM   19  H   UNL     1     -11.706  15.906  68.100  1.00  0.00     0.000 HD 
HETATM   20  C   UNL     1      -8.953  16.755  69.909  1.00  0.00     1.161 C  
HETATM   21  C   UNL     1     -12.946  16.476  73.177  1.00  0.00     0.084 C  
HETATM   22  C   UNL     1     -11.739  17.284  73.152  1.00  0.00     0.692 C  
HETATM   23  C   UNL     1      -8.682  17.537  71.204  1.00  0.00     7.869 C  
HETATM   24  C   UNL     1      -9.928  18.194  71.765  1.00  0.00     5.961 C  
HETATM   25  C   UNL     1     -11.061  17.236  71.990  1.00  0.00     1.665 C  
HETATM   26  F   UNL     1      -9.572  18.804  72.934  1.00  0.00     4.190 F  
ENDROOT
BRANCH   5  27
HETATM   27  C   UNL     1      -8.765  14.963  66.101  1.00  0.00     0.190 C  
HETATM   28  O   UNL     1      -7.908  14.404  65.395  1.00  0.00     4.113 OA 
BRANCH  27  29
HETATM   29  C   UNL     1     -10.115  15.292  65.321  1.00  0.00    -0.327 C  
BRANCH  29  30
HETATM   30  O   UNL     1     -10.930  14.015  65.140  1.00  0.00    -0.319 OA 
BRANCH  30  31
HETATM   31  C   UNL     1     -12.228  13.945  65.564  1.00  0.00    -0.444 C  
HETATM   32  C   UNL     1     -12.648  15.311  66.178  1.00  0.00     1.080 C  
HETATM   33  O   UNL     1     -12.900  12.969  65.579  1.00  0.00    -0.509 OA 
ENDBRANCH  30  31
ENDBRANCH  29  30
ENDBRANCH  27  29
ENDBRANCH   5  27
TORSDOF 4
ENDMDL
MODEL      153
REMARK 921   NORMALIZED FREE ENERGY PREDICTED BY IDOCK:   30.97 KCAL/MOL
REMARK 922        TOTAL FREE ENERGY PREDICTED BY IDOCK:   38.40 KCAL/MOL
REMARK 923 INTER-LIGAND FREE ENERGY PREDICTED BY IDOCK:   37.15 KCAL/MOL
REMARK 924 INTRA-LIGAND FREE ENERGY PREDICTED BY IDOCK:    1.25 KCAL/MOL
REMARK 927      BINDING AFFINITY PREDICTED BY RF-SCORE:    0.00 PKD
ROOT
HETATM    1  C   UNL     1     -11.195  13.124  68.344  1.00  0.00    -0.305 C  
HETATM    2  C   UNL     1     -12.104  12.689  69.309  1.00  0.00    -0.218 C  
HETATM    3  C   UNL     1     -10.693  12.227  69.520  1.00  0.00     0.196 C  
HETATM    4  C   UNL     1     -11.159  11.236  70.805  1.00  0.00     0.985 C  
HETATM    5  C   UNL     1      -9.267  13.255  68.411  1.00  0.00    -0.145 C  
HETATM    6  C   UNL     1      -8.841   9.702  65.520  1.00  0.00    -0.204 C  
HETATM    7  O   UNL     1      -9.673  14.411  67.534  1.00  0.00    -0.212 OA 
HETATM    8  C   UNL     1      -9.784  13.422  69.651  1.00  0.00     1.353 C  
HETATM    9  C   UNL     1      -8.548  12.017  69.905  1.00  0.00     2.509 C  
HETATM   10  H   UNL     1      -9.021  14.881  67.028  1.00  0.00     0.000 HD 
HETATM   11  C   UNL     1      -9.766   9.308  66.658  1.00  0.00    -0.281 C  
HETATM   12  C   UNL     1      -9.307   8.051  67.485  1.00  0.00    -0.171 C  
HETATM   13  C   UNL     1      -9.918  14.709  70.425  1.00  0.00     0.832 C  
HETATM   14  O   UNL     1     -10.156   5.963  65.230  1.00  0.00     0.668 OA 
HETATM   15  C   UNL     1      -8.487  10.936  68.491  1.00  0.00    -0.147 C  
HETATM   16  C   UNL     1      -9.990   6.896  67.400  1.00  0.00    -0.212 C  
HETATM   17  C   UNL     1      -9.905  10.478  67.680  1.00  0.00    -0.192 C  
HETATM   18  O   UNL     1      -7.603  11.556  67.539  1.00  0.00    -0.107 OA 
HETATM   19  H   UNL     1      -7.570  10.980  66.785  1.00  0.00     0.000 HD 
HETATM   20  C   UNL     1     -10.856  11.778  67.162  1.00  0.00    -0.303 C  
HETATM   21  C   UNL     1     -10.589   6.734  66.076  1.00  0.00     1.078 C  
HETATM   22  C   UNL     1     -11.579   7.759  65.793  1.00  0.00     6.731 C  
HETATM   23  C   UNL     1     -12.191  11.243  66.621  1.00  0.00     1.765 C  
HETATM   24  C   UNL     1     -12.008  10.167  65.569  1.00  0.00     4.829 C  
HETATM   25  C   UNL     1     -11.162   9.016  66.030  1.00  0.00     2.696 C  
HETATM   26  F   UNL     1     -13.254   9.736  65.210  1.00  0.00    10.472 F  
ENDROOT
BRANCH   5  27
HETATM   27  C   UNL     1      -7.707  14.137  68.668  1.00  0.00    -0.135 C  
HETATM   28  O   UNL     1      -7.526  15.323  68.343  1.00  0.00    -0.106 OA 
BRANCH  27  29
HETATM   29  C   UNL     1      -6.398  13.427  69.237  1.00  0.00    -0.110 C  
BRANCH  29  30
HETATM   30  O   UNL     1      -5.765  14.302  70.314  1.00  0.00    -0.112 OA 
BRANCH  30  31
HETATM   31  C   UNL     1      -6.411  14.535  71.497  1.00  0.00     0.465 C  
HETATM   32  C   UNL     1      -6.523  13.207  72.298  1.00  0.00     3.234 C  
HETATM   33  O   UNL     1      -6.917  15.557  71.820  1.00  0.00     2.298 OA 
ENDBRANCH  30  31
ENDBRANCH  29  30
ENDBRANCH  27  29
ENDBRANCH   5  27
TORSDOF 4
ENDMDL
MODEL      154
REMARK 921   NORMALIZED FREE ENERGY PREDICTED BY IDOCK:   33.42 KCAL/MOL
REMARK 922        TOTAL FREE ENERGY PREDICTED BY IDOCK:   41.43 KCAL/MOL
REMARK 923 INTER-LIGAND FREE ENERGY PREDICTED BY IDOCK:   39.98 KCAL/MOL
REMARK 924 INTRA-LIGAND FREE ENERGY PREDICTED BY IDOCK:    1.45 KCAL/MOL
REMARK 927      BINDING AFFINITY PREDICTED BY RF-SCORE:    0.00 PKD
ROOT
HETATM    1  C   UNL     1      -6.552  12.244  70.375  1.00  0.00     0.698 C  
HETATM    2  C   UNL     1      -7.467  13.240  70.723  1.00  0.00     3.653 C  
HETATM    3  C   UNL     1      -8.068  11.886  70.493  1.00  0.00     4.738 C  
HETATM    4  C   UNL     1      -9.632  12.504  70.636  1.00  0.00     6.887 C  
HETATM    5  C   UNL     1      -6.702  10.319  70.476  1.00  0.00    -0.068 C  
HETATM    6  C   UNL     1      -6.987  10.018  65.894  1.00  0.00    -0.113 C  
HETATM    7  O   UNL     1      -5.243  10.579  70.748  1.00  0.00    -0.063 OA 
HETATM    8  C   UNL     1      -7.454  10.892  71.445  1.00  0.00     4.282 C  
HETATM    9  C   UNL     1      -8.701   9.791  70.552  1.00  0.00    -0.020 C  
HETATM   10  H   UNL     1      -4.619   9.863  70.741  1.00  0.00     0.000 HD 
HETATM   11  C   UNL     1      -8.000  11.036  66.389  1.00  0.00    -0.161 C  
HETATM   12  C   UNL     1      -9.495  10.729  66.007  1.00  0.00    -0.230 C  
HETATM   13  C   UNL     1      -7.152  10.965  72.920  1.00  0.00     7.076 C  
HETATM   14  O   UNL     1      -9.146  11.614  62.964  1.00  0.00    -0.207 OA 
HETATM   15  C   UNL     1      -8.387   9.736  68.799  1.00  0.00    -0.113 C  
HETATM   16  C   UNL     1     -10.139  11.498  65.111  1.00  0.00    -0.313 C  
HETATM   17  C   UNL     1      -7.958  11.138  67.945  1.00  0.00    -0.114 C  
HETATM   18  O   UNL     1      -7.357   8.752  68.597  1.00  0.00    -0.078 OA 
HETATM   19  H   UNL     1      -7.189   8.722  67.663  1.00  0.00     0.000 HD 
HETATM   20  C   UNL     1      -6.614  11.948  68.578  1.00  0.00    -0.061 C  
HETATM   21  C   UNL     1      -9.212  12.031  64.112  1.00  0.00     0.407 C  
HETATM   22  C   UNL     1      -8.222  12.916  64.700  1.00  0.00     4.786 C  
HETATM   23  C   UNL     1      -6.442  13.289  67.847  1.00  0.00    -0.147 C  
HETATM   24  C   UNL     1      -6.405  13.135  66.339  1.00  0.00     2.847 C  
HETATM   25  C   UNL     1      -7.596  12.412  65.780  1.00  0.00     2.115 C  
HETATM   26  F   UNL     1      -6.307  14.388  65.806  1.00  0.00     4.982 F  
ENDROOT
BRANCH   5  27
HETATM   27  C   UNL     1      -6.453   8.710  71.267  1.00  0.00    -0.062 C  
HETATM   28  O   UNL     1      -5.447   8.421  71.938  1.00  0.00    -0.035 OA 
BRANCH  27  29
HETATM   29  C   UNL     1      -7.461   7.490  71.076  1.00  0.00    -0.072 C  
BRANCH  29  30
HETATM   30  O   UNL     1      -8.148   7.178  72.402  1.00  0.00    -0.100 OA 
BRANCH  30  31
HETATM   31  C   UNL     1      -9.443   6.741  72.435  1.00  0.00    -0.143 C  
HETATM   32  C   UNL     1      -9.776   6.205  73.857  1.00  0.00    -0.195 C  
HETATM   33  O   UNL     1     -10.172   6.664  71.503  1.00  0.00    -0.196 OA 
ENDBRANCH  30  31
ENDBRANCH  29  30
ENDBRANCH  27  29
ENDBRANCH   5  27
TORSDOF 4
ENDMDL
MODEL      155
REMARK 921   NORMALIZED FREE ENERGY PREDICTED BY IDOCK:   33.90 KCAL/MOL
REMARK 922        TOTAL FREE ENERGY PREDICTED BY IDOCK:   42.02 KCAL/MOL
REMARK 923 INTER-LIGAND FREE ENERGY PREDICTED BY IDOCK:   37.15 KCAL/MOL
REMARK 924 INTRA-LIGAND FREE ENERGY PREDICTED BY IDOCK:    4.87 KCAL/MOL
REMARK 927      BINDING AFFINITY PREDICTED BY RF-SCORE:    0.00 PKD
ROOT
HETATM    1  C   UNL     1      -8.191   8.299  68.862  1.00  0.00    -0.116 C  
HETATM    2  C   UNL     1      -6.971   7.625  68.934  1.00  0.00    -0.070 C  
HETATM    3  C   UNL     1      -7.715   7.719  70.232  1.00  0.00    -0.089 C  
HETATM    4  C   UNL     1      -6.419   7.049  71.080  1.00  0.00    -0.044 C  
HETATM    5  C   UNL     1      -9.715   8.256  70.051  1.00  0.00    -0.176 C  
HETATM    6  C   UNL     1      -8.787  12.512  71.531  1.00  0.00    16.748 C  
HETATM    7  O   UNL     1     -10.329   8.454  68.689  1.00  0.00    -0.203 OA 
HETATM    8  C   UNL     1      -9.067   7.068  70.088  1.00  0.00    -0.149 C  
HETATM    9  C   UNL     1      -9.116   7.569  71.908  1.00  0.00    -0.153 C  
HETATM   10  H   UNL     1     -11.243   8.699  68.605  1.00  0.00     0.000 HD 
HETATM   11  C   UNL     1      -7.530  11.665  71.633  1.00  0.00     8.057 C  
HETATM   12  C   UNL     1      -6.911  11.562  73.076  1.00  0.00     8.866 C  
HETATM   13  C   UNL     1      -9.496   5.767  69.459  1.00  0.00    -0.168 C  
HETATM   14  O   UNL     1      -5.688  14.505  73.018  1.00  0.00    -0.034 OA 
HETATM   15  C   UNL     1      -8.934   9.330  72.106  1.00  0.00     0.857 C  
HETATM   16  C   UNL     1      -5.742  12.162  73.358  1.00  0.00     1.802 C  
HETATM   17  C   UNL     1      -7.817  10.203  71.174  1.00  0.00     1.611 C  
HETATM   18  O   UNL     1     -10.238   9.903  71.902  1.00  0.00     0.472 OA 
HETATM   19  H   UNL     1     -10.141  10.842  72.008  1.00  0.00     0.000 HD 
HETATM   20  C   UNL     1      -7.999   9.994  69.504  1.00  0.00    -0.161 C  
HETATM   21  C   UNL     1      -5.568  13.376  72.562  1.00  0.00     0.285 C  
HETATM   22  C   UNL     1      -5.492  13.093  71.139  1.00  0.00    -0.184 C  
HETATM   23  C   UNL     1      -6.825  10.671  68.780  1.00  0.00    -0.062 C  
HETATM   24  C   UNL     1      -6.634  12.117  69.195  1.00  0.00    -0.106 C  
HETATM   25  C   UNL     1      -6.476  12.299  70.677  1.00  0.00     0.889 C  
HETATM   26  F   UNL     1      -5.536  12.587  68.532  1.00  0.00    -0.053 F  
ENDROOT
BRANCH   5  27
HETATM   27  C   UNL     1     -11.345   7.672  70.582  1.00  0.00    -0.272 C  
HETATM   28  O   UNL     1     -12.369   7.763  69.884  1.00  0.00     0.713 OA 
BRANCH  27  29
HETATM   29  C   UNL     1     -11.618   7.088  72.039  1.00  0.00    -0.285 C  
BRANCH  29  30
HETATM   30  O   UNL     1     -10.343   6.452  72.585  1.00  0.00    -0.187 OA 
BRANCH  30  31
HETATM   31  C   UNL     1     -10.363   5.197  73.129  1.00  0.00    -0.195 C  
HETATM   32  C   UNL     1      -8.954   4.552  72.999  1.00  0.00    -0.122 C  
HETATM   33  O   UNL     1     -11.324   4.632  73.531  1.00  0.00    -0.321 OA 
ENDBRANCH  30  31
ENDBRANCH  29  30
ENDBRANCH  27  29
ENDBRANCH   5  27
TORSDOF 4
ENDMDL
MODEL      156
REMARK 921   NORMALIZED FREE ENERGY PREDICTED BY IDOCK:   43.14 KCAL/MOL
REMARK 922        TOTAL FREE ENERGY PREDICTED BY IDOCK:   53.42 KCAL/MOL
REMARK 923 INTER-LIGAND FREE ENERGY PREDICTED BY IDOCK:   50.20 KCAL/MOL
REMARK 924 INTRA-LIGAND FREE ENERGY PREDICTED BY IDOCK:    3.22 KCAL/MOL
REMARK 927      BINDING AFFINITY PREDICTED BY RF-SCORE:    0.00 PKD
ROOT
HETATM    1  C   UNL     1     -10.242   8.773  68.134  1.00  0.00    -0.250 C  
HETATM    2  C   UNL     1      -9.622   7.688  68.756  1.00  0.00    -0.153 C  
HETATM    3  C   UNL     1     -10.345   8.616  69.685  1.00  0.00    -0.213 C  
HETATM    4  C   UNL     1      -9.757   7.797  71.038  1.00  0.00    -0.174 C  
HETATM    5  C   UNL     1     -11.669   9.921  68.754  1.00  0.00     0.365 C  
HETATM    6  C   UNL     1      -8.731  13.418  69.304  1.00  0.00     0.784 C  
HETATM    7  O   UNL     1     -11.893   9.844  67.266  1.00  0.00     0.285 OA 
HETATM    8  C   UNL     1     -11.800   8.687  69.297  1.00  0.00     1.275 C  
HETATM    9  C   UNL     1     -11.791   9.808  70.816  1.00  0.00    -0.400 C  
HETATM   10  H   UNL     1     -12.498  10.440  66.840  1.00  0.00     0.000 HD 
HETATM   11  C   UNL     1      -8.180  12.190  70.009  1.00  0.00     2.798 C  
HETATM   12  C   UNL     1      -7.910  12.370  71.549  1.00  0.00    10.869 C  
HETATM   13  C   UNL     1     -12.795   7.619  68.922  1.00  0.00     5.957 C  
HETATM   14  O   UNL     1      -5.263  14.096  71.123  1.00  0.00    -0.118 OA 
HETATM   15  C   UNL     1     -10.689  11.191  70.602  1.00  0.00     1.361 C  
HETATM   16  C   UNL     1      -6.651  12.399  72.019  1.00  0.00     4.734 C  
HETATM   17  C   UNL     1      -9.170  10.992  69.875  1.00  0.00     0.982 C  
HETATM   18  O   UNL     1     -11.418  12.185  69.860  1.00  0.00    -0.464 OA 
HETATM   19  H   UNL     1     -10.831  12.923  69.745  1.00  0.00     0.000 HD 
HETATM   20  C   UNL     1      -9.224  10.271  68.346  1.00  0.00    -0.136 C  
HETATM   21  C   UNL     1      -5.733  12.970  71.033  1.00  0.00    -0.085 C  
HETATM   22  C   UNL     1      -5.650  12.162  69.829  1.00  0.00    -0.100 C  
HETATM   23  C   UNL     1      -7.792   9.970  67.878  1.00  0.00    -0.090 C  
HETATM   24  C   UNL     1      -6.885  11.183  67.945  1.00  0.00    -0.068 C  
HETATM   25  C   UNL     1      -6.841  11.823  69.302  1.00  0.00    -0.093 C  
HETATM   26  F   UNL     1      -5.638  10.778  67.562  1.00  0.00    -0.043 F  
ENDROOT
BRANCH   5  27
HETATM   27  C   UNL     1     -13.400  10.437  68.879  1.00  0.00     4.195 C  
HETATM   28  O   UNL     1     -14.360   9.653  68.784  1.00  0.00     6.363 OA 
BRANCH  27  29
HETATM   29  C   UNL     1     -13.836  11.963  69.017  1.00  0.00     7.300 C  
BRANCH  29  30
HETATM   30  O   UNL     1     -14.321  12.234  70.438  1.00  0.00     4.456 OA 
BRANCH  30  31
HETATM   31  C   UNL     1     -13.455  12.665  71.404  1.00  0.00     0.162 C  
HETATM   32  C   UNL     1     -13.921  12.141  72.793  1.00  0.00     1.056 C  
HETATM   33  O   UNL     1     -12.554  13.418  71.241  1.00  0.00    -0.354 OA 
ENDBRANCH  30  31
ENDBRANCH  29  30
ENDBRANCH  27  29
ENDBRANCH   5  27
TORSDOF 4
ENDMDL
MODEL      157
REMARK 921   NORMALIZED FREE ENERGY PREDICTED BY IDOCK:   44.37 KCAL/MOL
REMARK 922        TOTAL FREE ENERGY PREDICTED BY IDOCK:   54.94 KCAL/MOL
REMARK 923 INTER-LIGAND FREE ENERGY PREDICTED BY IDOCK:   54.42 KCAL/MOL
REMARK 924 INTRA-LIGAND FREE ENERGY PREDICTED BY IDOCK:    0.52 KCAL/MOL
REMARK 927      BINDING AFFINITY PREDICTED BY RF-SCORE:    0.00 PKD
ROOT
HETATM    1  C   UNL     1     -12.006   8.690  67.836  1.00  0.00     3.655 C  
HETATM    2  C   UNL     1     -13.133   8.467  67.042  1.00  0.00    16.666 C  
HETATM    3  C   UNL     1     -11.829   8.098  66.401  1.00  0.00     5.817 C  
HETATM    4  C   UNL     1     -12.588   7.785  64.927  1.00  0.00    19.211 C  
HETATM    5  C   UNL     1     -10.225   7.945  67.715  1.00  0.00    -0.216 C  
HETATM    6  C   UNL     1      -8.549  11.975  66.261  1.00  0.00     0.030 C  
HETATM    7  O   UNL     1     -10.435   8.134  69.195  1.00  0.00    -0.220 OA 
HETATM    8  C   UNL     1     -11.130   7.058  67.238  1.00  0.00    -0.302 C  
HETATM    9  C   UNL     1      -9.915   7.221  65.802  1.00  0.00     0.833 C  
HETATM   10  H   UNL     1      -9.702   8.063  69.796  1.00  0.00     0.000 HD 
HETATM   11  C   UNL     1      -9.751  11.601  65.411  1.00  0.00    -0.255 C  
HETATM   12  C   UNL     1      -9.466  11.489  63.867  1.00  0.00    -0.138 C  
HETATM   13  C   UNL     1     -11.630   5.804  67.910  1.00  0.00     1.490 C  
HETATM   14  O   UNL     1      -9.335  14.644  63.424  1.00  0.00     6.773 OA 
HETATM   15  C   UNL     1      -9.295   8.884  65.655  1.00  0.00    -0.191 C  
HETATM   16  C   UNL     1      -9.971  12.399  63.016  1.00  0.00     0.611 C  
HETATM   17  C   UNL     1     -10.324  10.219  65.851  1.00  0.00    -0.241 C  
HETATM   18  O   UNL     1      -8.215   9.005  66.597  1.00  0.00    -0.115 OA 
HETATM   19  H   UNL     1      -7.884   9.892  66.520  1.00  0.00     0.000 HD 
HETATM   20  C   UNL     1     -11.176  10.226  67.314  1.00  0.00    -0.090 C  
HETATM   21  C   UNL     1     -10.090  13.709  63.655  1.00  0.00     2.144 C  
HETATM   22  C   UNL     1     -11.028  13.695  64.764  1.00  0.00    -0.384 C  
HETATM   23  C   UNL     1     -12.206  11.366  67.293  1.00  0.00     1.005 C  
HETATM   24  C   UNL     1     -11.591  12.707  66.941  1.00  0.00    -0.373 C  
HETATM   25  C   UNL     1     -10.833  12.697  65.646  1.00  0.00    -0.305 C  
HETATM   26  F   UNL     1     -12.606  13.619  66.900  1.00  0.00    -0.375 F  
ENDROOT
BRANCH   5  27
HETATM   27  C   UNL     1      -8.924   6.767  68.158  1.00  0.00    -0.118 C  
HETATM   28  O   UNL     1      -8.569   5.827  67.425  1.00  0.00    -0.108 OA 
BRANCH  27  29
HETATM   29  C   UNL     1      -8.199   6.776  69.577  1.00  0.00    -0.131 C  
BRANCH  29  30
HETATM   30  O   UNL     1      -7.509   5.436  69.811  1.00  0.00    -0.063 OA 
BRANCH  30  31
HETATM   31  C   UNL     1      -7.964   4.571  70.767  1.00  0.00    -0.068 C  
HETATM   32  C   UNL     1      -6.796   4.187  71.720  1.00  0.00    -0.030 C  
HETATM   33  O   UNL     1      -9.046   4.088  70.806  1.00  0.00    -0.093 OA 
ENDBRANCH  30  31
ENDBRANCH  29  30
ENDBRANCH  27  29
ENDBRANCH   5  27
TORSDOF 4
ENDMDL
MODEL      158
REMARK 921   NORMALIZED FREE ENERGY PREDICTED BY IDOCK:   51.11 KCAL/MOL
REMARK 922        TOTAL FREE ENERGY PREDICTED BY IDOCK:   63.25 KCAL/MOL
REMARK 923 INTER-LIGAND FREE ENERGY PREDICTED BY IDOCK:   52.79 KCAL/MOL
REMARK 924 INTRA-LIGAND FREE ENERGY PREDICTED BY IDOCK:   10.47 KCAL/MOL
REMARK 927      BINDING AFFINITY PREDICTED BY RF-SCORE:    0.00 PKD
ROOT
HETATM    1  C   UNL     1     -12.059  13.858  69.600  1.00  0.00    -0.404 C  
HETATM    2  C   UNL     1     -12.881  14.984  69.672  1.00  0.00     0.145 C  
HETATM    3  C   UNL     1     -12.368  14.666  68.299  1.00  0.00     0.041 C  
HETATM    4  C   UNL     1     -13.015  16.093  67.675  1.00  0.00     3.597 C  
HETATM    5  C   UNL     1     -11.581  12.754  68.087  1.00  0.00    -0.336 C  
HETATM    6  C   UNL     1      -7.297  14.430  68.111  1.00  0.00    -0.130 C  
HETATM    7  O   UNL     1     -11.615  11.784  69.241  1.00  0.00    -0.264 OA 
HETATM    8  C   UNL     1     -12.814  13.282  67.901  1.00  0.00     1.607 C  
HETATM    9  C   UNL     1     -11.897  13.814  66.339  1.00  0.00    -0.434 C  
HETATM   10  H   UNL     1     -11.256  10.910  69.144  1.00  0.00     0.000 HD 
HETATM   11  C   UNL     1      -8.283  15.586  68.118  1.00  0.00    -0.144 C  
HETATM   12  C   UNL     1      -8.140  16.592  66.916  1.00  0.00    -0.254 C  
HETATM   13  C   UNL     1     -14.142  12.579  68.019  1.00  0.00    13.257 C  
HETATM   14  O   UNL     1      -5.523  17.986  68.087  1.00  0.00    -0.153 OA 
HETATM   15  C   UNL     1     -10.190  14.194  66.679  1.00  0.00    -0.270 C  
HETATM   16  C   UNL     1      -7.682  17.838  67.124  1.00  0.00    -0.224 C  
HETATM   17  C   UNL     1      -9.749  15.055  68.072  1.00  0.00    -0.213 C  
HETATM   18  O   UNL     1      -9.483  12.940  66.680  1.00  0.00    -0.244 OA 
HETATM   19  H   UNL     1      -8.573  13.142  66.862  1.00  0.00     0.000 HD 
HETATM   20  C   UNL     1     -10.313  14.372  69.514  1.00  0.00     0.027 C  
HETATM   21  C   UNL     1      -6.732  17.871  68.237  1.00  0.00    -0.205 C  
HETATM   22  C   UNL     1      -7.351  17.500  69.497  1.00  0.00     0.228 C  
HETATM   23  C   UNL     1     -10.019  15.333  70.677  1.00  0.00     0.525 C  
HETATM   24  C   UNL     1      -8.565  15.759  70.734  1.00  0.00     2.638 C  
HETATM   25  C   UNL     1      -8.066  16.361  69.452  1.00  0.00    -0.003 C  
HETATM   26  F   UNL     1      -8.443  16.647  71.763  1.00  0.00     6.906 F  
ENDROOT
BRANCH   5  27
HETATM   27  C   UNL     1     -11.760  11.310  67.009  1.00  0.00     0.198 C  
HETATM   28  O   UNL     1     -10.838  10.856  66.309  1.00  0.00    -0.219 OA 
BRANCH  27  29
HETATM   29  C   UNL     1     -13.152  10.567  66.788  1.00  0.00    10.885 C  
BRANCH  29  30
HETATM   30  O   UNL     1     -13.930  10.533  68.100  1.00  0.00     8.623 OA 
BRANCH  30  31
HETATM   31  C   UNL     1     -13.433   9.881  69.194  1.00  0.00     4.301 C  
HETATM   32  C   UNL     1     -12.411  10.798  69.925  1.00  0.00    -0.340 C  
HETATM   33  O   UNL     1     -13.646   8.752  69.484  1.00  0.00     3.650 OA 
ENDBRANCH  30  31
ENDBRANCH  29  30
ENDBRANCH  27  29
ENDBRANCH   5  27
TORSDOF 4
ENDMDL
MODEL      159
REMARK 921   NORMALIZED FREE ENERGY PREDICTED BY IDOCK:   52.52 KCAL/MOL
REMARK 922        TOTAL FREE ENERGY PREDICTED BY IDOCK:   64.99 KCAL/MOL
REMARK 923 INTER-LIGAND FREE ENERGY PREDICTED BY IDOCK:   53.64 KCAL/MOL
REMARK 924 INTRA-LIGAND FREE ENERGY PREDICTED BY IDOCK:   11.35 KCAL/MOL
REMARK 927      BINDING AFFINITY PREDICTED BY RF-SCORE:    0.00 PKD
ROOT
HETATM    1  C   UNL     1     -10.465  10.370  66.884  1.00  0.00    -0.300 C  
HETATM    2  C   UNL     1      -9.974  11.158  65.841  1.00  0.00    -0.285 C  
HETATM    3  C   UNL     1      -8.921  10.505  66.685  1.00  0.00    -0.155 C  
HETATM    4  C   UNL     1      -7.694  11.346  65.889  1.00  0.00     0.241 C  
HETATM    5  C   UNL     1      -9.610   8.961  67.895  1.00  0.00    -0.148 C  
HETATM    6  C   UNL     1      -9.369  11.660  71.612  1.00  0.00    13.467 C  
HETATM    7  O   UNL     1     -11.053   8.531  67.831  1.00  0.00    -0.475 OA 
HETATM    8  C   UNL     1      -9.095   9.009  66.643  1.00  0.00    -0.196 C  
HETATM    9  C   UNL     1      -7.556   9.148  67.728  1.00  0.00    -0.085 C  
HETATM   10  H   UNL     1     -11.368   7.825  68.383  1.00  0.00     0.000 HD 
HETATM   11  C   UNL     1      -8.792  12.403  70.420  1.00  0.00     5.750 C  
HETATM   12  C   UNL     1      -7.301  12.878  70.590  1.00  0.00     3.318 C  
HETATM   13  C   UNL     1      -9.360   8.057  65.504  1.00  0.00     0.200 C  
HETATM   14  O   UNL     1      -8.043  15.289  72.539  1.00  0.00     5.915 OA 
HETATM   15  C   UNL     1      -7.880  10.094  69.203  1.00  0.00    -0.120 C  
HETATM   16  C   UNL     1      -7.014  14.186  70.713  1.00  0.00     0.840 C  
HETATM   17  C   UNL     1      -8.822  11.503  69.147  1.00  0.00     0.263 C  
HETATM   18  O   UNL     1      -8.477   9.188  70.148  1.00  0.00    -0.139 OA 
HETATM   19  H   UNL     1      -8.650   9.692  70.935  1.00  0.00     0.000 HD 
HETATM   20  C   UNL     1     -10.351  11.285  68.456  1.00  0.00    -0.217 C  
HETATM   21  C   UNL     1      -8.102  14.902  71.380  1.00  0.00     3.672 C  
HETATM   22  C   UNL     1      -9.331  14.874  70.607  1.00  0.00     1.533 C  
HETATM   23  C   UNL     1     -11.028  12.653  68.285  1.00  0.00    -0.275 C  
HETATM   24  C   UNL     1     -11.051  13.461  69.568  1.00  0.00    -0.040 C  
HETATM   25  C   UNL     1      -9.694  13.650  70.181  1.00  0.00     2.511 C  
HETATM   26  F   UNL     1     -11.621  14.667  69.278  1.00  0.00    -0.259 F  
ENDROOT
BRANCH   5  27
HETATM   27  C   UNL     1      -9.222   7.231  68.261  1.00  0.00    -0.133 C  
HETATM   28  O   UNL     1      -8.591   6.866  69.269  1.00  0.00    -0.131 OA 
BRANCH  27  29
HETATM   29  C   UNL     1      -9.569   6.039  67.261  1.00  0.00    -0.115 C  
BRANCH  29  30
HETATM   30  O   UNL     1     -10.362   6.578  66.075  1.00  0.00     0.246 OA 
BRANCH  30  31
HETATM   31  C   UNL     1     -11.589   7.154  66.256  1.00  0.00     3.163 C  
HETATM   32  C   UNL     1     -11.797   8.277  65.200  1.00  0.00    12.807 C  
HETATM   33  O   UNL     1     -12.337   6.926  67.147  1.00  0.00     2.788 OA 
ENDBRANCH  30  31
ENDBRANCH  29  30
ENDBRANCH  27  29
ENDBRANCH   5  27
TORSDOF 4
ENDMDL
MODEL      160
REMARK 921   NORMALIZED FREE ENERGY PREDICTED BY IDOCK:   65.23 KCAL/MOL
REMARK 922        TOTAL FREE ENERGY PREDICTED BY IDOCK:   80.68 KCAL/MOL
REMARK 923 INTER-LIGAND FREE ENERGY PREDICTED BY IDOCK:   75.51 KCAL/MOL
REMARK 924 INTRA-LIGAND FREE ENERGY PREDICTED BY IDOCK:    5.17 KCAL/MOL
REMARK 927      BINDING AFFINITY PREDICTED BY RF-SCORE:    0.00 PKD
ROOT
HETATM    1  C   UNL     1      -7.825  16.808  69.346  1.00  0.00     0.096 C  
HETATM    2  C   UNL     1      -7.684  16.947  67.964  1.00  0.00    -0.179 C  
HETATM    3  C   UNL     1      -9.068  17.199  68.484  1.00  0.00    -0.265 C  
HETATM    4  C   UNL     1      -9.684  17.330  66.918  1.00  0.00    -0.275 C  
HETATM    5  C   UNL     1      -9.185  17.492  70.539  1.00  0.00     3.726 C  
HETATM    6  C   UNL     1     -10.916  13.269  71.119  1.00  0.00     3.223 C  
HETATM    7  O   UNL     1      -7.933  17.507  71.378  1.00  0.00     7.255 OA 
HETATM    8  C   UNL     1      -9.034  18.327  69.484  1.00  0.00     0.625 C  
HETATM    9  C   UNL     1     -10.884  17.948  69.450  1.00  0.00     0.780 C  
HETATM   10  H   UNL     1      -7.986  17.641  72.316  1.00  0.00     0.000 HD 
HETATM   11  C   UNL     1     -10.784  13.552  69.633  1.00  0.00     0.262 C  
HETATM   12  C   UNL     1     -12.124  13.451  68.814  1.00  0.00    -0.281 C  
HETATM   13  C   UNL     1      -8.349  19.669  69.465  1.00  0.00     0.284 C  
HETATM   14  O   UNL     1     -12.180  10.263  68.848  1.00  0.00    -0.050 OA 
HETATM   15  C   UNL     1     -11.216  16.267  69.936  1.00  0.00    -0.317 C  
HETATM   16  C   UNL     1     -12.312  12.447  67.940  1.00  0.00     0.489 C  
HETATM   17  C   UNL     1     -10.235  14.992  69.397  1.00  0.00    -0.229 C  
HETATM   18  O   UNL     1     -11.228  16.250  71.374  1.00  0.00    -0.256 OA 
HETATM   19  H   UNL     1     -11.405  15.353  71.634  1.00  0.00     0.000 HD 
HETATM   20  C   UNL     1      -8.588  15.199  69.731  1.00  0.00     0.052 C  
HETATM   21  C   UNL     1     -11.612  11.236  68.370  1.00  0.00    -0.308 C  
HETATM   22  C   UNL     1     -10.172  11.419  68.405  1.00  0.00    -0.206 C  
HETATM   23  C   UNL     1      -7.788  14.088  69.033  1.00  0.00     0.023 C  
HETATM   24  C   UNL     1      -8.305  12.700  69.356  1.00  0.00     1.117 C  
HETATM   25  C   UNL     1      -9.766  12.521  69.062  1.00  0.00     0.313 C  
HETATM   26  F   UNL     1      -7.556  11.812  68.639  1.00  0.00    -0.106 F  
ENDROOT
BRANCH   5  27
HETATM   27  C   UNL     1      -9.859  18.691  71.716  1.00  0.00     5.452 C  
HETATM   28  O   UNL     1      -9.258  19.719  72.071  1.00  0.00     2.570 OA 
BRANCH  27  29
HETATM   29  C   UNL     1     -11.241  18.467  72.477  1.00  0.00     3.523 C  
BRANCH  29  30
HETATM   30  O   UNL     1     -12.402  18.781  71.538  1.00  0.00    10.459 OA 
BRANCH  30  31
HETATM   31  C   UNL     1     -12.360  19.869  70.711  1.00  0.00    15.225 C  
HETATM   32  C   UNL     1     -13.481  20.870  71.110  1.00  0.00    18.620 C  
HETATM   33  O   UNL     1     -11.663  19.989  69.760  1.00  0.00     3.894 OA 
ENDBRANCH  30  31
ENDBRANCH  29  30
ENDBRANCH  27  29
ENDBRANCH   5  27
TORSDOF 4
ENDMDL
