MODEL        1
REMARK 921   NORMALIZED FREE ENERGY PREDICTED BY IDOCK:   -7.47 KCAL/MOL
REMARK 922        TOTAL FREE ENERGY PREDICTED BY IDOCK:  -10.74 KCAL/MOL
REMARK 923 INTER-LIGAND FREE ENERGY PREDICTED BY IDOCK:   -9.66 KCAL/MOL
REMARK 924 INTRA-LIGAND FREE ENERGY PREDICTED BY IDOCK:   -1.08 KCAL/MOL
REMARK 927      BINDING AFFINITY PREDICTED BY RF-SCORE:    0.00 PKD
ROOT
HETATM    1  C   UNL     1     -14.241   8.533  72.102  1.00  0.00    -0.516 C  
HETATM    2  C   UNL     1     -13.256   9.686  72.040  1.00  0.00    -0.546 C  
ENDROOT
BRANCH   2   3
HETATM    3  C   UNL     1     -12.111   9.338  71.117  1.00  0.00    -0.316 C  
HETATM    4  O   UNL     1     -11.704   8.191  71.005  1.00  0.00    -0.285 OA 
HETATM    5  N   UNL     1     -11.621  10.406  70.356  1.00  0.00    -0.312 N  
HETATM    6  H   UNL     1     -12.069  11.314  70.483  1.00  0.00     0.000 HD 
BRANCH   5   7
HETATM    7  S   UNL     1     -10.373  10.322  69.264  1.00  0.00    -0.245 S  
HETATM    8  O   UNL     1      -9.162  10.295  70.065  1.00  0.00    -0.100 OA 
HETATM    9  O   UNL     1     -10.636   9.282  68.291  1.00  0.00    -0.216 OA 
BRANCH   7  10
HETATM   10  C   UNL     1     -10.443  11.902  68.463  1.00  0.00    -0.224 A  
HETATM   11  C   UNL     1     -11.577  12.701  68.603  1.00  0.00    -0.356 A  
HETATM   12  C   UNL     1     -11.727  13.836  67.795  1.00  0.00    -0.393 A  
HETATM   13  C   UNL     1     -10.729  14.209  66.882  1.00  0.00    -0.286 A  
HETATM   14  C   UNL     1      -9.520  13.494  66.907  1.00  0.00    -0.258 A  
HETATM   15  C   UNL     1      -9.386  12.324  67.663  1.00  0.00    -0.186 A  
BRANCH  13  16
HETATM   16  C   UNL     1     -10.972  15.206  65.834  1.00  0.00    -0.339 A  
HETATM   17  C   UNL     1     -11.524  14.965  64.585  1.00  0.00    -0.379 A  
HETATM   18  C   UNL     1     -12.048  13.814  63.821  1.00  0.00    -0.385 C  
HETATM   19  O   UNL     1     -11.585  16.129  63.890  1.00  0.00    -0.834 OA 
HETATM   20  N   UNL     1     -11.059  17.152  64.626  1.00  0.00    -1.007 NA 
HETATM   21  C   UNL     1     -10.653  16.623  65.792  1.00  0.00    -0.268 A  
BRANCH  21  22
HETATM   22  C   UNL     1     -10.008  17.502  66.782  1.00  0.00    -0.313 A  
HETATM   23  C   UNL     1     -10.670  18.659  67.227  1.00  0.00    -0.449 A  
HETATM   24  C   UNL     1     -10.122  19.459  68.235  1.00  0.00    -0.531 A  
HETATM   25  C   UNL     1      -8.913  19.104  68.826  1.00  0.00    -0.388 A  
HETATM   26  C   UNL     1      -8.220  17.987  68.364  1.00  0.00    -0.305 A  
HETATM   27  C   UNL     1      -8.746  17.219  67.321  1.00  0.00    -0.221 A  
ENDBRANCH  21  22
ENDBRANCH  13  16
ENDBRANCH   7  10
ENDBRANCH   5   7
ENDBRANCH   2   3
TORSDOF 5
ENDMDL
MODEL        2
REMARK 921   NORMALIZED FREE ENERGY PREDICTED BY IDOCK:   -7.30 KCAL/MOL
REMARK 922        TOTAL FREE ENERGY PREDICTED BY IDOCK:  -10.51 KCAL/MOL
REMARK 923 INTER-LIGAND FREE ENERGY PREDICTED BY IDOCK:  -10.49 KCAL/MOL
REMARK 924 INTRA-LIGAND FREE ENERGY PREDICTED BY IDOCK:   -0.02 KCAL/MOL
REMARK 927      BINDING AFFINITY PREDICTED BY RF-SCORE:    0.00 PKD
ROOT
HETATM    1  C   UNL     1      -9.527  10.336  64.047  1.00  0.00    -0.356 C  
HETATM    2  C   UNL     1      -9.883  11.352  62.978  1.00  0.00    -0.373 C  
ENDROOT
BRANCH   2   3
HETATM    3  C   UNL     1     -10.919  12.317  63.507  1.00  0.00    -0.459 C  
HETATM    4  O   UNL     1     -12.116  12.094  63.402  1.00  0.00    -0.503 OA 
HETATM    5  N   UNL     1     -10.400  13.426  64.187  1.00  0.00    -0.638 N  
HETATM    6  H   UNL     1      -9.385  13.489  64.269  1.00  0.00     0.000 HD 
BRANCH   5   7
HETATM    7  S   UNL     1     -11.295  14.645  64.871  1.00  0.00    -0.408 S  
HETATM    8  O   UNL     1     -10.439  15.818  64.836  1.00  0.00    -0.499 OA 
HETATM    9  O   UNL     1     -12.618  14.680  64.280  1.00  0.00    -0.688 OA 
BRANCH   7  10
HETATM   10  C   UNL     1     -11.426  14.135  66.564  1.00  0.00    -0.358 A  
HETATM   11  C   UNL     1     -11.705  12.803  66.868  1.00  0.00    -0.447 A  
HETATM   12  C   UNL     1     -12.032  12.448  68.183  1.00  0.00    -0.272 A  
HETATM   13  C   UNL     1     -12.033  13.404  69.210  1.00  0.00    -0.367 A  
HETATM   14  C   UNL     1     -11.561  14.691  68.905  1.00  0.00    -0.340 A  
HETATM   15  C   UNL     1     -11.294  15.071  67.585  1.00  0.00    -0.342 A  
BRANCH  13  16
HETATM   16  C   UNL     1     -12.639  13.133  70.518  1.00  0.00    -0.237 A  
HETATM   17  C   UNL     1     -13.243  14.064  71.350  1.00  0.00    -0.334 A  
HETATM   18  C   UNL     1     -13.531  15.513  71.349  1.00  0.00    -0.583 C  
HETATM   19  O   UNL     1     -13.679  13.442  72.475  1.00  0.00    -0.613 OA 
HETATM   20  N   UNL     1     -13.359  12.115  72.441  1.00  0.00    -0.298 NA 
HETATM   21  C   UNL     1     -12.705  11.902  71.287  1.00  0.00    -0.298 A  
BRANCH  21  22
HETATM   22  C   UNL     1     -12.205  10.548  70.995  1.00  0.00    -0.505 A  
HETATM   23  C   UNL     1     -10.986  10.384  70.315  1.00  0.00    -0.353 A  
HETATM   24  C   UNL     1     -10.443   9.112  70.110  1.00  0.00    -0.249 A  
HETATM   25  C   UNL     1     -11.101   7.987  70.597  1.00  0.00    -0.266 A  
HETATM   26  C   UNL     1     -12.333   8.127  71.230  1.00  0.00    -0.285 A  
HETATM   27  C   UNL     1     -12.899   9.396  71.389  1.00  0.00    -0.423 A  
ENDBRANCH  21  22
ENDBRANCH  13  16
ENDBRANCH   7  10
ENDBRANCH   5   7
ENDBRANCH   2   3
TORSDOF 5
ENDMDL
MODEL        3
REMARK 921   NORMALIZED FREE ENERGY PREDICTED BY IDOCK:   -7.29 KCAL/MOL
REMARK 922        TOTAL FREE ENERGY PREDICTED BY IDOCK:  -10.50 KCAL/MOL
REMARK 923 INTER-LIGAND FREE ENERGY PREDICTED BY IDOCK:   -9.71 KCAL/MOL
REMARK 924 INTRA-LIGAND FREE ENERGY PREDICTED BY IDOCK:   -0.79 KCAL/MOL
REMARK 927      BINDING AFFINITY PREDICTED BY RF-SCORE:    0.00 PKD
ROOT
HETATM    1  C   UNL     1      -9.005   7.070  74.038  1.00  0.00    -0.228 C  
HETATM    2  C   UNL     1     -10.049   6.022  74.375  1.00  0.00    -0.316 C  
ENDROOT
BRANCH   2   3
HETATM    3  C   UNL     1     -11.121   6.000  73.311  1.00  0.00    -0.155 C  
HETATM    4  O   UNL     1     -11.705   4.969  73.011  1.00  0.00    -0.297 OA 
HETATM    5  N   UNL     1     -11.438   7.251  72.768  1.00  0.00    -0.505 N  
HETATM    6  H   UNL     1     -10.931   8.059  73.128  1.00  0.00     0.000 HD 
BRANCH   5   7
HETATM    7  S   UNL     1     -12.571   7.531  71.586  1.00  0.00    -0.354 S  
HETATM    8  O   UNL     1     -12.203   6.658  70.486  1.00  0.00    -0.364 OA 
HETATM    9  O   UNL     1     -13.903   7.480  72.154  1.00  0.00    -0.176 OA 
BRANCH   7  10
HETATM   10  C   UNL     1     -12.213   9.194  71.084  1.00  0.00    -0.285 A  
HETATM   11  C   UNL     1     -13.002  10.245  71.552  1.00  0.00    -0.556 A  
HETATM   12  C   UNL     1     -12.866  11.518  70.983  1.00  0.00    -0.358 A  
HETATM   13  C   UNL     1     -11.911  11.764  69.985  1.00  0.00    -0.421 A  
HETATM   14  C   UNL     1     -11.006  10.734  69.677  1.00  0.00    -0.320 A  
HETATM   15  C   UNL     1     -11.176   9.444  70.192  1.00  0.00    -0.253 A  
BRANCH  13  16
HETATM   16  C   UNL     1     -11.935  12.988  69.176  1.00  0.00    -0.320 A  
HETATM   17  C   UNL     1     -11.650  13.082  67.823  1.00  0.00    -0.340 A  
HETATM   18  C   UNL     1     -11.258  12.182  66.719  1.00  0.00    -0.375 C  
HETATM   19  O   UNL     1     -11.769  14.376  67.429  1.00  0.00    -0.362 OA 
HETATM   20  N   UNL     1     -12.099  15.169  68.491  1.00  0.00    -0.196 NA 
HETATM   21  C   UNL     1     -12.178  14.366  69.566  1.00  0.00    -0.282 A  
BRANCH  21  22
HETATM   22  C   UNL     1     -12.490  14.964  70.874  1.00  0.00    -0.395 A  
HETATM   23  C   UNL     1     -13.829  15.153  71.256  1.00  0.00    -0.553 A  
HETATM   24  C   UNL     1     -14.154  15.630  72.530  1.00  0.00    -0.562 A  
HETATM   25  C   UNL     1     -13.145  15.909  73.447  1.00  0.00    -0.694 A  
HETATM   26  C   UNL     1     -11.811  15.774  73.070  1.00  0.00    -0.551 A  
HETATM   27  C   UNL     1     -11.489  15.346  71.779  1.00  0.00    -0.497 A  
ENDBRANCH  21  22
ENDBRANCH  13  16
ENDBRANCH   7  10
ENDBRANCH   5   7
ENDBRANCH   2   3
TORSDOF 5
ENDMDL
MODEL        4
REMARK 921   NORMALIZED FREE ENERGY PREDICTED BY IDOCK:   -7.27 KCAL/MOL
REMARK 922        TOTAL FREE ENERGY PREDICTED BY IDOCK:  -10.47 KCAL/MOL
REMARK 923 INTER-LIGAND FREE ENERGY PREDICTED BY IDOCK:   -9.29 KCAL/MOL
REMARK 924 INTRA-LIGAND FREE ENERGY PREDICTED BY IDOCK:   -1.18 KCAL/MOL
REMARK 927      BINDING AFFINITY PREDICTED BY RF-SCORE:    0.00 PKD
ROOT
HETATM    1  C   UNL     1     -10.028  16.904  66.982  1.00  0.00    -0.279 C  
HETATM    2  C   UNL     1     -10.548  17.339  65.625  1.00  0.00    -0.173 C  
ENDROOT
BRANCH   2   3
HETATM    3  C   UNL     1     -11.266  16.191  64.955  1.00  0.00    -0.285 C  
HETATM    4  O   UNL     1     -11.768  16.308  63.846  1.00  0.00    -0.986 OA 
HETATM    5  N   UNL     1     -11.239  14.984  65.663  1.00  0.00    -0.341 N  
HETATM    6  H   UNL     1     -10.744  14.978  66.556  1.00  0.00     0.000 HD 
BRANCH   5   7
HETATM    7  S   UNL     1     -11.942  13.561  65.175  1.00  0.00    -0.393 S  
HETATM    8  O   UNL     1     -13.373  13.810  65.202  1.00  0.00    -0.688 OA 
HETATM    9  O   UNL     1     -11.301  13.080  63.968  1.00  0.00    -0.374 OA 
BRANCH   7  10
HETATM   10  C   UNL     1     -11.572  12.458  66.513  1.00  0.00    -0.387 A  
HETATM   11  C   UNL     1     -11.805  12.860  67.828  1.00  0.00    -0.391 A  
HETATM   12  C   UNL     1     -11.305  12.089  68.885  1.00  0.00    -0.333 A  
HETATM   13  C   UNL     1     -10.617  10.890  68.643  1.00  0.00    -0.224 A  
HETATM   14  C   UNL     1     -10.571  10.420  67.320  1.00  0.00    -0.322 A  
HETATM   15  C   UNL     1     -11.009  11.212  66.253  1.00  0.00    -0.227 A  
BRANCH  13  16
HETATM   16  C   UNL     1      -9.842  10.217  69.690  1.00  0.00    -0.254 A  
HETATM   17  C   UNL     1      -8.460  10.187  69.797  1.00  0.00    -0.128 A  
HETATM   18  C   UNL     1      -7.291  10.712  69.061  1.00  0.00    -0.108 C  
HETATM   19  O   UNL     1      -8.111   9.461  70.890  1.00  0.00    -0.256 OA 
HETATM   20  N   UNL     1      -9.224   8.972  71.513  1.00  0.00    -0.303 NA 
HETATM   21  C   UNL     1     -10.283   9.385  70.797  1.00  0.00    -0.299 A  
BRANCH  21  22
HETATM   22  C   UNL     1     -11.630   8.972  71.224  1.00  0.00    -0.387 A  
HETATM   23  C   UNL     1     -12.567   9.942  71.621  1.00  0.00    -0.519 A  
HETATM   24  C   UNL     1     -13.881   9.586  71.939  1.00  0.00    -0.338 A  
HETATM   25  C   UNL     1     -14.283   8.257  71.849  1.00  0.00    -0.535 A  
HETATM   26  C   UNL     1     -13.357   7.276  71.504  1.00  0.00    -0.435 A  
HETATM   27  C   UNL     1     -12.031   7.629  71.236  1.00  0.00    -0.330 A  
ENDBRANCH  21  22
ENDBRANCH  13  16
ENDBRANCH   7  10
ENDBRANCH   5   7
ENDBRANCH   2   3
TORSDOF 5
ENDMDL
MODEL        5
REMARK 921   NORMALIZED FREE ENERGY PREDICTED BY IDOCK:   -7.25 KCAL/MOL
REMARK 922        TOTAL FREE ENERGY PREDICTED BY IDOCK:  -10.44 KCAL/MOL
REMARK 923 INTER-LIGAND FREE ENERGY PREDICTED BY IDOCK:   -9.40 KCAL/MOL
REMARK 924 INTRA-LIGAND FREE ENERGY PREDICTED BY IDOCK:   -1.05 KCAL/MOL
REMARK 927      BINDING AFFINITY PREDICTED BY RF-SCORE:    0.00 PKD
ROOT
HETATM    1  C   UNL     1      -9.929  19.371  69.384  1.00  0.00    -0.210 C  
HETATM    2  C   UNL     1     -10.655  19.862  68.146  1.00  0.00    -0.357 C  
ENDROOT
BRANCH   2   3
HETATM    3  C   UNL     1     -10.159  19.117  66.928  1.00  0.00    -0.373 C  
HETATM    4  O   UNL     1      -9.547  19.685  66.035  1.00  0.00    -0.380 OA 
HETATM    5  N   UNL     1     -10.387  17.736  66.948  1.00  0.00    -0.346 N  
HETATM    6  H   UNL     1     -10.858  17.352  67.768  1.00  0.00     0.000 HD 
BRANCH   5   7
HETATM    7  S   UNL     1      -9.955  16.668  65.752  1.00  0.00    -0.183 S  
HETATM    8  O   UNL     1     -10.921  16.873  64.687  1.00  0.00    -0.894 OA 
HETATM    9  O   UNL     1      -8.534  16.769  65.487  1.00  0.00    -0.211 OA 
BRANCH   7  10
HETATM   10  C   UNL     1     -10.302  15.092  66.486  1.00  0.00    -0.284 A  
HETATM   11  C   UNL     1     -11.580  14.545  66.382  1.00  0.00    -0.370 A  
HETATM   12  C   UNL     1     -11.915  13.420  67.148  1.00  0.00    -0.415 A  
HETATM   13  C   UNL     1     -10.967  12.805  67.980  1.00  0.00    -0.266 A  
HETATM   14  C   UNL     1      -9.641  13.264  67.911  1.00  0.00    -0.217 A  
HETATM   15  C   UNL     1      -9.312  14.424  67.201  1.00  0.00    -0.226 A  
BRANCH  13  16
HETATM   16  C   UNL     1     -11.353  11.821  68.997  1.00  0.00    -0.338 A  
HETATM   17  C   UNL     1     -11.190  10.446  68.911  1.00  0.00    -0.235 A  
HETATM   18  C   UNL     1     -10.651   9.464  67.948  1.00  0.00    -0.293 C  
HETATM   19  O   UNL     1     -11.672   9.867  70.040  1.00  0.00    -0.215 OA 
HETATM   20  N   UNL     1     -12.187  10.814  70.879  1.00  0.00    -0.357 NA 
HETATM   21  C   UNL     1     -12.037  12.000  70.266  1.00  0.00    -0.312 A  
BRANCH  21  22
HETATM   22  C   UNL     1     -12.539  13.211  70.935  1.00  0.00    -0.377 A  
HETATM   23  C   UNL     1     -12.092  14.477  70.518  1.00  0.00    -0.395 A  
HETATM   24  C   UNL     1     -12.625  15.646  71.072  1.00  0.00    -0.515 A  
HETATM   25  C   UNL     1     -13.623  15.567  72.038  1.00  0.00    -0.595 A  
HETATM   26  C   UNL     1     -14.043  14.321  72.498  1.00  0.00    -0.437 A  
HETATM   27  C   UNL     1     -13.473  13.155  71.979  1.00  0.00    -0.598 A  
ENDBRANCH  21  22
ENDBRANCH  13  16
ENDBRANCH   7  10
ENDBRANCH   5   7
ENDBRANCH   2   3
TORSDOF 5
ENDMDL
MODEL        6
REMARK 921   NORMALIZED FREE ENERGY PREDICTED BY IDOCK:   -7.20 KCAL/MOL
REMARK 922        TOTAL FREE ENERGY PREDICTED BY IDOCK:  -10.39 KCAL/MOL
REMARK 923 INTER-LIGAND FREE ENERGY PREDICTED BY IDOCK:   -9.63 KCAL/MOL
REMARK 924 INTRA-LIGAND FREE ENERGY PREDICTED BY IDOCK:   -0.76 KCAL/MOL
REMARK 927      BINDING AFFINITY PREDICTED BY RF-SCORE:    0.00 PKD
ROOT
HETATM    1  C   UNL     1     -10.999   6.708  67.929  1.00  0.00    -0.342 C  
HETATM    2  C   UNL     1     -10.718   5.725  69.050  1.00  0.00    -0.354 C  
ENDROOT
BRANCH   2   3
HETATM    3  C   UNL     1     -11.147   6.315  70.374  1.00  0.00    -0.352 C  
HETATM    4  O   UNL     1     -11.096   5.669  71.411  1.00  0.00    -0.239 OA 
HETATM    5  N   UNL     1     -11.525   7.663  70.324  1.00  0.00    -0.456 N  
HETATM    6  H   UNL     1     -11.478   8.127  69.417  1.00  0.00     0.000 HD 
BRANCH   5   7
HETATM    7  S   UNL     1     -12.040   8.569  71.616  1.00  0.00    -0.341 S  
HETATM    8  O   UNL     1     -13.393   8.115  71.889  1.00  0.00    -0.331 OA 
HETATM    9  O   UNL     1     -11.035   8.561  72.660  1.00  0.00    -0.315 OA 
BRANCH   7  10
HETATM   10  C   UNL     1     -12.158  10.201  70.931  1.00  0.00    -0.356 A  
HETATM   11  C   UNL     1     -11.512  10.497  69.731  1.00  0.00    -0.365 A  
HETATM   12  C   UNL     1     -11.414  11.829  69.310  1.00  0.00    -0.369 A  
HETATM   13  C   UNL     1     -12.001  12.866  70.051  1.00  0.00    -0.380 A  
HETATM   14  C   UNL     1     -12.807  12.511  71.147  1.00  0.00    -0.303 A  
HETATM   15  C   UNL     1     -12.857  11.192  71.612  1.00  0.00    -0.524 A  
BRANCH  13  16
HETATM   16  C   UNL     1     -11.679  14.275  69.801  1.00  0.00    -0.367 A  
HETATM   17  C   UNL     1     -11.598  15.279  70.754  1.00  0.00    -0.333 A  
HETATM   18  C   UNL     1     -11.757  15.420  72.216  1.00  0.00    -0.564 C  
HETATM   19  O   UNL     1     -11.285  16.451  70.144  1.00  0.00    -0.354 OA 
HETATM   20  N   UNL     1     -11.182  16.273  68.794  1.00  0.00    -0.347 NA 
HETATM   21  C   UNL     1     -11.443  14.977  68.552  1.00  0.00    -0.317 A  
BRANCH  21  22
HETATM   22  C   UNL     1     -11.436  14.502  67.158  1.00  0.00    -0.383 A  
HETATM   23  C   UNL     1     -10.337  14.785  66.328  1.00  0.00    -0.305 A  
HETATM   24  C   UNL     1     -10.262  14.265  65.032  1.00  0.00    -0.402 A  
HETATM   25  C   UNL     1     -11.275  13.441  64.552  1.00  0.00    -0.393 A  
HETATM   26  C   UNL     1     -12.394  13.189  65.343  1.00  0.00    -0.532 A  
HETATM   27  C   UNL     1     -12.490  13.752  66.619  1.00  0.00    -0.307 A  
ENDBRANCH  21  22
ENDBRANCH  13  16
ENDBRANCH   7  10
ENDBRANCH   5   7
ENDBRANCH   2   3
TORSDOF 5
ENDMDL
MODEL        7
REMARK 921   NORMALIZED FREE ENERGY PREDICTED BY IDOCK:   -7.19 KCAL/MOL
REMARK 922        TOTAL FREE ENERGY PREDICTED BY IDOCK:  -10.38 KCAL/MOL
REMARK 923 INTER-LIGAND FREE ENERGY PREDICTED BY IDOCK:   -9.63 KCAL/MOL
REMARK 924 INTRA-LIGAND FREE ENERGY PREDICTED BY IDOCK:   -0.75 KCAL/MOL
REMARK 927      BINDING AFFINITY PREDICTED BY RF-SCORE:    0.00 PKD
ROOT
HETATM    1  C   UNL     1      -9.379   3.270  69.950  1.00  0.00    -0.234 C  
HETATM    2  C   UNL     1      -9.768   4.711  69.683  1.00  0.00    -0.283 C  
ENDROOT
BRANCH   2   3
HETATM    3  C   UNL     1     -10.508   5.275  70.874  1.00  0.00    -0.215 C  
HETATM    4  O   UNL     1     -10.511   4.705  71.955  1.00  0.00    -0.192 OA 
HETATM    5  N   UNL     1     -11.110   6.521  70.658  1.00  0.00    -0.287 N  
HETATM    6  H   UNL     1     -11.000   6.939  69.734  1.00  0.00     0.000 HD 
BRANCH   5   7
HETATM    7  S   UNL     1     -11.986   7.377  71.780  1.00  0.00    -0.319 S  
HETATM    8  O   UNL     1     -13.371   7.002  71.553  1.00  0.00    -0.366 OA 
HETATM    9  O   UNL     1     -11.388   7.232  73.091  1.00  0.00    -0.261 OA 
BRANCH   7  10
HETATM   10  C   UNL     1     -11.796   9.053  71.232  1.00  0.00    -0.312 A  
HETATM   11  C   UNL     1     -12.736  10.015  71.602  1.00  0.00    -0.535 A  
HETATM   12  C   UNL     1     -12.713  11.274  70.990  1.00  0.00    -0.457 A  
HETATM   13  C   UNL     1     -11.726  11.601  70.047  1.00  0.00    -0.402 A  
HETATM   14  C   UNL     1     -10.685  10.680  69.845  1.00  0.00    -0.260 A  
HETATM   15  C   UNL     1     -10.734   9.397  70.401  1.00  0.00    -0.317 A  
BRANCH  13  16
HETATM   16  C   UNL     1     -11.838  12.785  69.188  1.00  0.00    -0.352 A  
HETATM   17  C   UNL     1     -11.607  12.831  67.821  1.00  0.00    -0.353 A  
HETATM   18  C   UNL     1     -11.212  11.901  66.743  1.00  0.00    -0.384 C  
HETATM   19  O   UNL     1     -11.804  14.098  67.376  1.00  0.00    -0.374 OA 
HETATM   20  N   UNL     1     -12.134  14.922  68.414  1.00  0.00    -0.199 NA 
HETATM   21  C   UNL     1     -12.134  14.166  69.525  1.00  0.00    -0.340 A  
BRANCH  21  22
HETATM   22  C   UNL     1     -12.428  14.808  70.818  1.00  0.00    -0.402 A  
HETATM   23  C   UNL     1     -13.751  14.860  71.288  1.00  0.00    -0.505 A  
HETATM   24  C   UNL     1     -14.045  15.378  72.554  1.00  0.00    -0.593 A  
HETATM   25  C   UNL     1     -13.018  15.835  73.374  1.00  0.00    -0.696 A  
HETATM   26  C   UNL     1     -11.707  15.835  72.906  1.00  0.00    -0.492 A  
HETATM   27  C   UNL     1     -11.423  15.364  71.620  1.00  0.00    -0.492 A  
ENDBRANCH  21  22
ENDBRANCH  13  16
ENDBRANCH   7  10
ENDBRANCH   5   7
ENDBRANCH   2   3
TORSDOF 5
ENDMDL
MODEL        8
REMARK 921   NORMALIZED FREE ENERGY PREDICTED BY IDOCK:   -7.16 KCAL/MOL
REMARK 922        TOTAL FREE ENERGY PREDICTED BY IDOCK:  -10.34 KCAL/MOL
REMARK 923 INTER-LIGAND FREE ENERGY PREDICTED BY IDOCK:   -9.45 KCAL/MOL
REMARK 924 INTRA-LIGAND FREE ENERGY PREDICTED BY IDOCK:   -0.89 KCAL/MOL
REMARK 927      BINDING AFFINITY PREDICTED BY RF-SCORE:    0.00 PKD
ROOT
HETATM    1  C   UNL     1      -6.267  18.634  69.157  1.00  0.00    -0.268 C  
HETATM    2  C   UNL     1      -6.912  19.919  68.673  1.00  0.00    -0.353 C  
ENDROOT
BRANCH   2   3
HETATM    3  C   UNL     1      -8.064  19.603  67.748  1.00  0.00    -0.301 C  
HETATM    4  O   UNL     1      -8.288  20.274  66.751  1.00  0.00    -0.302 OA 
HETATM    5  N   UNL     1      -8.788  18.452  68.081  1.00  0.00    -0.294 N  
HETATM    6  H   UNL     1      -8.484  17.930  68.903  1.00  0.00     0.000 HD 
BRANCH   5   7
HETATM    7  S   UNL     1     -10.101  17.863  67.251  1.00  0.00    -0.359 S  
HETATM    8  O   UNL     1     -11.121  18.889  67.368  1.00  0.00    -0.359 OA 
HETATM    9  O   UNL     1      -9.687  17.379  65.950  1.00  0.00    -0.507 OA 
BRANCH   7  10
HETATM   10  C   UNL     1     -10.614  16.490  68.249  1.00  0.00    -0.326 A  
HETATM   11  C   UNL     1     -11.530  15.568  67.742  1.00  0.00    -0.247 A  
HETATM   12  C   UNL     1     -12.104  14.622  68.600  1.00  0.00    -0.237 A  
HETATM   13  C   UNL     1     -11.734  14.554  69.952  1.00  0.00    -0.354 A  
HETATM   14  C   UNL     1     -10.671  15.366  70.380  1.00  0.00    -0.312 A  
HETATM   15  C   UNL     1     -10.136  16.357  69.549  1.00  0.00    -0.199 A  
BRANCH  13  16
HETATM   16  C   UNL     1     -12.510  13.782  70.929  1.00  0.00    -0.451 A  
HETATM   17  C   UNL     1     -13.287  14.302  71.953  1.00  0.00    -0.388 A  
HETATM   18  C   UNL     1     -13.662  15.631  72.480  1.00  0.00    -0.651 C  
HETATM   19  O   UNL     1     -13.846  13.282  72.653  1.00  0.00    -0.712 OA 
HETATM   20  N   UNL     1     -13.442  12.079  72.147  1.00  0.00    -0.396 NA 
HETATM   21  C   UNL     1     -12.612  12.347  71.125  1.00  0.00    -0.251 A  
BRANCH  21  22
HETATM   22  C   UNL     1     -11.990  11.222  70.405  1.00  0.00    -0.471 A  
HETATM   23  C   UNL     1     -11.817  11.294  69.012  1.00  0.00    -0.421 A  
HETATM   24  C   UNL     1     -11.145  10.283  68.318  1.00  0.00    -0.311 A  
HETATM   25  C   UNL     1     -10.621   9.194  69.008  1.00  0.00    -0.219 A  
HETATM   26  C   UNL     1     -10.826   9.083  70.381  1.00  0.00    -0.284 A  
HETATM   27  C   UNL     1     -11.542  10.070  71.064  1.00  0.00    -0.476 A  
ENDBRANCH  21  22
ENDBRANCH  13  16
ENDBRANCH   7  10
ENDBRANCH   5   7
ENDBRANCH   2   3
TORSDOF 5
ENDMDL
MODEL        9
REMARK 921   NORMALIZED FREE ENERGY PREDICTED BY IDOCK:   -7.15 KCAL/MOL
REMARK 922        TOTAL FREE ENERGY PREDICTED BY IDOCK:  -10.32 KCAL/MOL
REMARK 923 INTER-LIGAND FREE ENERGY PREDICTED BY IDOCK:   -9.79 KCAL/MOL
REMARK 924 INTRA-LIGAND FREE ENERGY PREDICTED BY IDOCK:   -0.54 KCAL/MOL
REMARK 927      BINDING AFFINITY PREDICTED BY RF-SCORE:    0.00 PKD
ROOT
HETATM    1  C   UNL     1      -5.216  20.729  69.871  1.00  0.00    -0.398 C  
HETATM    2  C   UNL     1      -6.476  19.885  69.840  1.00  0.00    -0.372 C  
ENDROOT
BRANCH   2   3
HETATM    3  C   UNL     1      -7.143  20.001  68.489  1.00  0.00    -0.274 C  
HETATM    4  O   UNL     1      -6.786  20.833  67.668  1.00  0.00    -0.308 OA 
HETATM    5  N   UNL     1      -8.129  19.040  68.233  1.00  0.00    -0.311 N  
HETATM    6  H   UNL     1      -8.312  18.353  68.965  1.00  0.00     0.000 HD 
BRANCH   5   7
HETATM    7  S   UNL     1      -9.025  18.924  66.840  1.00  0.00    -0.308 S  
HETATM    8  O   UNL     1      -9.898  20.085  66.846  1.00  0.00    -0.382 OA 
HETATM    9  O   UNL     1      -8.155  18.661  65.712  1.00  0.00    -0.479 OA 
BRANCH   7  10
HETATM   10  C   UNL     1     -10.038  17.499  67.141  1.00  0.00    -0.321 A  
HETATM   11  C   UNL     1     -10.696  17.362  68.362  1.00  0.00    -0.301 A  
HETATM   12  C   UNL     1     -11.305  16.143  68.686  1.00  0.00    -0.365 A  
HETATM   13  C   UNL     1     -11.306  15.073  67.778  1.00  0.00    -0.340 A  
HETATM   14  C   UNL     1     -10.805  15.310  66.487  1.00  0.00    -0.311 A  
HETATM   15  C   UNL     1     -10.139  16.501  66.177  1.00  0.00    -0.365 A  
BRANCH  13  16
HETATM   16  C   UNL     1     -11.673  13.712  68.186  1.00  0.00    -0.392 A  
HETATM   17  C   UNL     1     -11.990  13.298  69.471  1.00  0.00    -0.307 A  
HETATM   18  C   UNL     1     -12.103  13.893  70.818  1.00  0.00    -0.404 C  
HETATM   19  O   UNL     1     -12.268  11.970  69.457  1.00  0.00    -0.224 OA 
HETATM   20  N   UNL     1     -12.118  11.464  68.198  1.00  0.00    -0.617 NA 
HETATM   21  C   UNL     1     -11.731  12.483  67.413  1.00  0.00    -0.366 A  
BRANCH  21  22
HETATM   22  C   UNL     1     -11.459  12.218  65.990  1.00  0.00    -0.434 A  
HETATM   23  C   UNL     1     -12.407  12.580  65.018  1.00  0.00    -0.522 A  
HETATM   24  C   UNL     1     -12.133  12.426  63.655  1.00  0.00    -0.648 A  
HETATM   25  C   UNL     1     -10.901  11.925  63.244  1.00  0.00    -0.408 A  
HETATM   26  C   UNL     1      -9.970  11.517  64.195  1.00  0.00    -0.327 A  
HETATM   27  C   UNL     1     -10.266  11.624  65.557  1.00  0.00    -0.302 A  
ENDBRANCH  21  22
ENDBRANCH  13  16
ENDBRANCH   7  10
ENDBRANCH   5   7
ENDBRANCH   2   3
TORSDOF 5
ENDMDL
MODEL       10
REMARK 921   NORMALIZED FREE ENERGY PREDICTED BY IDOCK:   -7.08 KCAL/MOL
REMARK 922        TOTAL FREE ENERGY PREDICTED BY IDOCK:  -10.23 KCAL/MOL
REMARK 923 INTER-LIGAND FREE ENERGY PREDICTED BY IDOCK:   -9.22 KCAL/MOL
REMARK 924 INTRA-LIGAND FREE ENERGY PREDICTED BY IDOCK:   -1.02 KCAL/MOL
REMARK 927      BINDING AFFINITY PREDICTED BY RF-SCORE:    0.00 PKD
ROOT
HETATM    1  C   UNL     1     -10.498   5.715  67.107  1.00  0.00    -0.334 C  
HETATM    2  C   UNL     1     -10.715   7.198  66.874  1.00  0.00    -0.363 C  
ENDROOT
BRANCH   2   3
HETATM    3  C   UNL     1     -10.506   7.959  68.163  1.00  0.00    -0.173 C  
HETATM    4  O   UNL     1     -10.089   7.409  69.172  1.00  0.00    -0.179 OA 
HETATM    5  N   UNL     1     -10.750   9.335  68.081  1.00  0.00    -0.398 N  
HETATM    6  H   UNL     1     -11.042   9.704  67.176  1.00  0.00     0.000 HD 
BRANCH   5   7
HETATM    7  S   UNL     1     -10.606  10.418  69.332  1.00  0.00    -0.254 S  
HETATM    8  O   UNL     1     -11.839  10.297  70.090  1.00  0.00    -0.264 OA 
HETATM    9  O   UNL     1      -9.322  10.254  69.982  1.00  0.00    -0.111 OA 
BRANCH   7  10
HETATM   10  C   UNL     1     -10.645  11.985  68.503  1.00  0.00    -0.231 A  
HETATM   11  C   UNL     1     -11.761  12.811  68.634  1.00  0.00    -0.360 A  
HETATM   12  C   UNL     1     -11.890  13.934  67.806  1.00  0.00    -0.415 A  
HETATM   13  C   UNL     1     -10.889  14.269  66.883  1.00  0.00    -0.298 A  
HETATM   14  C   UNL     1      -9.695  13.529  66.915  1.00  0.00    -0.261 A  
HETATM   15  C   UNL     1      -9.583  12.369  67.690  1.00  0.00    -0.193 A  
BRANCH  13  16
HETATM   16  C   UNL     1     -11.116  15.253  65.818  1.00  0.00    -0.301 A  
HETATM   17  C   UNL     1     -11.664  14.998  64.570  1.00  0.00    -0.368 A  
HETATM   18  C   UNL     1     -12.197  13.841  63.821  1.00  0.00    -0.364 C  
HETATM   19  O   UNL     1     -11.708  16.152  63.856  1.00  0.00    -0.860 OA 
HETATM   20  N   UNL     1     -11.175  17.180  64.580  1.00  0.00    -1.012 NA 
HETATM   21  C   UNL     1     -10.781  16.665  65.756  1.00  0.00    -0.204 A  
BRANCH  21  22
HETATM   22  C   UNL     1     -10.131  17.552  66.736  1.00  0.00    -0.320 A  
HETATM   23  C   UNL     1     -10.740  18.768  67.090  1.00  0.00    -0.469 A  
HETATM   24  C   UNL     1     -10.193  19.582  68.087  1.00  0.00    -0.556 A  
HETATM   25  C   UNL     1      -9.038  19.185  68.755  1.00  0.00    -0.397 A  
HETATM   26  C   UNL     1      -8.395  18.007  68.383  1.00  0.00    -0.305 A  
HETATM   27  C   UNL     1      -8.916  17.220  67.352  1.00  0.00    -0.224 A  
ENDBRANCH  21  22
ENDBRANCH  13  16
ENDBRANCH   7  10
ENDBRANCH   5   7
ENDBRANCH   2   3
TORSDOF 5
ENDMDL
MODEL       11
REMARK 921   NORMALIZED FREE ENERGY PREDICTED BY IDOCK:   -7.03 KCAL/MOL
REMARK 922        TOTAL FREE ENERGY PREDICTED BY IDOCK:  -10.16 KCAL/MOL
REMARK 923 INTER-LIGAND FREE ENERGY PREDICTED BY IDOCK:   -8.97 KCAL/MOL
REMARK 924 INTRA-LIGAND FREE ENERGY PREDICTED BY IDOCK:   -1.19 KCAL/MOL
REMARK 927      BINDING AFFINITY PREDICTED BY RF-SCORE:    0.00 PKD
ROOT
HETATM    1  C   UNL     1     -12.764   8.994  71.604  1.00  0.00    -0.421 C  
HETATM    2  C   UNL     1     -12.467   7.506  71.620  1.00  0.00    -0.371 C  
ENDROOT
BRANCH   2   3
HETATM    3  C   UNL     1     -11.557   7.149  70.467  1.00  0.00    -0.290 C  
HETATM    4  O   UNL     1     -11.177   6.002  70.282  1.00  0.00    -0.347 OA 
HETATM    5  N   UNL     1     -11.258   8.208  69.602  1.00  0.00    -0.449 N  
HETATM    6  H   UNL     1     -11.672   9.116  69.815  1.00  0.00     0.000 HD 
BRANCH   5   7
HETATM    7  S   UNL     1     -10.287   8.112  68.258  1.00  0.00    -0.171 S  
HETATM    8  O   UNL     1      -8.935   7.974  68.770  1.00  0.00    -0.141 OA 
HETATM    9  O   UNL     1     -10.825   7.142  67.326  1.00  0.00    -0.311 OA 
BRANCH   7  10
HETATM   10  C   UNL     1     -10.425   9.735  67.556  1.00  0.00    -0.251 A  
HETATM   11  C   UNL     1     -11.257  10.680  68.153  1.00  0.00    -0.366 A  
HETATM   12  C   UNL     1     -11.541  11.875  67.479  1.00  0.00    -0.374 A  
HETATM   13  C   UNL     1     -10.960  12.157  66.233  1.00  0.00    -0.332 A  
HETATM   14  C   UNL     1      -9.979  11.272  65.755  1.00  0.00    -0.281 A  
HETATM   15  C   UNL     1      -9.737  10.048  66.388  1.00  0.00    -0.266 A  
BRANCH  13  16
HETATM   16  C   UNL     1     -11.448  13.245  65.380  1.00  0.00    -0.328 A  
HETATM   17  C   UNL     1     -12.169  13.104  64.203  1.00  0.00    -0.398 A  
HETATM   18  C   UNL     1     -12.709  12.008  63.372  1.00  0.00    -0.527 C  
HETATM   19  O   UNL     1     -12.436  14.332  63.692  1.00  0.00    -0.816 OA 
HETATM   20  N   UNL     1     -11.888  15.306  64.478  1.00  0.00    -0.364 NA 
HETATM   21  C   UNL     1     -11.260  14.681  65.488  1.00  0.00    -0.343 A  
BRANCH  21  22
HETATM   22  C   UNL     1     -10.542  15.493  66.485  1.00  0.00    -0.307 A  
HETATM   23  C   UNL     1      -9.278  16.024  66.176  1.00  0.00    -0.388 A  
HETATM   24  C   UNL     1      -8.618  16.876  67.067  1.00  0.00    -0.229 A  
HETATM   25  C   UNL     1      -9.219  17.223  68.273  1.00  0.00    -0.265 A  
HETATM   26  C   UNL     1     -10.449  16.669  68.617  1.00  0.00    -0.323 A  
HETATM   27  C   UNL     1     -11.083  15.778  67.746  1.00  0.00    -0.313 A  
ENDBRANCH  21  22
ENDBRANCH  13  16
ENDBRANCH   7  10
ENDBRANCH   5   7
ENDBRANCH   2   3
TORSDOF 5
ENDMDL
MODEL       12
REMARK 921   NORMALIZED FREE ENERGY PREDICTED BY IDOCK:   -7.00 KCAL/MOL
REMARK 922        TOTAL FREE ENERGY PREDICTED BY IDOCK:  -10.12 KCAL/MOL
REMARK 923 INTER-LIGAND FREE ENERGY PREDICTED BY IDOCK:   -9.35 KCAL/MOL
REMARK 924 INTRA-LIGAND FREE ENERGY PREDICTED BY IDOCK:   -0.77 KCAL/MOL
REMARK 927      BINDING AFFINITY PREDICTED BY RF-SCORE:    0.00 PKD
ROOT
HETATM    1  C   UNL     1     -10.598  17.645  67.583  1.00  0.00    -0.364 C  
HETATM    2  C   UNL     1     -10.395  17.763  66.085  1.00  0.00    -0.340 C  
ENDROOT
BRANCH   2   3
HETATM    3  C   UNL     1     -10.973  16.554  65.388  1.00  0.00    -0.131 C  
HETATM    4  O   UNL     1     -11.324  16.594  64.218  1.00  0.00    -1.116 OA 
HETATM    5  N   UNL     1     -10.998  15.385  66.159  1.00  0.00    -0.310 N  
HETATM    6  H   UNL     1     -10.629  15.444  67.108  1.00  0.00     0.000 HD 
BRANCH   5   7
HETATM    7  S   UNL     1     -11.576  13.911  65.659  1.00  0.00    -0.346 S  
HETATM    8  O   UNL     1     -12.983  14.127  65.372  1.00  0.00    -0.706 OA 
HETATM    9  O   UNL     1     -10.697  13.348  64.655  1.00  0.00    -0.365 OA 
BRANCH   7  10
HETATM   10  C   UNL     1     -11.481  12.930  67.134  1.00  0.00    -0.336 A  
HETATM   11  C   UNL     1     -11.438  11.540  67.041  1.00  0.00    -0.290 A  
HETATM   12  C   UNL     1     -11.593  10.764  68.197  1.00  0.00    -0.276 A  
HETATM   13  C   UNL     1     -11.739  11.367  69.456  1.00  0.00    -0.417 A  
HETATM   14  C   UNL     1     -11.583  12.761  69.536  1.00  0.00    -0.342 A  
HETATM   15  C   UNL     1     -11.494  13.547  68.382  1.00  0.00    -0.346 A  
BRANCH  13  16
HETATM   16  C   UNL     1     -12.184  10.608  70.630  1.00  0.00    -0.459 A  
HETATM   17  C   UNL     1     -12.980  11.085  71.661  1.00  0.00    -0.456 A  
HETATM   18  C   UNL     1     -13.655  12.346  72.032  1.00  0.00    -0.349 C  
HETATM   19  O   UNL     1     -13.174  10.097  72.571  1.00  0.00    -0.234 OA 
HETATM   20  N   UNL     1     -12.504   8.967  72.197  1.00  0.00    -0.380 NA 
HETATM   21  C   UNL     1     -11.872   9.252  71.046  1.00  0.00    -0.307 A  
BRANCH  21  22
HETATM   22  C   UNL     1     -11.034   8.214  70.423  1.00  0.00    -0.248 A  
HETATM   23  C   UNL     1     -11.574   6.943  70.161  1.00  0.00    -0.340 A  
HETATM   24  C   UNL     1     -10.830   5.971  69.484  1.00  0.00    -0.439 A  
HETATM   25  C   UNL     1      -9.542   6.262  69.044  1.00  0.00    -0.138 A  
HETATM   26  C   UNL     1      -8.974   7.499  69.337  1.00  0.00    -0.139 A  
HETATM   27  C   UNL     1      -9.702   8.450  70.058  1.00  0.00    -0.176 A  
ENDBRANCH  21  22
ENDBRANCH  13  16
ENDBRANCH   7  10
ENDBRANCH   5   7
ENDBRANCH   2   3
TORSDOF 5
ENDMDL
MODEL       13
REMARK 921   NORMALIZED FREE ENERGY PREDICTED BY IDOCK:   -7.00 KCAL/MOL
REMARK 922        TOTAL FREE ENERGY PREDICTED BY IDOCK:  -10.12 KCAL/MOL
REMARK 923 INTER-LIGAND FREE ENERGY PREDICTED BY IDOCK:   -9.11 KCAL/MOL
REMARK 924 INTRA-LIGAND FREE ENERGY PREDICTED BY IDOCK:   -1.01 KCAL/MOL
REMARK 927      BINDING AFFINITY PREDICTED BY RF-SCORE:    0.00 PKD
ROOT
HETATM    1  C   UNL     1     -14.331   8.400  71.730  1.00  0.00    -0.558 C  
HETATM    2  C   UNL     1     -13.765   6.998  71.600  1.00  0.00    -0.348 C  
ENDROOT
BRANCH   2   3
HETATM    3  C   UNL     1     -12.290   7.065  71.281  1.00  0.00    -0.383 C  
HETATM    4  O   UNL     1     -11.535   6.139  71.540  1.00  0.00    -0.291 OA 
HETATM    5  N   UNL     1     -11.884   8.223  70.605  1.00  0.00    -0.472 N  
HETATM    6  H   UNL     1     -12.604   8.911  70.386  1.00  0.00     0.000 HD 
BRANCH   5   7
HETATM    7  S   UNL     1     -10.331   8.569  70.130  1.00  0.00    -0.212 S  
HETATM    8  O   UNL     1      -9.594   8.795  71.360  1.00  0.00    -0.215 OA 
HETATM    9  O   UNL     1      -9.877   7.586  69.168  1.00  0.00    -0.165 OA 
BRANCH   7  10
HETATM   10  C   UNL     1     -10.508  10.138  69.322  1.00  0.00    -0.225 A  
HETATM   11  C   UNL     1      -9.373  10.868  68.968  1.00  0.00    -0.144 A  
HETATM   12  C   UNL     1      -9.510  12.195  68.542  1.00  0.00    -0.125 A  
HETATM   13  C   UNL     1     -10.776  12.786  68.417  1.00  0.00    -0.269 A  
HETATM   14  C   UNL     1     -11.902  11.964  68.594  1.00  0.00    -0.365 A  
HETATM   15  C   UNL     1     -11.775  10.658  69.081  1.00  0.00    -0.324 A  
BRANCH  13  16
HETATM   16  C   UNL     1     -10.942  14.235  68.255  1.00  0.00    -0.261 A  
HETATM   17  C   UNL     1     -10.593  14.980  67.139  1.00  0.00    -0.295 A  
HETATM   18  C   UNL     1      -9.999  14.748  65.806  1.00  0.00    -0.375 C  
HETATM   19  O   UNL     1     -10.890  16.286  67.362  1.00  0.00    -0.313 OA 
HETATM   20  N   UNL     1     -11.404  16.450  68.616  1.00  0.00    -0.339 NA 
HETATM   21  C   UNL     1     -11.421  15.236  69.191  1.00  0.00    -0.316 A  
BRANCH  21  22
HETATM   22  C   UNL     1     -11.903  15.116  70.578  1.00  0.00    -0.361 A  
HETATM   23  C   UNL     1     -11.610  16.127  71.510  1.00  0.00    -0.502 A  
HETATM   24  C   UNL     1     -12.135  16.084  72.806  1.00  0.00    -0.635 A  
HETATM   25  C   UNL     1     -12.973  15.040  73.183  1.00  0.00    -0.631 A  
HETATM   26  C   UNL     1     -13.235  14.005  72.289  1.00  0.00    -0.558 A  
HETATM   27  C   UNL     1     -12.668  14.025  71.011  1.00  0.00    -0.431 A  
ENDBRANCH  21  22
ENDBRANCH  13  16
ENDBRANCH   7  10
ENDBRANCH   5   7
ENDBRANCH   2   3
TORSDOF 5
ENDMDL
MODEL       14
REMARK 921   NORMALIZED FREE ENERGY PREDICTED BY IDOCK:   -7.00 KCAL/MOL
REMARK 922        TOTAL FREE ENERGY PREDICTED BY IDOCK:  -10.12 KCAL/MOL
REMARK 923 INTER-LIGAND FREE ENERGY PREDICTED BY IDOCK:   -9.19 KCAL/MOL
REMARK 924 INTRA-LIGAND FREE ENERGY PREDICTED BY IDOCK:   -0.94 KCAL/MOL
REMARK 927      BINDING AFFINITY PREDICTED BY RF-SCORE:    0.00 PKD
ROOT
HETATM    1  C   UNL     1      -8.483   9.458  70.504  1.00  0.00    -0.251 C  
HETATM    2  C   UNL     1      -9.451   8.667  71.363  1.00  0.00    -0.306 C  
ENDROOT
BRANCH   2   3
HETATM    3  C   UNL     1     -10.814   9.320  71.339  1.00  0.00    -0.364 C  
HETATM    4  O   UNL     1     -11.730   8.917  72.042  1.00  0.00    -0.350 OA 
HETATM    5  N   UNL     1     -10.912  10.451  70.519  1.00  0.00    -0.418 N  
HETATM    6  H   UNL     1     -10.072  10.737  70.017  1.00  0.00     0.000 HD 
BRANCH   5   7
HETATM    7  S   UNL     1     -12.280  11.365  70.296  1.00  0.00    -0.335 S  
HETATM    8  O   UNL     1     -13.228  10.485  69.635  1.00  0.00     0.063 OA 
HETATM    9  O   UNL     1     -12.634  12.037  71.530  1.00  0.00    -0.279 OA 
BRANCH   7  10
HETATM   10  C   UNL     1     -11.757  12.571  69.104  1.00  0.00    -0.321 A  
HETATM   11  C   UNL     1     -11.952  13.928  69.359  1.00  0.00    -0.402 A  
HETATM   12  C   UNL     1     -11.751  14.859  68.333  1.00  0.00    -0.336 A  
HETATM   13  C   UNL     1     -11.307  14.453  67.065  1.00  0.00    -0.357 A  
HETATM   14  C   UNL     1     -10.936  13.107  66.903  1.00  0.00    -0.295 A  
HETATM   15  C   UNL     1     -11.194  12.160  67.900  1.00  0.00    -0.329 A  
BRANCH  13  16
HETATM   16  C   UNL     1     -11.362  15.346  65.902  1.00  0.00    -0.104 A  
HETATM   17  C   UNL     1     -11.829  15.019  64.639  1.00  0.00    -0.375 A  
HETATM   18  C   UNL     1     -12.400  13.842  63.951  1.00  0.00    -0.323 C  
HETATM   19  O   UNL     1     -11.716  16.100  63.826  1.00  0.00    -0.828 OA 
HETATM   20  N   UNL     1     -11.153  17.146  64.500  1.00  0.00    -0.979 NA 
HETATM   21  C   UNL     1     -10.901  16.714  65.746  1.00  0.00    -0.104 A  
BRANCH  21  22
HETATM   22  C   UNL     1     -10.255  17.635  66.697  1.00  0.00    -0.341 A  
HETATM   23  C   UNL     1      -8.985  17.328  67.216  1.00  0.00    -0.233 A  
HETATM   24  C   UNL     1      -8.310  18.230  68.045  1.00  0.00    -0.272 A  
HETATM   25  C   UNL     1      -8.887  19.458  68.354  1.00  0.00    -0.397 A  
HETATM   26  C   UNL     1     -10.165  19.758  67.889  1.00  0.00    -0.576 A  
HETATM   27  C   UNL     1     -10.858  18.834  67.102  1.00  0.00    -0.375 A  
ENDBRANCH  21  22
ENDBRANCH  13  16
ENDBRANCH   7  10
ENDBRANCH   5   7
ENDBRANCH   2   3
TORSDOF 5
ENDMDL
MODEL       15
REMARK 921   NORMALIZED FREE ENERGY PREDICTED BY IDOCK:   -6.89 KCAL/MOL
REMARK 922        TOTAL FREE ENERGY PREDICTED BY IDOCK:   -9.99 KCAL/MOL
REMARK 923 INTER-LIGAND FREE ENERGY PREDICTED BY IDOCK:   -9.28 KCAL/MOL
REMARK 924 INTRA-LIGAND FREE ENERGY PREDICTED BY IDOCK:   -0.71 KCAL/MOL
REMARK 927      BINDING AFFINITY PREDICTED BY RF-SCORE:    0.00 PKD
ROOT
HETATM    1  C   UNL     1     -10.258  12.337  63.718  1.00  0.00    -0.427 C  
HETATM    2  C   UNL     1     -11.603  13.034  63.641  1.00  0.00    -0.507 C  
ENDROOT
BRANCH   2   3
HETATM    3  C   UNL     1     -11.602  14.259  64.527  1.00  0.00    -0.387 C  
HETATM    4  O   UNL     1     -12.634  14.705  65.006  1.00  0.00    -0.392 OA 
HETATM    5  N   UNL     1     -10.333  14.780  64.810  1.00  0.00    -0.502 N  
HETATM    6  H   UNL     1      -9.530  14.298  64.406  1.00  0.00     0.000 HD 
BRANCH   5   7
HETATM    7  S   UNL     1     -10.025  16.114  65.750  1.00  0.00    -0.307 S  
HETATM    8  O   UNL     1      -8.579  16.243  65.772  1.00  0.00    -0.348 OA 
HETATM    9  O   UNL     1     -10.858  17.221  65.327  1.00  0.00    -0.576 OA 
BRANCH   7  10
HETATM   10  C   UNL     1     -10.534  15.584  67.364  1.00  0.00    -0.281 A  
HETATM   11  C   UNL     1      -9.830  14.573  68.016  1.00  0.00    -0.222 A  
HETATM   12  C   UNL     1     -10.361  14.001  69.180  1.00  0.00    -0.064 A  
HETATM   13  C   UNL     1     -11.566  14.465  69.728  1.00  0.00    -0.352 A  
HETATM   14  C   UNL     1     -12.146  15.610  69.156  1.00  0.00    -0.249 A  
HETATM   15  C   UNL     1     -11.659  16.147  67.959  1.00  0.00    -0.070 A  
BRANCH  13  16
HETATM   16  C   UNL     1     -12.287  13.714  70.761  1.00  0.00    -0.446 A  
HETATM   17  C   UNL     1     -13.008  14.254  71.815  1.00  0.00    -0.354 A  
HETATM   18  C   UNL     1     -13.354  15.593  72.335  1.00  0.00    -0.576 C  
HETATM   19  O   UNL     1     -13.527  13.249  72.564  1.00  0.00    -0.573 OA 
HETATM   20  N   UNL     1     -13.152  12.036  72.061  1.00  0.00    -0.427 NA 
HETATM   21  C   UNL     1     -12.378  12.282  70.990  1.00  0.00    -0.220 A  
BRANCH  21  22
HETATM   22  C   UNL     1     -11.797  11.144  70.260  1.00  0.00    -0.455 A  
HETATM   23  C   UNL     1     -11.829  11.125  68.854  1.00  0.00    -0.406 A  
HETATM   24  C   UNL     1     -11.201  10.103  68.135  1.00  0.00    -0.245 A  
HETATM   25  C   UNL     1     -10.517   9.095  68.808  1.00  0.00    -0.236 A  
HETATM   26  C   UNL     1     -10.517   9.072  70.201  1.00  0.00    -0.240 A  
HETATM   27  C   UNL     1     -11.189  10.067  70.918  1.00  0.00    -0.415 A  
ENDBRANCH  21  22
ENDBRANCH  13  16
ENDBRANCH   7  10
ENDBRANCH   5   7
ENDBRANCH   2   3
TORSDOF 5
ENDMDL
MODEL       16
REMARK 921   NORMALIZED FREE ENERGY PREDICTED BY IDOCK:   -6.88 KCAL/MOL
REMARK 922        TOTAL FREE ENERGY PREDICTED BY IDOCK:   -9.97 KCAL/MOL
REMARK 923 INTER-LIGAND FREE ENERGY PREDICTED BY IDOCK:   -9.12 KCAL/MOL
REMARK 924 INTRA-LIGAND FREE ENERGY PREDICTED BY IDOCK:   -0.85 KCAL/MOL
REMARK 927      BINDING AFFINITY PREDICTED BY RF-SCORE:    0.00 PKD
ROOT
HETATM    1  C   UNL     1      -7.675   8.275  72.215  1.00  0.00    -0.168 C  
HETATM    2  C   UNL     1      -8.465   8.076  73.495  1.00  0.00    -0.306 C  
ENDROOT
BRANCH   2   3
HETATM    3  C   UNL     1      -9.927   7.870  73.174  1.00  0.00    -0.290 C  
HETATM    4  O   UNL     1     -10.578   6.977  73.696  1.00  0.00    -0.357 OA 
HETATM    5  N   UNL     1     -10.479   8.819  72.305  1.00  0.00    -0.308 N  
HETATM    6  H   UNL     1      -9.862   9.559  71.969  1.00  0.00     0.000 HD 
BRANCH   5   7
HETATM    7  S   UNL     1     -12.053   8.844  71.777  1.00  0.00    -0.389 S  
HETATM    8  O   UNL     1     -12.155   7.757  70.819  1.00  0.00    -0.226 OA 
HETATM    9  O   UNL     1     -12.955   8.916  72.909  1.00  0.00    -0.330 OA 
BRANCH   7  10
HETATM   10  C   UNL     1     -12.139  10.363  70.865  1.00  0.00    -0.374 A  
HETATM   11  C   UNL     1     -11.447  10.488  69.661  1.00  0.00    -0.349 A  
HETATM   12  C   UNL     1     -11.328  11.748  69.061  1.00  0.00    -0.338 A  
HETATM   13  C   UNL     1     -11.938  12.878  69.626  1.00  0.00    -0.358 A  
HETATM   14  C   UNL     1     -12.786  12.680  70.729  1.00  0.00    -0.213 A  
HETATM   15  C   UNL     1     -12.859  11.440  71.373  1.00  0.00    -0.502 A  
BRANCH  13  16
HETATM   16  C   UNL     1     -11.602  14.239  69.192  1.00  0.00    -0.346 A  
HETATM   17  C   UNL     1     -11.465  15.350  70.011  1.00  0.00    -0.316 A  
HETATM   18  C   UNL     1     -11.564  15.672  71.449  1.00  0.00    -0.499 C  
HETATM   19  O   UNL     1     -11.156  16.431  69.250  1.00  0.00    -0.311 OA 
HETATM   20  N   UNL     1     -11.109  16.086  67.929  1.00  0.00    -0.331 NA 
HETATM   21  C   UNL     1     -11.403  14.777  67.858  1.00  0.00    -0.316 A  
BRANCH  21  22
HETATM   22  C   UNL     1     -11.459  14.135  66.534  1.00  0.00    -0.368 A  
HETATM   23  C   UNL     1     -10.300  14.064  65.742  1.00  0.00    -0.330 A  
HETATM   24  C   UNL     1     -10.303  13.376  64.524  1.00  0.00    -0.394 A  
HETATM   25  C   UNL     1     -11.459  12.736  64.089  1.00  0.00    -0.450 A  
HETATM   26  C   UNL     1     -12.629  12.837  64.837  1.00  0.00    -0.541 A  
HETATM   27  C   UNL     1     -12.636  13.567  66.029  1.00  0.00    -0.408 A  
ENDBRANCH  21  22
ENDBRANCH  13  16
ENDBRANCH   7  10
ENDBRANCH   5   7
ENDBRANCH   2   3
TORSDOF 5
ENDMDL
MODEL       17
REMARK 921   NORMALIZED FREE ENERGY PREDICTED BY IDOCK:   -6.85 KCAL/MOL
REMARK 922        TOTAL FREE ENERGY PREDICTED BY IDOCK:   -9.93 KCAL/MOL
REMARK 923 INTER-LIGAND FREE ENERGY PREDICTED BY IDOCK:   -9.13 KCAL/MOL
REMARK 924 INTRA-LIGAND FREE ENERGY PREDICTED BY IDOCK:   -0.80 KCAL/MOL
REMARK 927      BINDING AFFINITY PREDICTED BY RF-SCORE:    0.00 PKD
ROOT
HETATM    1  C   UNL     1      -9.357   4.368  70.301  1.00  0.00    -0.218 C  
HETATM    2  C   UNL     1     -10.341   5.170  69.470  1.00  0.00    -0.292 C  
ENDROOT
BRANCH   2   3
HETATM    3  C   UNL     1     -10.898   6.312  70.289  1.00  0.00    -0.304 C  
HETATM    4  O   UNL     1     -12.098   6.539  70.339  1.00  0.00    -0.360 OA 
HETATM    5  N   UNL     1      -9.948   7.021  71.035  1.00  0.00    -0.189 N  
HETATM    6  H   UNL     1      -8.977   6.714  70.967  1.00  0.00     0.000 HD 
BRANCH   5   7
HETATM    7  S   UNL     1     -10.267   8.318  72.021  1.00  0.00    -0.297 S  
HETATM    8  O   UNL     1     -11.445   7.942  72.782  1.00  0.00    -0.390 OA 
HETATM    9  O   UNL     1      -9.056   8.738  72.696  1.00  0.00    -0.354 OA 
BRANCH   7  10
HETATM   10  C   UNL     1     -10.760   9.575  70.870  1.00  0.00    -0.333 A  
HETATM   11  C   UNL     1      -9.899   9.946  69.838  1.00  0.00    -0.285 A  
HETATM   12  C   UNL     1     -10.186  11.084  69.074  1.00  0.00    -0.217 A  
HETATM   13  C   UNL     1     -11.354  11.829  69.299  1.00  0.00    -0.348 A  
HETATM   14  C   UNL     1     -12.290  11.316  70.213  1.00  0.00    -0.389 A  
HETATM   15  C   UNL     1     -11.984  10.218  71.024  1.00  0.00    -0.483 A  
BRANCH  13  16
HETATM   16  C   UNL     1     -11.542  13.166  68.725  1.00  0.00    -0.348 A  
HETATM   17  C   UNL     1     -11.810  14.330  69.430  1.00  0.00    -0.326 A  
HETATM   18  C   UNL     1     -12.002  14.742  70.835  1.00  0.00    -0.384 C  
HETATM   19  O   UNL     1     -11.926  15.364  68.558  1.00  0.00    -0.316 OA 
HETATM   20  N   UNL     1     -11.773  14.924  67.274  1.00  0.00    -0.338 NA 
HETATM   21  C   UNL     1     -11.570  13.598  67.339  1.00  0.00    -0.356 A  
BRANCH  21  22
HETATM   22  C   UNL     1     -11.404  12.845  66.084  1.00  0.00    -0.356 A  
HETATM   23  C   UNL     1     -12.453  12.803  65.149  1.00  0.00    -0.565 A  
HETATM   24  C   UNL     1     -12.287  12.176  63.910  1.00  0.00    -0.587 A  
HETATM   25  C   UNL     1     -11.066  11.596  63.581  1.00  0.00    -0.506 A  
HETATM   26  C   UNL     1     -10.031  11.586  64.513  1.00  0.00    -0.306 A  
HETATM   27  C   UNL     1     -10.217  12.169  65.770  1.00  0.00    -0.282 A  
ENDBRANCH  21  22
ENDBRANCH  13  16
ENDBRANCH   7  10
ENDBRANCH   5   7
ENDBRANCH   2   3
TORSDOF 5
ENDMDL
MODEL       18
REMARK 921   NORMALIZED FREE ENERGY PREDICTED BY IDOCK:   -6.83 KCAL/MOL
REMARK 922        TOTAL FREE ENERGY PREDICTED BY IDOCK:   -9.91 KCAL/MOL
REMARK 923 INTER-LIGAND FREE ENERGY PREDICTED BY IDOCK:   -8.78 KCAL/MOL
REMARK 924 INTRA-LIGAND FREE ENERGY PREDICTED BY IDOCK:   -1.13 KCAL/MOL
REMARK 927      BINDING AFFINITY PREDICTED BY RF-SCORE:    0.00 PKD
ROOT
HETATM    1  C   UNL     1     -10.666  19.204  65.851  1.00  0.00    -0.435 C  
HETATM    2  C   UNL     1     -10.262  17.837  66.369  1.00  0.00    -0.365 C  
ENDROOT
BRANCH   2   3
HETATM    3  C   UNL     1     -10.843  16.758  65.484  1.00  0.00    -0.129 C  
HETATM    4  O   UNL     1     -11.169  16.983  64.328  1.00  0.00    -1.186 OA 
HETATM    5  N   UNL     1     -10.898  15.485  66.065  1.00  0.00    -0.319 N  
HETATM    6  H   UNL     1     -10.547  15.392  67.019  1.00  0.00     0.000 HD 
BRANCH   5   7
HETATM    7  S   UNL     1     -11.485  14.114  65.334  1.00  0.00    -0.338 S  
HETATM    8  O   UNL     1     -12.845  14.440  64.943  1.00  0.00    -0.645 OA 
HETATM    9  O   UNL     1     -10.533  13.628  64.356  1.00  0.00    -0.432 OA 
BRANCH   7  10
HETATM   10  C   UNL     1     -11.582  12.962  66.679  1.00  0.00    -0.372 A  
HETATM   11  C   UNL     1     -11.840  13.422  67.969  1.00  0.00    -0.392 A  
HETATM   12  C   UNL     1     -11.692  12.550  69.056  1.00  0.00    -0.368 A  
HETATM   13  C   UNL     1     -11.337  11.207  68.861  1.00  0.00    -0.344 A  
HETATM   14  C   UNL     1     -11.276  10.732  67.540  1.00  0.00    -0.346 A  
HETATM   15  C   UNL     1     -11.358  11.607  66.451  1.00  0.00    -0.312 A  
BRANCH  13  16
HETATM   16  C   UNL     1     -10.898  10.353  69.970  1.00  0.00    -0.348 A  
HETATM   17  C   UNL     1     -11.624  10.058  71.115  1.00  0.00    -0.378 A  
HETATM   18  C   UNL     1     -12.946  10.383  71.690  1.00  0.00    -0.581 C  
HETATM   19  O   UNL     1     -10.889   9.244  71.914  1.00  0.00    -0.351 OA 
HETATM   20  N   UNL     1      -9.667   9.003  71.353  1.00  0.00    -0.298 NA 
HETATM   21  C   UNL     1      -9.630   9.681  70.194  1.00  0.00    -0.254 A  
BRANCH  21  22
HETATM   22  C   UNL     1      -8.403   9.630  69.383  1.00  0.00    -0.145 A  
HETATM   23  C   UNL     1      -8.180   8.544  68.519  1.00  0.00    -0.123 A  
HETATM   24  C   UNL     1      -7.070   8.517  67.668  1.00  0.00    -0.080 A  
HETATM   25  C   UNL     1      -6.177   9.584  67.655  1.00  0.00    -0.053 A  
HETATM   26  C   UNL     1      -6.356  10.646  68.538  1.00  0.00    -0.054 A  
HETATM   27  C   UNL     1      -7.438  10.646  69.423  1.00  0.00    -0.135 A  
ENDBRANCH  21  22
ENDBRANCH  13  16
ENDBRANCH   7  10
ENDBRANCH   5   7
ENDBRANCH   2   3
TORSDOF 5
ENDMDL
MODEL       19
REMARK 921   NORMALIZED FREE ENERGY PREDICTED BY IDOCK:   -6.78 KCAL/MOL
REMARK 922        TOTAL FREE ENERGY PREDICTED BY IDOCK:   -9.85 KCAL/MOL
REMARK 923 INTER-LIGAND FREE ENERGY PREDICTED BY IDOCK:   -8.89 KCAL/MOL
REMARK 924 INTRA-LIGAND FREE ENERGY PREDICTED BY IDOCK:   -0.96 KCAL/MOL
REMARK 927      BINDING AFFINITY PREDICTED BY RF-SCORE:    0.00 PKD
ROOT
HETATM    1  C   UNL     1      -5.554  20.328  70.762  1.00  0.00    -0.333 C  
HETATM    2  C   UNL     1      -5.581  19.372  69.585  1.00  0.00    -0.242 C  
ENDROOT
BRANCH   2   3
HETATM    3  C   UNL     1      -6.790  19.650  68.721  1.00  0.00    -0.327 C  
HETATM    4  O   UNL     1      -6.919  20.707  68.122  1.00  0.00    -0.269 OA 
HETATM    5  N   UNL     1      -7.690  18.583  68.605  1.00  0.00    -0.309 N  
HETATM    6  H   UNL     1      -7.459  17.723  69.102  1.00  0.00     0.000 HD 
BRANCH   5   7
HETATM    7  S   UNL     1      -9.099  18.601  67.728  1.00  0.00    -0.290 S  
HETATM    8  O   UNL     1     -10.086  19.216  68.597  1.00  0.00    -0.391 OA 
HETATM    9  O   UNL     1      -8.851  19.132  66.403  1.00  0.00    -0.326 OA 
BRANCH   7  10
HETATM   10  C   UNL     1      -9.505  16.879  67.600  1.00  0.00    -0.241 A  
HETATM   11  C   UNL     1     -10.547  16.472  66.768  1.00  0.00    -0.224 A  
HETATM   12  C   UNL     1     -11.014  15.153  66.840  1.00  0.00    -0.323 A  
HETATM   13  C   UNL     1     -10.414  14.221  67.701  1.00  0.00    -0.248 A  
HETATM   14  C   UNL     1      -9.248  14.613  68.379  1.00  0.00    -0.197 A  
HETATM   15  C   UNL     1      -8.814  15.943  68.363  1.00  0.00    -0.184 A  
BRANCH  13  16
HETATM   16  C   UNL     1     -11.048  12.934  68.010  1.00  0.00    -0.283 A  
HETATM   17  C   UNL     1     -11.003  11.790  67.229  1.00  0.00    -0.267 A  
HETATM   18  C   UNL     1     -10.413  11.360  65.945  1.00  0.00    -0.309 C  
HETATM   19  O   UNL     1     -11.711  10.804  67.838  1.00  0.00    -0.543 OA 
HETATM   20  N   UNL     1     -12.261  11.262  69.001  1.00  0.00    -0.464 NA 
HETATM   21  C   UNL     1     -11.905  12.552  69.119  1.00  0.00    -0.296 A  
BRANCH  21  22
HETATM   22  C   UNL     1     -12.391  13.318  70.279  1.00  0.00    -0.334 A  
HETATM   23  C   UNL     1     -12.408  14.723  70.232  1.00  0.00    -0.400 A  
HETATM   24  C   UNL     1     -12.953  15.471  71.281  1.00  0.00    -0.565 A  
HETATM   25  C   UNL     1     -13.505  14.825  72.383  1.00  0.00    -0.529 A  
HETATM   26  C   UNL     1     -13.454  13.436  72.468  1.00  0.00    -0.640 A  
HETATM   27  C   UNL     1     -12.863  12.693  71.441  1.00  0.00    -0.358 A  
ENDBRANCH  21  22
ENDBRANCH  13  16
ENDBRANCH   7  10
ENDBRANCH   5   7
ENDBRANCH   2   3
TORSDOF 5
ENDMDL
MODEL       20
REMARK 921   NORMALIZED FREE ENERGY PREDICTED BY IDOCK:   -6.74 KCAL/MOL
REMARK 922        TOTAL FREE ENERGY PREDICTED BY IDOCK:   -9.80 KCAL/MOL
REMARK 923 INTER-LIGAND FREE ENERGY PREDICTED BY IDOCK:   -8.71 KCAL/MOL
REMARK 924 INTRA-LIGAND FREE ENERGY PREDICTED BY IDOCK:   -1.09 KCAL/MOL
REMARK 927      BINDING AFFINITY PREDICTED BY RF-SCORE:    0.00 PKD
ROOT
HETATM    1  C   UNL     1     -10.724  19.666  65.729  1.00  0.00    -0.493 C  
HETATM    2  C   UNL     1     -10.150  20.169  67.040  1.00  0.00    -0.599 C  
ENDROOT
BRANCH   2   3
HETATM    3  C   UNL     1      -9.170  19.161  67.595  1.00  0.00    -0.300 C  
HETATM    4  O   UNL     1      -9.249  18.755  68.745  1.00  0.00    -0.337 OA 
HETATM    5  N   UNL     1      -8.231  18.682  66.672  1.00  0.00    -0.269 N  
HETATM    6  H   UNL     1      -8.287  19.044  65.720  1.00  0.00     0.000 HD 
BRANCH   5   7
HETATM    7  S   UNL     1      -7.037  17.575  66.996  1.00  0.00    -0.193 S  
HETATM    8  O   UNL     1      -6.141  17.630  65.854  1.00  0.00    -0.202 OA 
HETATM    9  O   UNL     1      -6.531  17.771  68.339  1.00  0.00    -0.188 OA 
BRANCH   7  10
HETATM   10  C   UNL     1      -7.902  16.029  66.916  1.00  0.00    -0.249 A  
HETATM   11  C   UNL     1      -9.034  15.908  66.112  1.00  0.00    -0.376 A  
HETATM   12  C   UNL     1      -9.842  14.769  66.223  1.00  0.00    -0.316 A  
HETATM   13  C   UNL     1      -9.501  13.724  67.095  1.00  0.00    -0.244 A  
HETATM   14  C   UNL     1      -8.257  13.793  67.743  1.00  0.00    -0.174 A  
HETATM   15  C   UNL     1      -7.475  14.953  67.689  1.00  0.00    -0.205 A  
BRANCH  13  16
HETATM   16  C   UNL     1     -10.455  12.666  67.446  1.00  0.00    -0.233 A  
HETATM   17  C   UNL     1     -10.638  11.470  66.770  1.00  0.00    -0.250 A  
HETATM   18  C   UNL     1     -10.078  10.780  65.589  1.00  0.00    -0.327 C  
HETATM   19  O   UNL     1     -11.612  10.752  67.385  1.00  0.00    -0.485 OA 
HETATM   20  N   UNL     1     -12.117  11.446  68.447  1.00  0.00    -0.585 NA 
HETATM   21  C   UNL     1     -11.461  12.618  68.493  1.00  0.00    -0.311 A  
BRANCH  21  22
HETATM   22  C   UNL     1     -11.828  13.594  69.532  1.00  0.00    -0.394 A  
HETATM   23  C   UNL     1     -11.653  14.968  69.294  1.00  0.00    -0.338 A  
HETATM   24  C   UNL     1     -12.081  15.920  70.225  1.00  0.00    -0.294 A  
HETATM   25  C   UNL     1     -12.706  15.512  71.400  1.00  0.00    -0.517 A  
HETATM   26  C   UNL     1     -12.843  14.154  71.675  1.00  0.00    -0.428 A  
HETATM   27  C   UNL     1     -12.369  13.205  70.765  1.00  0.00    -0.404 A  
ENDBRANCH  21  22
ENDBRANCH  13  16
ENDBRANCH   7  10
ENDBRANCH   5   7
ENDBRANCH   2   3
TORSDOF 5
ENDMDL
MODEL       21
REMARK 921   NORMALIZED FREE ENERGY PREDICTED BY IDOCK:   -6.64 KCAL/MOL
REMARK 922        TOTAL FREE ENERGY PREDICTED BY IDOCK:   -9.66 KCAL/MOL
REMARK 923 INTER-LIGAND FREE ENERGY PREDICTED BY IDOCK:   -8.34 KCAL/MOL
REMARK 924 INTRA-LIGAND FREE ENERGY PREDICTED BY IDOCK:   -1.33 KCAL/MOL
REMARK 927      BINDING AFFINITY PREDICTED BY RF-SCORE:    0.00 PKD
ROOT
HETATM    1  C   UNL     1     -14.145  14.030  72.175  1.00  0.00    -0.641 C  
HETATM    2  C   UNL     1     -13.979  15.250  71.289  1.00  0.00    -0.548 C  
ENDROOT
BRANCH   2   3
HETATM    3  C   UNL     1     -12.588  15.274  70.700  1.00  0.00    -0.417 C  
HETATM    4  O   UNL     1     -11.683  14.595  71.163  1.00  0.00    -0.320 OA 
HETATM    5  N   UNL     1     -12.448  16.063  69.551  1.00  0.00    -0.450 N  
HETATM    6  H   UNL     1     -13.280  16.545  69.212  1.00  0.00     0.000 HD 
BRANCH   5   7
HETATM    7  S   UNL     1     -11.042  16.279  68.694  1.00  0.00    -0.350 S  
HETATM    8  O   UNL     1     -11.397  17.147  67.585  1.00  0.00    -0.011 OA 
HETATM    9  O   UNL     1      -9.963  16.634  69.593  1.00  0.00    -0.153 OA 
BRANCH   7  10
HETATM   10  C   UNL     1     -10.737  14.664  68.025  1.00  0.00    -0.246 A  
HETATM   11  C   UNL     1     -11.719  14.034  67.261  1.00  0.00    -0.420 A  
HETATM   12  C   UNL     1     -11.571  12.681  66.928  1.00  0.00    -0.438 A  
HETATM   13  C   UNL     1     -10.426  11.965  67.307  1.00  0.00    -0.248 A  
HETATM   14  C   UNL     1      -9.375  12.681  67.904  1.00  0.00    -0.204 A  
HETATM   15  C   UNL     1      -9.538  14.013  68.298  1.00  0.00    -0.224 A  
BRANCH  13  16
HETATM   16  C   UNL     1     -10.367  10.501  67.229  1.00  0.00    -0.275 A  
HETATM   17  C   UNL     1      -9.989   9.753  66.124  1.00  0.00    -0.268 A  
HETATM   18  C   UNL     1      -9.540   9.995  64.737  1.00  0.00    -0.374 C  
HETATM   19  O   UNL     1     -10.067   8.433  66.429  1.00  0.00    -0.265 OA 
HETATM   20  N   UNL     1     -10.517   8.264  67.707  1.00  0.00    -0.231 NA 
HETATM   21  C   UNL     1     -10.736   9.492  68.207  1.00  0.00    -0.194 A  
BRANCH  21  22
HETATM   22  C   UNL     1     -11.265   9.615  69.576  1.00  0.00    -0.144 A  
HETATM   23  C   UNL     1     -11.978  10.767  69.949  1.00  0.00    -0.418 A  
HETATM   24  C   UNL     1     -12.572  10.868  71.212  1.00  0.00    -0.526 A  
HETATM   25  C   UNL     1     -12.475   9.812  72.113  1.00  0.00    -0.303 A  
HETATM   26  C   UNL     1     -11.731   8.683  71.778  1.00  0.00    -0.400 A  
HETATM   27  C   UNL     1     -11.097   8.607  70.534  1.00  0.00    -0.268 A  
ENDBRANCH  21  22
ENDBRANCH  13  16
ENDBRANCH   7  10
ENDBRANCH   5   7
ENDBRANCH   2   3
TORSDOF 5
ENDMDL
MODEL       22
REMARK 921   NORMALIZED FREE ENERGY PREDICTED BY IDOCK:   -6.55 KCAL/MOL
REMARK 922        TOTAL FREE ENERGY PREDICTED BY IDOCK:   -9.54 KCAL/MOL
REMARK 923 INTER-LIGAND FREE ENERGY PREDICTED BY IDOCK:   -8.57 KCAL/MOL
REMARK 924 INTRA-LIGAND FREE ENERGY PREDICTED BY IDOCK:   -0.97 KCAL/MOL
REMARK 927      BINDING AFFINITY PREDICTED BY RF-SCORE:    0.00 PKD
ROOT
HETATM    1  C   UNL     1     -11.383   8.006  72.716  1.00  0.00    -0.439 C  
HETATM    2  C   UNL     1     -12.263   7.384  71.648  1.00  0.00    -0.361 C  
ENDROOT
BRANCH   2   3
HETATM    3  C   UNL     1     -11.469   7.180  70.379  1.00  0.00    -0.278 C  
HETATM    4  O   UNL     1     -11.245   6.063  69.935  1.00  0.00    -0.386 OA 
HETATM    5  N   UNL     1     -11.089   8.359  69.725  1.00  0.00    -0.433 N  
HETATM    6  H   UNL     1     -11.375   9.241  70.150  1.00  0.00     0.000 HD 
BRANCH   5   7
HETATM    7  S   UNL     1     -10.213   8.442  68.317  1.00  0.00    -0.200 S  
HETATM    8  O   UNL     1      -8.852   8.101  68.690  1.00  0.00    -0.134 OA 
HETATM    9  O   UNL     1     -10.894   7.714  67.266  1.00  0.00    -0.293 OA 
BRANCH   7  10
HETATM   10  C   UNL     1     -10.240  10.175  67.939  1.00  0.00    -0.180 A  
HETATM   11  C   UNL     1      -9.152  10.977  68.283  1.00  0.00    -0.158 A  
HETATM   12  C   UNL     1      -9.266  12.370  68.193  1.00  0.00    -0.205 A  
HETATM   13  C   UNL     1     -10.440  12.969  67.713  1.00  0.00    -0.232 A  
HETATM   14  C   UNL     1     -11.438  12.128  67.194  1.00  0.00    -0.413 A  
HETATM   15  C   UNL     1     -11.362  10.738  67.339  1.00  0.00    -0.239 A  
BRANCH  13  16
HETATM   16  C   UNL     1     -10.698  14.405  67.873  1.00  0.00    -0.246 A  
HETATM   17  C   UNL     1     -10.212  15.421  67.063  1.00  0.00    -0.262 A  
HETATM   18  C   UNL     1      -9.360  15.555  65.864  1.00  0.00    -0.355 C  
HETATM   19  O   UNL     1     -10.658  16.615  67.528  1.00  0.00    -0.319 OA 
HETATM   20  N   UNL     1     -11.411  16.438  68.654  1.00  0.00    -0.339 NA 
HETATM   21  C   UNL     1     -11.430  15.118  68.905  1.00  0.00    -0.320 A  
BRANCH  21  22
HETATM   22  C   UNL     1     -12.151  14.634  70.094  1.00  0.00    -0.385 A  
HETATM   23  C   UNL     1     -12.148  13.263  70.404  1.00  0.00    -0.401 A  
HETATM   24  C   UNL     1     -12.744  12.790  71.577  1.00  0.00    -0.330 A  
HETATM   25  C   UNL     1     -13.335  13.681  72.467  1.00  0.00    -0.638 A  
HETATM   26  C   UNL     1     -13.389  15.037  72.153  1.00  0.00    -0.485 A  
HETATM   27  C   UNL     1     -12.838  15.501  70.955  1.00  0.00    -0.535 A  
ENDBRANCH  21  22
ENDBRANCH  13  16
ENDBRANCH   7  10
ENDBRANCH   5   7
ENDBRANCH   2   3
TORSDOF 5
ENDMDL
MODEL       23
REMARK 921   NORMALIZED FREE ENERGY PREDICTED BY IDOCK:   -6.54 KCAL/MOL
REMARK 922        TOTAL FREE ENERGY PREDICTED BY IDOCK:   -9.54 KCAL/MOL
REMARK 923 INTER-LIGAND FREE ENERGY PREDICTED BY IDOCK:   -8.68 KCAL/MOL
REMARK 924 INTRA-LIGAND FREE ENERGY PREDICTED BY IDOCK:   -0.86 KCAL/MOL
REMARK 927      BINDING AFFINITY PREDICTED BY RF-SCORE:    0.00 PKD
ROOT
HETATM    1  C   UNL     1      -6.296  15.639  67.765  1.00  0.00    -0.179 C  
HETATM    2  C   UNL     1      -6.122  16.750  66.746  1.00  0.00    -0.171 C  
ENDROOT
BRANCH   2   3
HETATM    3  C   UNL     1      -7.465  17.349  66.402  1.00  0.00    -0.305 C  
HETATM    4  O   UNL     1      -7.571  18.270  65.604  1.00  0.00    -0.532 OA 
HETATM    5  N   UNL     1      -8.563  16.719  67.000  1.00  0.00    -0.199 N  
HETATM    6  H   UNL     1      -8.370  15.922  67.606  1.00  0.00     0.000 HD 
BRANCH   5   7
HETATM    7  S   UNL     1     -10.153  17.159  66.806  1.00  0.00    -0.312 S  
HETATM    8  O   UNL     1     -10.284  18.437  67.485  1.00  0.00    -0.337 OA 
HETATM    9  O   UNL     1     -10.540  17.020  65.417  1.00  0.00    -0.601 OA 
BRANCH   7  10
HETATM   10  C   UNL     1     -11.017  15.953  67.777  1.00  0.00    -0.315 A  
HETATM   11  C   UNL     1     -11.212  16.170  69.141  1.00  0.00    -0.336 A  
HETATM   12  C   UNL     1     -11.686  15.127  69.946  1.00  0.00    -0.346 A  
HETATM   13  C   UNL     1     -12.018  13.881  69.392  1.00  0.00    -0.402 A  
HETATM   14  C   UNL     1     -11.993  13.760  67.992  1.00  0.00    -0.390 A  
HETATM   15  C   UNL     1     -11.460  14.773  67.187  1.00  0.00    -0.375 A  
BRANCH  13  16
HETATM   16  C   UNL     1     -12.239  12.696  70.228  1.00  0.00    -0.347 A  
HETATM   17  C   UNL     1     -12.988  12.644  71.394  1.00  0.00    -0.258 A  
HETATM   18  C   UNL     1     -13.790  13.565  72.225  1.00  0.00    -0.680 C  
HETATM   19  O   UNL     1     -12.956  11.381  71.891  1.00  0.00    -0.453 OA 
HETATM   20  N   UNL     1     -12.176  10.580  71.106  1.00  0.00    -0.375 NA 
HETATM   21  C   UNL     1     -11.705  11.350  70.111  1.00  0.00    -0.328 A  
BRANCH  21  22
HETATM   22  C   UNL     1     -10.798  10.749  69.119  1.00  0.00    -0.281 A  
HETATM   23  C   UNL     1     -11.214  10.609  67.784  1.00  0.00    -0.383 A  
HETATM   24  C   UNL     1     -10.339  10.130  66.804  1.00  0.00    -0.285 A  
HETATM   25  C   UNL     1      -9.030   9.801  67.141  1.00  0.00    -0.148 A  
HETATM   26  C   UNL     1      -8.614   9.887  68.467  1.00  0.00    -0.117 A  
HETATM   27  C   UNL     1      -9.507  10.318  69.453  1.00  0.00    -0.225 A  
ENDBRANCH  21  22
ENDBRANCH  13  16
ENDBRANCH   7  10
ENDBRANCH   5   7
ENDBRANCH   2   3
TORSDOF 5
ENDMDL
MODEL       24
REMARK 921   NORMALIZED FREE ENERGY PREDICTED BY IDOCK:   -6.53 KCAL/MOL
REMARK 922        TOTAL FREE ENERGY PREDICTED BY IDOCK:   -9.53 KCAL/MOL
REMARK 923 INTER-LIGAND FREE ENERGY PREDICTED BY IDOCK:   -8.31 KCAL/MOL
REMARK 924 INTRA-LIGAND FREE ENERGY PREDICTED BY IDOCK:   -1.21 KCAL/MOL
REMARK 927      BINDING AFFINITY PREDICTED BY RF-SCORE:    0.00 PKD
ROOT
HETATM    1  C   UNL     1     -10.972   6.183  68.390  1.00  0.00    -0.391 C  
HETATM    2  C   UNL     1     -10.799   6.657  66.959  1.00  0.00    -0.467 C  
ENDROOT
BRANCH   2   3
HETATM    3  C   UNL     1      -9.929   7.893  66.926  1.00  0.00    -0.262 C  
HETATM    4  O   UNL     1      -9.343   8.291  67.922  1.00  0.00    -0.138 OA 
HETATM    5  N   UNL     1      -9.791   8.483  65.663  1.00  0.00    -0.363 N  
HETATM    6  H   UNL     1     -10.278   8.038  64.885  1.00  0.00     0.000 HD 
BRANCH   5   7
HETATM    7  S   UNL     1      -8.902   9.844  65.326  1.00  0.00    -0.197 S  
HETATM    8  O   UNL     1      -7.577   9.580  65.859  1.00  0.00    -0.098 OA 
HETATM    9  O   UNL     1      -9.077  10.219  63.938  1.00  0.00    -0.208 OA 
BRANCH   7  10
HETATM   10  C   UNL     1      -9.654  11.072  66.362  1.00  0.00    -0.198 A  
HETATM   11  C   UNL     1      -8.921  11.647  67.399  1.00  0.00    -0.166 A  
HETATM   12  C   UNL     1      -9.575  12.440  68.350  1.00  0.00    -0.180 A  
HETATM   13  C   UNL     1     -10.949  12.706  68.247  1.00  0.00    -0.275 A  
HETATM   14  C   UNL     1     -11.613  12.272  67.087  1.00  0.00    -0.423 A  
HETATM   15  C   UNL     1     -10.985  11.427  66.166  1.00  0.00    -0.294 A  
BRANCH  13  16
HETATM   16  C   UNL     1     -11.712  13.281  69.360  1.00  0.00    -0.383 A  
HETATM   17  C   UNL     1     -12.001  14.624  69.548  1.00  0.00    -0.319 A  
HETATM   18  C   UNL     1     -11.744  15.908  68.864  1.00  0.00    -0.376 C  
HETATM   19  O   UNL     1     -12.719  14.772  70.690  1.00  0.00    -0.334 OA 
HETATM   20  N   UNL     1     -12.900  13.563  71.299  1.00  0.00    -0.351 NA 
HETATM   21  C   UNL     1     -12.279  12.647  70.537  1.00  0.00    -0.299 A  
BRANCH  21  22
HETATM   22  C   UNL     1     -12.282  11.241  70.976  1.00  0.00    -0.417 A  
HETATM   23  C   UNL     1     -13.224  10.806  71.924  1.00  0.00    -0.524 A  
HETATM   24  C   UNL     1     -13.311   9.458  72.285  1.00  0.00    -0.539 A  
HETATM   25  C   UNL     1     -12.468   8.523  71.692  1.00  0.00    -0.370 A  
HETATM   26  C   UNL     1     -11.497   8.943  70.788  1.00  0.00    -0.319 A  
HETATM   27  C   UNL     1     -11.379  10.299  70.466  1.00  0.00    -0.422 A  
ENDBRANCH  21  22
ENDBRANCH  13  16
ENDBRANCH   7  10
ENDBRANCH   5   7
ENDBRANCH   2   3
TORSDOF 5
ENDMDL
MODEL       25
REMARK 921   NORMALIZED FREE ENERGY PREDICTED BY IDOCK:   -6.52 KCAL/MOL
REMARK 922        TOTAL FREE ENERGY PREDICTED BY IDOCK:   -9.51 KCAL/MOL
REMARK 923 INTER-LIGAND FREE ENERGY PREDICTED BY IDOCK:   -8.38 KCAL/MOL
REMARK 924 INTRA-LIGAND FREE ENERGY PREDICTED BY IDOCK:   -1.13 KCAL/MOL
REMARK 927      BINDING AFFINITY PREDICTED BY RF-SCORE:    0.00 PKD
ROOT
HETATM    1  C   UNL     1     -12.404  15.445  74.413  1.00  0.00    -0.766 C  
HETATM    2  C   UNL     1     -12.717  14.674  73.145  1.00  0.00    -0.549 C  
ENDROOT
BRANCH   2   3
HETATM    3  C   UNL     1     -12.023  15.316  71.966  1.00  0.00    -0.411 C  
HETATM    4  O   UNL     1     -11.771  16.512  71.944  1.00  0.00    -0.458 OA 
HETATM    5  N   UNL     1     -11.631  14.428  70.957  1.00  0.00    -0.513 N  
HETATM    6  H   UNL     1     -11.840  13.439  71.098  1.00  0.00     0.000 HD 
BRANCH   5   7
HETATM    7  S   UNL     1     -10.855  14.847  69.549  1.00  0.00    -0.247 S  
HETATM    8  O   UNL     1     -11.804  15.665  68.815  1.00  0.00    -0.370 OA 
HETATM    9  O   UNL     1      -9.527  15.344  69.846  1.00  0.00    -0.245 OA 
BRANCH   7  10
HETATM   10  C   UNL     1     -10.721  13.297  68.697  1.00  0.00    -0.259 A  
HETATM   11  C   UNL     1     -11.767  12.377  68.763  1.00  0.00    -0.379 A  
HETATM   12  C   UNL     1     -11.572  11.075  68.286  1.00  0.00    -0.354 A  
HETATM   13  C   UNL     1     -10.357  10.696  67.696  1.00  0.00    -0.246 A  
HETATM   14  C   UNL     1      -9.398  11.698  67.472  1.00  0.00    -0.168 A  
HETATM   15  C   UNL     1      -9.558  12.984  68.001  1.00  0.00    -0.224 A  
BRANCH  13  16
HETATM   16  C   UNL     1     -10.020   9.289  67.452  1.00  0.00    -0.253 A  
HETATM   17  C   UNL     1      -9.575   8.748  66.256  1.00  0.00    -0.259 A  
HETATM   18  C   UNL     1      -9.269   9.214  64.887  1.00  0.00    -0.135 C  
HETATM   19  O   UNL     1      -9.375   7.415  66.414  1.00  0.00    -0.177 OA 
HETATM   20  N   UNL     1      -9.703   7.031  67.683  1.00  0.00    -0.133 NA 
HETATM   21  C   UNL     1     -10.124   8.133  68.326  1.00  0.00    -0.197 A  
BRANCH  21  22
HETATM   22  C   UNL     1     -10.579   8.009  69.721  1.00  0.00    -0.238 A  
HETATM   23  C   UNL     1     -10.050   8.859  70.707  1.00  0.00    -0.282 A  
HETATM   24  C   UNL     1     -10.534   8.827  72.019  1.00  0.00    -0.414 A  
HETATM   25  C   UNL     1     -11.563   7.955  72.360  1.00  0.00    -0.436 A  
HETATM   26  C   UNL     1     -12.065   7.071  71.408  1.00  0.00    -0.396 A  
HETATM   27  C   UNL     1     -11.545   7.071  70.111  1.00  0.00    -0.273 A  
ENDBRANCH  21  22
ENDBRANCH  13  16
ENDBRANCH   7  10
ENDBRANCH   5   7
ENDBRANCH   2   3
TORSDOF 5
ENDMDL
MODEL       26
REMARK 921   NORMALIZED FREE ENERGY PREDICTED BY IDOCK:   -6.48 KCAL/MOL
REMARK 922        TOTAL FREE ENERGY PREDICTED BY IDOCK:   -9.46 KCAL/MOL
REMARK 923 INTER-LIGAND FREE ENERGY PREDICTED BY IDOCK:   -8.43 KCAL/MOL
REMARK 924 INTRA-LIGAND FREE ENERGY PREDICTED BY IDOCK:   -1.03 KCAL/MOL
REMARK 927      BINDING AFFINITY PREDICTED BY RF-SCORE:    0.00 PKD
ROOT
HETATM    1  C   UNL     1     -13.184   9.537  71.982  1.00  0.00    -0.539 C  
HETATM    2  C   UNL     1     -12.112   8.496  72.243  1.00  0.00    -0.455 C  
ENDROOT
BRANCH   2   3
HETATM    3  C   UNL     1     -11.271   8.300  71.003  1.00  0.00    -0.259 C  
HETATM    4  O   UNL     1     -11.494   7.395  70.212  1.00  0.00    -0.261 OA 
HETATM    5  N   UNL     1     -10.284   9.273  70.801  1.00  0.00    -0.263 N  
HETATM    6  H   UNL     1     -10.216  10.020  71.492  1.00  0.00     0.000 HD 
BRANCH   5   7
HETATM    7  S   UNL     1      -9.214   9.314  69.531  1.00  0.00    -0.175 S  
HETATM    8  O   UNL     1      -8.119  10.156  69.977  1.00  0.00    -0.166 OA 
HETATM    9  O   UNL     1      -8.963   7.970  69.051  1.00  0.00    -0.144 OA 
BRANCH   7  10
HETATM   10  C   UNL     1     -10.107  10.218  68.293  1.00  0.00    -0.154 A  
HETATM   11  C   UNL     1      -9.735  10.113  66.954  1.00  0.00    -0.233 A  
HETATM   12  C   UNL     1     -10.285  10.993  66.013  1.00  0.00    -0.305 A  
HETATM   13  C   UNL     1     -11.245  11.945  66.389  1.00  0.00    -0.387 A  
HETATM   14  C   UNL     1     -11.737  11.893  67.704  1.00  0.00    -0.346 A  
HETATM   15  C   UNL     1     -11.149  11.063  68.665  1.00  0.00    -0.294 A  
BRANCH  13  16
HETATM   16  C   UNL     1     -11.623  13.054  65.506  1.00  0.00    -0.382 A  
HETATM   17  C   UNL     1     -12.257  12.944  64.278  1.00  0.00    -0.410 A  
HETATM   18  C   UNL     1     -12.775  11.872  63.403  1.00  0.00    -0.496 C  
HETATM   19  O   UNL     1     -12.435  14.183  63.753  1.00  0.00    -0.791 OA 
HETATM   20  N   UNL     1     -11.910  15.132  64.583  1.00  0.00    -0.382 NA 
HETATM   21  C   UNL     1     -11.386  14.481  65.635  1.00  0.00    -0.336 A  
BRANCH  21  22
HETATM   22  C   UNL     1     -10.715  15.262  66.688  1.00  0.00    -0.309 A  
HETATM   23  C   UNL     1     -11.349  15.456  67.927  1.00  0.00    -0.328 A  
HETATM   24  C   UNL     1     -10.694  16.111  68.975  1.00  0.00    -0.287 A  
HETATM   25  C   UNL     1      -9.390  16.566  68.805  1.00  0.00    -0.247 A  
HETATM   26  C   UNL     1      -8.764  16.425  67.569  1.00  0.00    -0.188 A  
HETATM   27  C   UNL     1      -9.440  15.815  66.508  1.00  0.00    -0.298 A  
ENDBRANCH  21  22
ENDBRANCH  13  16
ENDBRANCH   7  10
ENDBRANCH   5   7
ENDBRANCH   2   3
TORSDOF 5
ENDMDL
MODEL       27
REMARK 921   NORMALIZED FREE ENERGY PREDICTED BY IDOCK:   -6.42 KCAL/MOL
REMARK 922        TOTAL FREE ENERGY PREDICTED BY IDOCK:   -9.38 KCAL/MOL
REMARK 923 INTER-LIGAND FREE ENERGY PREDICTED BY IDOCK:   -8.27 KCAL/MOL
REMARK 924 INTRA-LIGAND FREE ENERGY PREDICTED BY IDOCK:   -1.11 KCAL/MOL
REMARK 927      BINDING AFFINITY PREDICTED BY RF-SCORE:    0.00 PKD
ROOT
HETATM    1  C   UNL     1      -9.843  10.992  63.620  1.00  0.00    -0.397 C  
HETATM    2  C   UNL     1     -11.085  11.729  63.156  1.00  0.00    -0.251 C  
ENDROOT
BRANCH   2   3
HETATM    3  C   UNL     1     -11.899  12.171  64.350  1.00  0.00    -0.358 C  
HETATM    4  O   UNL     1     -13.121  12.196  64.320  1.00  0.00    -0.723 OA 
HETATM    5  N   UNL     1     -11.151  12.466  65.497  1.00  0.00    -0.290 N  
HETATM    6  H   UNL     1     -10.139  12.359  65.434  1.00  0.00     0.000 HD 
BRANCH   5   7
HETATM    7  S   UNL     1     -11.773  12.975  66.951  1.00  0.00    -0.385 S  
HETATM    8  O   UNL     1     -12.762  13.984  66.614  1.00  0.00    -0.255 OA 
HETATM    9  O   UNL     1     -12.134  11.831  67.763  1.00  0.00    -0.595 OA 
BRANCH   7  10
HETATM   10  C   UNL     1     -10.398  13.810  67.696  1.00  0.00    -0.239 A  
HETATM   11  C   UNL     1     -10.576  14.514  68.887  1.00  0.00    -0.249 A  
HETATM   12  C   UNL     1      -9.557  15.354  69.352  1.00  0.00    -0.270 A  
HETATM   13  C   UNL     1      -8.338  15.460  68.664  1.00  0.00    -0.168 A  
HETATM   14  C   UNL     1      -8.121  14.592  67.581  1.00  0.00    -0.185 A  
HETATM   15  C   UNL     1      -9.155  13.798  67.071  1.00  0.00    -0.253 A  
BRANCH  13  16
HETATM   16  C   UNL     1      -7.375  16.528  68.955  1.00  0.00    -0.228 A  
HETATM   17  C   UNL     1      -6.217  16.405  69.708  1.00  0.00    -0.204 A  
HETATM   18  C   UNL     1      -5.498  15.350  70.451  1.00  0.00    -0.137 C  
HETATM   19  O   UNL     1      -5.589  17.607  69.762  1.00  0.00    -0.201 OA 
HETATM   20  N   UNL     1      -6.309  18.552  69.088  1.00  0.00    -0.246 NA 
HETATM   21  C   UNL     1      -7.407  17.940  68.616  1.00  0.00    -0.271 A  
BRANCH  21  22
HETATM   22  C   UNL     1      -8.395  18.736  67.867  1.00  0.00    -0.300 A  
HETATM   23  C   UNL     1      -8.052  19.280  66.617  1.00  0.00    -0.300 A  
HETATM   24  C   UNL     1      -9.000  19.958  65.844  1.00  0.00    -0.187 A  
HETATM   25  C   UNL     1     -10.308  20.087  66.301  1.00  0.00    -0.570 A  
HETATM   26  C   UNL     1     -10.653  19.596  67.557  1.00  0.00    -0.577 A  
HETATM   27  C   UNL     1      -9.691  18.964  68.350  1.00  0.00    -0.432 A  
ENDBRANCH  21  22
ENDBRANCH  13  16
ENDBRANCH   7  10
ENDBRANCH   5   7
ENDBRANCH   2   3
TORSDOF 5
ENDMDL
MODEL       28
REMARK 921   NORMALIZED FREE ENERGY PREDICTED BY IDOCK:   -6.40 KCAL/MOL
REMARK 922        TOTAL FREE ENERGY PREDICTED BY IDOCK:   -9.35 KCAL/MOL
REMARK 923 INTER-LIGAND FREE ENERGY PREDICTED BY IDOCK:   -8.43 KCAL/MOL
REMARK 924 INTRA-LIGAND FREE ENERGY PREDICTED BY IDOCK:   -0.92 KCAL/MOL
REMARK 927      BINDING AFFINITY PREDICTED BY RF-SCORE:    0.00 PKD
ROOT
HETATM    1  C   UNL     1      -9.388  10.322  63.715  1.00  0.00    -0.339 C  
HETATM    2  C   UNL     1     -10.014  11.509  63.006  1.00  0.00    -0.352 C  
ENDROOT
BRANCH   2   3
HETATM    3  C   UNL     1     -11.235  11.977  63.763  1.00  0.00    -0.440 C  
HETATM    4  O   UNL     1     -12.366  11.732  63.369  1.00  0.00    -0.532 OA 
HETATM    5  N   UNL     1     -10.965  12.631  64.971  1.00  0.00    -0.281 N  
HETATM    6  H   UNL     1      -9.986  12.735  65.237  1.00  0.00     0.000 HD 
BRANCH   5   7
HETATM    7  S   UNL     1     -12.105  13.252  66.008  1.00  0.00    -0.432 S  
HETATM    8  O   UNL     1     -13.238  13.601  65.169  1.00  0.00    -0.739 OA 
HETATM    9  O   UNL     1     -12.273  12.371  67.145  1.00  0.00    -0.492 OA 
BRANCH   7  10
HETATM   10  C   UNL     1     -11.360  14.768  66.549  1.00  0.00    -0.344 A  
HETATM   11  C   UNL     1     -10.689  15.577  65.632  1.00  0.00    -0.378 A  
HETATM   12  C   UNL     1      -9.912  16.647  66.094  1.00  0.00    -0.356 A  
HETATM   13  C   UNL     1      -9.840  16.949  67.463  1.00  0.00    -0.260 A  
HETATM   14  C   UNL     1     -10.679  16.236  68.335  1.00  0.00    -0.311 A  
HETATM   15  C   UNL     1     -11.408  15.126  67.893  1.00  0.00    -0.346 A  
BRANCH  13  16
HETATM   16  C   UNL     1      -8.828  17.865  68.001  1.00  0.00    -0.268 A  
HETATM   17  C   UNL     1      -8.915  19.248  68.047  1.00  0.00    -0.316 A  
HETATM   18  C   UNL     1      -9.877  20.300  67.659  1.00  0.00    -0.563 C  
HETATM   19  O   UNL     1      -7.784  19.749  68.607  1.00  0.00    -0.329 OA 
HETATM   20  N   UNL     1      -6.917  18.740  68.916  1.00  0.00    -0.300 NA 
HETATM   21  C   UNL     1      -7.504  17.593  68.535  1.00  0.00    -0.269 A  
BRANCH  21  22
HETATM   22  C   UNL     1      -6.773  16.328  68.720  1.00  0.00    -0.144 A  
HETATM   23  C   UNL     1      -6.409  15.913  70.012  1.00  0.00    -0.090 A  
HETATM   24  C   UNL     1      -5.800  14.672  70.224  1.00  0.00    -0.146 A  
HETATM   25  C   UNL     1      -5.561  13.821  69.149  1.00  0.00    -0.078 A  
HETATM   26  C   UNL     1      -5.871  14.237  67.856  1.00  0.00    -0.132 A  
HETATM   27  C   UNL     1      -6.434  15.498  67.643  1.00  0.00    -0.194 A  
ENDBRANCH  21  22
ENDBRANCH  13  16
ENDBRANCH   7  10
ENDBRANCH   5   7
ENDBRANCH   2   3
TORSDOF 5
ENDMDL
MODEL       29
REMARK 921   NORMALIZED FREE ENERGY PREDICTED BY IDOCK:   -6.39 KCAL/MOL
REMARK 922        TOTAL FREE ENERGY PREDICTED BY IDOCK:   -9.34 KCAL/MOL
REMARK 923 INTER-LIGAND FREE ENERGY PREDICTED BY IDOCK:   -8.10 KCAL/MOL
REMARK 924 INTRA-LIGAND FREE ENERGY PREDICTED BY IDOCK:   -1.24 KCAL/MOL
REMARK 927      BINDING AFFINITY PREDICTED BY RF-SCORE:    0.00 PKD
ROOT
HETATM    1  C   UNL     1     -14.369   8.865  71.859  1.00  0.00    -0.378 C  
HETATM    2  C   UNL     1     -14.020   7.413  71.594  1.00  0.00    -0.523 C  
ENDROOT
BRANCH   2   3
HETATM    3  C   UNL     1     -12.603   7.308  71.080  1.00  0.00    -0.263 C  
HETATM    4  O   UNL     1     -11.980   6.257  71.124  1.00  0.00    -0.270 OA 
HETATM    5  N   UNL     1     -12.103   8.475  70.487  1.00  0.00    -0.482 N  
HETATM    6  H   UNL     1     -12.725   9.282  70.450  1.00  0.00     0.000 HD 
BRANCH   5   7
HETATM    7  S   UNL     1     -10.585   8.654  69.839  1.00  0.00    -0.221 S  
HETATM    8  O   UNL     1      -9.666   8.414  70.938  1.00  0.00    -0.164 OA 
HETATM    9  O   UNL     1     -10.478   7.894  68.610  1.00  0.00    -0.203 OA 
BRANCH   7  10
HETATM   10  C   UNL     1     -10.519  10.386  69.462  1.00  0.00    -0.247 A  
HETATM   11  C   UNL     1     -11.605  11.204  69.772  1.00  0.00    -0.409 A  
HETATM   12  C   UNL     1     -11.647  12.513  69.274  1.00  0.00    -0.378 A  
HETATM   13  C   UNL     1     -10.590  13.030  68.510  1.00  0.00    -0.274 A  
HETATM   14  C   UNL     1      -9.431  12.245  68.383  1.00  0.00    -0.175 A  
HETATM   15  C   UNL     1      -9.404  10.916  68.821  1.00  0.00    -0.190 A  
BRANCH  13  16
HETATM   16  C   UNL     1     -10.724  14.273  67.743  1.00  0.00    -0.253 A  
HETATM   17  C   UNL     1     -10.756  15.558  68.263  1.00  0.00    -0.271 A  
HETATM   18  C   UNL     1     -10.682  16.207  69.588  1.00  0.00    -0.325 C  
HETATM   19  O   UNL     1     -10.898  16.448  67.248  1.00  0.00    -0.291 OA 
HETATM   20  N   UNL     1     -10.994  15.796  66.052  1.00  0.00    -0.237 NA 
HETATM   21  C   UNL     1     -10.923  14.481  66.319  1.00  0.00    -0.323 A  
BRANCH  21  22
HETATM   22  C   UNL     1     -11.034  13.525  65.205  1.00  0.00    -0.328 A  
HETATM   23  C   UNL     1      -9.960  12.668  64.909  1.00  0.00    -0.169 A  
HETATM   24  C   UNL     1     -10.075  11.686  63.919  1.00  0.00    -0.395 A  
HETATM   25  C   UNL     1     -11.270  11.537  63.222  1.00  0.00    -0.239 A  
HETATM   26  C   UNL     1     -12.328  12.409  63.468  1.00  0.00    -0.648 A  
HETATM   27  C   UNL     1     -12.193  13.421  64.423  1.00  0.00    -0.444 A  
ENDBRANCH  21  22
ENDBRANCH  13  16
ENDBRANCH   7  10
ENDBRANCH   5   7
ENDBRANCH   2   3
TORSDOF 5
ENDMDL
MODEL       30
REMARK 921   NORMALIZED FREE ENERGY PREDICTED BY IDOCK:   -6.38 KCAL/MOL
REMARK 922        TOTAL FREE ENERGY PREDICTED BY IDOCK:   -9.32 KCAL/MOL
REMARK 923 INTER-LIGAND FREE ENERGY PREDICTED BY IDOCK:   -8.92 KCAL/MOL
REMARK 924 INTRA-LIGAND FREE ENERGY PREDICTED BY IDOCK:   -0.41 KCAL/MOL
REMARK 927      BINDING AFFINITY PREDICTED BY RF-SCORE:    0.00 PKD
ROOT
HETATM    1  C   UNL     1      -7.031   8.955  71.381  1.00  0.00    -0.095 C  
HETATM    2  C   UNL     1      -7.369   8.014  72.521  1.00  0.00    -0.122 C  
ENDROOT
BRANCH   2   3
HETATM    3  C   UNL     1      -8.867   7.948  72.710  1.00  0.00    -0.189 C  
HETATM    4  O   UNL     1      -9.365   7.692  73.796  1.00  0.00    -0.263 OA 
HETATM    5  N   UNL     1      -9.619   8.277  71.576  1.00  0.00    -0.173 N  
HETATM    6  H   UNL     1      -9.105   8.531  70.732  1.00  0.00     0.000 HD 
BRANCH   5   7
HETATM    7  S   UNL     1     -11.277   8.290  71.487  1.00  0.00    -0.278 S  
HETATM    8  O   UNL     1     -11.628   7.139  70.674  1.00  0.00    -0.301 OA 
HETATM    9  O   UNL     1     -11.843   8.458  72.811  1.00  0.00    -0.371 OA 
BRANCH   7  10
HETATM   10  C   UNL     1     -11.609   9.740  70.522  1.00  0.00    -0.292 A  
HETATM   11  C   UNL     1     -11.043   9.875  69.255  1.00  0.00    -0.220 A  
HETATM   12  C   UNL     1     -11.117  11.107  68.593  1.00  0.00    -0.293 A  
HETATM   13  C   UNL     1     -11.797  12.194  69.163  1.00  0.00    -0.361 A  
HETATM   14  C   UNL     1     -12.518  11.965  70.347  1.00  0.00    -0.252 A  
HETATM   15  C   UNL     1     -12.397  10.760  71.047  1.00  0.00    -0.509 A  
BRANCH  13  16
HETATM   16  C   UNL     1     -11.652  13.557  68.642  1.00  0.00    -0.365 A  
HETATM   17  C   UNL     1     -11.206  13.908  67.376  1.00  0.00    -0.312 A  
HETATM   18  C   UNL     1     -10.743  13.229  66.149  1.00  0.00    -0.287 C  
HETATM   19  O   UNL     1     -11.200  15.261  67.263  1.00  0.00    -0.335 OA 
HETATM   20  N   UNL     1     -11.603  15.839  68.433  1.00  0.00    -0.368 NA 
HETATM   21  C   UNL     1     -11.855  14.839  69.294  1.00  0.00    -0.318 A  
BRANCH  21  22
HETATM   22  C   UNL     1     -12.281  15.174  70.663  1.00  0.00    -0.401 A  
HETATM   23  C   UNL     1     -13.649  15.303  70.959  1.00  0.00    -0.486 A  
HETATM   24  C   UNL     1     -14.084  15.526  72.269  1.00  0.00    -0.637 A  
HETATM   25  C   UNL     1     -13.159  15.607  73.305  1.00  0.00    -0.675 A  
HETATM   26  C   UNL     1     -11.797  15.530  73.024  1.00  0.00    -0.555 A  
HETATM   27  C   UNL     1     -11.363  15.357  71.707  1.00  0.00    -0.457 A  
ENDBRANCH  21  22
ENDBRANCH  13  16
ENDBRANCH   7  10
ENDBRANCH   5   7
ENDBRANCH   2   3
TORSDOF 5
ENDMDL
MODEL       31
REMARK 921   NORMALIZED FREE ENERGY PREDICTED BY IDOCK:   -6.36 KCAL/MOL
REMARK 922        TOTAL FREE ENERGY PREDICTED BY IDOCK:   -9.30 KCAL/MOL
REMARK 923 INTER-LIGAND FREE ENERGY PREDICTED BY IDOCK:   -7.98 KCAL/MOL
REMARK 924 INTRA-LIGAND FREE ENERGY PREDICTED BY IDOCK:   -1.32 KCAL/MOL
REMARK 927      BINDING AFFINITY PREDICTED BY RF-SCORE:    0.00 PKD
ROOT
HETATM    1  C   UNL     1     -12.020   8.518  72.444  1.00  0.00    -0.434 C  
HETATM    2  C   UNL     1     -10.967   7.575  72.995  1.00  0.00    -0.443 C  
ENDROOT
BRANCH   2   3
HETATM    3  C   UNL     1      -9.642   7.824  72.311  1.00  0.00    -0.176 C  
HETATM    4  O   UNL     1      -8.590   7.422  72.787  1.00  0.00    -0.111 OA 
HETATM    5  N   UNL     1      -9.730   8.471  71.073  1.00  0.00    -0.180 N  
HETATM    6  H   UNL     1     -10.663   8.715  70.739  1.00  0.00     0.000 HD 
BRANCH   5   7
HETATM    7  S   UNL     1      -8.445   8.875  70.101  1.00  0.00    -0.162 S  
HETATM    8  O   UNL     1      -7.643   9.796  70.887  1.00  0.00    -0.319 OA 
HETATM    9  O   UNL     1      -7.854   7.678  69.539  1.00  0.00    -0.110 OA 
BRANCH   7  10
HETATM   10  C   UNL     1      -9.211   9.812  68.805  1.00  0.00    -0.143 A  
HETATM   11  C   UNL     1      -8.552  10.916  68.265  1.00  0.00    -0.139 A  
HETATM   12  C   UNL     1      -9.245  11.784  67.411  1.00  0.00    -0.174 A  
HETATM   13  C   UNL     1     -10.577  11.531  67.050  1.00  0.00    -0.277 A  
HETATM   14  C   UNL     1     -11.144  10.312  67.455  1.00  0.00    -0.302 A  
HETATM   15  C   UNL     1     -10.484   9.472  68.359  1.00  0.00    -0.261 A  
BRANCH  13  16
HETATM   16  C   UNL     1     -11.410  12.551  66.402  1.00  0.00    -0.379 A  
HETATM   17  C   UNL     1     -11.811  12.560  65.075  1.00  0.00    -0.396 A  
HETATM   18  C   UNL     1     -11.644  11.717  63.872  1.00  0.00    -0.469 C  
HETATM   19  O   UNL     1     -12.565  13.664  64.842  1.00  0.00    -0.567 OA 
HETATM   20  N   UNL     1     -12.660  14.423  65.974  1.00  0.00    -0.322 NA 
HETATM   21  C   UNL     1     -11.950  13.794  66.925  1.00  0.00    -0.421 A  
BRANCH  21  22
HETATM   22  C   UNL     1     -11.849  14.411  68.258  1.00  0.00    -0.361 A  
HETATM   23  C   UNL     1     -12.286  13.704  69.391  1.00  0.00    -0.307 A  
HETATM   24  C   UNL     1     -12.114  14.227  70.677  1.00  0.00    -0.417 A  
HETATM   25  C   UNL     1     -11.487  15.458  70.849  1.00  0.00    -0.396 A  
HETATM   26  C   UNL     1     -11.091  16.194  69.735  1.00  0.00    -0.350 A  
HETATM   27  C   UNL     1     -11.311  15.691  68.449  1.00  0.00    -0.365 A  
ENDBRANCH  21  22
ENDBRANCH  13  16
ENDBRANCH   7  10
ENDBRANCH   5   7
ENDBRANCH   2   3
TORSDOF 5
ENDMDL
MODEL       32
REMARK 921   NORMALIZED FREE ENERGY PREDICTED BY IDOCK:   -6.35 KCAL/MOL
REMARK 922        TOTAL FREE ENERGY PREDICTED BY IDOCK:   -9.29 KCAL/MOL
REMARK 923 INTER-LIGAND FREE ENERGY PREDICTED BY IDOCK:   -8.95 KCAL/MOL
REMARK 924 INTRA-LIGAND FREE ENERGY PREDICTED BY IDOCK:   -0.34 KCAL/MOL
REMARK 927      BINDING AFFINITY PREDICTED BY RF-SCORE:    0.00 PKD
ROOT
HETATM    1  C   UNL     1      -8.755  10.404  63.729  1.00  0.00    -0.198 C  
HETATM    2  C   UNL     1      -9.440  11.451  62.872  1.00  0.00    -0.372 C  
ENDROOT
BRANCH   2   3
HETATM    3  C   UNL     1     -10.666  11.978  63.581  1.00  0.00    -0.449 C  
HETATM    4  O   UNL     1     -11.778  11.516  63.368  1.00  0.00    -0.355 OA 
HETATM    5  N   UNL     1     -10.413  12.965  64.542  1.00  0.00    -0.362 N  
HETATM    6  H   UNL     1      -9.441  13.241  64.683  1.00  0.00     0.000 HD 
BRANCH   5   7
HETATM    7  S   UNL     1     -11.561  13.724  65.471  1.00  0.00    -0.338 S  
HETATM    8  O   UNL     1     -11.040  15.058  65.712  1.00  0.00    -0.340 OA 
HETATM    9  O   UNL     1     -12.873  13.539  64.887  1.00  0.00    -0.684 OA 
BRANCH   7  10
HETATM   10  C   UNL     1     -11.474  12.838  67.005  1.00  0.00    -0.341 A  
HETATM   11  C   UNL     1     -11.230  11.465  67.000  1.00  0.00    -0.350 A  
HETATM   12  C   UNL     1     -11.388  10.731  68.183  1.00  0.00    -0.377 A  
HETATM   13  C   UNL     1     -11.737  11.364  69.385  1.00  0.00    -0.406 A  
HETATM   14  C   UNL     1     -11.783  12.769  69.394  1.00  0.00    -0.380 A  
HETATM   15  C   UNL     1     -11.692  13.504  68.207  1.00  0.00    -0.394 A  
BRANCH  13  16
HETATM   16  C   UNL     1     -12.184  10.606  70.558  1.00  0.00    -0.449 A  
HETATM   17  C   UNL     1     -12.982  11.083  71.587  1.00  0.00    -0.456 A  
HETATM   18  C   UNL     1     -13.657  12.344  71.958  1.00  0.00    -0.349 C  
HETATM   19  O   UNL     1     -13.178  10.095  72.497  1.00  0.00    -0.234 OA 
HETATM   20  N   UNL     1     -12.507   8.965  72.125  1.00  0.00    -0.380 NA 
HETATM   21  C   UNL     1     -11.874   9.250  70.975  1.00  0.00    -0.307 A  
BRANCH  21  22
HETATM   22  C   UNL     1     -11.035   8.212  70.352  1.00  0.00    -0.248 A  
HETATM   23  C   UNL     1     -11.593   6.964  70.025  1.00  0.00    -0.299 A  
HETATM   24  C   UNL     1     -10.845   5.996  69.348  1.00  0.00    -0.433 A  
HETATM   25  C   UNL     1      -9.532   6.268  68.973  1.00  0.00    -0.133 A  
HETATM   26  C   UNL     1      -8.948   7.479  69.331  1.00  0.00    -0.139 A  
HETATM   27  C   UNL     1      -9.683   8.425  70.053  1.00  0.00    -0.176 A  
ENDBRANCH  21  22
ENDBRANCH  13  16
ENDBRANCH   7  10
ENDBRANCH   5   7
ENDBRANCH   2   3
TORSDOF 5
ENDMDL
MODEL       33
REMARK 921   NORMALIZED FREE ENERGY PREDICTED BY IDOCK:   -6.33 KCAL/MOL
REMARK 922        TOTAL FREE ENERGY PREDICTED BY IDOCK:   -9.26 KCAL/MOL
REMARK 923 INTER-LIGAND FREE ENERGY PREDICTED BY IDOCK:   -8.14 KCAL/MOL
REMARK 924 INTRA-LIGAND FREE ENERGY PREDICTED BY IDOCK:   -1.11 KCAL/MOL
REMARK 927      BINDING AFFINITY PREDICTED BY RF-SCORE:    0.00 PKD
ROOT
HETATM    1  C   UNL     1     -10.193  11.910  63.425  1.00  0.00    -0.478 C  
HETATM    2  C   UNL     1      -9.555  10.567  63.127  1.00  0.00    -0.375 C  
ENDROOT
BRANCH   2   3
HETATM    3  C   UNL     1      -9.312   9.813  64.414  1.00  0.00    -0.215 C  
HETATM    4  O   UNL     1      -8.484   8.917  64.486  1.00  0.00    -0.170 OA 
HETATM    5  N   UNL     1     -10.045  10.275  65.514  1.00  0.00    -0.293 N  
HETATM    6  H   UNL     1     -10.668  11.067  65.361  1.00  0.00     0.000 HD 
BRANCH   5   7
HETATM    7  S   UNL     1      -9.984   9.642  67.049  1.00  0.00    -0.220 S  
HETATM    8  O   UNL     1     -10.826   8.459  67.010  1.00  0.00    -0.224 OA 
HETATM    9  O   UNL     1      -8.608   9.554  67.494  1.00  0.00    -0.125 OA 
BRANCH   7  10
HETATM   10  C   UNL     1     -10.833  10.865  68.013  1.00  0.00    -0.245 A  
HETATM   11  C   UNL     1     -11.259  12.049  67.412  1.00  0.00    -0.368 A  
HETATM   12  C   UNL     1     -11.720  13.102  68.211  1.00  0.00    -0.384 A  
HETATM   13  C   UNL     1     -11.808  12.966  69.605  1.00  0.00    -0.387 A  
HETATM   14  C   UNL     1     -11.556  11.699  70.155  1.00  0.00    -0.303 A  
HETATM   15  C   UNL     1     -11.033  10.662  69.375  1.00  0.00    -0.304 A  
BRANCH  13  16
HETATM   16  C   UNL     1     -12.009  14.123  70.484  1.00  0.00    -0.393 A  
HETATM   17  C   UNL     1     -12.903  14.204  71.542  1.00  0.00    -0.354 A  
HETATM   18  C   UNL     1     -13.908  13.343  72.197  1.00  0.00    -0.605 C  
HETATM   19  O   UNL     1     -12.808  15.431  72.115  1.00  0.00    -0.329 OA 
HETATM   20  N   UNL     1     -11.891  16.197  71.453  1.00  0.00    -0.451 NA 
HETATM   21  C   UNL     1     -11.413  15.448  70.446  1.00  0.00    -0.330 A  
BRANCH  21  22
HETATM   22  C   UNL     1     -10.419  16.038  69.533  1.00  0.00    -0.286 A  
HETATM   23  C   UNL     1     -10.772  17.137  68.731  1.00  0.00    -0.289 A  
HETATM   24  C   UNL     1      -9.822  17.775  67.928  1.00  0.00    -0.306 A  
HETATM   25  C   UNL     1      -8.501  17.336  67.928  1.00  0.00    -0.218 A  
HETATM   26  C   UNL     1      -8.145  16.219  68.679  1.00  0.00    -0.213 A  
HETATM   27  C   UNL     1      -9.108  15.551  69.442  1.00  0.00    -0.280 A  
ENDBRANCH  21  22
ENDBRANCH  13  16
ENDBRANCH   7  10
ENDBRANCH   5   7
ENDBRANCH   2   3
TORSDOF 5
ENDMDL
MODEL       34
REMARK 921   NORMALIZED FREE ENERGY PREDICTED BY IDOCK:   -6.32 KCAL/MOL
REMARK 922        TOTAL FREE ENERGY PREDICTED BY IDOCK:   -9.26 KCAL/MOL
REMARK 923 INTER-LIGAND FREE ENERGY PREDICTED BY IDOCK:   -8.27 KCAL/MOL
REMARK 924 INTRA-LIGAND FREE ENERGY PREDICTED BY IDOCK:   -0.98 KCAL/MOL
REMARK 927      BINDING AFFINITY PREDICTED BY RF-SCORE:    0.00 PKD
ROOT
HETATM    1  C   UNL     1      -8.547   9.117  64.231  1.00  0.00    -0.197 C  
HETATM    2  C   UNL     1      -8.577   8.275  65.492  1.00  0.00    -0.183 C  
ENDROOT
BRANCH   2   3
HETATM    3  C   UNL     1      -9.305   9.015  66.590  1.00  0.00    -0.177 C  
HETATM    4  O   UNL     1     -10.526   9.042  66.644  1.00  0.00    -0.246 OA 
HETATM    5  N   UNL     1      -8.478   9.587  67.564  1.00  0.00    -0.125 N  
HETATM    6  H   UNL     1      -7.472   9.459  67.456  1.00  0.00     0.000 HD 
BRANCH   5   7
HETATM    7  S   UNL     1      -8.997  10.457  68.881  1.00  0.00    -0.176 S  
HETATM    8  O   UNL     1     -10.185   9.769  69.352  1.00  0.00    -0.185 OA 
HETATM    9  O   UNL     1      -7.886  10.709  69.777  1.00  0.00    -0.106 OA 
BRANCH   7  10
HETATM   10  C   UNL     1      -9.523  11.989  68.158  1.00  0.00    -0.200 A  
HETATM   11  C   UNL     1     -10.870  12.346  68.194  1.00  0.00    -0.250 A  
HETATM   12  C   UNL     1     -11.317  13.433  67.432  1.00  0.00    -0.338 A  
HETATM   13  C   UNL     1     -10.421  14.200  66.672  1.00  0.00    -0.278 A  
HETATM   14  C   UNL     1      -9.049  13.931  66.812  1.00  0.00    -0.238 A  
HETATM   15  C   UNL     1      -8.599  12.810  67.519  1.00  0.00    -0.187 A  
BRANCH  13  16
HETATM   16  C   UNL     1     -10.884  15.148  65.653  1.00  0.00    -0.367 A  
HETATM   17  C   UNL     1     -11.554  14.831  64.481  1.00  0.00    -0.361 A  
HETATM   18  C   UNL     1     -12.050  13.620  63.795  1.00  0.00    -0.435 C  
HETATM   19  O   UNL     1     -11.812  15.970  63.790  1.00  0.00    -0.782 OA 
HETATM   20  N   UNL     1     -11.305  17.053  64.450  1.00  0.00    -1.052 NA 
HETATM   21  C   UNL     1     -10.713  16.588  65.562  1.00  0.00    -0.256 A  
BRANCH  21  22
HETATM   22  C   UNL     1     -10.043  17.544  66.460  1.00  0.00    -0.331 A  
HETATM   23  C   UNL     1      -8.639  17.607  66.493  1.00  0.00    -0.287 A  
HETATM   24  C   UNL     1      -7.981  18.570  67.265  1.00  0.00    -0.241 A  
HETATM   25  C   UNL     1      -8.716  19.494  68.002  1.00  0.00    -0.369 A  
HETATM   26  C   UNL     1     -10.106  19.415  68.019  1.00  0.00    -0.516 A  
HETATM   27  C   UNL     1     -10.760  18.420  67.287  1.00  0.00    -0.389 A  
ENDBRANCH  21  22
ENDBRANCH  13  16
ENDBRANCH   7  10
ENDBRANCH   5   7
ENDBRANCH   2   3
TORSDOF 5
ENDMDL
MODEL       35
REMARK 921   NORMALIZED FREE ENERGY PREDICTED BY IDOCK:   -6.30 KCAL/MOL
REMARK 922        TOTAL FREE ENERGY PREDICTED BY IDOCK:   -9.23 KCAL/MOL
REMARK 923 INTER-LIGAND FREE ENERGY PREDICTED BY IDOCK:   -8.08 KCAL/MOL
REMARK 924 INTRA-LIGAND FREE ENERGY PREDICTED BY IDOCK:   -1.15 KCAL/MOL
REMARK 927      BINDING AFFINITY PREDICTED BY RF-SCORE:    0.00 PKD
ROOT
HETATM    1  C   UNL     1     -12.788  14.138  71.627  1.00  0.00    -0.428 C  
HETATM    2  C   UNL     1     -12.846  15.391  70.774  1.00  0.00    -0.524 C  
ENDROOT
BRANCH   2   3
HETATM    3  C   UNL     1     -11.908  15.257  69.597  1.00  0.00    -0.339 C  
HETATM    4  O   UNL     1     -10.775  15.714  69.625  1.00  0.00    -0.232 OA 
HETATM    5  N   UNL     1     -12.411  14.511  68.524  1.00  0.00    -0.595 N  
HETATM    6  H   UNL     1     -13.349  14.124  68.624  1.00  0.00     0.000 HD 
BRANCH   5   7
HETATM    7  S   UNL     1     -11.608  14.201  67.104  1.00  0.00    -0.396 S  
HETATM    8  O   UNL     1     -12.648  13.978  66.115  1.00  0.00    -0.468 OA 
HETATM    9  O   UNL     1     -10.584  15.202  66.885  1.00  0.00    -0.285 OA 
BRANCH   7  10
HETATM   10  C   UNL     1     -10.836  12.636  67.421  1.00  0.00    -0.243 A  
HETATM   11  C   UNL     1     -11.403  11.467  66.913  1.00  0.00    -0.324 A  
HETATM   12  C   UNL     1     -10.929  10.223  67.349  1.00  0.00    -0.317 A  
HETATM   13  C   UNL     1      -9.858  10.135  68.251  1.00  0.00    -0.162 A  
HETATM   14  C   UNL     1      -9.188  11.322  68.590  1.00  0.00    -0.163 A  
HETATM   15  C   UNL     1      -9.693  12.571  68.212  1.00  0.00    -0.220 A  
BRANCH  13  16
HETATM   16  C   UNL     1      -9.528   8.882  68.941  1.00  0.00    -0.152 A  
HETATM   17  C   UNL     1      -8.494   8.016  68.618  1.00  0.00    -0.128 A  
HETATM   18  C   UNL     1      -7.410   7.926  67.619  1.00  0.00    -0.096 C  
HETATM   19  O   UNL     1      -8.508   6.964  69.475  1.00  0.00    -0.131 OA 
HETATM   20  N   UNL     1      -9.547   7.079  70.355  1.00  0.00    -0.169 NA 
HETATM   21  C   UNL     1     -10.199   8.210  70.040  1.00  0.00    -0.202 A  
BRANCH  21  22
HETATM   22  C   UNL     1     -11.398   8.575  70.813  1.00  0.00    -0.296 A  
HETATM   23  C   UNL     1     -11.661   9.925  71.101  1.00  0.00    -0.478 A  
HETATM   24  C   UNL     1     -12.840  10.306  71.750  1.00  0.00    -0.565 A  
HETATM   25  C   UNL     1     -13.781   9.344  72.105  1.00  0.00    -0.490 A  
HETATM   26  C   UNL     1     -13.515   7.998  71.872  1.00  0.00    -0.342 A  
HETATM   27  C   UNL     1     -12.313   7.616  71.269  1.00  0.00    -0.334 A  
ENDBRANCH  21  22
ENDBRANCH  13  16
ENDBRANCH   7  10
ENDBRANCH   5   7
ENDBRANCH   2   3
TORSDOF 5
ENDMDL
MODEL       36
REMARK 921   NORMALIZED FREE ENERGY PREDICTED BY IDOCK:   -6.30 KCAL/MOL
REMARK 922        TOTAL FREE ENERGY PREDICTED BY IDOCK:   -9.22 KCAL/MOL
REMARK 923 INTER-LIGAND FREE ENERGY PREDICTED BY IDOCK:   -8.64 KCAL/MOL
REMARK 924 INTRA-LIGAND FREE ENERGY PREDICTED BY IDOCK:   -0.59 KCAL/MOL
REMARK 927      BINDING AFFINITY PREDICTED BY RF-SCORE:    0.00 PKD
ROOT
HETATM    1  C   UNL     1     -10.663  11.848  63.360  1.00  0.00    -0.476 C  
HETATM    2  C   UNL     1     -12.058  12.428  63.492  1.00  0.00    -0.651 C  
ENDROOT
BRANCH   2   3
HETATM    3  C   UNL     1     -12.190  13.162  64.807  1.00  0.00    -0.425 C  
HETATM    4  O   UNL     1     -13.250  13.657  65.162  1.00  0.00    -0.739 OA 
HETATM    5  N   UNL     1     -11.038  13.155  65.604  1.00  0.00    -0.275 N  
HETATM    6  H   UNL     1     -10.221  12.665  65.239  1.00  0.00     0.000 HD 
BRANCH   5   7
HETATM    7  S   UNL     1     -10.889  13.879  67.091  1.00  0.00    -0.287 S  
HETATM    8  O   UNL     1      -9.467  14.120  67.261  1.00  0.00    -0.215 OA 
HETATM    9  O   UNL     1     -11.841  14.964  67.212  1.00  0.00    -0.345 OA 
BRANCH   7  10
HETATM   10  C   UNL     1     -11.342  12.578  68.208  1.00  0.00    -0.286 A  
HETATM   11  C   UNL     1     -11.812  12.891  69.483  1.00  0.00    -0.383 A  
HETATM   12  C   UNL     1     -11.952  11.875  70.437  1.00  0.00    -0.400 A  
HETATM   13  C   UNL     1     -11.675  10.538  70.113  1.00  0.00    -0.410 A  
HETATM   14  C   UNL     1     -11.393  10.235  68.770  1.00  0.00    -0.226 A  
HETATM   15  C   UNL     1     -11.188  11.249  67.827  1.00  0.00    -0.354 A  
BRANCH  13  16
HETATM   16  C   UNL     1     -11.534   9.504  71.145  1.00  0.00    -0.430 A  
HETATM   17  C   UNL     1     -12.550   8.994  71.938  1.00  0.00    -0.382 A  
HETATM   18  C   UNL     1     -14.005   9.185  72.117  1.00  0.00    -0.466 C  
HETATM   19  O   UNL     1     -12.036   8.061  72.780  1.00  0.00    -0.337 OA 
HETATM   20  N   UNL     1     -10.687   7.947  72.597  1.00  0.00    -0.319 NA 
HETATM   21  C   UNL     1     -10.349   8.825  71.639  1.00  0.00    -0.321 A  
BRANCH  21  22
HETATM   22  C   UNL     1      -8.932   8.944  71.256  1.00  0.00    -0.312 A  
HETATM   23  C   UNL     1      -7.941   8.326  72.038  1.00  0.00    -0.176 A  
HETATM   24  C   UNL     1      -6.599   8.343  71.644  1.00  0.00    -0.067 A  
HETATM   25  C   UNL     1      -6.231   8.963  70.455  1.00  0.00    -0.040 A  
HETATM   26  C   UNL     1      -7.191   9.622  69.692  1.00  0.00    -0.084 A  
HETATM   27  C   UNL     1      -8.524   9.647  70.114  1.00  0.00    -0.231 A  
ENDBRANCH  21  22
ENDBRANCH  13  16
ENDBRANCH   7  10
ENDBRANCH   5   7
ENDBRANCH   2   3
TORSDOF 5
ENDMDL
MODEL       37
REMARK 921   NORMALIZED FREE ENERGY PREDICTED BY IDOCK:   -6.28 KCAL/MOL
REMARK 922        TOTAL FREE ENERGY PREDICTED BY IDOCK:   -9.19 KCAL/MOL
REMARK 923 INTER-LIGAND FREE ENERGY PREDICTED BY IDOCK:   -8.20 KCAL/MOL
REMARK 924 INTRA-LIGAND FREE ENERGY PREDICTED BY IDOCK:   -0.99 KCAL/MOL
REMARK 927      BINDING AFFINITY PREDICTED BY RF-SCORE:    0.00 PKD
ROOT
HETATM    1  C   UNL     1      -9.805   4.492  70.299  1.00  0.00    -0.299 C  
HETATM    2  C   UNL     1     -10.627   5.635  69.734  1.00  0.00    -0.400 C  
ENDROOT
BRANCH   2   3
HETATM    3  C   UNL     1     -10.182   6.943  70.346  1.00  0.00    -0.192 C  
HETATM    4  O   UNL     1      -9.542   6.979  71.387  1.00  0.00    -0.163 OA 
HETATM    5  N   UNL     1     -10.490   8.082  69.592  1.00  0.00    -0.222 N  
HETATM    6  H   UNL     1     -10.978   7.939  68.708  1.00  0.00     0.000 HD 
BRANCH   5   7
HETATM    7  S   UNL     1     -10.127   9.647  70.014  1.00  0.00    -0.268 S  
HETATM    8  O   UNL     1     -10.926   9.921  71.196  1.00  0.00    -0.333 OA 
HETATM    9  O   UNL     1      -8.690   9.834  70.035  1.00  0.00    -0.201 OA 
BRANCH   7  10
HETATM   10  C   UNL     1     -10.818  10.586  68.678  1.00  0.00    -0.237 A  
HETATM   11  C   UNL     1     -10.551  10.217  67.360  1.00  0.00    -0.324 A  
HETATM   12  C   UNL     1     -10.903  11.082  66.316  1.00  0.00    -0.234 A  
HETATM   13  C   UNL     1     -11.568  12.290  66.572  1.00  0.00    -0.440 A  
HETATM   14  C   UNL     1     -11.993  12.536  67.888  1.00  0.00    -0.283 A  
HETATM   15  C   UNL     1     -11.590  11.713  68.945  1.00  0.00    -0.377 A  
BRANCH  13  16
HETATM   16  C   UNL     1     -11.693  13.337  65.551  1.00  0.00    -0.376 A  
HETATM   17  C   UNL     1     -12.248  13.189  64.289  1.00  0.00    -0.396 A  
HETATM   18  C   UNL     1     -12.874  12.119  63.484  1.00  0.00    -0.453 C  
HETATM   19  O   UNL     1     -12.180  14.372  63.628  1.00  0.00    -0.593 OA 
HETATM   20  N   UNL     1     -11.564  15.315  64.402  1.00  0.00    -0.325 NA 
HETATM   21  C   UNL     1     -11.232  14.714  65.556  1.00  0.00    -0.343 A  
BRANCH  21  22
HETATM   22  C   UNL     1     -10.516  15.494  66.580  1.00  0.00    -0.301 A  
HETATM   23  C   UNL     1      -9.179  15.871  66.364  1.00  0.00    -0.344 A  
HETATM   24  C   UNL     1      -8.507  16.691  67.276  1.00  0.00    -0.214 A  
HETATM   25  C   UNL     1      -9.166  17.161  68.407  1.00  0.00    -0.266 A  
HETATM   26  C   UNL     1     -10.475  16.758  68.662  1.00  0.00    -0.333 A  
HETATM   27  C   UNL     1     -11.127  15.897  67.774  1.00  0.00    -0.288 A  
ENDBRANCH  21  22
ENDBRANCH  13  16
ENDBRANCH   7  10
ENDBRANCH   5   7
ENDBRANCH   2   3
TORSDOF 5
ENDMDL
MODEL       38
REMARK 921   NORMALIZED FREE ENERGY PREDICTED BY IDOCK:   -6.24 KCAL/MOL
REMARK 922        TOTAL FREE ENERGY PREDICTED BY IDOCK:   -9.14 KCAL/MOL
REMARK 923 INTER-LIGAND FREE ENERGY PREDICTED BY IDOCK:   -8.60 KCAL/MOL
REMARK 924 INTRA-LIGAND FREE ENERGY PREDICTED BY IDOCK:   -0.54 KCAL/MOL
REMARK 927      BINDING AFFINITY PREDICTED BY RF-SCORE:    0.00 PKD
ROOT
HETATM    1  C   UNL     1     -11.139   4.063  73.424  1.00  0.00    -0.341 C  
HETATM    2  C   UNL     1     -11.605   5.423  72.940  1.00  0.00    -0.296 C  
ENDROOT
BRANCH   2   3
HETATM    3  C   UNL     1     -10.803   5.842  71.729  1.00  0.00    -0.260 C  
HETATM    4  O   UNL     1     -10.023   5.077  71.181  1.00  0.00    -0.186 OA 
HETATM    5  N   UNL     1     -11.085   7.128  71.251  1.00  0.00    -0.245 N  
HETATM    6  H   UNL     1     -11.796   7.665  71.748  1.00  0.00     0.000 HD 
BRANCH   5   7
HETATM    7  S   UNL     1     -10.361   7.852  69.944  1.00  0.00    -0.228 S  
HETATM    8  O   UNL     1      -8.978   8.057  70.335  1.00  0.00    -0.143 OA 
HETATM    9  O   UNL     1     -10.685   7.125  68.733  1.00  0.00    -0.212 OA 
BRANCH   7  10
HETATM   10  C   UNL     1     -11.140   9.445  69.895  1.00  0.00    -0.200 A  
HETATM   11  C   UNL     1     -11.008  10.246  68.761  1.00  0.00    -0.285 A  
HETATM   12  C   UNL     1     -11.425  11.583  68.808  1.00  0.00    -0.349 A  
HETATM   13  C   UNL     1     -12.020  12.113  69.963  1.00  0.00    -0.391 A  
HETATM   14  C   UNL     1     -12.312  11.228  71.014  1.00  0.00    -0.472 A  
HETATM   15  C   UNL     1     -11.843   9.910  71.002  1.00  0.00    -0.463 A  
BRANCH  13  16
HETATM   16  C   UNL     1     -12.202  13.558  70.146  1.00  0.00    -0.400 A  
HETATM   17  C   UNL     1     -12.758  14.180  71.254  1.00  0.00    -0.361 A  
HETATM   18  C   UNL     1     -13.335  13.790  72.557  1.00  0.00    -0.656 C  
HETATM   19  O   UNL     1     -12.765  15.523  71.056  1.00  0.00    -0.412 OA 
HETATM   20  N   UNL     1     -12.253  15.826  69.827  1.00  0.00    -0.298 NA 
HETATM   21  C   UNL     1     -11.932  14.661  69.241  1.00  0.00    -0.302 A  
BRANCH  21  22
HETATM   22  C   UNL     1     -11.381  14.683  67.875  1.00  0.00    -0.332 A  
HETATM   23  C   UNL     1     -10.041  15.051  67.667  1.00  0.00    -0.231 A  
HETATM   24  C   UNL     1      -9.467  14.989  66.393  1.00  0.00    -0.325 A  
HETATM   25  C   UNL     1     -10.220  14.541  65.312  1.00  0.00    -0.431 A  
HETATM   26  C   UNL     1     -11.563  14.219  65.491  1.00  0.00    -0.338 A  
HETATM   27  C   UNL     1     -12.147  14.330  66.756  1.00  0.00    -0.446 A  
ENDBRANCH  21  22
ENDBRANCH  13  16
ENDBRANCH   7  10
ENDBRANCH   5   7
ENDBRANCH   2   3
TORSDOF 5
ENDMDL
MODEL       39
REMARK 921   NORMALIZED FREE ENERGY PREDICTED BY IDOCK:   -6.21 KCAL/MOL
REMARK 922        TOTAL FREE ENERGY PREDICTED BY IDOCK:   -9.10 KCAL/MOL
REMARK 923 INTER-LIGAND FREE ENERGY PREDICTED BY IDOCK:   -7.85 KCAL/MOL
REMARK 924 INTRA-LIGAND FREE ENERGY PREDICTED BY IDOCK:   -1.25 KCAL/MOL
REMARK 927      BINDING AFFINITY PREDICTED BY RF-SCORE:    0.00 PKD
ROOT
HETATM    1  C   UNL     1     -11.002  12.678  63.932  1.00  0.00    -0.468 C  
HETATM    2  C   UNL     1     -10.702  13.594  65.104  1.00  0.00    -0.359 C  
ENDROOT
BRANCH   2   3
HETATM    3  C   UNL     1      -9.778  12.899  66.077  1.00  0.00    -0.223 C  
HETATM    4  O   UNL     1      -9.703  13.245  67.247  1.00  0.00    -0.221 OA 
HETATM    5  N   UNL     1      -9.091  11.797  65.554  1.00  0.00    -0.415 N  
HETATM    6  H   UNL     1      -9.268  11.557  64.579  1.00  0.00     0.000 HD 
BRANCH   5   7
HETATM    7  S   UNL     1      -8.013  10.847  66.388  1.00  0.00    -0.156 S  
HETATM    8  O   UNL     1      -7.652   9.780  65.471  1.00  0.00    -0.109 OA 
HETATM    9  O   UNL     1      -6.991  11.674  66.996  1.00  0.00    -0.132 OA 
BRANCH   7  10
HETATM   10  C   UNL     1      -9.020  10.133  67.661  1.00  0.00    -0.131 A  
HETATM   11  C   UNL     1     -10.237   9.537  67.330  1.00  0.00    -0.295 A  
HETATM   12  C   UNL     1     -11.131   9.180  68.348  1.00  0.00     0.119 A  
HETATM   13  C   UNL     1     -10.798   9.366  69.698  1.00  0.00    -0.245 A  
HETATM   14  C   UNL     1      -9.492   9.786  69.998  1.00  0.00    -0.278 A  
HETATM   15  C   UNL     1      -8.616  10.205  68.990  1.00  0.00    -0.156 A  
BRANCH  13  16
HETATM   16  C   UNL     1     -11.804   9.274  70.763  1.00  0.00    -0.303 A  
HETATM   17  C   UNL     1     -12.262   8.110  71.360  1.00  0.00    -0.297 A  
HETATM   18  C   UNL     1     -12.021   6.656  71.257  1.00  0.00    -0.409 C  
HETATM   19  O   UNL     1     -13.194   8.424  72.296  1.00  0.00    -0.321 OA 
HETATM   20  N   UNL     1     -13.402   9.773  72.327  1.00  0.00    -0.428 NA 
HETATM   21  C   UNL     1     -12.601  10.312  71.394  1.00  0.00    -0.434 A  
BRANCH  21  22
HETATM   22  C   UNL     1     -12.642  11.768  71.181  1.00  0.00    -0.412 A  
HETATM   23  C   UNL     1     -13.192  12.605  72.168  1.00  0.00    -0.527 A  
HETATM   24  C   UNL     1     -13.157  13.996  72.033  1.00  0.00    -0.487 A  
HETATM   25  C   UNL     1     -12.555  14.573  70.918  1.00  0.00    -0.414 A  
HETATM   26  C   UNL     1     -12.048  13.759  69.908  1.00  0.00    -0.412 A  
HETATM   27  C   UNL     1     -12.131  12.368  70.022  1.00  0.00    -0.335 A  
ENDBRANCH  21  22
ENDBRANCH  13  16
ENDBRANCH   7  10
ENDBRANCH   5   7
ENDBRANCH   2   3
TORSDOF 5
ENDMDL
MODEL       40
REMARK 921   NORMALIZED FREE ENERGY PREDICTED BY IDOCK:   -6.17 KCAL/MOL
REMARK 922        TOTAL FREE ENERGY PREDICTED BY IDOCK:   -9.06 KCAL/MOL
REMARK 923 INTER-LIGAND FREE ENERGY PREDICTED BY IDOCK:   -8.20 KCAL/MOL
REMARK 924 INTRA-LIGAND FREE ENERGY PREDICTED BY IDOCK:   -0.86 KCAL/MOL
REMARK 927      BINDING AFFINITY PREDICTED BY RF-SCORE:    0.00 PKD
ROOT
HETATM    1  C   UNL     1     -10.645   5.647  66.628  1.00  0.00    -0.361 C  
HETATM    2  C   UNL     1     -10.934   6.769  67.607  1.00  0.00    -0.346 C  
ENDROOT
BRANCH   2   3
HETATM    3  C   UNL     1     -10.028   7.945  67.326  1.00  0.00    -0.215 C  
HETATM    4  O   UNL     1      -9.272   8.390  68.178  1.00  0.00    -0.138 OA 
HETATM    5  N   UNL     1     -10.070   8.420  66.009  1.00  0.00    -0.412 N  
HETATM    6  H   UNL     1     -10.695   7.941  65.360  1.00  0.00     0.000 HD 
BRANCH   5   7
HETATM    7  S   UNL     1      -9.189   9.696  65.415  1.00  0.00    -0.255 S  
HETATM    8  O   UNL     1      -7.815   9.427  65.800  1.00  0.00    -0.097 OA 
HETATM    9  O   UNL     1      -9.533   9.932  64.028  1.00  0.00    -0.277 OA 
BRANCH   7  10
HETATM   10  C   UNL     1      -9.757  11.059  66.398  1.00  0.00    -0.201 A  
HETATM   11  C   UNL     1     -11.081  11.485  66.293  1.00  0.00    -0.321 A  
HETATM   12  C   UNL     1     -11.467  12.692  66.890  1.00  0.00    -0.402 A  
HETATM   13  C   UNL     1     -10.555  13.452  67.637  1.00  0.00    -0.249 A  
HETATM   14  C   UNL     1      -9.288  12.897  67.883  1.00  0.00    -0.208 A  
HETATM   15  C   UNL     1      -8.873  11.727  67.239  1.00  0.00    -0.167 A  
BRANCH  13  16
HETATM   16  C   UNL     1     -10.839  14.838  68.027  1.00  0.00    -0.261 A  
HETATM   17  C   UNL     1     -10.381  15.980  67.389  1.00  0.00    -0.294 A  
HETATM   18  C   UNL     1      -9.543  16.323  66.221  1.00  0.00    -0.336 C  
HETATM   19  O   UNL     1     -10.846  17.075  68.043  1.00  0.00    -0.371 OA 
HETATM   20  N   UNL     1     -11.584  16.704  69.130  1.00  0.00     0.016 NA 
HETATM   21  C   UNL     1     -11.575  15.361  69.165  1.00  0.00    -0.339 A  
BRANCH  21  22
HETATM   22  C   UNL     1     -12.274  14.677  70.266  1.00  0.00    -0.389 A  
HETATM   23  C   UNL     1     -13.152  15.399  71.093  1.00  0.00    -0.565 A  
HETATM   24  C   UNL     1     -13.901  14.756  72.084  1.00  0.00    -0.578 A  
HETATM   25  C   UNL     1     -13.796  13.378  72.251  1.00  0.00    -0.671 A  
HETATM   26  C   UNL     1     -12.895  12.654  71.473  1.00  0.00    -0.368 A  
HETATM   27  C   UNL     1     -12.111  13.308  70.518  1.00  0.00    -0.391 A  
ENDBRANCH  21  22
ENDBRANCH  13  16
ENDBRANCH   7  10
ENDBRANCH   5   7
ENDBRANCH   2   3
TORSDOF 5
ENDMDL
MODEL       41
REMARK 921   NORMALIZED FREE ENERGY PREDICTED BY IDOCK:   -6.14 KCAL/MOL
REMARK 922        TOTAL FREE ENERGY PREDICTED BY IDOCK:   -9.02 KCAL/MOL
REMARK 923 INTER-LIGAND FREE ENERGY PREDICTED BY IDOCK:   -7.86 KCAL/MOL
REMARK 924 INTRA-LIGAND FREE ENERGY PREDICTED BY IDOCK:   -1.17 KCAL/MOL
REMARK 927      BINDING AFFINITY PREDICTED BY RF-SCORE:    0.00 PKD
ROOT
HETATM    1  C   UNL     1     -12.597  11.560  70.940  1.00  0.00    -0.438 C  
HETATM    2  C   UNL     1     -13.158  10.517  71.888  1.00  0.00    -0.567 C  
ENDROOT
BRANCH   2   3
HETATM    3  C   UNL     1     -12.371   9.233  71.765  1.00  0.00    -0.379 C  
HETATM    4  O   UNL     1     -12.312   8.427  72.683  1.00  0.00    -0.365 OA 
HETATM    5  N   UNL     1     -11.795   9.012  70.508  1.00  0.00    -0.462 N  
HETATM    6  H   UNL     1     -11.951   9.721  69.792  1.00  0.00     0.000 HD 
BRANCH   5   7
HETATM    7  S   UNL     1     -10.878   7.693  70.085  1.00  0.00    -0.238 S  
HETATM    8  O   UNL     1      -9.788   7.658  71.044  1.00  0.00    -0.175 OA 
HETATM    9  O   UNL     1     -11.731   6.537  69.896  1.00  0.00    -0.406 OA 
BRANCH   7  10
HETATM   10  C   UNL     1     -10.193   8.175  68.522  1.00  0.00    -0.208 A  
HETATM   11  C   UNL     1      -9.353   9.285  68.445  1.00  0.00    -0.142 A  
HETATM   12  C   UNL     1      -8.999   9.798  67.191  1.00  0.00    -0.148 A  
HETATM   13  C   UNL     1      -9.435   9.181  66.009  1.00  0.00    -0.321 A  
HETATM   14  C   UNL     1     -10.116   7.957  66.123  1.00  0.00     0.177 A  
HETATM   15  C   UNL     1     -10.529   7.472  67.369  1.00  0.00    -0.367 A  
BRANCH  13  16
HETATM   16  C   UNL     1      -9.327   9.843  64.704  1.00  0.00    -0.338 A  
HETATM   17  C   UNL     1      -8.649   9.362  63.594  1.00  0.00    -0.208 A  
HETATM   18  C   UNL     1      -7.852   8.174  63.225  1.00  0.00    -0.149 C  
HETATM   19  O   UNL     1      -8.766  10.253  62.577  1.00  0.00    -0.170 OA 
HETATM   20  N   UNL     1      -9.482  11.344  62.980  1.00  0.00    -0.368 NA 
HETATM   21  C   UNL     1      -9.809  11.142  64.267  1.00  0.00    -0.286 A  
BRANCH  21  22
HETATM   22  C   UNL     1     -10.565  12.186  64.978  1.00  0.00    -0.330 A  
HETATM   23  C   UNL     1     -11.897  12.454  64.618  1.00  0.00    -0.445 A  
HETATM   24  C   UNL     1     -12.666  13.372  65.339  1.00  0.00    -0.484 A  
HETATM   25  C   UNL     1     -12.121  14.024  66.441  1.00  0.00    -0.483 A  
HETATM   26  C   UNL     1     -10.788  13.807  66.783  1.00  0.00    -0.284 A  
HETATM   27  C   UNL     1     -10.007  12.926  66.029  1.00  0.00    -0.275 A  
ENDBRANCH  21  22
ENDBRANCH  13  16
ENDBRANCH   7  10
ENDBRANCH   5   7
ENDBRANCH   2   3
TORSDOF 5
ENDMDL
MODEL       42
REMARK 921   NORMALIZED FREE ENERGY PREDICTED BY IDOCK:   -6.12 KCAL/MOL
REMARK 922        TOTAL FREE ENERGY PREDICTED BY IDOCK:   -8.99 KCAL/MOL
REMARK 923 INTER-LIGAND FREE ENERGY PREDICTED BY IDOCK:   -8.00 KCAL/MOL
REMARK 924 INTRA-LIGAND FREE ENERGY PREDICTED BY IDOCK:   -0.99 KCAL/MOL
REMARK 927      BINDING AFFINITY PREDICTED BY RF-SCORE:    0.00 PKD
ROOT
HETATM    1  C   UNL     1     -10.095   5.279  68.393  1.00  0.00    -0.224 C  
HETATM    2  C   UNL     1     -10.979   6.077  67.454  1.00  0.00    -0.344 C  
ENDROOT
BRANCH   2   3
HETATM    3  C   UNL     1     -10.210   7.250  66.893  1.00  0.00    -0.269 C  
HETATM    4  O   UNL     1      -9.242   7.092  66.163  1.00  0.00    -0.155 OA 
HETATM    5  N   UNL     1     -10.739   8.508  67.209  1.00  0.00    -0.447 N  
HETATM    6  H   UNL     1     -11.584   8.528  67.779  1.00  0.00     0.000 HD 
BRANCH   5   7
HETATM    7  S   UNL     1     -10.107   9.968  66.734  1.00  0.00    -0.233 S  
HETATM    8  O   UNL     1      -8.708   9.926  67.121  1.00  0.00    -0.131 OA 
HETATM    9  O   UNL     1     -10.485  10.249  65.364  1.00  0.00    -0.217 OA 
BRANCH   7  10
HETATM   10  C   UNL     1     -10.920  11.118  67.812  1.00  0.00    -0.262 A  
HETATM   11  C   UNL     1     -11.396  12.326  67.305  1.00  0.00    -0.392 A  
HETATM   12  C   UNL     1     -11.829  13.324  68.188  1.00  0.00    -0.388 A  
HETATM   13  C   UNL     1     -11.839  13.106  69.574  1.00  0.00    -0.383 A  
HETATM   14  C   UNL     1     -11.537  11.814  70.035  1.00  0.00    -0.318 A  
HETATM   15  C   UNL     1     -11.042  10.833  69.169  1.00  0.00    -0.304 A  
BRANCH  13  16
HETATM   16  C   UNL     1     -12.008  14.207  70.529  1.00  0.00    -0.393 A  
HETATM   17  C   UNL     1     -12.855  14.217  71.627  1.00  0.00    -0.349 A  
HETATM   18  C   UNL     1     -13.825  13.308  72.273  1.00  0.00    -0.637 C  
HETATM   19  O   UNL     1     -12.743  15.408  72.268  1.00  0.00    -0.328 OA 
HETATM   20  N   UNL     1     -11.862  16.220  71.614  1.00  0.00    -0.472 NA 
HETATM   21  C   UNL     1     -11.423  15.536  70.544  1.00  0.00    -0.347 A  
BRANCH  21  22
HETATM   22  C   UNL     1     -10.474  16.189  69.627  1.00  0.00    -0.291 A  
HETATM   23  C   UNL     1      -9.142  15.743  69.565  1.00  0.00    -0.202 A  
HETATM   24  C   UNL     1      -8.246  16.282  68.635  1.00  0.00    -0.214 A  
HETATM   25  C   UNL     1      -8.673  17.261  67.743  1.00  0.00    -0.226 A  
HETATM   26  C   UNL     1      -9.975  17.749  67.823  1.00  0.00    -0.322 A  
HETATM   27  C   UNL     1     -10.854  17.244  68.787  1.00  0.00    -0.153 A  
ENDBRANCH  21  22
ENDBRANCH  13  16
ENDBRANCH   7  10
ENDBRANCH   5   7
ENDBRANCH   2   3
TORSDOF 5
ENDMDL
MODEL       43
REMARK 921   NORMALIZED FREE ENERGY PREDICTED BY IDOCK:   -6.08 KCAL/MOL
REMARK 922        TOTAL FREE ENERGY PREDICTED BY IDOCK:   -8.94 KCAL/MOL
REMARK 923 INTER-LIGAND FREE ENERGY PREDICTED BY IDOCK:   -8.04 KCAL/MOL
REMARK 924 INTRA-LIGAND FREE ENERGY PREDICTED BY IDOCK:   -0.90 KCAL/MOL
REMARK 927      BINDING AFFINITY PREDICTED BY RF-SCORE:    0.00 PKD
ROOT
HETATM    1  C   UNL     1      -5.207  19.486  71.029  1.00  0.00    -0.266 C  
HETATM    2  C   UNL     1      -5.267  20.113  69.649  1.00  0.00    -0.249 C  
ENDROOT
BRANCH   2   3
HETATM    3  C   UNL     1      -6.572  19.757  68.976  1.00  0.00    -0.333 C  
HETATM    4  O   UNL     1      -7.650  20.046  69.475  1.00  0.00    -0.087 OA 
HETATM    5  N   UNL     1      -6.443  19.152  67.719  1.00  0.00    -0.212 N  
HETATM    6  H   UNL     1      -5.497  19.006  67.367  1.00  0.00     0.000 HD 
BRANCH   5   7
HETATM    7  S   UNL     1      -7.699  18.654  66.754  1.00  0.00    -0.250 S  
HETATM    8  O   UNL     1      -8.424  19.864  66.410  1.00  0.00    -0.332 OA 
HETATM    9  O   UNL     1      -7.206  17.770  65.717  1.00  0.00    -0.469 OA 
BRANCH   7  10
HETATM   10  C   UNL     1      -8.714  17.729  67.876  1.00  0.00    -0.251 A  
HETATM   11  C   UNL     1      -8.149  16.713  68.646  1.00  0.00    -0.237 A  
HETATM   12  C   UNL     1      -8.982  15.839  69.356  1.00  0.00    -0.247 A  
HETATM   13  C   UNL     1     -10.376  16.001  69.344  1.00  0.00    -0.272 A  
HETATM   14  C   UNL     1     -10.896  17.147  68.718  1.00  0.00    -0.211 A  
HETATM   15  C   UNL     1     -10.079  17.988  67.954  1.00  0.00    -0.360 A  
BRANCH  13  16
HETATM   16  C   UNL     1     -11.282  14.954  69.830  1.00  0.00    -0.308 A  
HETATM   17  C   UNL     1     -11.721  14.790  71.135  1.00  0.00    -0.309 A  
HETATM   18  C   UNL     1     -11.543  15.453  72.443  1.00  0.00    -0.545 C  
HETATM   19  O   UNL     1     -12.540  13.710  71.199  1.00  0.00    -0.350 OA 
HETATM   20  N   UNL     1     -12.644  13.116  69.973  1.00  0.00    -0.040 NA 
HETATM   21  C   UNL     1     -11.873  13.825  69.132  1.00  0.00    -0.354 A  
BRANCH  21  22
HETATM   22  C   UNL     1     -11.766  13.388  67.730  1.00  0.00    -0.394 A  
HETATM   23  C   UNL     1     -11.395  12.064  67.436  1.00  0.00    -0.393 A  
HETATM   24  C   UNL     1     -11.379  11.597  66.118  1.00  0.00    -0.275 A  
HETATM   25  C   UNL     1     -11.751  12.441  65.076  1.00  0.00    -0.420 A  
HETATM   26  C   UNL     1     -12.075  13.768  65.344  1.00  0.00    -0.427 A  
HETATM   27  C   UNL     1     -12.041  14.246  66.657  1.00  0.00    -0.448 A  
ENDBRANCH  21  22
ENDBRANCH  13  16
ENDBRANCH   7  10
ENDBRANCH   5   7
ENDBRANCH   2   3
TORSDOF 5
ENDMDL
MODEL       44
REMARK 921   NORMALIZED FREE ENERGY PREDICTED BY IDOCK:   -6.07 KCAL/MOL
REMARK 922        TOTAL FREE ENERGY PREDICTED BY IDOCK:   -8.93 KCAL/MOL
REMARK 923 INTER-LIGAND FREE ENERGY PREDICTED BY IDOCK:   -7.87 KCAL/MOL
REMARK 924 INTRA-LIGAND FREE ENERGY PREDICTED BY IDOCK:   -1.05 KCAL/MOL
REMARK 927      BINDING AFFINITY PREDICTED BY RF-SCORE:    0.00 PKD
ROOT
HETATM    1  C   UNL     1      -5.309  19.065  66.232  1.00  0.00    -0.171 C  
HETATM    2  C   UNL     1      -6.046  17.740  66.292  1.00  0.00    -0.255 C  
ENDROOT
BRANCH   2   3
HETATM    3  C   UNL     1      -7.534  17.971  66.157  1.00  0.00    -0.270 C  
HETATM    4  O   UNL     1      -7.985  19.045  65.787  1.00  0.00    -0.465 OA 
HETATM    5  N   UNL     1      -8.330  16.847  66.410  1.00  0.00    -0.276 N  
HETATM    6  H   UNL     1      -7.850  15.981  66.658  1.00  0.00     0.000 HD 
BRANCH   5   7
HETATM    7  S   UNL     1      -9.989  16.803  66.341  1.00  0.00    -0.318 S  
HETATM    8  O   UNL     1     -10.440  17.817  67.277  1.00  0.00    -0.356 OA 
HETATM    9  O   UNL     1     -10.427  16.827  64.960  1.00  0.00    -0.675 OA 
BRANCH   7  10
HETATM   10  C   UNL     1     -10.371  15.222  67.048  1.00  0.00    -0.277 A  
HETATM   11  C   UNL     1     -11.613  14.636  66.805  1.00  0.00    -0.370 A  
HETATM   12  C   UNL     1     -11.999  13.508  67.540  1.00  0.00    -0.385 A  
HETATM   13  C   UNL     1     -11.134  12.927  68.480  1.00  0.00    -0.299 A  
HETATM   14  C   UNL     1      -9.823  13.426  68.558  1.00  0.00    -0.178 A  
HETATM   15  C   UNL     1      -9.450  14.590  67.877  1.00  0.00    -0.212 A  
BRANCH  13  16
HETATM   16  C   UNL     1     -11.604  11.939  69.457  1.00  0.00    -0.394 A  
HETATM   17  C   UNL     1     -12.365  12.200  70.587  1.00  0.00    -0.295 A  
HETATM   18  C   UNL     1     -12.974  13.370  71.253  1.00  0.00    -0.368 C  
HETATM   19  O   UNL     1     -12.598  11.038  71.248  1.00  0.00    -0.385 OA 
HETATM   20  N   UNL     1     -11.987   9.996  70.611  1.00  0.00    -0.300 NA 
HETATM   21  C   UNL     1     -11.355  10.510  69.543  1.00  0.00    -0.278 A  
BRANCH  21  22
HETATM   22  C   UNL     1     -10.575   9.608  68.679  1.00  0.00    -0.246 A  
HETATM   23  C   UNL     1      -9.668   8.701  69.253  1.00  0.00    -0.173 A  
HETATM   24  C   UNL     1      -8.986   7.769  68.464  1.00  0.00    -0.133 A  
HETATM   25  C   UNL     1      -9.214   7.719  67.092  1.00  0.00    -0.174 A  
HETATM   26  C   UNL     1     -10.072   8.642  66.500  1.00  0.00    -0.339 A  
HETATM   27  C   UNL     1     -10.713   9.605  67.285  1.00  0.00    -0.284 A  
ENDBRANCH  21  22
ENDBRANCH  13  16
ENDBRANCH   7  10
ENDBRANCH   5   7
ENDBRANCH   2   3
TORSDOF 5
ENDMDL
MODEL       45
REMARK 921   NORMALIZED FREE ENERGY PREDICTED BY IDOCK:   -6.06 KCAL/MOL
REMARK 922        TOTAL FREE ENERGY PREDICTED BY IDOCK:   -8.92 KCAL/MOL
REMARK 923 INTER-LIGAND FREE ENERGY PREDICTED BY IDOCK:   -8.22 KCAL/MOL
REMARK 924 INTRA-LIGAND FREE ENERGY PREDICTED BY IDOCK:   -0.70 KCAL/MOL
REMARK 927      BINDING AFFINITY PREDICTED BY RF-SCORE:    0.00 PKD
ROOT
HETATM    1  C   UNL     1      -7.629   5.909  69.232  1.00  0.00    -0.089 C  
HETATM    2  C   UNL     1      -8.961   5.500  68.633  1.00  0.00    -0.118 C  
ENDROOT
BRANCH   2   3
HETATM    3  C   UNL     1     -10.091   6.168  69.382  1.00  0.00    -0.184 C  
HETATM    4  O   UNL     1     -11.253   6.062  69.017  1.00  0.00    -0.367 OA 
HETATM    5  N   UNL     1      -9.709   6.837  70.551  1.00  0.00    -0.176 N  
HETATM    6  H   UNL     1      -8.720   6.818  70.797  1.00  0.00     0.000 HD 
BRANCH   5   7
HETATM    7  S   UNL     1     -10.731   7.658  71.571  1.00  0.00    -0.223 S  
HETATM    8  O   UNL     1     -11.919   6.829  71.675  1.00  0.00    -0.311 OA 
HETATM    9  O   UNL     1     -10.015   8.074  72.760  1.00  0.00    -0.250 OA 
BRANCH   7  10
HETATM   10  C   UNL     1     -11.167   9.091  70.621  1.00  0.00    -0.270 A  
HETATM   11  C   UNL     1     -10.271   9.598  69.680  1.00  0.00    -0.239 A  
HETATM   12  C   UNL     1     -10.515  10.849  69.099  1.00  0.00    -0.248 A  
HETATM   13  C   UNL     1     -11.673  11.577  69.410  1.00  0.00    -0.413 A  
HETATM   14  C   UNL     1     -12.644  10.950  70.210  1.00  0.00    -0.342 A  
HETATM   15  C   UNL     1     -12.381   9.732  70.846  1.00  0.00    -0.379 A  
BRANCH  13  16
HETATM   16  C   UNL     1     -11.819  12.992  69.050  1.00  0.00    -0.362 A  
HETATM   17  C   UNL     1     -12.081  14.037  69.922  1.00  0.00    -0.345 A  
HETATM   18  C   UNL     1     -12.302  14.229  71.370  1.00  0.00    -0.431 C  
HETATM   19  O   UNL     1     -12.153  15.197  69.221  1.00  0.00    -0.298 OA 
HETATM   20  N   UNL     1     -11.976  14.961  67.888  1.00  0.00    -0.263 NA 
HETATM   21  C   UNL     1     -11.801  13.636  67.748  1.00  0.00    -0.368 A  
BRANCH  21  22
HETATM   22  C   UNL     1     -11.618  13.085  66.395  1.00  0.00    -0.413 A  
HETATM   23  C   UNL     1     -10.424  12.419  66.066  1.00  0.00    -0.281 A  
HETATM   24  C   UNL     1     -10.263  11.804  64.821  1.00  0.00    -0.324 A  
HETATM   25  C   UNL     1     -11.298  11.831  63.891  1.00  0.00    -0.494 A  
HETATM   26  C   UNL     1     -12.469  12.528  64.181  1.00  0.00    -0.518 A  
HETATM   27  C   UNL     1     -12.608  13.184  65.408  1.00  0.00    -0.512 A  
ENDBRANCH  21  22
ENDBRANCH  13  16
ENDBRANCH   7  10
ENDBRANCH   5   7
ENDBRANCH   2   3
TORSDOF 5
ENDMDL
MODEL       46
REMARK 921   NORMALIZED FREE ENERGY PREDICTED BY IDOCK:   -6.06 KCAL/MOL
REMARK 922        TOTAL FREE ENERGY PREDICTED BY IDOCK:   -8.92 KCAL/MOL
REMARK 923 INTER-LIGAND FREE ENERGY PREDICTED BY IDOCK:   -7.79 KCAL/MOL
REMARK 924 INTRA-LIGAND FREE ENERGY PREDICTED BY IDOCK:   -1.13 KCAL/MOL
REMARK 927      BINDING AFFINITY PREDICTED BY RF-SCORE:    0.00 PKD
ROOT
HETATM    1  C   UNL     1      -7.936   8.179  62.915  1.00  0.00    -0.157 C  
HETATM    2  C   UNL     1      -8.619   8.895  64.065  1.00  0.00    -0.122 C  
ENDROOT
BRANCH   2   3
HETATM    3  C   UNL     1      -9.383  10.091  63.548  1.00  0.00    -0.256 C  
HETATM    4  O   UNL     1      -9.326  10.430  62.375  1.00  0.00    -0.272 OA 
HETATM    5  N   UNL     1     -10.208  10.717  64.491  1.00  0.00    -0.349 N  
HETATM    6  H   UNL     1     -10.227  10.320  65.430  1.00  0.00     0.000 HD 
BRANCH   5   7
HETATM    7  S   UNL     1     -11.159  12.049  64.209  1.00  0.00    -0.380 S  
HETATM    8  O   UNL     1     -10.273  13.036  63.619  1.00  0.00    -0.302 OA 
HETATM    9  O   UNL     1     -12.378  11.653  63.532  1.00  0.00    -0.441 OA 
BRANCH   7  10
HETATM   10  C   UNL     1     -11.555  12.603  65.846  1.00  0.00    -0.396 A  
HETATM   11  C   UNL     1     -12.229  13.811  66.025  1.00  0.00    -0.495 A  
HETATM   12  C   UNL     1     -12.339  14.356  67.311  1.00  0.00    -0.090 A  
HETATM   13  C   UNL     1     -11.826  13.681  68.428  1.00  0.00    -0.407 A  
HETATM   14  C   UNL     1     -11.328  12.382  68.235  1.00  0.00    -0.332 A  
HETATM   15  C   UNL     1     -11.155  11.856  66.950  1.00  0.00    -0.356 A  
BRANCH  13  16
HETATM   16  C   UNL     1     -11.668  14.343  69.728  1.00  0.00    -0.361 A  
HETATM   17  C   UNL     1     -12.291  13.982  70.913  1.00  0.00    -0.372 A  
HETATM   18  C   UNL     1     -13.239  12.951  71.384  1.00  0.00    -0.262 C  
HETATM   19  O   UNL     1     -11.905  14.831  71.899  1.00  0.00    -0.355 OA 
HETATM   20  N   UNL     1     -11.057  15.781  71.405  1.00  0.00    -0.253 NA 
HETATM   21  C   UNL     1     -10.918  15.532  70.092  1.00  0.00    -0.321 A  
BRANCH  21  22
HETATM   22  C   UNL     1     -10.074  16.431  69.287  1.00  0.00    -0.271 A  
HETATM   23  C   UNL     1      -8.902  15.939  68.686  1.00  0.00    -0.206 A  
HETATM   24  C   UNL     1      -8.135  16.746  67.839  1.00  0.00    -0.189 A  
HETATM   25  C   UNL     1      -8.537  18.050  67.567  1.00  0.00    -0.244 A  
HETATM   26  C   UNL     1      -9.668  18.569  68.192  1.00  0.00    -0.367 A  
HETATM   27  C   UNL     1     -10.404  17.777  69.077  1.00  0.00    -0.234 A  
ENDBRANCH  21  22
ENDBRANCH  13  16
ENDBRANCH   7  10
ENDBRANCH   5   7
ENDBRANCH   2   3
TORSDOF 5
ENDMDL
MODEL       47
REMARK 921   NORMALIZED FREE ENERGY PREDICTED BY IDOCK:   -6.03 KCAL/MOL
REMARK 922        TOTAL FREE ENERGY PREDICTED BY IDOCK:   -8.87 KCAL/MOL
REMARK 923 INTER-LIGAND FREE ENERGY PREDICTED BY IDOCK:   -7.75 KCAL/MOL
REMARK 924 INTRA-LIGAND FREE ENERGY PREDICTED BY IDOCK:   -1.13 KCAL/MOL
REMARK 927      BINDING AFFINITY PREDICTED BY RF-SCORE:    0.00 PKD
ROOT
HETATM    1  C   UNL     1     -14.003   7.568  71.489  1.00  0.00    -0.522 C  
HETATM    2  C   UNL     1     -13.726   9.059  71.522  1.00  0.00    -0.388 C  
ENDROOT
BRANCH   2   3
HETATM    3  C   UNL     1     -12.262   9.318  71.251  1.00  0.00    -0.334 C  
HETATM    4  O   UNL     1     -11.812  10.453  71.191  1.00  0.00    -0.356 OA 
HETATM    5  N   UNL     1     -11.468   8.169  71.156  1.00  0.00    -0.272 N  
HETATM    6  H   UNL     1     -11.933   7.269  71.277  1.00  0.00     0.000 HD 
BRANCH   5   7
HETATM    7  S   UNL     1      -9.833   8.146  70.864  1.00  0.00    -0.179 S  
HETATM    8  O   UNL     1      -9.256   9.057  71.837  1.00  0.00    -0.353 OA 
HETATM    9  O   UNL     1      -9.365   6.779  70.766  1.00  0.00    -0.161 OA 
BRANCH   7  10
HETATM   10  C   UNL     1      -9.707   8.921  69.273  1.00  0.00    -0.165 A  
HETATM   11  C   UNL     1      -8.816   9.978  69.086  1.00  0.00    -0.171 A  
HETATM   12  C   UNL     1      -8.879  10.733  67.907  1.00  0.00    -0.132 A  
HETATM   13  C   UNL     1      -9.790  10.410  66.890  1.00  0.00    -0.236 A  
HETATM   14  C   UNL     1     -10.534   9.226  67.031  1.00  0.00    -0.303 A  
HETATM   15  C   UNL     1     -10.525   8.503  68.229  1.00  0.00    -0.222 A  
BRANCH  13  16
HETATM   16  C   UNL     1     -10.079  11.333  65.787  1.00  0.00    -0.294 A  
HETATM   17  C   UNL     1      -9.831  11.106  64.442  1.00  0.00    -0.284 A  
HETATM   18  C   UNL     1      -9.267  10.035  63.596  1.00  0.00    -0.314 C  
HETATM   19  O   UNL     1     -10.225  12.190  63.725  1.00  0.00    -0.374 OA 
HETATM   20  N   UNL     1     -10.707  13.161  64.556  1.00  0.00    -0.376 NA 
HETATM   21  C   UNL     1     -10.605  12.687  65.809  1.00  0.00    -0.272 A  
BRANCH  21  22
HETATM   22  C   UNL     1     -11.026  13.547  66.928  1.00  0.00    -0.296 A  
HETATM   23  C   UNL     1     -11.742  12.994  68.004  1.00  0.00    -0.397 A  
HETATM   24  C   UNL     1     -12.070  13.767  69.122  1.00  0.00    -0.374 A  
HETATM   25  C   UNL     1     -11.673  15.099  69.188  1.00  0.00    -0.349 A  
HETATM   26  C   UNL     1     -11.005  15.676  68.111  1.00  0.00    -0.314 A  
HETATM   27  C   UNL     1     -10.723  14.914  66.973  1.00  0.00    -0.307 A  
ENDBRANCH  21  22
ENDBRANCH  13  16
ENDBRANCH   7  10
ENDBRANCH   5   7
ENDBRANCH   2   3
TORSDOF 5
ENDMDL
MODEL       48
REMARK 921   NORMALIZED FREE ENERGY PREDICTED BY IDOCK:   -6.02 KCAL/MOL
REMARK 922        TOTAL FREE ENERGY PREDICTED BY IDOCK:   -8.86 KCAL/MOL
REMARK 923 INTER-LIGAND FREE ENERGY PREDICTED BY IDOCK:   -7.82 KCAL/MOL
REMARK 924 INTRA-LIGAND FREE ENERGY PREDICTED BY IDOCK:   -1.03 KCAL/MOL
REMARK 927      BINDING AFFINITY PREDICTED BY RF-SCORE:    0.00 PKD
ROOT
HETATM    1  C   UNL     1      -5.585  17.607  67.940  1.00  0.00    -0.136 C  
HETATM    2  C   UNL     1      -6.253  18.874  67.440  1.00  0.00    -0.179 C  
ENDROOT
BRANCH   2   3
HETATM    3  C   UNL     1      -7.488  18.526  66.642  1.00  0.00    -0.231 C  
HETATM    4  O   UNL     1      -7.463  18.448  65.422  1.00  0.00    -0.494 OA 
HETATM    5  N   UNL     1      -8.621  18.227  67.409  1.00  0.00    -0.247 N  
HETATM    6  H   UNL     1      -8.521  18.267  68.423  1.00  0.00     0.000 HD 
BRANCH   5   7
HETATM    7  S   UNL     1     -10.113  17.814  66.807  1.00  0.00    -0.364 S  
HETATM    8  O   UNL     1     -11.009  17.842  67.950  1.00  0.00    -0.308 OA 
HETATM    9  O   UNL     1     -10.403  18.597  65.623  1.00  0.00    -0.572 OA 
BRANCH   7  10
HETATM   10  C   UNL     1      -9.895  16.116  66.346  1.00  0.00    -0.284 A  
HETATM   11  C   UNL     1     -10.664  15.572  65.318  1.00  0.00    -0.440 A  
HETATM   12  C   UNL     1     -10.656  14.187  65.108  1.00  0.00    -0.414 A  
HETATM   13  C   UNL     1      -9.846  13.344  65.883  1.00  0.00    -0.251 A  
HETATM   14  C   UNL     1      -8.942  13.944  66.775  1.00  0.00    -0.206 A  
HETATM   15  C   UNL     1      -8.988  15.318  67.037  1.00  0.00    -0.254 A  
BRANCH  13  16
HETATM   16  C   UNL     1     -10.024  11.888  65.886  1.00  0.00    -0.261 A  
HETATM   17  C   UNL     1      -9.681  11.017  64.862  1.00  0.00    -0.254 A  
HETATM   18  C   UNL     1      -9.079  11.091  63.515  1.00  0.00    -0.175 C  
HETATM   19  O   UNL     1     -10.003   9.750  65.226  1.00  0.00    -0.318 OA 
HETATM   20  N   UNL     1     -10.585   9.741  66.461  1.00  0.00    -0.134 NA 
HETATM   21  C   UNL     1     -10.640  11.018  66.874  1.00  0.00    -0.258 A  
BRANCH  21  22
HETATM   22  C   UNL     1     -11.257  11.315  68.177  1.00  0.00    -0.351 A  
HETATM   23  C   UNL     1     -11.266  10.337  69.187  1.00  0.00    -0.268 A  
HETATM   24  C   UNL     1     -11.760  10.625  70.463  1.00  0.00    -0.451 A  
HETATM   25  C   UNL     1     -12.237  11.900  70.754  1.00  0.00    -0.401 A  
HETATM   26  C   UNL     1     -12.280  12.867  69.753  1.00  0.00    -0.227 A  
HETATM   27  C   UNL     1     -11.833  12.561  68.464  1.00  0.00    -0.341 A  
ENDBRANCH  21  22
ENDBRANCH  13  16
ENDBRANCH   7  10
ENDBRANCH   5   7
ENDBRANCH   2   3
TORSDOF 5
ENDMDL
MODEL       49
REMARK 921   NORMALIZED FREE ENERGY PREDICTED BY IDOCK:   -6.01 KCAL/MOL
REMARK 922        TOTAL FREE ENERGY PREDICTED BY IDOCK:   -8.85 KCAL/MOL
REMARK 923 INTER-LIGAND FREE ENERGY PREDICTED BY IDOCK:   -7.71 KCAL/MOL
REMARK 924 INTRA-LIGAND FREE ENERGY PREDICTED BY IDOCK:   -1.14 KCAL/MOL
REMARK 927      BINDING AFFINITY PREDICTED BY RF-SCORE:    0.00 PKD
ROOT
HETATM    1  C   UNL     1     -11.300   8.389  71.082  1.00  0.00    -0.310 C  
HETATM    2  C   UNL     1     -10.186   8.946  71.949  1.00  0.00    -0.403 C  
ENDROOT
BRANCH   2   3
HETATM    3  C   UNL     1      -9.009   9.338  71.086  1.00  0.00    -0.097 C  
HETATM    4  O   UNL     1      -7.865   9.022  71.381  1.00  0.00    -0.257 OA 
HETATM    5  N   UNL     1      -9.342  10.010  69.904  1.00  0.00    -0.348 N  
HETATM    6  H   UNL     1     -10.332  10.176  69.725  1.00  0.00     0.000 HD 
BRANCH   5   7
HETATM    7  S   UNL     1      -8.261  10.561  68.770  1.00  0.00    -0.142 S  
HETATM    8  O   UNL     1      -7.355  11.435  69.494  1.00  0.00    -0.052 OA 
HETATM    9  O   UNL     1      -7.751   9.451  67.992  1.00  0.00    -0.084 OA 
BRANCH   7  10
HETATM   10  C   UNL     1      -9.269  11.587  67.731  1.00  0.00    -0.165 A  
HETATM   11  C   UNL     1      -9.174  11.476  66.345  1.00  0.00    -0.218 A  
HETATM   12  C   UNL     1      -9.794  12.433  65.531  1.00  0.00    -0.215 A  
HETATM   13  C   UNL     1     -10.552  13.474  66.089  1.00  0.00    -0.290 A  
HETATM   14  C   UNL     1     -10.786  13.442  67.474  1.00  0.00    -0.276 A  
HETATM   15  C   UNL     1     -10.120  12.530  68.300  1.00  0.00    -0.228 A  
BRANCH  13  16
HETATM   16  C   UNL     1     -10.968  14.638  65.300  1.00  0.00    -0.374 A  
HETATM   17  C   UNL     1     -11.847  14.631  64.228  1.00  0.00    -0.337 A  
HETATM   18  C   UNL     1     -12.658  13.647  63.481  1.00  0.00     0.019 C  
HETATM   19  O   UNL     1     -11.980  15.893  63.749  1.00  0.00    -0.719 OA 
HETATM   20  N   UNL     1     -11.187  16.756  64.451  1.00  0.00    -1.107 NA 
HETATM   21  C   UNL     1     -10.541  16.025  65.375  1.00  0.00    -0.408 A  
BRANCH  21  22
HETATM   22  C   UNL     1      -9.580  16.698  66.265  1.00  0.00    -0.325 A  
HETATM   23  C   UNL     1      -8.243  16.266  66.305  1.00  0.00    -0.312 A  
HETATM   24  C   UNL     1      -7.290  16.948  67.069  1.00  0.00    -0.228 A  
HETATM   25  C   UNL     1      -7.657  18.080  67.791  1.00  0.00    -0.220 A  
HETATM   26  C   UNL     1      -8.986  18.493  67.801  1.00  0.00    -0.289 A  
HETATM   27  C   UNL     1      -9.946  17.780  67.077  1.00  0.00    -0.322 A  
ENDBRANCH  21  22
ENDBRANCH  13  16
ENDBRANCH   7  10
ENDBRANCH   5   7
ENDBRANCH   2   3
TORSDOF 5
ENDMDL
MODEL       50
REMARK 921   NORMALIZED FREE ENERGY PREDICTED BY IDOCK:   -6.00 KCAL/MOL
REMARK 922        TOTAL FREE ENERGY PREDICTED BY IDOCK:   -8.83 KCAL/MOL
REMARK 923 INTER-LIGAND FREE ENERGY PREDICTED BY IDOCK:   -7.94 KCAL/MOL
REMARK 924 INTRA-LIGAND FREE ENERGY PREDICTED BY IDOCK:   -0.89 KCAL/MOL
REMARK 927      BINDING AFFINITY PREDICTED BY RF-SCORE:    0.00 PKD
ROOT
HETATM    1  C   UNL     1      -8.275   8.795  62.551  1.00  0.00    -0.192 C  
HETATM    2  C   UNL     1      -7.899   9.665  63.736  1.00  0.00    -0.139 C  
ENDROOT
BRANCH   2   3
HETATM    3  C   UNL     1      -8.961   9.567  64.806  1.00  0.00    -0.218 C  
HETATM    4  O   UNL     1     -10.082  10.026  64.641  1.00  0.00    -0.271 OA 
HETATM    5  N   UNL     1      -8.584   8.849  65.948  1.00  0.00    -0.148 N  
HETATM    6  H   UNL     1      -7.642   8.457  65.962  1.00  0.00     0.000 HD 
BRANCH   5   7
HETATM    7  S   UNL     1      -9.539   8.580  67.279  1.00  0.00    -0.185 S  
HETATM    8  O   UNL     1     -10.763   7.994  66.762  1.00  0.00    -0.289 OA 
HETATM    9  O   UNL     1      -8.776   7.905  68.309  1.00  0.00    -0.130 OA 
BRANCH   7  10
HETATM   10  C   UNL     1      -9.927  10.223  67.823  1.00  0.00    -0.173 A  
HETATM   11  C   UNL     1     -11.255  10.646  67.860  1.00  0.00    -0.376 A  
HETATM   12  C   UNL     1     -11.543  12.001  68.068  1.00  0.00    -0.407 A  
HETATM   13  C   UNL     1     -10.516  12.931  68.291  1.00  0.00    -0.250 A  
HETATM   14  C   UNL     1      -9.209  12.439  68.441  1.00  0.00    -0.145 A  
HETATM   15  C   UNL     1      -8.904  11.100  68.171  1.00  0.00    -0.148 A  
BRANCH  13  16
HETATM   16  C   UNL     1     -10.755  14.378  68.226  1.00  0.00    -0.246 A  
HETATM   17  C   UNL     1     -10.400  15.221  67.184  1.00  0.00    -0.265 A  
HETATM   18  C   UNL     1      -9.738  15.119  65.867  1.00  0.00    -0.385 C  
HETATM   19  O   UNL     1     -10.778  16.489  67.487  1.00  0.00    -0.321 OA 
HETATM   20  N   UNL     1     -11.353  16.533  68.724  1.00  0.00    -0.283 NA 
HETATM   21  C   UNL     1     -11.328  15.281  69.209  1.00  0.00    -0.298 A  
BRANCH  21  22
HETATM   22  C   UNL     1     -11.860  15.033  70.560  1.00  0.00    -0.347 A  
HETATM   23  C   UNL     1     -11.584  15.941  71.598  1.00  0.00    -0.541 A  
HETATM   24  C   UNL     1     -12.155  15.780  72.864  1.00  0.00    -0.596 A  
HETATM   25  C   UNL     1     -13.024  14.720  73.107  1.00  0.00    -0.623 A  
HETATM   26  C   UNL     1     -13.270  13.785  72.105  1.00  0.00    -0.538 A  
HETATM   27  C   UNL     1     -12.657  13.920  70.856  1.00  0.00    -0.431 A  
ENDBRANCH  21  22
ENDBRANCH  13  16
ENDBRANCH   7  10
ENDBRANCH   5   7
ENDBRANCH   2   3
TORSDOF 5
ENDMDL
MODEL       51
REMARK 921   NORMALIZED FREE ENERGY PREDICTED BY IDOCK:   -5.99 KCAL/MOL
REMARK 922        TOTAL FREE ENERGY PREDICTED BY IDOCK:   -8.83 KCAL/MOL
REMARK 923 INTER-LIGAND FREE ENERGY PREDICTED BY IDOCK:   -8.15 KCAL/MOL
REMARK 924 INTRA-LIGAND FREE ENERGY PREDICTED BY IDOCK:   -0.68 KCAL/MOL
REMARK 927      BINDING AFFINITY PREDICTED BY RF-SCORE:    0.00 PKD
ROOT
HETATM    1  C   UNL     1      -9.464   8.474  71.899  1.00  0.00    -0.350 C  
HETATM    2  C   UNL     1     -10.025   7.076  71.719  1.00  0.00    -0.187 C  
ENDROOT
BRANCH   2   3
HETATM    3  C   UNL     1     -10.547   6.906  70.311  1.00  0.00    -0.218 C  
HETATM    4  O   UNL     1     -11.708   6.596  70.091  1.00  0.00    -0.394 OA 
HETATM    5  N   UNL     1      -9.626   7.208  69.300  1.00  0.00    -0.155 N  
HETATM    6  H   UNL     1      -8.697   7.513  69.591  1.00  0.00     0.000 HD 
BRANCH   5   7
HETATM    7  S   UNL     1      -9.917   7.112  67.668  1.00  0.00    -0.172 S  
HETATM    8  O   UNL     1      -8.655   6.707  67.075  1.00  0.00    -0.112 OA 
HETATM    9  O   UNL     1     -11.124   6.348  67.425  1.00  0.00    -0.363 OA 
BRANCH   7  10
HETATM   10  C   UNL     1     -10.196   8.804  67.217  1.00  0.00    -0.263 A  
HETATM   11  C   UNL     1     -10.838   9.663  68.109  1.00  0.00    -0.241 A  
HETATM   12  C   UNL     1     -11.259  10.925  67.671  1.00  0.00    -0.379 A  
HETATM   13  C   UNL     1     -10.999  11.359  66.363  1.00  0.00    -0.315 A  
HETATM   14  C   UNL     1     -10.183  10.549  65.555  1.00  0.00    -0.325 A  
HETATM   15  C   UNL     1      -9.813   9.262  65.960  1.00  0.00    -0.363 A  
BRANCH  13  16
HETATM   16  C   UNL     1     -11.665  12.535  65.790  1.00  0.00    -0.478 A  
HETATM   17  C   UNL     1     -12.260  12.612  64.541  1.00  0.00    -0.443 A  
HETATM   18  C   UNL     1     -12.489  11.730  63.378  1.00  0.00    -0.490 C  
HETATM   19  O   UNL     1     -12.763  13.860  64.361  1.00  0.00    -0.656 OA 
HETATM   20  N   UNL     1     -12.497  14.642  65.448  1.00  0.00    -0.230 NA 
HETATM   21  C   UNL     1     -11.809  13.881  66.316  1.00  0.00    -0.408 A  
BRANCH  21  22
HETATM   22  C   UNL     1     -11.354  14.483  67.580  1.00  0.00    -0.354 A  
HETATM   23  C   UNL     1     -12.253  14.620  68.653  1.00  0.00    -0.138 A  
HETATM   24  C   UNL     1     -11.823  15.100  69.894  1.00  0.00    -0.363 A  
HETATM   25  C   UNL     1     -10.486  15.434  70.087  1.00  0.00    -0.291 A  
HETATM   26  C   UNL     1      -9.592  15.350  69.022  1.00  0.00    -0.236 A  
HETATM   27  C   UNL     1     -10.036  14.918  67.768  1.00  0.00    -0.222 A  
ENDBRANCH  21  22
ENDBRANCH  13  16
ENDBRANCH   7  10
ENDBRANCH   5   7
ENDBRANCH   2   3
TORSDOF 5
ENDMDL
MODEL       52
REMARK 921   NORMALIZED FREE ENERGY PREDICTED BY IDOCK:   -5.96 KCAL/MOL
REMARK 922        TOTAL FREE ENERGY PREDICTED BY IDOCK:   -8.78 KCAL/MOL
REMARK 923 INTER-LIGAND FREE ENERGY PREDICTED BY IDOCK:   -7.76 KCAL/MOL
REMARK 924 INTRA-LIGAND FREE ENERGY PREDICTED BY IDOCK:   -1.02 KCAL/MOL
REMARK 927      BINDING AFFINITY PREDICTED BY RF-SCORE:    0.00 PKD
ROOT
HETATM    1  C   UNL     1     -10.736  19.575  66.977  1.00  0.00    -0.592 C  
HETATM    2  C   UNL     1      -9.414  19.779  66.262  1.00  0.00    -0.493 C  
ENDROOT
BRANCH   2   3
HETATM    3  C   UNL     1      -8.481  18.629  66.563  1.00  0.00    -0.291 C  
HETATM    4  O   UNL     1      -8.257  17.753  65.740  1.00  0.00    -0.538 OA 
HETATM    5  N   UNL     1      -7.846  18.695  67.809  1.00  0.00    -0.242 N  
HETATM    6  H   UNL     1      -8.060  19.499  68.400  1.00  0.00     0.000 HD 
BRANCH   5   7
HETATM    7  S   UNL     1      -6.775  17.576  68.408  1.00  0.00    -0.201 S  
HETATM    8  O   UNL     1      -5.762  17.425  67.379  1.00  0.00    -0.122 OA 
HETATM    9  O   UNL     1      -6.402  17.923  69.764  1.00  0.00    -0.226 OA 
BRANCH   7  10
HETATM   10  C   UNL     1      -7.735  16.085  68.429  1.00  0.00    -0.147 A  
HETATM   11  C   UNL     1      -7.315  14.980  67.690  1.00  0.00    -0.209 A  
HETATM   12  C   UNL     1      -8.181  13.891  67.524  1.00  0.00    -0.196 A  
HETATM   13  C   UNL     1      -9.444  13.873  68.134  1.00  0.00    -0.207 A  
HETATM   14  C   UNL     1      -9.754  14.913  69.027  1.00  0.00    -0.212 A  
HETATM   15  C   UNL     1      -8.925  16.034  69.148  1.00  0.00    -0.252 A  
BRANCH  13  16
HETATM   16  C   UNL     1     -10.473  12.898  67.755  1.00  0.00    -0.225 A  
HETATM   17  C   UNL     1     -11.504  13.104  66.851  1.00  0.00    -0.341 A  
HETATM   18  C   UNL     1     -11.997  14.189  65.977  1.00  0.00    -0.427 C  
HETATM   19  O   UNL     1     -12.257  11.978  66.767  1.00  0.00    -0.545 OA 
HETATM   20  N   UNL     1     -11.780  11.021  67.616  1.00  0.00    -0.580 NA 
HETATM   21  C   UNL     1     -10.722  11.555  68.249  1.00  0.00    -0.211 A  
BRANCH  21  22
HETATM   22  C   UNL     1     -10.021  10.748  69.262  1.00  0.00    -0.182 A  
HETATM   23  C   UNL     1     -10.755  10.095  70.267  1.00  0.00    -0.352 A  
HETATM   24  C   UNL     1     -10.124   9.247  71.182  1.00  0.00    -0.374 A  
HETATM   25  C   UNL     1      -8.753   9.025  71.095  1.00  0.00    -0.266 A  
HETATM   26  C   UNL     1      -8.003   9.701  70.137  1.00  0.00    -0.189 A  
HETATM   27  C   UNL     1      -8.629  10.588  69.255  1.00  0.00    -0.136 A  
ENDBRANCH  21  22
ENDBRANCH  13  16
ENDBRANCH   7  10
ENDBRANCH   5   7
ENDBRANCH   2   3
TORSDOF 5
ENDMDL
MODEL       53
REMARK 921   NORMALIZED FREE ENERGY PREDICTED BY IDOCK:   -5.95 KCAL/MOL
REMARK 922        TOTAL FREE ENERGY PREDICTED BY IDOCK:   -8.77 KCAL/MOL
REMARK 923 INTER-LIGAND FREE ENERGY PREDICTED BY IDOCK:   -8.20 KCAL/MOL
REMARK 924 INTRA-LIGAND FREE ENERGY PREDICTED BY IDOCK:   -0.57 KCAL/MOL
REMARK 927      BINDING AFFINITY PREDICTED BY RF-SCORE:    0.00 PKD
ROOT
HETATM    1  C   UNL     1     -10.468  19.935  66.897  1.00  0.00    -0.577 C  
HETATM    2  C   UNL     1      -9.170  19.933  66.111  1.00  0.00    -0.414 C  
ENDROOT
BRANCH   2   3
HETATM    3  C   UNL     1      -8.298  18.782  66.557  1.00  0.00    -0.297 C  
HETATM    4  O   UNL     1      -7.998  17.873  65.797  1.00  0.00    -0.540 OA 
HETATM    5  N   UNL     1      -7.808  18.886  67.865  1.00  0.00    -0.258 N  
HETATM    6  H   UNL     1      -8.073  19.714  68.398  1.00  0.00     0.000 HD 
BRANCH   5   7
HETATM    7  S   UNL     1      -6.832  17.776  68.621  1.00  0.00    -0.251 S  
HETATM    8  O   UNL     1      -5.803  17.445  67.652  1.00  0.00    -0.128 OA 
HETATM    9  O   UNL     1      -6.475  18.249  69.943  1.00  0.00    -0.135 OA 
BRANCH   7  10
HETATM   10  C   UNL     1      -7.890  16.360  68.773  1.00  0.00    -0.220 A  
HETATM   11  C   UNL     1      -7.352  15.078  68.671  1.00  0.00    -0.118 A  
HETATM   12  C   UNL     1      -8.210  13.976  68.563  1.00  0.00    -0.136 A  
HETATM   13  C   UNL     1      -9.603  14.137  68.608  1.00  0.00    -0.179 A  
HETATM   14  C   UNL     1     -10.103  15.416  68.906  1.00  0.00    -0.219 A  
HETATM   15  C   UNL     1      -9.259  16.531  68.951  1.00  0.00    -0.258 A  
BRANCH  13  16
HETATM   16  C   UNL     1     -10.520  13.062  68.215  1.00  0.00    -0.258 A  
HETATM   17  C   UNL     1     -10.441  12.298  67.061  1.00  0.00    -0.216 A  
HETATM   18  C   UNL     1      -9.569  12.191  65.873  1.00  0.00    -0.226 C  
HETATM   19  O   UNL     1     -11.467  11.409  67.042  1.00  0.00    -0.452 OA 
HETATM   20  N   UNL     1     -12.259  11.571  68.142  1.00  0.00    -0.499 NA 
HETATM   21  C   UNL     1     -11.732  12.580  68.855  1.00  0.00    -0.322 A  
BRANCH  21  22
HETATM   22  C   UNL     1     -12.408  13.001  70.094  1.00  0.00    -0.270 A  
HETATM   23  C   UNL     1     -12.712  12.050  71.083  1.00  0.00    -0.365 A  
HETATM   24  C   UNL     1     -13.267  12.437  72.307  1.00  0.00    -0.392 A  
HETATM   25  C   UNL     1     -13.511  13.783  72.567  1.00  0.00    -0.682 A  
HETATM   26  C   UNL     1     -13.261  14.733  71.580  1.00  0.00    -0.433 A  
HETATM   27  C   UNL     1     -12.754  14.337  70.339  1.00  0.00    -0.355 A  
ENDBRANCH  21  22
ENDBRANCH  13  16
ENDBRANCH   7  10
ENDBRANCH   5   7
ENDBRANCH   2   3
TORSDOF 5
ENDMDL
MODEL       54
REMARK 921   NORMALIZED FREE ENERGY PREDICTED BY IDOCK:   -5.94 KCAL/MOL
REMARK 922        TOTAL FREE ENERGY PREDICTED BY IDOCK:   -8.75 KCAL/MOL
REMARK 923 INTER-LIGAND FREE ENERGY PREDICTED BY IDOCK:   -7.65 KCAL/MOL
REMARK 924 INTRA-LIGAND FREE ENERGY PREDICTED BY IDOCK:   -1.11 KCAL/MOL
REMARK 927      BINDING AFFINITY PREDICTED BY RF-SCORE:    0.00 PKD
ROOT
HETATM    1  C   UNL     1     -10.682  15.686  70.371  1.00  0.00    -0.336 C  
HETATM    2  C   UNL     1     -11.910  15.766  69.484  1.00  0.00    -0.359 C  
ENDROOT
BRANCH   2   3
HETATM    3  C   UNL     1     -11.564  15.323  68.082  1.00  0.00    -0.330 C  
HETATM    4  O   UNL     1     -12.144  14.392  67.542  1.00  0.00    -0.377 OA 
HETATM    5  N   UNL     1     -10.598  16.106  67.438  1.00  0.00    -0.311 N  
HETATM    6  H   UNL     1     -10.216  16.896  67.957  1.00  0.00     0.000 HD 
BRANCH   5   7
HETATM    7  S   UNL     1     -10.022  15.856  65.900  1.00  0.00    -0.369 S  
HETATM    8  O   UNL     1     -11.158  16.076  65.023  1.00  0.00    -0.390 OA 
HETATM    9  O   UNL     1      -8.789  16.592  65.708  1.00  0.00    -0.493 OA 
BRANCH   7  10
HETATM   10  C   UNL     1      -9.672  14.118  65.888  1.00  0.00    -0.241 A  
HETATM   11  C   UNL     1     -10.384  13.273  65.036  1.00  0.00    -0.355 A  
HETATM   12  C   UNL     1     -10.271  11.885  65.187  1.00  0.00    -0.314 A  
HETATM   13  C   UNL     1      -9.414  11.331  66.149  1.00  0.00    -0.232 A  
HETATM   14  C   UNL     1      -8.570  12.205  66.855  1.00  0.00    -0.191 A  
HETATM   15  C   UNL     1      -8.721  13.593  66.757  1.00  0.00    -0.101 A  
BRANCH  13  16
HETATM   16  C   UNL     1      -9.485   9.915  66.526  1.00  0.00    -0.230 A  
HETATM   17  C   UNL     1      -9.059   8.840  65.760  1.00  0.00    -0.212 A  
HETATM   18  C   UNL     1      -8.437   8.613  64.439  1.00  0.00    -0.113 C  
HETATM   19  O   UNL     1      -9.293   7.687  66.436  1.00  0.00    -0.181 OA 
HETATM   20  N   UNL     1      -9.897   7.950  67.632  1.00  0.00    -0.156 NA 
HETATM   21  C   UNL     1     -10.054   9.283  67.704  1.00  0.00    -0.214 A  
BRANCH  21  22
HETATM   22  C   UNL     1     -10.717   9.855  68.887  1.00  0.00    -0.244 A  
HETATM   23  C   UNL     1     -11.375  11.094  68.790  1.00  0.00    -0.342 A  
HETATM   24  C   UNL     1     -12.092  11.614  69.872  1.00  0.00    -0.373 A  
HETATM   25  C   UNL     1     -12.177  10.896  71.061  1.00  0.00    -0.464 A  
HETATM   26  C   UNL     1     -11.492   9.691  71.191  1.00  0.00    -0.456 A  
HETATM   27  C   UNL     1     -10.733   9.198  70.125  1.00  0.00    -0.263 A  
ENDBRANCH  21  22
ENDBRANCH  13  16
ENDBRANCH   7  10
ENDBRANCH   5   7
ENDBRANCH   2   3
TORSDOF 5
ENDMDL
MODEL       55
REMARK 921   NORMALIZED FREE ENERGY PREDICTED BY IDOCK:   -5.91 KCAL/MOL
REMARK 922        TOTAL FREE ENERGY PREDICTED BY IDOCK:   -8.72 KCAL/MOL
REMARK 923 INTER-LIGAND FREE ENERGY PREDICTED BY IDOCK:   -7.93 KCAL/MOL
REMARK 924 INTRA-LIGAND FREE ENERGY PREDICTED BY IDOCK:   -0.79 KCAL/MOL
REMARK 927      BINDING AFFINITY PREDICTED BY RF-SCORE:    0.00 PKD
ROOT
HETATM    1  C   UNL     1     -10.675  11.276  63.501  1.00  0.00    -0.408 C  
HETATM    2  C   UNL     1     -11.969  12.054  63.649  1.00  0.00    -0.612 C  
ENDROOT
BRANCH   2   3
HETATM    3  C   UNL     1     -11.937  12.871  64.920  1.00  0.00    -0.392 C  
HETATM    4  O   UNL     1     -12.922  13.473  65.321  1.00  0.00    -0.701 OA 
HETATM    5  N   UNL     1     -10.729  12.814  65.628  1.00  0.00    -0.269 N  
HETATM    6  H   UNL     1      -9.986  12.236  65.236  1.00  0.00     0.000 HD 
BRANCH   5   7
HETATM    7  S   UNL     1     -10.406  13.607  67.050  1.00  0.00    -0.261 S  
HETATM    8  O   UNL     1      -8.986  13.908  67.009  1.00  0.00    -0.227 OA 
HETATM    9  O   UNL     1     -11.377  14.661  67.262  1.00  0.00    -0.327 OA 
BRANCH   7  10
HETATM   10  C   UNL     1     -10.643  12.341  68.270  1.00  0.00    -0.227 A  
HETATM   11  C   UNL     1      -9.606  11.456  68.562  1.00  0.00    -0.190 A  
HETATM   12  C   UNL     1      -9.863  10.326  69.348  1.00  0.00    -0.247 A  
HETATM   13  C   UNL     1     -11.137  10.098  69.890  1.00  0.00    -0.346 A  
HETATM   14  C   UNL     1     -12.102  11.107  69.737  1.00  0.00    -0.414 A  
HETATM   15  C   UNL     1     -11.876  12.205  68.901  1.00  0.00    -0.358 A  
BRANCH  13  16
HETATM   16  C   UNL     1     -11.512   8.802  70.467  1.00  0.00    -0.222 A  
HETATM   17  C   UNL     1     -12.309   8.602  71.584  1.00  0.00    -0.333 A  
HETATM   18  C   UNL     1     -13.045   9.423  72.568  1.00  0.00    -0.374 C  
HETATM   19  O   UNL     1     -12.426   7.270  71.817  1.00  0.00    -0.320 OA 
HETATM   20  N   UNL     1     -11.702   6.560  70.902  1.00  0.00    -0.363 NA 
HETATM   21  C   UNL     1     -11.115   7.456  70.092  1.00  0.00    -0.246 A  
BRANCH  21  22
HETATM   22  C   UNL     1     -10.234   6.968  69.017  1.00  0.00    -0.191 A  
HETATM   23  C   UNL     1     -10.756   6.751  67.730  1.00  0.00    -0.334 A  
HETATM   24  C   UNL     1      -9.923   6.379  66.670  1.00  0.00    -0.207 A  
HETATM   25  C   UNL     1      -8.555   6.237  66.876  1.00  0.00    -0.113 A  
HETATM   26  C   UNL     1      -8.028   6.401  68.155  1.00  0.00    -0.109 A  
HETATM   27  C   UNL     1      -8.870   6.723  69.223  1.00  0.00    -0.137 A  
ENDBRANCH  21  22
ENDBRANCH  13  16
ENDBRANCH   7  10
ENDBRANCH   5   7
ENDBRANCH   2   3
TORSDOF 5
ENDMDL
MODEL       56
REMARK 921   NORMALIZED FREE ENERGY PREDICTED BY IDOCK:   -5.88 KCAL/MOL
REMARK 922        TOTAL FREE ENERGY PREDICTED BY IDOCK:   -8.68 KCAL/MOL
REMARK 923 INTER-LIGAND FREE ENERGY PREDICTED BY IDOCK:   -7.60 KCAL/MOL
REMARK 924 INTRA-LIGAND FREE ENERGY PREDICTED BY IDOCK:   -1.09 KCAL/MOL
REMARK 927      BINDING AFFINITY PREDICTED BY RF-SCORE:    0.00 PKD
ROOT
HETATM    1  C   UNL     1      -9.352   3.309  63.937  1.00  0.00    -0.125 C  
HETATM    2  C   UNL     1      -8.887   4.717  64.257  1.00  0.00    -0.132 C  
ENDROOT
BRANCH   2   3
HETATM    3  C   UNL     1      -9.300   5.090  65.662  1.00  0.00    -0.154 C  
HETATM    4  O   UNL     1      -9.343   4.261  66.559  1.00  0.00    -0.142 OA 
HETATM    5  N   UNL     1      -9.547   6.454  65.861  1.00  0.00    -0.389 N  
HETATM    6  H   UNL     1      -9.428   7.072  65.058  1.00  0.00     0.000 HD 
BRANCH   5   7
HETATM    7  S   UNL     1     -10.016   7.151  67.294  1.00  0.00    -0.208 S  
HETATM    8  O   UNL     1     -11.356   6.651  67.545  1.00  0.00    -0.271 OA 
HETATM    9  O   UNL     1      -8.972   6.993  68.287  1.00  0.00    -0.129 OA 
BRANCH   7  10
HETATM   10  C   UNL     1     -10.162   8.867  66.868  1.00  0.00    -0.276 A  
HETATM   11  C   UNL     1     -10.829   9.740  67.726  1.00  0.00    -0.306 A  
HETATM   12  C   UNL     1     -11.142  11.033  67.289  1.00  0.00    -0.359 A  
HETATM   13  C   UNL     1     -10.748  11.482  66.019  1.00  0.00    -0.332 A  
HETATM   14  C   UNL     1      -9.912  10.645  65.261  1.00  0.00    -0.356 A  
HETATM   15  C   UNL     1      -9.649   9.330  65.661  1.00  0.00    -0.324 A  
BRANCH  13  16
HETATM   16  C   UNL     1     -11.297  12.706  65.426  1.00  0.00    -0.348 A  
HETATM   17  C   UNL     1     -12.119  12.779  64.311  1.00  0.00    -0.425 A  
HETATM   18  C   UNL     1     -12.742  11.852  63.345  1.00  0.00    -0.496 C  
HETATM   19  O   UNL     1     -12.416  14.080  64.059  1.00  0.00    -0.682 OA 
HETATM   20  N   UNL     1     -11.790  14.895  64.959  1.00  0.00    -0.334 NA 
HETATM   21  C   UNL     1     -11.083  14.099  65.779  1.00  0.00    -0.309 A  
BRANCH  21  22
HETATM   22  C   UNL     1     -10.272  14.717  66.840  1.00  0.00    -0.257 A  
HETATM   23  C   UNL     1      -8.990  15.212  66.543  1.00  0.00    -0.326 A  
HETATM   24  C   UNL     1      -8.239  15.889  67.509  1.00  0.00    -0.177 A  
HETATM   25  C   UNL     1      -8.764  16.095  68.781  1.00  0.00    -0.240 A  
HETATM   26  C   UNL     1     -10.011  15.569  69.108  1.00  0.00    -0.246 A  
HETATM   27  C   UNL     1     -10.739  14.850  68.155  1.00  0.00    -0.251 A  
ENDBRANCH  21  22
ENDBRANCH  13  16
ENDBRANCH   7  10
ENDBRANCH   5   7
ENDBRANCH   2   3
TORSDOF 5
ENDMDL
MODEL       57
REMARK 921   NORMALIZED FREE ENERGY PREDICTED BY IDOCK:   -5.87 KCAL/MOL
REMARK 922        TOTAL FREE ENERGY PREDICTED BY IDOCK:   -8.67 KCAL/MOL
REMARK 923 INTER-LIGAND FREE ENERGY PREDICTED BY IDOCK:   -7.80 KCAL/MOL
REMARK 924 INTRA-LIGAND FREE ENERGY PREDICTED BY IDOCK:   -0.87 KCAL/MOL
REMARK 927      BINDING AFFINITY PREDICTED BY RF-SCORE:    0.00 PKD
ROOT
HETATM    1  C   UNL     1     -10.725  11.684  63.257  1.00  0.00    -0.404 C  
HETATM    2  C   UNL     1     -11.914  12.624  63.334  1.00  0.00    -0.613 C  
ENDROOT
BRANCH   2   3
HETATM    3  C   UNL     1     -11.891  13.379  64.643  1.00  0.00    -0.391 C  
HETATM    4  O   UNL     1     -12.918  13.630  65.257  1.00  0.00    -0.719 OA 
HETATM    5  N   UNL     1     -10.612  13.689  65.123  1.00  0.00    -0.340 N  
HETATM    6  H   UNL     1      -9.817  13.385  64.561  1.00  0.00     0.000 HD 
BRANCH   5   7
HETATM    7  S   UNL     1     -10.281  14.511  66.528  1.00  0.00    -0.288 S  
HETATM    8  O   UNL     1      -8.865  14.823  66.466  1.00  0.00    -0.253 OA 
HETATM    9  O   UNL     1     -11.260  15.560  66.731  1.00  0.00    -0.265 OA 
BRANCH   7  10
HETATM   10  C   UNL     1     -10.495  13.264  67.772  1.00  0.00    -0.239 A  
HETATM   11  C   UNL     1      -9.468  12.356  68.026  1.00  0.00    -0.208 A  
HETATM   12  C   UNL     1      -9.718  11.241  68.838  1.00  0.00    -0.141 A  
HETATM   13  C   UNL     1     -10.971  11.053  69.440  1.00  0.00    -0.301 A  
HETATM   14  C   UNL     1     -11.917  12.085  69.319  1.00  0.00    -0.329 A  
HETATM   15  C   UNL     1     -11.700  13.168  68.460  1.00  0.00    -0.387 A  
BRANCH  13  16
HETATM   16  C   UNL     1     -11.352   9.774  70.049  1.00  0.00    -0.269 A  
HETATM   17  C   UNL     1     -12.192   9.603  71.139  1.00  0.00    -0.350 A  
HETATM   18  C   UNL     1     -12.979  10.448  72.061  1.00  0.00    -0.499 C  
HETATM   19  O   UNL     1     -12.301   8.279  71.417  1.00  0.00    -0.303 OA 
HETATM   20  N   UNL     1     -11.531   7.547  70.559  1.00  0.00    -0.267 NA 
HETATM   21  C   UNL     1     -10.922   8.421  69.741  1.00  0.00    -0.127 A  
BRANCH  21  22
HETATM   22  C   UNL     1      -9.992   7.907  68.722  1.00  0.00    -0.194 A  
HETATM   23  C   UNL     1      -8.661   7.620  69.071  1.00  0.00    -0.136 A  
HETATM   24  C   UNL     1      -7.784   7.042  68.147  1.00  0.00    -0.113 A  
HETATM   25  C   UNL     1      -8.229   6.727  66.867  1.00  0.00    -0.113 A  
HETATM   26  C   UNL     1      -9.530   7.049  66.489  1.00  0.00    -0.199 A  
HETATM   27  C   UNL     1     -10.389   7.673  67.398  1.00  0.00    -0.347 A  
ENDBRANCH  21  22
ENDBRANCH  13  16
ENDBRANCH   7  10
ENDBRANCH   5   7
ENDBRANCH   2   3
TORSDOF 5
ENDMDL
MODEL       58
REMARK 921   NORMALIZED FREE ENERGY PREDICTED BY IDOCK:   -5.86 KCAL/MOL
REMARK 922        TOTAL FREE ENERGY PREDICTED BY IDOCK:   -8.66 KCAL/MOL
REMARK 923 INTER-LIGAND FREE ENERGY PREDICTED BY IDOCK:   -7.52 KCAL/MOL
REMARK 924 INTRA-LIGAND FREE ENERGY PREDICTED BY IDOCK:   -1.14 KCAL/MOL
REMARK 927      BINDING AFFINITY PREDICTED BY RF-SCORE:    0.00 PKD
ROOT
HETATM    1  C   UNL     1     -10.426   7.029  73.724  1.00  0.00    -0.392 C  
HETATM    2  C   UNL     1     -11.306   7.643  72.652  1.00  0.00    -0.423 C  
ENDROOT
BRANCH   2   3
HETATM    3  C   UNL     1     -10.968   7.050  71.304  1.00  0.00    -0.243 C  
HETATM    4  O   UNL     1     -11.839   6.688  70.526  1.00  0.00    -0.390 OA 
HETATM    5  N   UNL     1      -9.602   7.026  70.996  1.00  0.00    -0.170 N  
HETATM    6  H   UNL     1      -8.960   7.405  71.692  1.00  0.00     0.000 HD 
BRANCH   5   7
HETATM    7  S   UNL     1      -8.939   6.434  69.593  1.00  0.00    -0.136 S  
HETATM    8  O   UNL     1      -7.506   6.412  69.825  1.00  0.00    -0.081 OA 
HETATM    9  O   UNL     1      -9.639   5.234  69.183  1.00  0.00    -0.125 OA 
BRANCH   7  10
HETATM   10  C   UNL     1      -9.267   7.728  68.426  1.00  0.00    -0.137 A  
HETATM   11  C   UNL     1      -8.515   8.902  68.463  1.00  0.00    -0.129 A  
HETATM   12  C   UNL     1      -8.918  10.005  67.700  1.00  0.00    -0.135 A  
HETATM   13  C   UNL     1     -10.039   9.930  66.859  1.00  0.00    -0.285 A  
HETATM   14  C   UNL     1     -10.654   8.678  66.700  1.00  0.00    -0.131 A  
HETATM   15  C   UNL     1     -10.300   7.589  67.504  1.00  0.00    -0.321 A  
BRANCH  13  16
HETATM   16  C   UNL     1     -10.651  11.130  66.276  1.00  0.00    -0.309 A  
HETATM   17  C   UNL     1     -10.583  11.522  64.948  1.00  0.00    -0.303 A  
HETATM   18  C   UNL     1      -9.983  11.034  63.689  1.00  0.00    -0.415 C  
HETATM   19  O   UNL     1     -11.264  12.686  64.789  1.00  0.00    -0.286 OA 
HETATM   20  N   UNL     1     -11.768  13.109  65.985  1.00  0.00    -0.360 NA 
HETATM   21  C   UNL     1     -11.391  12.208  66.907  1.00  0.00    -0.343 A  
BRANCH  21  22
HETATM   22  C   UNL     1     -11.772  12.431  68.312  1.00  0.00    -0.398 A  
HETATM   23  C   UNL     1     -11.944  11.333  69.173  1.00  0.00    -0.405 A  
HETATM   24  C   UNL     1     -12.212  11.520  70.533  1.00  0.00    -0.469 A  
HETATM   25  C   UNL     1     -12.295  12.807  71.055  1.00  0.00    -0.316 A  
HETATM   26  C   UNL     1     -12.176  13.906  70.209  1.00  0.00    -0.428 A  
HETATM   27  C   UNL     1     -11.958  13.716  68.841  1.00  0.00    -0.392 A  
ENDBRANCH  21  22
ENDBRANCH  13  16
ENDBRANCH   7  10
ENDBRANCH   5   7
ENDBRANCH   2   3
TORSDOF 5
ENDMDL
MODEL       59
REMARK 921   NORMALIZED FREE ENERGY PREDICTED BY IDOCK:   -5.86 KCAL/MOL
REMARK 922        TOTAL FREE ENERGY PREDICTED BY IDOCK:   -8.65 KCAL/MOL
REMARK 923 INTER-LIGAND FREE ENERGY PREDICTED BY IDOCK:   -7.44 KCAL/MOL
REMARK 924 INTRA-LIGAND FREE ENERGY PREDICTED BY IDOCK:   -1.21 KCAL/MOL
REMARK 927      BINDING AFFINITY PREDICTED BY RF-SCORE:    0.00 PKD
ROOT
HETATM    1  C   UNL     1     -12.814  15.117  73.131  1.00  0.00    -0.606 C  
HETATM    2  C   UNL     1     -12.060  16.215  72.405  1.00  0.00    -0.630 C  
ENDROOT
BRANCH   2   3
HETATM    3  C   UNL     1     -11.644  15.735  71.034  1.00  0.00    -0.411 C  
HETATM    4  O   UNL     1     -11.227  16.508  70.183  1.00  0.00    -0.323 OA 
HETATM    5  N   UNL     1     -11.701  14.348  70.852  1.00  0.00    -0.474 N  
HETATM    6  H   UNL     1     -12.010  13.786  71.644  1.00  0.00     0.000 HD 
BRANCH   5   7
HETATM    7  S   UNL     1     -11.307  13.541  69.455  1.00  0.00    -0.199 S  
HETATM    8  O   UNL     1     -12.276  13.983  68.468  1.00  0.00    -0.333 OA 
HETATM    9  O   UNL     1      -9.886  13.660  69.198  1.00  0.00     0.069 OA 
BRANCH   7  10
HETATM   10  C   UNL     1     -11.688  11.855  69.854  1.00  0.00    -0.308 A  
HETATM   11  C   UNL     1     -12.558  11.571  70.906  1.00  0.00    -0.438 A  
HETATM   12  C   UNL     1     -12.681  10.253  71.364  1.00  0.00    -0.547 A  
HETATM   13  C   UNL     1     -11.980   9.206  70.747  1.00  0.00    -0.243 A  
HETATM   14  C   UNL     1     -11.268   9.499  69.572  1.00  0.00    -0.105 A  
HETATM   15  C   UNL     1     -11.087  10.819  69.145  1.00  0.00    -0.304 A  
BRANCH  13  16
HETATM   16  C   UNL     1     -11.861   7.882  71.369  1.00  0.00    -0.328 A  
HETATM   17  C   UNL     1     -12.908   7.058  71.751  1.00  0.00    -0.324 A  
HETATM   18  C   UNL     1     -14.385   7.081  71.731  1.00  0.00    -0.457 C  
HETATM   19  O   UNL     1     -12.407   5.921  72.295  1.00  0.00    -0.206 OA 
HETATM   20  N   UNL     1     -11.042   5.964  72.319  1.00  0.00    -0.266 NA 
HETATM   21  C   UNL     1     -10.682   7.148  71.795  1.00  0.00    -0.215 A  
BRANCH  21  22
HETATM   22  C   UNL     1      -9.251   7.485  71.725  1.00  0.00    -0.162 A  
HETATM   23  C   UNL     1      -8.544   7.294  70.525  1.00  0.00    -0.143 A  
HETATM   24  C   UNL     1      -7.210   7.695  70.404  1.00  0.00    -0.063 A  
HETATM   25  C   UNL     1      -6.567   8.307  71.475  1.00  0.00    -0.058 A  
HETATM   26  C   UNL     1      -7.236   8.460  72.687  1.00  0.00    -0.114 A  
HETATM   27  C   UNL     1      -8.554   8.012  72.821  1.00  0.00    -0.252 A  
ENDBRANCH  21  22
ENDBRANCH  13  16
ENDBRANCH   7  10
ENDBRANCH   5   7
ENDBRANCH   2   3
TORSDOF 5
ENDMDL
MODEL       60
REMARK 921   NORMALIZED FREE ENERGY PREDICTED BY IDOCK:   -5.84 KCAL/MOL
REMARK 922        TOTAL FREE ENERGY PREDICTED BY IDOCK:   -8.63 KCAL/MOL
REMARK 923 INTER-LIGAND FREE ENERGY PREDICTED BY IDOCK:   -7.77 KCAL/MOL
REMARK 924 INTRA-LIGAND FREE ENERGY PREDICTED BY IDOCK:   -0.86 KCAL/MOL
REMARK 927      BINDING AFFINITY PREDICTED BY RF-SCORE:    0.00 PKD
ROOT
HETATM    1  C   UNL     1      -9.878   7.054  73.981  1.00  0.00    -0.345 C  
HETATM    2  C   UNL     1     -10.336   5.708  73.451  1.00  0.00    -0.242 C  
ENDROOT
BRANCH   2   3
HETATM    3  C   UNL     1     -10.310   5.712  71.940  1.00  0.00    -0.215 C  
HETATM    4  O   UNL     1     -10.268   4.673  71.298  1.00  0.00    -0.192 OA 
HETATM    5  N   UNL     1     -10.416   6.978  71.352  1.00  0.00    -0.209 N  
HETATM    6  H   UNL     1     -10.503   7.778  71.979  1.00  0.00     0.000 HD 
BRANCH   5   7
HETATM    7  S   UNL     1     -10.414   7.287  69.720  1.00  0.00    -0.231 S  
HETATM    8  O   UNL     1      -9.063   6.996  69.275  1.00  0.00    -0.138 OA 
HETATM    9  O   UNL     1     -11.551   6.645  69.093  1.00  0.00    -0.203 OA 
BRANCH   7  10
HETATM   10  C   UNL     1     -10.626   9.047  69.653  1.00  0.00    -0.224 A  
HETATM   11  C   UNL     1     -11.756   9.631  70.224  1.00  0.00    -0.213 A  
HETATM   12  C   UNL     1     -12.036  10.981  69.975  1.00  0.00    -0.441 A  
HETATM   13  C   UNL     1     -11.170  11.767  69.201  1.00  0.00    -0.324 A  
HETATM   14  C   UNL     1      -9.948  11.198  68.805  1.00  0.00    -0.207 A  
HETATM   15  C   UNL     1      -9.689   9.836  68.994  1.00  0.00    -0.177 A  
BRANCH  13  16
HETATM   16  C   UNL     1     -11.569  13.082  68.687  1.00  0.00    -0.354 A  
HETATM   17  C   UNL     1     -11.972  14.171  69.445  1.00  0.00    -0.337 A  
HETATM   18  C   UNL     1     -12.167  14.503  70.872  1.00  0.00    -0.409 C  
HETATM   19  O   UNL     1     -12.268  15.207  68.619  1.00  0.00    -0.189 OA 
HETATM   20  N   UNL     1     -12.104  14.838  67.314  1.00  0.00    -0.216 NA 
HETATM   21  C   UNL     1     -11.712  13.553  67.320  1.00  0.00    -0.383 A  
BRANCH  21  22
HETATM   22  C   UNL     1     -11.489  12.875  66.032  1.00  0.00    -0.384 A  
HETATM   23  C   UNL     1     -10.254  12.256  65.772  1.00  0.00    -0.281 A  
HETATM   24  C   UNL     1     -10.050  11.524  64.597  1.00  0.00    -0.318 A  
HETATM   25  C   UNL     1     -11.082  11.388  63.674  1.00  0.00    -0.411 A  
HETATM   26  C   UNL     1     -12.295  12.035  63.892  1.00  0.00    -0.553 A  
HETATM   27  C   UNL     1     -12.479  12.807  65.043  1.00  0.00    -0.572 A  
ENDBRANCH  21  22
ENDBRANCH  13  16
ENDBRANCH   7  10
ENDBRANCH   5   7
ENDBRANCH   2   3
TORSDOF 5
ENDMDL
MODEL       61
REMARK 921   NORMALIZED FREE ENERGY PREDICTED BY IDOCK:   -5.83 KCAL/MOL
REMARK 922        TOTAL FREE ENERGY PREDICTED BY IDOCK:   -8.62 KCAL/MOL
REMARK 923 INTER-LIGAND FREE ENERGY PREDICTED BY IDOCK:   -7.89 KCAL/MOL
REMARK 924 INTRA-LIGAND FREE ENERGY PREDICTED BY IDOCK:   -0.72 KCAL/MOL
REMARK 927      BINDING AFFINITY PREDICTED BY RF-SCORE:    0.00 PKD
ROOT
HETATM    1  C   UNL     1      -5.964  19.824  64.328  1.00  0.00    -0.303 C  
HETATM    2  C   UNL     1      -5.558  20.741  65.466  1.00  0.00    -0.248 C  
ENDROOT
BRANCH   2   3
HETATM    3  C   UNL     1      -6.404  20.456  66.686  1.00  0.00    -0.207 C  
HETATM    4  O   UNL     1      -6.824  21.356  67.399  1.00  0.00    -0.573 OA 
HETATM    5  N   UNL     1      -6.725  19.107  66.878  1.00  0.00    -0.196 N  
HETATM    6  H   UNL     1      -6.371  18.440  66.193  1.00  0.00     0.000 HD 
BRANCH   5   7
HETATM    7  S   UNL     1      -7.635  18.501  68.129  1.00  0.00    -0.283 S  
HETATM    8  O   UNL     1      -6.675  17.983  69.087  1.00  0.00    -0.255 OA 
HETATM    9  O   UNL     1      -8.631  19.472  68.533  1.00  0.00    -0.348 OA 
BRANCH   7  10
HETATM   10  C   UNL     1      -8.446  17.109  67.386  1.00  0.00    -0.191 A  
HETATM   11  C   UNL     1      -9.704  17.267  66.806  1.00  0.00    -0.285 A  
HETATM   12  C   UNL     1     -10.437  16.135  66.428  1.00  0.00    -0.304 A  
HETATM   13  C   UNL     1      -9.903  14.846  66.575  1.00  0.00    -0.281 A  
HETATM   14  C   UNL     1      -8.563  14.736  66.980  1.00  0.00    -0.260 A  
HETATM   15  C   UNL     1      -7.846  15.854  67.421  1.00  0.00    -0.195 A  
BRANCH  13  16
HETATM   16  C   UNL     1     -10.738  13.645  66.462  1.00  0.00    -0.284 A  
HETATM   17  C   UNL     1     -11.000  12.936  65.299  1.00  0.00    -0.283 A  
HETATM   18  C   UNL     1     -10.644  13.007  63.867  1.00  0.00    -0.292 C  
HETATM   19  O   UNL     1     -11.817  11.890  65.587  1.00  0.00    -0.398 OA 
HETATM   20  N   UNL     1     -12.141  11.890  66.913  1.00  0.00    -0.505 NA 
HETATM   21  C   UNL     1     -11.530  12.953  67.463  1.00  0.00    -0.335 A  
BRANCH  21  22
HETATM   22  C   UNL     1     -11.733  13.223  68.897  1.00  0.00    -0.369 A  
HETATM   23  C   UNL     1     -11.417  14.488  69.422  1.00  0.00    -0.323 A  
HETATM   24  C   UNL     1     -11.689  14.800  70.758  1.00  0.00    -0.355 A  
HETATM   25  C   UNL     1     -12.296  13.859  71.583  1.00  0.00    -0.270 A  
HETATM   26  C   UNL     1     -12.571  12.585  71.093  1.00  0.00    -0.349 A  
HETATM   27  C   UNL     1     -12.252  12.259  69.772  1.00  0.00    -0.201 A  
ENDBRANCH  21  22
ENDBRANCH  13  16
ENDBRANCH   7  10
ENDBRANCH   5   7
ENDBRANCH   2   3
TORSDOF 5
ENDMDL
MODEL       62
REMARK 921   NORMALIZED FREE ENERGY PREDICTED BY IDOCK:   -5.82 KCAL/MOL
REMARK 922        TOTAL FREE ENERGY PREDICTED BY IDOCK:   -8.60 KCAL/MOL
REMARK 923 INTER-LIGAND FREE ENERGY PREDICTED BY IDOCK:   -7.64 KCAL/MOL
REMARK 924 INTRA-LIGAND FREE ENERGY PREDICTED BY IDOCK:   -0.96 KCAL/MOL
REMARK 927      BINDING AFFINITY PREDICTED BY RF-SCORE:    0.00 PKD
ROOT
HETATM    1  C   UNL     1     -11.982  12.463  64.361  1.00  0.00    -0.482 C  
HETATM    2  C   UNL     1     -10.924  11.597  63.703  1.00  0.00    -0.507 C  
ENDROOT
BRANCH   2   3
HETATM    3  C   UNL     1      -9.949  11.095  64.743  1.00  0.00    -0.287 C  
HETATM    4  O   UNL     1      -9.628   9.917  64.806  1.00  0.00    -0.289 OA 
HETATM    5  N   UNL     1      -9.394  12.089  65.559  1.00  0.00    -0.424 N  
HETATM    6  H   UNL     1      -9.686  13.051  65.387  1.00  0.00     0.000 HD 
BRANCH   5   7
HETATM    7  S   UNL     1      -8.299  11.834  66.782  1.00  0.00    -0.136 S  
HETATM    8  O   UNL     1      -7.444  10.757  66.314  1.00  0.00    -0.132 OA 
HETATM    9  O   UNL     1      -7.730  13.095  67.208  1.00  0.00    -0.160 OA 
BRANCH   7  10
HETATM   10  C   UNL     1      -9.310  11.179  68.084  1.00  0.00    -0.176 A  
HETATM   11  C   UNL     1      -8.729  10.419  69.098  1.00  0.00    -0.173 A  
HETATM   12  C   UNL     1      -9.548   9.717  69.992  1.00  0.00    -0.282 A  
HETATM   13  C   UNL     1     -10.946   9.809  69.914  1.00  0.00    -0.299 A  
HETATM   14  C   UNL     1     -11.491  10.734  69.007  1.00  0.00    -0.368 A  
HETATM   15  C   UNL     1     -10.686  11.389  68.069  1.00  0.00    -0.240 A  
BRANCH  13  16
HETATM   16  C   UNL     1     -11.824   8.880  70.634  1.00  0.00    -0.159 A  
HETATM   17  C   UNL     1     -12.788   9.222  71.570  1.00  0.00    -0.354 A  
HETATM   18  C   UNL     1     -13.323  10.449  72.196  1.00  0.00    -0.374 C  
HETATM   19  O   UNL     1     -13.392   8.094  72.024  1.00  0.00    -0.322 OA 
HETATM   20  N   UNL     1     -12.840   6.990  71.440  1.00  0.00    -0.378 NA 
HETATM   21  C   UNL     1     -11.871   7.428  70.618  1.00  0.00    -0.215 A  
BRANCH  21  22
HETATM   22  C   UNL     1     -11.074   6.440  69.872  1.00  0.00    -0.444 A  
HETATM   23  C   UNL     1     -10.369   5.442  70.567  1.00  0.00    -0.344 A  
HETATM   24  C   UNL     1      -9.683   4.435  69.880  1.00  0.00    -0.291 A  
HETATM   25  C   UNL     1      -9.707   4.402  68.489  1.00  0.00    -0.181 A  
HETATM   26  C   UNL     1     -10.360   5.409  67.784  1.00  0.00    -0.226 A  
HETATM   27  C   UNL     1     -11.002   6.443  68.473  1.00  0.00    -0.396 A  
ENDBRANCH  21  22
ENDBRANCH  13  16
ENDBRANCH   7  10
ENDBRANCH   5   7
ENDBRANCH   2   3
TORSDOF 5
ENDMDL
MODEL       63
REMARK 921   NORMALIZED FREE ENERGY PREDICTED BY IDOCK:   -5.82 KCAL/MOL
REMARK 922        TOTAL FREE ENERGY PREDICTED BY IDOCK:   -8.60 KCAL/MOL
REMARK 923 INTER-LIGAND FREE ENERGY PREDICTED BY IDOCK:   -7.58 KCAL/MOL
REMARK 924 INTRA-LIGAND FREE ENERGY PREDICTED BY IDOCK:   -1.01 KCAL/MOL
REMARK 927      BINDING AFFINITY PREDICTED BY RF-SCORE:    0.00 PKD
ROOT
HETATM    1  C   UNL     1     -11.399  15.101  65.328  1.00  0.00    -0.318 C  
HETATM    2  C   UNL     1      -9.911  15.274  65.572  1.00  0.00    -0.383 C  
ENDROOT
BRANCH   2   3
HETATM    3  C   UNL     1      -9.342  14.023  66.199  1.00  0.00    -0.115 C  
HETATM    4  O   UNL     1      -8.777  14.049  67.283  1.00  0.00    -0.196 OA 
HETATM    5  N   UNL     1      -9.584  12.843  65.485  1.00  0.00    -0.473 N  
HETATM    6  H   UNL     1     -10.116  12.923  64.618  1.00  0.00     0.000 HD 
BRANCH   5   7
HETATM    7  S   UNL     1      -9.079  11.324  65.930  1.00  0.00    -0.188 S  
HETATM    8  O   UNL     1      -9.717  10.417  64.992  1.00  0.00    -0.251 OA 
HETATM    9  O   UNL     1      -7.642  11.312  66.106  1.00  0.00    -0.088 OA 
BRANCH   7  10
HETATM   10  C   UNL     1      -9.863  11.095  67.504  1.00  0.00    -0.177 A  
HETATM   11  C   UNL     1      -9.124  10.607  68.582  1.00  0.00    -0.170 A  
HETATM   12  C   UNL     1      -9.786  10.213  69.752  1.00  0.00    -0.245 A  
HETATM   13  C   UNL     1     -11.177  10.349  69.875  1.00  0.00    -0.371 A  
HETATM   14  C   UNL     1     -11.861  11.022  68.848  1.00  0.00    -0.378 A  
HETATM   15  C   UNL     1     -11.220  11.360  67.651  1.00  0.00    -0.346 A  
BRANCH  13  16
HETATM   16  C   UNL     1     -11.927   9.693  70.951  1.00  0.00    -0.391 A  
HETATM   17  C   UNL     1     -12.826  10.302  71.814  1.00  0.00    -0.460 A  
HETATM   18  C   UNL     1     -13.382  11.651  72.046  1.00  0.00    -0.405 C  
HETATM   19  O   UNL     1     -13.314   9.376  72.678  1.00  0.00    -0.395 OA 
HETATM   20  N   UNL     1     -12.745   8.157  72.443  1.00  0.00    -0.247 NA 
HETATM   21  C   UNL     1     -11.881   8.321  71.427  1.00  0.00    -0.293 A  
BRANCH  21  22
HETATM   22  C   UNL     1     -11.091   7.163  70.975  1.00  0.00    -0.287 A  
HETATM   23  C   UNL     1     -10.322   6.438  71.902  1.00  0.00    -0.228 A  
HETATM   24  C   UNL     1      -9.639   5.279  71.518  1.00  0.00    -0.201 A  
HETATM   25  C   UNL     1      -9.728   4.820  70.207  1.00  0.00    -0.296 A  
HETATM   26  C   UNL     1     -10.446   5.553  69.266  1.00  0.00    -0.336 A  
HETATM   27  C   UNL     1     -11.086   6.738  69.640  1.00  0.00    -0.343 A  
ENDBRANCH  21  22
ENDBRANCH  13  16
ENDBRANCH   7  10
ENDBRANCH   5   7
ENDBRANCH   2   3
TORSDOF 5
ENDMDL
MODEL       64
REMARK 921   NORMALIZED FREE ENERGY PREDICTED BY IDOCK:   -5.81 KCAL/MOL
REMARK 922        TOTAL FREE ENERGY PREDICTED BY IDOCK:   -8.59 KCAL/MOL
REMARK 923 INTER-LIGAND FREE ENERGY PREDICTED BY IDOCK:   -7.73 KCAL/MOL
REMARK 924 INTRA-LIGAND FREE ENERGY PREDICTED BY IDOCK:   -0.86 KCAL/MOL
REMARK 927      BINDING AFFINITY PREDICTED BY RF-SCORE:    0.00 PKD
ROOT
HETATM    1  C   UNL     1      -7.575   8.257  62.982  1.00  0.00    -0.123 C  
HETATM    2  C   UNL     1      -8.213   9.308  63.871  1.00  0.00    -0.165 C  
ENDROOT
BRANCH   2   3
HETATM    3  C   UNL     1      -8.269   8.812  65.297  1.00  0.00    -0.144 C  
HETATM    4  O   UNL     1      -7.414   9.116  66.116  1.00  0.00    -0.093 OA 
HETATM    5  N   UNL     1      -9.404   8.056  65.615  1.00  0.00    -0.413 N  
HETATM    6  H   UNL     1     -10.088   7.906  64.873  1.00  0.00     0.000 HD 
BRANCH   5   7
HETATM    7  S   UNL     1      -9.732   7.382  67.097  1.00  0.00    -0.187 S  
HETATM    8  O   UNL     1     -10.926   6.580  66.899  1.00  0.00    -0.373 OA 
HETATM    9  O   UNL     1      -8.530   6.793  67.650  1.00  0.00    -0.121 OA 
BRANCH   7  10
HETATM   10  C   UNL     1     -10.196   8.788  68.074  1.00  0.00    -0.213 A  
HETATM   11  C   UNL     1      -9.816   8.857  69.414  1.00  0.00    -0.183 A  
HETATM   12  C   UNL     1     -10.369   9.846  70.239  1.00  0.00    -0.339 A  
HETATM   13  C   UNL     1     -11.260  10.799  69.724  1.00  0.00    -0.365 A  
HETATM   14  C   UNL     1     -11.468  10.818  68.335  1.00  0.00    -0.358 A  
HETATM   15  C   UNL     1     -10.972   9.799  67.515  1.00  0.00    -0.205 A  
BRANCH  13  16
HETATM   16  C   UNL     1     -12.069  11.655  70.600  1.00  0.00    -0.432 A  
HETATM   17  C   UNL     1     -12.919  11.226  71.608  1.00  0.00    -0.432 A  
HETATM   18  C   UNL     1     -13.358   9.947  72.202  1.00  0.00    -0.498 C  
HETATM   19  O   UNL     1     -13.498  12.305  72.194  1.00  0.00    -0.509 OA 
HETATM   20  N   UNL     1     -13.084  13.456  71.588  1.00  0.00    -0.385 NA 
HETATM   21  C   UNL     1     -12.244  13.097  70.603  1.00  0.00    -0.321 A  
BRANCH  21  22
HETATM   22  C   UNL     1     -11.663  14.147  69.750  1.00  0.00    -0.370 A  
HETATM   23  C   UNL     1     -10.855  15.146  70.322  1.00  0.00    -0.258 A  
HETATM   24  C   UNL     1     -10.214  16.097  69.523  1.00  0.00    -0.261 A  
HETATM   25  C   UNL     1     -10.357  16.055  68.139  1.00  0.00    -0.260 A  
HETATM   26  C   UNL     1     -11.192  15.103  67.559  1.00  0.00    -0.331 A  
HETATM   27  C   UNL     1     -11.871  14.184  68.365  1.00  0.00    -0.388 A  
ENDBRANCH  21  22
ENDBRANCH  13  16
ENDBRANCH   7  10
ENDBRANCH   5   7
ENDBRANCH   2   3
TORSDOF 5
ENDMDL
MODEL       65
REMARK 921   NORMALIZED FREE ENERGY PREDICTED BY IDOCK:   -5.81 KCAL/MOL
REMARK 922        TOTAL FREE ENERGY PREDICTED BY IDOCK:   -8.58 KCAL/MOL
REMARK 923 INTER-LIGAND FREE ENERGY PREDICTED BY IDOCK:   -7.73 KCAL/MOL
REMARK 924 INTRA-LIGAND FREE ENERGY PREDICTED BY IDOCK:   -0.85 KCAL/MOL
REMARK 927      BINDING AFFINITY PREDICTED BY RF-SCORE:    0.00 PKD
ROOT
HETATM    1  C   UNL     1      -7.286   4.036  69.349  1.00  0.00    -0.050 C  
HETATM    2  C   UNL     1      -8.299   3.821  70.457  1.00  0.00    -0.084 C  
ENDROOT
BRANCH   2   3
HETATM    3  C   UNL     1      -8.193   4.931  71.476  1.00  0.00    -0.113 C  
HETATM    4  O   UNL     1      -7.146   5.536  71.659  1.00  0.00    -0.071 OA 
HETATM    5  N   UNL     1      -9.392   5.255  72.123  1.00  0.00    -0.139 N  
HETATM    6  H   UNL     1     -10.223   4.727  71.857  1.00  0.00     0.000 HD 
BRANCH   5   7
HETATM    7  S   UNL     1      -9.576   6.427  73.286  1.00  0.00    -0.153 S  
HETATM    8  O   UNL     1     -10.736   6.021  74.060  1.00  0.00    -0.229 OA 
HETATM    9  O   UNL     1      -8.307   6.682  73.937  1.00  0.00    -0.116 OA 
BRANCH   7  10
HETATM   10  C   UNL     1     -10.044   7.851  72.338  1.00  0.00    -0.248 A  
HETATM   11  C   UNL     1     -11.382   8.239  72.283  1.00  0.00    -0.446 A  
HETATM   12  C   UNL     1     -11.781   9.216  71.362  1.00  0.00    -0.413 A  
HETATM   13  C   UNL     1     -10.845   9.848  70.529  1.00  0.00    -0.391 A  
HETATM   14  C   UNL     1      -9.484   9.573  70.748  1.00  0.00    -0.237 A  
HETATM   15  C   UNL     1      -9.082   8.554  71.618  1.00  0.00    -0.296 A  
BRANCH  13  16
HETATM   16  C   UNL     1     -11.256  10.652  69.373  1.00  0.00    -0.329 A  
HETATM   17  C   UNL     1     -11.085  10.317  68.039  1.00  0.00    -0.274 A  
HETATM   18  C   UNL     1     -10.519   9.202  67.251  1.00  0.00    -0.335 C  
HETATM   19  O   UNL     1     -11.584  11.310  67.260  1.00  0.00    -0.527 OA 
HETATM   20  N   UNL     1     -12.064  12.328  68.035  1.00  0.00    -0.409 NA 
HETATM   21  C   UNL     1     -11.854  11.975  69.314  1.00  0.00    -0.318 A  
BRANCH  21  22
HETATM   22  C   UNL     1     -12.247  12.911  70.380  1.00  0.00    -0.381 A  
HETATM   23  C   UNL     1     -13.148  12.497  71.377  1.00  0.00    -0.303 A  
HETATM   24  C   UNL     1     -13.464  13.333  72.453  1.00  0.00    -0.670 A  
HETATM   25  C   UNL     1     -12.872  14.588  72.557  1.00  0.00    -0.471 A  
HETATM   26  C   UNL     1     -12.015  15.033  71.554  1.00  0.00    -0.416 A  
HETATM   27  C   UNL     1     -11.740  14.215  70.453  1.00  0.00    -0.312 A  
ENDBRANCH  21  22
ENDBRANCH  13  16
ENDBRANCH   7  10
ENDBRANCH   5   7
ENDBRANCH   2   3
TORSDOF 5
ENDMDL
MODEL       66
REMARK 921   NORMALIZED FREE ENERGY PREDICTED BY IDOCK:   -5.79 KCAL/MOL
REMARK 922        TOTAL FREE ENERGY PREDICTED BY IDOCK:   -8.56 KCAL/MOL
REMARK 923 INTER-LIGAND FREE ENERGY PREDICTED BY IDOCK:   -7.58 KCAL/MOL
REMARK 924 INTRA-LIGAND FREE ENERGY PREDICTED BY IDOCK:   -0.98 KCAL/MOL
REMARK 927      BINDING AFFINITY PREDICTED BY RF-SCORE:    0.00 PKD
ROOT
HETATM    1  C   UNL     1      -6.318   6.259  69.014  1.00  0.00    -0.041 C  
HETATM    2  C   UNL     1      -6.424   7.732  68.668  1.00  0.00    -0.048 C  
ENDROOT
BRANCH   2   3
HETATM    3  C   UNL     1      -7.834   8.218  68.908  1.00  0.00    -0.111 C  
HETATM    4  O   UNL     1      -8.069   9.164  69.646  1.00  0.00    -0.094 OA 
HETATM    5  N   UNL     1      -8.821   7.557  68.166  1.00  0.00    -0.128 N  
HETATM    6  H   UNL     1      -8.512   6.818  67.535  1.00  0.00     0.000 HD 
BRANCH   5   7
HETATM    7  S   UNL     1     -10.449   7.876  68.225  1.00  0.00    -0.121 S  
HETATM    8  O   UNL     1     -11.059   6.935  67.302  1.00  0.00    -0.339 OA 
HETATM    9  O   UNL     1     -10.890   7.948  69.603  1.00  0.00    -0.242 OA 
BRANCH   7  10
HETATM   10  C   UNL     1     -10.562   9.487  67.491  1.00  0.00    -0.275 A  
HETATM   11  C   UNL     1     -11.242  10.506  68.157  1.00  0.00    -0.357 A  
HETATM   12  C   UNL     1     -11.527  11.701  67.483  1.00  0.00    -0.360 A  
HETATM   13  C   UNL     1     -11.093  11.908  66.165  1.00  0.00    -0.374 A  
HETATM   14  C   UNL     1     -10.246  10.941  65.596  1.00  0.00    -0.323 A  
HETATM   15  C   UNL     1     -10.011   9.719  66.235  1.00  0.00    -0.331 A  
BRANCH  13  16
HETATM   16  C   UNL     1     -11.610  13.008  65.343  1.00  0.00    -0.374 A  
HETATM   17  C   UNL     1     -12.256  12.885  64.122  1.00  0.00    -0.414 A  
HETATM   18  C   UNL     1     -12.674  11.805  63.206  1.00  0.00    -0.314 C  
HETATM   19  O   UNL     1     -12.580  14.120  63.662  1.00  0.00    -0.831 OA 
HETATM   20  N   UNL     1     -12.143  15.082  64.527  1.00  0.00    -0.421 NA 
HETATM   21  C   UNL     1     -11.527  14.445  65.537  1.00  0.00    -0.340 A  
BRANCH  21  22
HETATM   22  C   UNL     1     -10.921  15.245  66.614  1.00  0.00    -0.297 A  
HETATM   23  C   UNL     1      -9.765  16.002  66.357  1.00  0.00    -0.307 A  
HETATM   24  C   UNL     1      -9.225  16.845  67.335  1.00  0.00    -0.224 A  
HETATM   25  C   UNL     1      -9.842  16.955  68.577  1.00  0.00    -0.267 A  
HETATM   26  C   UNL     1     -10.959  16.176  68.865  1.00  0.00    -0.324 A  
HETATM   27  C   UNL     1     -11.467  15.297  67.904  1.00  0.00    -0.325 A  
ENDBRANCH  21  22
ENDBRANCH  13  16
ENDBRANCH   7  10
ENDBRANCH   5   7
ENDBRANCH   2   3
TORSDOF 5
ENDMDL
MODEL       67
REMARK 921   NORMALIZED FREE ENERGY PREDICTED BY IDOCK:   -5.77 KCAL/MOL
REMARK 922        TOTAL FREE ENERGY PREDICTED BY IDOCK:   -8.54 KCAL/MOL
REMARK 923 INTER-LIGAND FREE ENERGY PREDICTED BY IDOCK:   -7.42 KCAL/MOL
REMARK 924 INTRA-LIGAND FREE ENERGY PREDICTED BY IDOCK:   -1.12 KCAL/MOL
REMARK 927      BINDING AFFINITY PREDICTED BY RF-SCORE:    0.00 PKD
ROOT
HETATM    1  C   UNL     1      -9.276  10.012  63.690  1.00  0.00    -0.314 C  
HETATM    2  C   UNL     1      -9.637  11.156  62.761  1.00  0.00    -0.334 C  
ENDROOT
BRANCH   2   3
HETATM    3  C   UNL     1     -10.543  12.133  63.473  1.00  0.00    -0.458 C  
HETATM    4  O   UNL     1     -11.756  12.105  63.328  1.00  0.00    -0.419 OA 
HETATM    5  N   UNL     1      -9.893  13.003  64.357  1.00  0.00    -0.608 N  
HETATM    6  H   UNL     1      -8.882  12.907  64.447  1.00  0.00     0.000 HD 
BRANCH   5   7
HETATM    7  S   UNL     1     -10.629  14.178  65.271  1.00  0.00    -0.398 S  
HETATM    8  O   UNL     1      -9.576  15.120  65.608  1.00  0.00    -0.334 OA 
HETATM    9  O   UNL     1     -11.840  14.629  64.616  1.00  0.00    -0.419 OA 
BRANCH   7  10
HETATM   10  C   UNL     1     -11.059  13.310  66.757  1.00  0.00    -0.292 A  
HETATM   11  C   UNL     1     -10.577  13.758  67.986  1.00  0.00    -0.258 A  
HETATM   12  C   UNL     1     -10.724  12.952  69.122  1.00  0.00    -0.060 A  
HETATM   13  C   UNL     1     -11.395  11.721  69.051  1.00  0.00    -0.338 A  
HETATM   14  C   UNL     1     -12.034  11.393  67.844  1.00  0.00    -0.120 A  
HETATM   15  C   UNL     1     -11.838  12.159  66.690  1.00  0.00    -0.314 A  
BRANCH  13  16
HETATM   16  C   UNL     1     -11.318  10.735  70.135  1.00  0.00    -0.390 A  
HETATM   17  C   UNL     1     -12.115  10.699  71.269  1.00  0.00    -0.299 A  
HETATM   18  C   UNL     1     -13.227  11.476  71.853  1.00  0.00    -0.479 C  
HETATM   19  O   UNL     1     -11.744   9.648  72.043  1.00  0.00    -0.282 OA 
HETATM   20  N   UNL     1     -10.694   8.985  71.476  1.00  0.00    -0.325 NA 
HETATM   21  C   UNL     1     -10.394   9.633  70.338  1.00  0.00    -0.291 A  
BRANCH  21  22
HETATM   22  C   UNL     1      -9.264   9.151  69.526  1.00  0.00    -0.160 A  
HETATM   23  C   UNL     1      -9.487   8.707  68.211  1.00  0.00    -0.150 A  
HETATM   24  C   UNL     1      -8.421   8.335  67.387  1.00  0.00    -0.125 A  
HETATM   25  C   UNL     1      -7.114   8.418  67.859  1.00  0.00    -0.083 A  
HETATM   26  C   UNL     1      -6.878   8.809  69.174  1.00  0.00    -0.055 A  
HETATM   27  C   UNL     1      -7.950   9.132  70.011  1.00  0.00    -0.113 A  
ENDBRANCH  21  22
ENDBRANCH  13  16
ENDBRANCH   7  10
ENDBRANCH   5   7
ENDBRANCH   2   3
TORSDOF 5
ENDMDL
MODEL       68
REMARK 921   NORMALIZED FREE ENERGY PREDICTED BY IDOCK:   -5.74 KCAL/MOL
REMARK 922        TOTAL FREE ENERGY PREDICTED BY IDOCK:   -8.50 KCAL/MOL
REMARK 923 INTER-LIGAND FREE ENERGY PREDICTED BY IDOCK:   -7.81 KCAL/MOL
REMARK 924 INTRA-LIGAND FREE ENERGY PREDICTED BY IDOCK:   -0.69 KCAL/MOL
REMARK 927      BINDING AFFINITY PREDICTED BY RF-SCORE:    0.00 PKD
ROOT
HETATM    1  C   UNL     1      -5.849  18.646  65.380  1.00  0.00    -0.267 C  
HETATM    2  C   UNL     1      -6.189  19.823  66.275  1.00  0.00    -0.190 C  
ENDROOT
BRANCH   2   3
HETATM    3  C   UNL     1      -7.670  19.833  66.575  1.00  0.00    -0.289 C  
HETATM    4  O   UNL     1      -8.259  20.864  66.864  1.00  0.00    -0.130 OA 
HETATM    5  N   UNL     1      -8.311  18.597  66.419  1.00  0.00    -0.289 N  
HETATM    6  H   UNL     1      -7.738  17.809  66.120  1.00  0.00     0.000 HD 
BRANCH   5   7
HETATM    7  S   UNL     1      -9.926  18.308  66.680  1.00  0.00    -0.384 S  
HETATM    8  O   UNL     1     -10.288  19.141  67.812  1.00  0.00    -0.375 OA 
HETATM    9  O   UNL     1     -10.654  18.404  65.431  1.00  0.00    -0.595 OA 
BRANCH   7  10
HETATM   10  C   UNL     1      -9.939  16.624  67.236  1.00  0.00    -0.270 A  
HETATM   11  C   UNL     1     -10.638  15.660  66.511  1.00  0.00    -0.307 A  
HETATM   12  C   UNL     1     -10.838  14.389  67.066  1.00  0.00    -0.297 A  
HETATM   13  C   UNL     1     -10.301  14.055  68.318  1.00  0.00    -0.247 A  
HETATM   14  C   UNL     1      -9.441  14.983  68.929  1.00  0.00    -0.211 A  
HETATM   15  C   UNL     1      -9.288  16.276  68.415  1.00  0.00    -0.210 A  
BRANCH  13  16
HETATM   16  C   UNL     1     -10.724  12.854  69.047  1.00  0.00    -0.132 A  
HETATM   17  C   UNL     1     -10.377  11.546  68.744  1.00  0.00    -0.196 A  
HETATM   18  C   UNL     1      -9.566  10.832  67.737  1.00  0.00    -0.176 C  
HETATM   19  O   UNL     1     -10.965  10.709  69.636  1.00  0.00    -0.244 OA 
HETATM   20  N   UNL     1     -11.728  11.416  70.522  1.00  0.00    -0.284 NA 
HETATM   21  C   UNL     1     -11.628  12.710  70.175  1.00  0.00    -0.062 A  
BRANCH  21  22
HETATM   22  C   UNL     1     -12.384  13.710  70.947  1.00  0.00    -0.450 A  
HETATM   23  C   UNL     1     -13.660  13.393  71.443  1.00  0.00    -0.101 A  
HETATM   24  C   UNL     1     -14.359  14.289  72.258  1.00  0.00    -0.527 A  
HETATM   25  C   UNL     1     -13.784  15.508  72.604  1.00  0.00    -0.667 A  
HETATM   26  C   UNL     1     -12.541  15.859  72.083  1.00  0.00    -0.522 A  
HETATM   27  C   UNL     1     -11.868  14.983  71.227  1.00  0.00    -0.389 A  
ENDBRANCH  21  22
ENDBRANCH  13  16
ENDBRANCH   7  10
ENDBRANCH   5   7
ENDBRANCH   2   3
TORSDOF 5
ENDMDL
MODEL       69
REMARK 921   NORMALIZED FREE ENERGY PREDICTED BY IDOCK:   -5.73 KCAL/MOL
REMARK 922        TOTAL FREE ENERGY PREDICTED BY IDOCK:   -8.48 KCAL/MOL
REMARK 923 INTER-LIGAND FREE ENERGY PREDICTED BY IDOCK:   -7.45 KCAL/MOL
REMARK 924 INTRA-LIGAND FREE ENERGY PREDICTED BY IDOCK:   -1.03 KCAL/MOL
REMARK 927      BINDING AFFINITY PREDICTED BY RF-SCORE:    0.00 PKD
ROOT
HETATM    1  C   UNL     1      -8.797   9.221  70.620  1.00  0.00    -0.287 C  
HETATM    2  C   UNL     1     -10.128   8.804  71.216  1.00  0.00    -0.336 C  
ENDROOT
BRANCH   2   3
HETATM    3  C   UNL     1     -11.225   9.717  70.719  1.00  0.00    -0.348 C  
HETATM    4  O   UNL     1     -12.399   9.516  70.994  1.00  0.00    -0.300 OA 
HETATM    5  N   UNL     1     -10.782  10.834  70.001  1.00  0.00    -0.465 N  
HETATM    6  H   UNL     1      -9.775  10.939  69.875  1.00  0.00     0.000 HD 
BRANCH   5   7
HETATM    7  S   UNL     1     -11.757  12.003  69.335  1.00  0.00    -0.342 S  
HETATM    8  O   UNL     1     -12.143  11.486  68.035  1.00  0.00    -0.617 OA 
HETATM    9  O   UNL     1     -12.762  12.414  70.294  1.00  0.00     0.001 OA 
BRANCH   7  10
HETATM   10  C   UNL     1     -10.630  13.345  69.059  1.00  0.00    -0.077 A  
HETATM   11  C   UNL     1      -9.560  13.182  68.180  1.00  0.00    -0.227 A  
HETATM   12  C   UNL     1      -8.550  14.151  68.135  1.00  0.00    -0.175 A  
HETATM   13  C   UNL     1      -8.624  15.309  68.924  1.00  0.00    -0.207 A  
HETATM   14  C   UNL     1      -9.806  15.531  69.649  1.00  0.00    -0.281 A  
HETATM   15  C   UNL     1     -10.790  14.541  69.751  1.00  0.00    -0.132 A  
BRANCH  13  16
HETATM   16  C   UNL     1      -7.467  16.190  69.115  1.00  0.00    -0.221 A  
HETATM   17  C   UNL     1      -6.269  15.850  69.725  1.00  0.00    -0.177 A  
HETATM   18  C   UNL     1      -5.661  14.664  70.363  1.00  0.00    -0.139 C  
HETATM   19  O   UNL     1      -5.444  16.928  69.723  1.00  0.00    -0.160 OA 
HETATM   20  N   UNL     1      -6.064  18.002  69.153  1.00  0.00    -0.222 NA 
HETATM   21  C   UNL     1      -7.297  17.599  68.803  1.00  0.00    -0.261 A  
BRANCH  21  22
HETATM   22  C   UNL     1      -8.213  18.574  68.187  1.00  0.00    -0.315 A  
HETATM   23  C   UNL     1      -7.966  19.039  66.884  1.00  0.00    -0.270 A  
HETATM   24  C   UNL     1      -8.871  19.891  66.241  1.00  0.00    -0.402 A  
HETATM   25  C   UNL     1     -10.043  20.275  66.885  1.00  0.00    -0.565 A  
HETATM   26  C   UNL     1     -10.280  19.863  68.194  1.00  0.00    -0.564 A  
HETATM   27  C   UNL     1      -9.350  19.053  68.852  1.00  0.00    -0.362 A  
ENDBRANCH  21  22
ENDBRANCH  13  16
ENDBRANCH   7  10
ENDBRANCH   5   7
ENDBRANCH   2   3
TORSDOF 5
ENDMDL
MODEL       70
REMARK 921   NORMALIZED FREE ENERGY PREDICTED BY IDOCK:   -5.71 KCAL/MOL
REMARK 922        TOTAL FREE ENERGY PREDICTED BY IDOCK:   -8.46 KCAL/MOL
REMARK 923 INTER-LIGAND FREE ENERGY PREDICTED BY IDOCK:   -7.49 KCAL/MOL
REMARK 924 INTRA-LIGAND FREE ENERGY PREDICTED BY IDOCK:   -0.96 KCAL/MOL
REMARK 927      BINDING AFFINITY PREDICTED BY RF-SCORE:    0.00 PKD
ROOT
HETATM    1  C   UNL     1     -14.309   8.686  72.014  1.00  0.00    -0.512 C  
HETATM    2  C   UNL     1     -13.761   7.337  71.588  1.00  0.00    -0.446 C  
ENDROOT
BRANCH   2   3
HETATM    3  C   UNL     1     -12.285   7.453  71.284  1.00  0.00    -0.341 C  
HETATM    4  O   UNL     1     -11.660   8.477  71.518  1.00  0.00    -0.263 OA 
HETATM    5  N   UNL     1     -11.691   6.282  70.795  1.00  0.00    -0.297 N  
HETATM    6  H   UNL     1     -12.290   5.464  70.689  1.00  0.00     0.000 HD 
BRANCH   5   7
HETATM    7  S   UNL     1     -10.093   6.115  70.375  1.00  0.00    -0.197 S  
HETATM    8  O   UNL     1      -9.343   6.693  71.476  1.00  0.00    -0.154 OA 
HETATM    9  O   UNL     1      -9.835   4.757  69.940  1.00  0.00    -0.185 OA 
BRANCH   7  10
HETATM   10  C   UNL     1      -9.932   7.212  68.991  1.00  0.00    -0.174 A  
HETATM   11  C   UNL     1     -10.768   7.059  67.885  1.00  0.00    -0.274 A  
HETATM   12  C   UNL     1     -10.494   7.770  66.709  1.00  0.00    -0.318 A  
HETATM   13  C   UNL     1      -9.421   8.673  66.644  1.00  0.00    -0.267 A  
HETATM   14  C   UNL     1      -8.723   8.945  67.833  1.00  0.00    -0.129 A  
HETATM   15  C   UNL     1      -8.947   8.194  68.992  1.00  0.00    -0.144 A  
BRANCH  13  16
HETATM   16  C   UNL     1      -8.937   9.209  65.368  1.00  0.00    -0.255 A  
HETATM   17  C   UNL     1      -7.815   8.782  64.672  1.00  0.00    -0.127 A  
HETATM   18  C   UNL     1      -6.748   7.772  64.825  1.00  0.00    -0.050 C  
HETATM   19  O   UNL     1      -7.684   9.519  63.540  1.00  0.00    -0.114 OA 
HETATM   20  N   UNL     1      -8.674  10.457  63.464  1.00  0.00    -0.186 NA 
HETATM   21  C   UNL     1      -9.429  10.316  64.566  1.00  0.00    -0.298 A  
BRANCH  21  22
HETATM   22  C   UNL     1     -10.565  11.230  64.768  1.00  0.00    -0.376 A  
HETATM   23  C   UNL     1     -10.807  11.775  66.041  1.00  0.00    -0.343 A  
HETATM   24  C   UNL     1     -11.820  12.718  66.239  1.00  0.00    -0.485 A  
HETATM   25  C   UNL     1     -12.595  13.144  65.164  1.00  0.00    -0.525 A  
HETATM   26  C   UNL     1     -12.401  12.580  63.906  1.00  0.00    -0.576 A  
HETATM   27  C   UNL     1     -11.421  11.599  63.721  1.00  0.00    -0.457 A  
ENDBRANCH  21  22
ENDBRANCH  13  16
ENDBRANCH   7  10
ENDBRANCH   5   7
ENDBRANCH   2   3
TORSDOF 5
ENDMDL
MODEL       71
REMARK 921   NORMALIZED FREE ENERGY PREDICTED BY IDOCK:   -5.70 KCAL/MOL
REMARK 922        TOTAL FREE ENERGY PREDICTED BY IDOCK:   -8.44 KCAL/MOL
REMARK 923 INTER-LIGAND FREE ENERGY PREDICTED BY IDOCK:   -7.61 KCAL/MOL
REMARK 924 INTRA-LIGAND FREE ENERGY PREDICTED BY IDOCK:   -0.83 KCAL/MOL
REMARK 927      BINDING AFFINITY PREDICTED BY RF-SCORE:    0.00 PKD
ROOT
HETATM    1  C   UNL     1      -7.570   4.808  64.937  1.00  0.00    -0.077 C  
HETATM    2  C   UNL     1      -8.510   5.935  65.319  1.00  0.00    -0.144 C  
ENDROOT
BRANCH   2   3
HETATM    3  C   UNL     1      -8.170   7.180  64.533  1.00  0.00     0.000 C  
HETATM    4  O   UNL     1      -7.409   7.146  63.577  1.00  0.00    -0.069 OA 
HETATM    5  N   UNL     1      -8.850   8.336  64.936  1.00  0.00    -0.409 N  
HETATM    6  H   UNL     1      -9.507   8.245  65.710  1.00  0.00     0.000 HD 
BRANCH   5   7
HETATM    7  S   UNL     1      -8.677   9.843  64.259  1.00  0.00    -0.228 S  
HETATM    8  O   UNL     1      -7.249  10.104  64.262  1.00  0.00    -0.135 OA 
HETATM    9  O   UNL     1      -9.439   9.924  63.029  1.00  0.00    -0.276 OA 
BRANCH   7  10
HETATM   10  C   UNL     1      -9.412  10.906  65.473  1.00  0.00    -0.211 A  
HETATM   11  C   UNL     1     -10.765  11.231  65.382  1.00  0.00    -0.291 A  
HETATM   12  C   UNL     1     -11.289  12.242  66.198  1.00  0.00    -0.402 A  
HETATM   13  C   UNL     1     -10.485  12.897  67.143  1.00  0.00    -0.241 A  
HETATM   14  C   UNL     1      -9.181  12.411  67.341  1.00  0.00    -0.184 A  
HETATM   15  C   UNL     1      -8.630  11.448  66.488  1.00  0.00    -0.175 A  
BRANCH  13  16
HETATM   16  C   UNL     1     -10.916  14.135  67.801  1.00  0.00    -0.274 A  
HETATM   17  C   UNL     1     -10.697  15.426  67.344  1.00  0.00    -0.296 A  
HETATM   18  C   UNL     1     -10.052  16.087  66.191  1.00  0.00    -0.346 C  
HETATM   19  O   UNL     1     -11.235  16.309  68.223  1.00  0.00    -0.352 OA 
HETATM   20  N   UNL     1     -11.788  15.650  69.283  1.00  0.00    -0.371 NA 
HETATM   21  C   UNL     1     -11.586  14.338  69.074  1.00  0.00    -0.305 A  
BRANCH  21  22
HETATM   22  C   UNL     1     -12.055  13.379  70.088  1.00  0.00    -0.415 A  
HETATM   23  C   UNL     1     -12.787  13.835  71.197  1.00  0.00    -0.409 A  
HETATM   24  C   UNL     1     -13.325  12.936  72.123  1.00  0.00    -0.615 A  
HETATM   25  C   UNL     1     -13.153  11.567  71.944  1.00  0.00    -0.492 A  
HETATM   26  C   UNL     1     -12.390  11.099  70.878  1.00  0.00    -0.500 A  
HETATM   27  C   UNL     1     -11.811  12.003  69.982  1.00  0.00    -0.392 A  
ENDBRANCH  21  22
ENDBRANCH  13  16
ENDBRANCH   7  10
ENDBRANCH   5   7
ENDBRANCH   2   3
TORSDOF 5
ENDMDL
MODEL       72
REMARK 921   NORMALIZED FREE ENERGY PREDICTED BY IDOCK:   -5.68 KCAL/MOL
REMARK 922        TOTAL FREE ENERGY PREDICTED BY IDOCK:   -8.42 KCAL/MOL
REMARK 923 INTER-LIGAND FREE ENERGY PREDICTED BY IDOCK:   -7.23 KCAL/MOL
REMARK 924 INTRA-LIGAND FREE ENERGY PREDICTED BY IDOCK:   -1.19 KCAL/MOL
REMARK 927      BINDING AFFINITY PREDICTED BY RF-SCORE:    0.00 PKD
ROOT
HETATM    1  C   UNL     1      -7.740   6.038  66.923  1.00  0.00    -0.100 C  
HETATM    2  C   UNL     1      -9.200   6.238  67.285  1.00  0.00    -0.119 C  
ENDROOT
BRANCH   2   3
HETATM    3  C   UNL     1      -9.687   7.565  66.752  1.00  0.00    -0.216 C  
HETATM    4  O   UNL     1     -10.874   7.858  66.747  1.00  0.00    -0.234 OA 
HETATM    5  N   UNL     1      -8.675   8.445  66.347  1.00  0.00    -0.132 N  
HETATM    6  H   UNL     1      -7.712   8.125  66.445  1.00  0.00     0.000 HD 
BRANCH   5   7
HETATM    7  S   UNL     1      -8.912   9.965  65.721  1.00  0.00    -0.167 S  
HETATM    8  O   UNL     1      -7.584  10.537  65.589  1.00  0.00    -0.148 OA 
HETATM    9  O   UNL     1      -9.803   9.899  64.581  1.00  0.00    -0.285 OA 
BRANCH   7  10
HETATM   10  C   UNL     1      -9.724  10.816  67.049  1.00  0.00    -0.176 A  
HETATM   11  C   UNL     1      -9.165  10.801  68.326  1.00  0.00    -0.157 A  
HETATM   12  C   UNL     1      -9.913  11.273  69.413  1.00  0.00     0.134 A  
HETATM   13  C   UNL     1     -11.197  11.807  69.228  1.00  0.00    -0.318 A  
HETATM   14  C   UNL     1     -11.648  11.983  67.910  1.00  0.00    -0.405 A  
HETATM   15  C   UNL     1     -10.938  11.458  66.825  1.00  0.00    -0.347 A  
BRANCH  13  16
HETATM   16  C   UNL     1     -12.108  12.039  70.355  1.00  0.00    -0.407 A  
HETATM   17  C   UNL     1     -12.570  13.270  70.795  1.00  0.00    -0.280 A  
HETATM   18  C   UNL     1     -12.418  14.694  70.430  1.00  0.00    -0.410 C  
HETATM   19  O   UNL     1     -13.387  13.086  71.863  1.00  0.00    -0.446 OA 
HETATM   20  N   UNL     1     -13.467  11.760  72.179  1.00  0.00    -0.349 NA 
HETATM   21  C   UNL     1     -12.684  11.104  71.306  1.00  0.00    -0.426 A  
BRANCH  21  22
HETATM   22  C   UNL     1     -12.551   9.643  71.432  1.00  0.00    -0.463 A  
HETATM   23  C   UNL     1     -11.307   9.079  71.763  1.00  0.00    -0.447 A  
HETATM   24  C   UNL     1     -11.176   7.704  71.982  1.00  0.00    -0.317 A  
HETATM   25  C   UNL     1     -12.290   6.875  71.890  1.00  0.00    -0.364 A  
HETATM   26  C   UNL     1     -13.520   7.410  71.516  1.00  0.00    -0.445 A  
HETATM   27  C   UNL     1     -13.637   8.777  71.248  1.00  0.00    -0.204 A  
ENDBRANCH  21  22
ENDBRANCH  13  16
ENDBRANCH   7  10
ENDBRANCH   5   7
ENDBRANCH   2   3
TORSDOF 5
ENDMDL
MODEL       73
REMARK 921   NORMALIZED FREE ENERGY PREDICTED BY IDOCK:   -5.63 KCAL/MOL
REMARK 922        TOTAL FREE ENERGY PREDICTED BY IDOCK:   -8.36 KCAL/MOL
REMARK 923 INTER-LIGAND FREE ENERGY PREDICTED BY IDOCK:   -7.81 KCAL/MOL
REMARK 924 INTRA-LIGAND FREE ENERGY PREDICTED BY IDOCK:   -0.55 KCAL/MOL
REMARK 927      BINDING AFFINITY PREDICTED BY RF-SCORE:    0.00 PKD
ROOT
HETATM    1  C   UNL     1      -7.878   7.362  63.947  1.00  0.00    -0.117 C  
HETATM    2  C   UNL     1      -8.630   8.336  64.834  1.00  0.00    -0.075 C  
ENDROOT
BRANCH   2   3
HETATM    3  C   UNL     1      -9.109   9.514  64.018  1.00  0.00    -0.135 C  
HETATM    4  O   UNL     1      -8.721   9.701  62.874  1.00  0.00    -0.193 OA 
HETATM    5  N   UNL     1     -10.078  10.309  64.643  1.00  0.00    -0.321 N  
HETATM    6  H   UNL     1     -10.376  10.033  65.578  1.00  0.00     0.000 HD 
BRANCH   5   7
HETATM    7  S   UNL     1     -10.783  11.663  63.989  1.00  0.00    -0.420 S  
HETATM    8  O   UNL     1      -9.817  12.177  63.034  1.00  0.00    -0.365 OA 
HETATM    9  O   UNL     1     -12.140  11.366  63.578  1.00  0.00    -0.218 OA 
BRANCH   7  10
HETATM   10  C   UNL     1     -10.821  12.787  65.361  1.00  0.00    -0.286 A  
HETATM   11  C   UNL     1     -11.952  13.572  65.583  1.00  0.00    -0.429 A  
HETATM   12  C   UNL     1     -11.897  14.614  66.518  1.00  0.00    -0.317 A  
HETATM   13  C   UNL     1     -10.737  14.847  67.272  1.00  0.00    -0.294 A  
HETATM   14  C   UNL     1      -9.688  13.919  67.162  1.00  0.00    -0.244 A  
HETATM   15  C   UNL     1      -9.708  12.916  66.186  1.00  0.00    -0.250 A  
BRANCH  13  16
HETATM   16  C   UNL     1     -10.547  16.084  68.037  1.00  0.00    -0.295 A  
HETATM   17  C   UNL     1      -9.909  17.233  67.594  1.00  0.00    -0.279 A  
HETATM   18  C   UNL     1      -9.232  17.709  66.371  1.00  0.00    -0.263 C  
HETATM   19  O   UNL     1      -9.924  18.162  68.583  1.00  0.00    -0.364 OA 
HETATM   20  N   UNL     1     -10.530  17.662  69.700  1.00  0.00     0.110 NA 
HETATM   21  C   UNL     1     -10.891  16.400  69.413  1.00  0.00    -0.327 A  
BRANCH  21  22
HETATM   22  C   UNL     1     -11.546  15.596  70.458  1.00  0.00    -0.383 A  
HETATM   23  C   UNL     1     -11.864  16.182  71.696  1.00  0.00    -0.557 A  
HETATM   24  C   UNL     1     -12.571  15.469  72.670  1.00  0.00    -0.504 A  
HETATM   25  C   UNL     1     -12.985  14.165  72.414  1.00  0.00    -0.478 A  
HETATM   26  C   UNL     1     -12.637  13.552  71.213  1.00  0.00    -0.427 A  
HETATM   27  C   UNL     1     -11.887  14.251  70.262  1.00  0.00    -0.377 A  
ENDBRANCH  21  22
ENDBRANCH  13  16
ENDBRANCH   7  10
ENDBRANCH   5   7
ENDBRANCH   2   3
TORSDOF 5
ENDMDL
MODEL       74
REMARK 921   NORMALIZED FREE ENERGY PREDICTED BY IDOCK:   -5.63 KCAL/MOL
REMARK 922        TOTAL FREE ENERGY PREDICTED BY IDOCK:   -8.35 KCAL/MOL
REMARK 923 INTER-LIGAND FREE ENERGY PREDICTED BY IDOCK:   -7.75 KCAL/MOL
REMARK 924 INTRA-LIGAND FREE ENERGY PREDICTED BY IDOCK:   -0.61 KCAL/MOL
REMARK 927      BINDING AFFINITY PREDICTED BY RF-SCORE:    0.00 PKD
ROOT
HETATM    1  C   UNL     1      -9.831  17.290  67.226  1.00  0.00    -0.267 C  
HETATM    2  C   UNL     1     -10.034  16.653  65.864  1.00  0.00    -0.320 C  
ENDROOT
BRANCH   2   3
HETATM    3  C   UNL     1     -11.024  15.516  65.969  1.00  0.00    -0.251 C  
HETATM    4  O   UNL     1     -11.578  15.243  67.024  1.00  0.00    -0.245 OA 
HETATM    5  N   UNL     1     -11.306  14.866  64.761  1.00  0.00    -0.489 N  
HETATM    6  H   UNL     1     -10.831  15.209  63.925  1.00  0.00     0.000 HD 
BRANCH   5   7
HETATM    7  S   UNL     1     -12.348  13.587  64.573  1.00  0.00    -0.326 S  
HETATM    8  O   UNL     1     -13.505  13.910  65.389  1.00  0.00    -0.672 OA 
HETATM    9  O   UNL     1     -12.501  13.275  63.166  1.00  0.00    -0.696 OA 
BRANCH   7  10
HETATM   10  C   UNL     1     -11.489  12.259  65.375  1.00  0.00    -0.354 A  
HETATM   11  C   UNL     1     -11.639  12.065  66.748  1.00  0.00    -0.391 A  
HETATM   12  C   UNL     1     -10.793  11.170  67.415  1.00  0.00    -0.317 A  
HETATM   13  C   UNL     1      -9.831  10.426  66.715  1.00  0.00    -0.242 A  
HETATM   14  C   UNL     1      -9.840  10.503  65.312  1.00  0.00    -0.345 A  
HETATM   15  C   UNL     1     -10.635  11.440  64.643  1.00  0.00    -0.380 A  
BRANCH  13  16
HETATM   16  C   UNL     1      -8.754   9.708  67.405  1.00  0.00    -0.130 A  
HETATM   17  C   UNL     1      -7.401   9.779  67.111  1.00  0.00    -0.087 A  
HETATM   18  C   UNL     1      -6.523  10.476  66.149  1.00  0.00    -0.122 C  
HETATM   19  O   UNL     1      -6.716   8.970  67.958  1.00  0.00    -0.066 OA 
HETATM   20  N   UNL     1      -7.575   8.326  68.802  1.00  0.00    -0.099 NA 
HETATM   21  C   UNL     1      -8.814   8.727  68.475  1.00  0.00    -0.138 A  
BRANCH  21  22
HETATM   22  C   UNL     1      -9.959   8.161  69.209  1.00  0.00    -0.188 A  
HETATM   23  C   UNL     1     -10.444   6.885  68.872  1.00  0.00    -0.225 A  
HETATM   24  C   UNL     1     -11.466   6.286  69.615  1.00  0.00    -0.425 A  
HETATM   25  C   UNL     1     -12.006   6.945  70.715  1.00  0.00    -0.424 A  
HETATM   26  C   UNL     1     -11.571   8.228  71.034  1.00  0.00    -0.301 A  
HETATM   27  C   UNL     1     -10.584   8.846  70.259  1.00  0.00    -0.246 A  
ENDBRANCH  21  22
ENDBRANCH  13  16
ENDBRANCH   7  10
ENDBRANCH   5   7
ENDBRANCH   2   3
TORSDOF 5
ENDMDL
MODEL       75
REMARK 921   NORMALIZED FREE ENERGY PREDICTED BY IDOCK:   -5.61 KCAL/MOL
REMARK 922        TOTAL FREE ENERGY PREDICTED BY IDOCK:   -8.33 KCAL/MOL
REMARK 923 INTER-LIGAND FREE ENERGY PREDICTED BY IDOCK:   -7.61 KCAL/MOL
REMARK 924 INTRA-LIGAND FREE ENERGY PREDICTED BY IDOCK:   -0.72 KCAL/MOL
REMARK 927      BINDING AFFINITY PREDICTED BY RF-SCORE:    0.00 PKD
ROOT
HETATM    1  C   UNL     1      -8.062   4.979  65.590  1.00  0.00    -0.113 C  
HETATM    2  C   UNL     1      -7.766   6.024  66.650  1.00  0.00    -0.103 C  
ENDROOT
BRANCH   2   3
HETATM    3  C   UNL     1      -8.557   7.280  66.370  1.00  0.00    -0.138 C  
HETATM    4  O   UNL     1      -9.779   7.274  66.333  1.00  0.00    -0.164 OA 
HETATM    5  N   UNL     1      -7.789   8.444  66.241  1.00  0.00    -0.096 N  
HETATM    6  H   UNL     1      -6.779   8.351  66.346  1.00  0.00     0.000 HD 
BRANCH   5   7
HETATM    7  S   UNL     1      -8.384   9.964  65.933  1.00  0.00    -0.127 S  
HETATM    8  O   UNL     1      -7.233  10.848  65.998  1.00  0.00    -0.134 OA 
HETATM    9  O   UNL     1      -9.227   9.936  64.756  1.00  0.00    -0.219 OA 
BRANCH   7  10
HETATM   10  C   UNL     1      -9.384  10.292  67.361  1.00  0.00    -0.145 A  
HETATM   11  C   UNL     1      -8.837  10.160  68.636  1.00  0.00    -0.136 A  
HETATM   12  C   UNL     1      -9.678  10.195  69.756  1.00  0.00    -0.232 A  
HETATM   13  C   UNL     1     -11.057  10.413  69.617  1.00  0.00    -0.328 A  
HETATM   14  C   UNL     1     -11.542  10.735  68.338  1.00  0.00    -0.311 A  
HETATM   15  C   UNL     1     -10.723  10.638  67.207  1.00  0.00    -0.338 A  
BRANCH  13  16
HETATM   16  C   UNL     1     -11.994  10.173  70.720  1.00  0.00    -0.442 A  
HETATM   17  C   UNL     1     -12.359   8.937  71.231  1.00  0.00    -0.291 A  
HETATM   18  C   UNL     1     -12.052   7.513  70.983  1.00  0.00    -0.305 C  
HETATM   19  O   UNL     1     -13.249   9.116  72.240  1.00  0.00    -0.408 OA 
HETATM   20  N   UNL     1     -13.522  10.443  72.406  1.00  0.00    -0.134 NA 
HETATM   21  C   UNL     1     -12.803  11.106  71.484  1.00  0.00    -0.437 A  
BRANCH  21  22
HETATM   22  C   UNL     1     -12.928  12.571  71.409  1.00  0.00    -0.347 A  
HETATM   23  C   UNL     1     -12.239  13.281  70.410  1.00  0.00    -0.404 A  
HETATM   24  C   UNL     1     -12.414  14.660  70.257  1.00  0.00    -0.401 A  
HETATM   25  C   UNL     1     -13.294  15.347  71.088  1.00  0.00    -0.580 A  
HETATM   26  C   UNL     1     -13.948  14.668  72.114  1.00  0.00    -0.591 A  
HETATM   27  C   UNL     1     -13.732  13.299  72.296  1.00  0.00    -0.686 A  
ENDBRANCH  21  22
ENDBRANCH  13  16
ENDBRANCH   7  10
ENDBRANCH   5   7
ENDBRANCH   2   3
TORSDOF 5
ENDMDL
MODEL       76
REMARK 921   NORMALIZED FREE ENERGY PREDICTED BY IDOCK:   -5.59 KCAL/MOL
REMARK 922        TOTAL FREE ENERGY PREDICTED BY IDOCK:   -8.30 KCAL/MOL
REMARK 923 INTER-LIGAND FREE ENERGY PREDICTED BY IDOCK:   -7.47 KCAL/MOL
REMARK 924 INTRA-LIGAND FREE ENERGY PREDICTED BY IDOCK:   -0.83 KCAL/MOL
REMARK 927      BINDING AFFINITY PREDICTED BY RF-SCORE:    0.00 PKD
ROOT
HETATM    1  C   UNL     1     -11.708  11.862  63.470  1.00  0.00    -0.550 C  
HETATM    2  C   UNL     1     -12.842  12.432  64.301  1.00  0.00    -0.356 C  
ENDROOT
BRANCH   2   3
HETATM    3  C   UNL     1     -12.285  13.259  65.436  1.00  0.00    -0.456 C  
HETATM    4  O   UNL     1     -12.152  14.471  65.341  1.00  0.00    -0.365 OA 
HETATM    5  N   UNL     1     -12.016  12.544  66.610  1.00  0.00    -0.355 N  
HETATM    6  H   UNL     1     -12.216  11.544  66.603  1.00  0.00     0.000 HD 
BRANCH   5   7
HETATM    7  S   UNL     1     -11.400  13.187  68.012  1.00  0.00    -0.314 S  
HETATM    8  O   UNL     1     -10.045  13.593  67.686  1.00  0.00    -0.235 OA 
HETATM    9  O   UNL     1     -12.338  14.136  68.576  1.00  0.00    -0.244 OA 
BRANCH   7  10
HETATM   10  C   UNL     1     -11.288  11.773  69.077  1.00  0.00    -0.278 A  
HETATM   11  C   UNL     1     -10.466  10.703  68.725  1.00  0.00    -0.215 A  
HETATM   12  C   UNL     1     -10.550   9.502  69.441  1.00  0.00    -0.235 A  
HETATM   13  C   UNL     1     -11.414   9.376  70.540  1.00  0.00    -0.317 A  
HETATM   14  C   UNL     1     -12.080  10.530  70.983  1.00  0.00    -0.492 A  
HETATM   15  C   UNL     1     -12.052  11.714  70.238  1.00  0.00    -0.443 A  
BRANCH  13  16
HETATM   16  C   UNL     1     -11.737   8.070  71.124  1.00  0.00    -0.307 A  
HETATM   17  C   UNL     1     -12.979   7.664  71.589  1.00  0.00    -0.350 A  
HETATM   18  C   UNL     1     -14.341   8.222  71.708  1.00  0.00    -0.574 C  
HETATM   19  O   UNL     1     -12.887   6.396  72.064  1.00  0.00    -0.242 OA 
HETATM   20  N   UNL     1     -11.603   5.940  71.961  1.00  0.00    -0.268 NA 
HETATM   21  C   UNL     1     -10.879   6.937  71.425  1.00  0.00    -0.228 A  
BRANCH  21  22
HETATM   22  C   UNL     1      -9.434   6.735  71.228  1.00  0.00    -0.166 A  
HETATM   23  C   UNL     1      -8.517   7.324  72.115  1.00  0.00    -0.117 A  
HETATM   24  C   UNL     1      -7.146   7.071  72.007  1.00  0.00    -0.073 A  
HETATM   25  C   UNL     1      -6.673   6.211  71.020  1.00  0.00    -0.061 A  
HETATM   26  C   UNL     1      -7.561   5.656  70.102  1.00  0.00    -0.085 A  
HETATM   27  C   UNL     1      -8.926   5.952  70.182  1.00  0.00    -0.148 A  
ENDBRANCH  21  22
ENDBRANCH  13  16
ENDBRANCH   7  10
ENDBRANCH   5   7
ENDBRANCH   2   3
TORSDOF 5
ENDMDL
MODEL       77
REMARK 921   NORMALIZED FREE ENERGY PREDICTED BY IDOCK:   -5.58 KCAL/MOL
REMARK 922        TOTAL FREE ENERGY PREDICTED BY IDOCK:   -8.29 KCAL/MOL
REMARK 923 INTER-LIGAND FREE ENERGY PREDICTED BY IDOCK:   -7.16 KCAL/MOL
REMARK 924 INTRA-LIGAND FREE ENERGY PREDICTED BY IDOCK:   -1.13 KCAL/MOL
REMARK 927      BINDING AFFINITY PREDICTED BY RF-SCORE:    0.00 PKD
ROOT
HETATM    1  C   UNL     1     -12.554  12.050  63.372  1.00  0.00    -0.592 C  
HETATM    2  C   UNL     1     -11.995  13.322  63.981  1.00  0.00    -0.525 C  
ENDROOT
BRANCH   2   3
HETATM    3  C   UNL     1     -11.947  13.196  65.486  1.00  0.00    -0.412 C  
HETATM    4  O   UNL     1     -12.592  13.938  66.212  1.00  0.00    -0.435 OA 
HETATM    5  N   UNL     1     -11.180  12.126  65.964  1.00  0.00    -0.322 N  
HETATM    6  H   UNL     1     -10.727  11.531  65.271  1.00  0.00     0.000 HD 
BRANCH   5   7
HETATM    7  S   UNL     1     -10.947  11.745  67.564  1.00  0.00    -0.274 S  
HETATM    8  O   UNL     1      -9.999  12.728  68.059  1.00  0.00    -0.212 OA 
HETATM    9  O   UNL     1     -12.224  11.556  68.220  1.00  0.00    -0.561 OA 
BRANCH   7  10
HETATM   10  C   UNL     1     -10.099  10.189  67.477  1.00  0.00    -0.201 A  
HETATM   11  C   UNL     1     -10.346   9.323  66.413  1.00  0.00    -0.238 A  
HETATM   12  C   UNL     1      -9.857   8.011  66.462  1.00  0.00    -0.289 A  
HETATM   13  C   UNL     1      -9.077   7.571  67.542  1.00  0.00    -0.130 A  
HETATM   14  C   UNL     1      -8.687   8.525  68.498  1.00  0.00    -0.139 A  
HETATM   15  C   UNL     1      -9.223   9.817  68.492  1.00  0.00    -0.134 A  
BRANCH  13  16
HETATM   16  C   UNL     1      -8.795   6.149  67.765  1.00  0.00    -0.110 A  
HETATM   17  C   UNL     1      -8.020   5.331  66.956  1.00  0.00    -0.101 A  
HETATM   18  C   UNL     1      -7.236   5.446  65.709  1.00  0.00    -0.069 C  
HETATM   19  O   UNL     1      -7.995   4.079  67.480  1.00  0.00    -0.089 OA 
HETATM   20  N   UNL     1      -8.759   4.019  68.610  1.00  0.00    -0.094 NA 
HETATM   21  C   UNL     1      -9.280   5.244  68.792  1.00  0.00    -0.116 A  
BRANCH  21  22
HETATM   22  C   UNL     1     -10.184   5.466  69.933  1.00  0.00    -0.351 A  
HETATM   23  C   UNL     1      -9.950   4.805  71.151  1.00  0.00    -0.273 A  
HETATM   24  C   UNL     1     -10.737   5.071  72.276  1.00  0.00    -0.246 A  
HETATM   25  C   UNL     1     -11.758   6.014  72.205  1.00  0.00    -0.338 A  
HETATM   26  C   UNL     1     -12.035   6.643  70.994  1.00  0.00    -0.415 A  
HETATM   27  C   UNL     1     -11.280   6.338  69.858  1.00  0.00    -0.498 A  
ENDBRANCH  21  22
ENDBRANCH  13  16
ENDBRANCH   7  10
ENDBRANCH   5   7
ENDBRANCH   2   3
TORSDOF 5
ENDMDL
MODEL       78
REMARK 921   NORMALIZED FREE ENERGY PREDICTED BY IDOCK:   -5.58 KCAL/MOL
REMARK 922        TOTAL FREE ENERGY PREDICTED BY IDOCK:   -8.29 KCAL/MOL
REMARK 923 INTER-LIGAND FREE ENERGY PREDICTED BY IDOCK:   -7.73 KCAL/MOL
REMARK 924 INTRA-LIGAND FREE ENERGY PREDICTED BY IDOCK:   -0.55 KCAL/MOL
REMARK 927      BINDING AFFINITY PREDICTED BY RF-SCORE:    0.00 PKD
ROOT
HETATM    1  C   UNL     1      -9.955  17.365  67.726  1.00  0.00    -0.301 C  
HETATM    2  C   UNL     1      -9.697  16.535  66.483  1.00  0.00    -0.290 C  
ENDROOT
BRANCH   2   3
HETATM    3  C   UNL     1     -10.752  15.461  66.351  1.00  0.00    -0.311 C  
HETATM    4  O   UNL     1     -11.293  14.970  67.331  1.00  0.00    -0.329 OA 
HETATM    5  N   UNL     1     -11.106  15.140  65.035  1.00  0.00    -0.398 N  
HETATM    6  H   UNL     1     -10.633  15.649  64.287  1.00  0.00     0.000 HD 
BRANCH   5   7
HETATM    7  S   UNL     1     -12.229  14.002  64.587  1.00  0.00    -0.421 S  
HETATM    8  O   UNL     1     -13.217  13.998  65.651  1.00  0.00    -0.634 OA 
HETATM    9  O   UNL     1     -12.629  14.215  63.211  1.00  0.00    -0.766 OA 
BRANCH   7  10
HETATM   10  C   UNL     1     -11.319  12.484  64.702  1.00  0.00    -0.318 A  
HETATM   11  C   UNL     1     -11.140  11.876  65.944  1.00  0.00    -0.365 A  
HETATM   12  C   UNL     1     -10.238  10.811  66.068  1.00  0.00    -0.310 A  
HETATM   13  C   UNL     1      -9.550  10.314  64.950  1.00  0.00    -0.365 A  
HETATM   14  C   UNL     1      -9.900  10.822  63.688  1.00  0.00    -0.406 A  
HETATM   15  C   UNL     1     -10.750  11.926  63.562  1.00  0.00    -0.504 A  
BRANCH  13  16
HETATM   16  C   UNL     1      -8.403   9.409  65.087  1.00  0.00    -0.151 A  
HETATM   17  C   UNL     1      -7.212   9.482  64.381  1.00  0.00    -0.111 A  
HETATM   18  C   UNL     1      -6.605  10.337  63.340  1.00  0.00    -0.104 C  
HETATM   19  O   UNL     1      -6.396   8.472  64.774  1.00  0.00    -0.064 OA 
HETATM   20  N   UNL     1      -7.016   7.694  65.710  1.00  0.00    -0.059 NA 
HETATM   21  C   UNL     1      -8.240   8.216  65.899  1.00  0.00    -0.122 A  
BRANCH  21  22
HETATM   22  C   UNL     1      -9.154   7.552  66.844  1.00  0.00    -0.166 A  
HETATM   23  C   UNL     1      -9.273   8.036  68.158  1.00  0.00    -0.134 A  
HETATM   24  C   UNL     1     -10.203   7.484  69.046  1.00  0.00    -0.208 A  
HETATM   25  C   UNL     1     -11.039   6.453  68.627  1.00  0.00    -0.393 A  
HETATM   26  C   UNL     1     -10.901   5.930  67.344  1.00  0.00    -0.341 A  
HETATM   27  C   UNL     1      -9.936   6.449  66.476  1.00  0.00    -0.162 A  
ENDBRANCH  21  22
ENDBRANCH  13  16
ENDBRANCH   7  10
ENDBRANCH   5   7
ENDBRANCH   2   3
TORSDOF 5
ENDMDL
MODEL       79
REMARK 921   NORMALIZED FREE ENERGY PREDICTED BY IDOCK:   -5.57 KCAL/MOL
REMARK 922        TOTAL FREE ENERGY PREDICTED BY IDOCK:   -8.28 KCAL/MOL
REMARK 923 INTER-LIGAND FREE ENERGY PREDICTED BY IDOCK:   -7.11 KCAL/MOL
REMARK 924 INTRA-LIGAND FREE ENERGY PREDICTED BY IDOCK:   -1.17 KCAL/MOL
REMARK 927      BINDING AFFINITY PREDICTED BY RF-SCORE:    0.00 PKD
ROOT
HETATM    1  C   UNL     1     -12.334  11.973  63.499  1.00  0.00    -0.661 C  
HETATM    2  C   UNL     1     -11.139  11.485  64.295  1.00  0.00    -0.385 C  
ENDROOT
BRANCH   2   3
HETATM    3  C   UNL     1     -10.944  12.353  65.517  1.00  0.00    -0.293 C  
HETATM    4  O   UNL     1     -10.884  13.572  65.435  1.00  0.00    -0.282 OA 
HETATM    5  N   UNL     1     -10.918  11.661  66.734  1.00  0.00    -0.278 N  
HETATM    6  H   UNL     1     -11.033  10.648  66.697  1.00  0.00     0.000 HD 
BRANCH   5   7
HETATM    7  S   UNL     1     -10.717  12.349  68.232  1.00  0.00    -0.239 S  
HETATM    8  O   UNL     1      -9.428  13.016  68.179  1.00  0.00    -0.210 OA 
HETATM    9  O   UNL     1     -11.911  13.080  68.605  1.00  0.00    -0.319 OA 
BRANCH   7  10
HETATM   10  C   UNL     1     -10.541  10.939  69.292  1.00  0.00    -0.217 A  
HETATM   11  C   UNL     1      -9.352  10.211  69.286  1.00  0.00    -0.227 A  
HETATM   12  C   UNL     1      -9.294   8.976  69.946  1.00  0.00    -0.182 A  
HETATM   13  C   UNL     1     -10.400   8.485  70.657  1.00  0.00    -0.232 A  
HETATM   14  C   UNL     1     -11.511   9.332  70.804  1.00  0.00    -0.351 A  
HETATM   15  C   UNL     1     -11.603  10.536  70.096  1.00  0.00    -0.408 A  
BRANCH  13  16
HETATM   16  C   UNL     1     -10.472   7.092  71.110  1.00  0.00    -0.229 A  
HETATM   17  C   UNL     1     -10.545   6.659  72.425  1.00  0.00    -0.214 A  
HETATM   18  C   UNL     1     -10.582   7.257  73.776  1.00  0.00    -0.255 C  
HETATM   19  O   UNL     1     -10.590   5.303  72.449  1.00  0.00    -0.211 OA 
HETATM   20  N   UNL     1     -10.519   4.801  71.181  1.00  0.00    -0.116 NA 
HETATM   21  C   UNL     1     -10.417   5.853  70.352  1.00  0.00    -0.259 A  
BRANCH  21  22
HETATM   22  C   UNL     1     -10.289   5.606  68.906  1.00  0.00    -0.295 A  
HETATM   23  C   UNL     1      -9.381   4.640  68.439  1.00  0.00    -0.186 A  
HETATM   24  C   UNL     1      -9.309   4.318  67.080  1.00  0.00    -0.184 A  
HETATM   25  C   UNL     1     -10.155   4.944  66.170  1.00  0.00    -0.280 A  
HETATM   26  C   UNL     1     -11.027   5.938  66.608  1.00  0.00    -0.228 A  
HETATM   27  C   UNL     1     -11.062   6.293  67.960  1.00  0.00    -0.365 A  
ENDBRANCH  21  22
ENDBRANCH  13  16
ENDBRANCH   7  10
ENDBRANCH   5   7
ENDBRANCH   2   3
TORSDOF 5
ENDMDL
MODEL       80
REMARK 921   NORMALIZED FREE ENERGY PREDICTED BY IDOCK:   -5.55 KCAL/MOL
REMARK 922        TOTAL FREE ENERGY PREDICTED BY IDOCK:   -8.26 KCAL/MOL
REMARK 923 INTER-LIGAND FREE ENERGY PREDICTED BY IDOCK:   -7.39 KCAL/MOL
REMARK 924 INTRA-LIGAND FREE ENERGY PREDICTED BY IDOCK:   -0.86 KCAL/MOL
REMARK 927      BINDING AFFINITY PREDICTED BY RF-SCORE:    0.00 PKD
ROOT
HETATM    1  C   UNL     1      -6.221   7.223  68.438  1.00  0.00    -0.035 C  
HETATM    2  C   UNL     1      -6.089   8.709  68.163  1.00  0.00    -0.051 C  
ENDROOT
BRANCH   2   3
HETATM    3  C   UNL     1      -7.253   9.453  68.775  1.00  0.00    -0.073 C  
HETATM    4  O   UNL     1      -7.093  10.270  69.670  1.00  0.00    -0.092 OA 
HETATM    5  N   UNL     1      -8.496   9.191  68.185  1.00  0.00    -0.124 N  
HETATM    6  H   UNL     1      -8.513   8.533  67.405  1.00  0.00     0.000 HD 
BRANCH   5   7
HETATM    7  S   UNL     1      -9.944   9.860  68.648  1.00  0.00    -0.172 S  
HETATM    8  O   UNL     1     -10.965   9.017  68.050  1.00  0.00    -0.101 OA 
HETATM    9  O   UNL     1      -9.939  10.114  70.074  1.00  0.00    -0.240 OA 
BRANCH   7  10
HETATM   10  C   UNL     1      -9.958  11.406  67.778  1.00  0.00    -0.178 A  
HETATM   11  C   UNL     1     -10.370  12.566  68.434  1.00  0.00    -0.237 A  
HETATM   12  C   UNL     1     -10.598  13.733  67.694  1.00  0.00    -0.244 A  
HETATM   13  C   UNL     1     -10.370  13.767  66.310  1.00  0.00    -0.294 A  
HETATM   14  C   UNL     1      -9.773  12.641  65.718  1.00  0.00    -0.183 A  
HETATM   15  C   UNL     1      -9.602  11.451  66.434  1.00  0.00    -0.228 A  
BRANCH  13  16
HETATM   16  C   UNL     1     -10.864  14.864  65.470  1.00  0.00    -0.365 A  
HETATM   17  C   UNL     1     -11.654  14.739  64.338  1.00  0.00    -0.295 A  
HETATM   18  C   UNL     1     -12.283  13.656  63.554  1.00  0.00    -0.329 C  
HETATM   19  O   UNL     1     -11.903  15.971  63.827  1.00  0.00    -0.782 OA 
HETATM   20  N   UNL     1     -11.274  16.930  64.568  1.00  0.00    -1.066 NA 
HETATM   21  C   UNL     1     -10.614  16.293  65.549  1.00  0.00    -0.353 A  
BRANCH  21  22
HETATM   22  C   UNL     1      -9.810  17.087  66.493  1.00  0.00    -0.305 A  
HETATM   23  C   UNL     1     -10.435  18.043  67.313  1.00  0.00    -0.390 A  
HETATM   24  C   UNL     1      -9.710  18.742  68.284  1.00  0.00    -0.406 A  
HETATM   25  C   UNL     1      -8.355  18.483  68.461  1.00  0.00    -0.359 A  
HETATM   26  C   UNL     1      -7.709  17.575  67.627  1.00  0.00    -0.207 A  
HETATM   27  C   UNL     1      -8.425  16.915  66.623  1.00  0.00    -0.285 A  
ENDBRANCH  21  22
ENDBRANCH  13  16
ENDBRANCH   7  10
ENDBRANCH   5   7
ENDBRANCH   2   3
TORSDOF 5
ENDMDL
MODEL       81
REMARK 921   NORMALIZED FREE ENERGY PREDICTED BY IDOCK:   -5.55 KCAL/MOL
REMARK 922        TOTAL FREE ENERGY PREDICTED BY IDOCK:   -8.25 KCAL/MOL
REMARK 923 INTER-LIGAND FREE ENERGY PREDICTED BY IDOCK:   -7.08 KCAL/MOL
REMARK 924 INTRA-LIGAND FREE ENERGY PREDICTED BY IDOCK:   -1.17 KCAL/MOL
REMARK 927      BINDING AFFINITY PREDICTED BY RF-SCORE:    0.00 PKD
ROOT
HETATM    1  C   UNL     1      -9.255   3.503  65.746  1.00  0.00    -0.160 C  
HETATM    2  C   UNL     1      -9.821   4.886  66.007  1.00  0.00    -0.219 C  
ENDROOT
BRANCH   2   3
HETATM    3  C   UNL     1      -8.747   5.930  65.802  1.00  0.00    -0.151 C  
HETATM    4  O   UNL     1      -7.682   5.658  65.267  1.00  0.00    -0.081 OA 
HETATM    5  N   UNL     1      -9.102   7.226  66.195  1.00  0.00    -0.277 N  
HETATM    6  H   UNL     1     -10.038   7.358  66.578  1.00  0.00     0.000 HD 
BRANCH   5   7
HETATM    7  S   UNL     1      -8.129   8.568  66.089  1.00  0.00    -0.109 S  
HETATM    8  O   UNL     1      -7.054   8.338  67.038  1.00  0.00    -0.076 OA 
HETATM    9  O   UNL     1      -7.837   8.860  64.701  1.00  0.00    -0.111 OA 
BRANCH   7  10
HETATM   10  C   UNL     1      -9.156   9.852  66.753  1.00  0.00    -0.143 A  
HETATM   11  C   UNL     1      -8.574  11.017  67.252  1.00  0.00    -0.130 A  
HETATM   12  C   UNL     1      -9.356  11.924  67.978  1.00  0.00    -0.193 A  
HETATM   13  C   UNL     1     -10.729  11.704  68.167  1.00  0.00    -0.248 A  
HETATM   14  C   UNL     1     -11.317  10.624  67.487  1.00  0.00    -0.241 A  
HETATM   15  C   UNL     1     -10.535   9.679  66.815  1.00  0.00    -0.257 A  
BRANCH  13  16
HETATM   16  C   UNL     1     -11.508  12.468  69.147  1.00  0.00    -0.361 A  
HETATM   17  C   UNL     1     -11.756  13.832  69.114  1.00  0.00    -0.334 A  
HETATM   18  C   UNL     1     -11.431  14.986  68.249  1.00  0.00    -0.349 C  
HETATM   19  O   UNL     1     -12.506  14.178  70.191  1.00  0.00    -0.343 OA 
HETATM   20  N   UNL     1     -12.749  13.084  70.973  1.00  0.00    -0.309 NA 
HETATM   21  C   UNL     1     -12.136  12.043  70.386  1.00  0.00    -0.321 A  
BRANCH  21  22
HETATM   22  C   UNL     1     -12.203  10.724  71.037  1.00  0.00    -0.485 A  
HETATM   23  C   UNL     1     -11.045   9.933  71.135  1.00  0.00    -0.359 A  
HETATM   24  C   UNL     1     -11.060   8.720  71.831  1.00  0.00    -0.434 A  
HETATM   25  C   UNL     1     -12.228   8.288  72.453  1.00  0.00    -0.412 A  
HETATM   26  C   UNL     1     -13.396   9.035  72.325  1.00  0.00    -0.523 A  
HETATM   27  C   UNL     1     -13.391  10.222  71.586  1.00  0.00    -0.451 A  
ENDBRANCH  21  22
ENDBRANCH  13  16
ENDBRANCH   7  10
ENDBRANCH   5   7
ENDBRANCH   2   3
TORSDOF 5
ENDMDL
MODEL       82
REMARK 921   NORMALIZED FREE ENERGY PREDICTED BY IDOCK:   -5.54 KCAL/MOL
REMARK 922        TOTAL FREE ENERGY PREDICTED BY IDOCK:   -8.24 KCAL/MOL
REMARK 923 INTER-LIGAND FREE ENERGY PREDICTED BY IDOCK:   -7.24 KCAL/MOL
REMARK 924 INTRA-LIGAND FREE ENERGY PREDICTED BY IDOCK:   -1.00 KCAL/MOL
REMARK 927      BINDING AFFINITY PREDICTED BY RF-SCORE:    0.00 PKD
ROOT
HETATM    1  C   UNL     1      -7.313  17.364  66.435  1.00  0.00    -0.340 C  
HETATM    2  C   UNL     1      -8.515  17.077  67.315  1.00  0.00    -0.210 C  
ENDROOT
BRANCH   2   3
HETATM    3  C   UNL     1      -9.564  16.326  66.528  1.00  0.00    -0.264 C  
HETATM    4  O   UNL     1     -10.158  16.845  65.594  1.00  0.00    -0.546 OA 
HETATM    5  N   UNL     1      -9.735  14.987  66.901  1.00  0.00    -0.231 N  
HETATM    6  H   UNL     1      -9.149  14.635  67.658  1.00  0.00     0.000 HD 
BRANCH   5   7
HETATM    7  S   UNL     1     -10.812  13.924  66.217  1.00  0.00    -0.293 S  
HETATM    8  O   UNL     1     -12.070  14.155  66.905  1.00  0.00    -0.430 OA 
HETATM    9  O   UNL     1     -10.737  14.004  64.772  1.00  0.00    -0.394 OA 
BRANCH   7  10
HETATM   10  C   UNL     1     -10.200  12.347  66.747  1.00  0.00    -0.219 A  
HETATM   11  C   UNL     1     -10.841  11.180  66.335  1.00  0.00    -0.284 A  
HETATM   12  C   UNL     1     -10.502   9.958  66.931  1.00  0.00    -0.284 A  
HETATM   13  C   UNL     1      -9.490   9.883  67.900  1.00  0.00    -0.149 A  
HETATM   14  C   UNL     1      -8.735  11.042  68.147  1.00  0.00    -0.141 A  
HETATM   15  C   UNL     1      -9.108  12.278  67.607  1.00  0.00    -0.184 A  
BRANCH  13  16
HETATM   16  C   UNL     1      -9.308   8.694  68.739  1.00  0.00    -0.142 A  
HETATM   17  C   UNL     1      -8.390   7.676  68.531  1.00  0.00    -0.129 A  
HETATM   18  C   UNL     1      -7.334   7.333  67.556  1.00  0.00    -0.092 C  
HETATM   19  O   UNL     1      -8.524   6.745  69.510  1.00  0.00    -0.130 OA 
HETATM   20  N   UNL     1      -9.532   7.092  70.363  1.00  0.00    -0.163 NA 
HETATM   21  C   UNL     1     -10.045   8.248  69.909  1.00  0.00    -0.195 A  
BRANCH  21  22
HETATM   22  C   UNL     1     -11.184   8.847  70.625  1.00  0.00    -0.308 A  
HETATM   23  C   UNL     1     -11.385  10.237  70.581  1.00  0.00    -0.431 A  
HETATM   24  C   UNL     1     -12.510  10.820  71.171  1.00  0.00    -0.519 A  
HETATM   25  C   UNL     1     -13.460  10.021  71.800  1.00  0.00    -0.422 A  
HETATM   26  C   UNL     1     -13.253   8.647  71.895  1.00  0.00    -0.411 A  
HETATM   27  C   UNL     1     -12.102   8.073  71.348  1.00  0.00    -0.332 A  
ENDBRANCH  21  22
ENDBRANCH  13  16
ENDBRANCH   7  10
ENDBRANCH   5   7
ENDBRANCH   2   3
TORSDOF 5
ENDMDL
MODEL       83
REMARK 921   NORMALIZED FREE ENERGY PREDICTED BY IDOCK:   -5.53 KCAL/MOL
REMARK 922        TOTAL FREE ENERGY PREDICTED BY IDOCK:   -8.23 KCAL/MOL
REMARK 923 INTER-LIGAND FREE ENERGY PREDICTED BY IDOCK:   -7.23 KCAL/MOL
REMARK 924 INTRA-LIGAND FREE ENERGY PREDICTED BY IDOCK:   -1.00 KCAL/MOL
REMARK 927      BINDING AFFINITY PREDICTED BY RF-SCORE:    0.00 PKD
ROOT
HETATM    1  C   UNL     1      -5.681  16.787  70.336  1.00  0.00    -0.115 C  
HETATM    2  C   UNL     1      -5.651  18.253  69.947  1.00  0.00    -0.234 C  
ENDROOT
BRANCH   2   3
HETATM    3  C   UNL     1      -6.588  18.499  68.788  1.00  0.00    -0.254 C  
HETATM    4  O   UNL     1      -6.223  18.367  67.629  1.00  0.00    -0.176 OA 
HETATM    5  N   UNL     1      -7.906  18.806  69.151  1.00  0.00    -0.156 N  
HETATM    6  H   UNL     1      -8.120  18.836  70.147  1.00  0.00     0.000 HD 
BRANCH   5   7
HETATM    7  S   UNL     1      -9.148  19.125  68.095  1.00  0.00    -0.337 S  
HETATM    8  O   UNL     1     -10.222  19.656  68.915  1.00  0.00    -0.438 OA 
HETATM    9  O   UNL     1      -8.651  19.871  66.957  1.00  0.00    -0.304 OA 
BRANCH   7  10
HETATM   10  C   UNL     1      -9.638  17.506  67.563  1.00  0.00    -0.265 A  
HETATM   11  C   UNL     1      -9.094  16.964  66.399  1.00  0.00    -0.315 A  
HETATM   12  C   UNL     1      -9.644  15.794  65.859  1.00  0.00    -0.382 A  
HETATM   13  C   UNL     1     -10.701  15.131  66.500  1.00  0.00    -0.310 A  
HETATM   14  C   UNL     1     -11.092  15.595  67.767  1.00  0.00    -0.311 A  
HETATM   15  C   UNL     1     -10.595  16.797  68.283  1.00  0.00    -0.352 A  
BRANCH  13  16
HETATM   16  C   UNL     1     -11.479  14.085  65.828  1.00  0.00    -0.318 A  
HETATM   17  C   UNL     1     -12.264  14.246  64.696  1.00  0.00    -0.454 A  
HETATM   18  C   UNL     1     -12.642  15.333  63.769  1.00  0.00     0.676 C  
HETATM   19  O   UNL     1     -12.835  13.058  64.373  1.00  0.00    -0.679 OA 
HETATM   20  N   UNL     1     -12.480  12.098  65.278  1.00  0.00    -0.443 NA 
HETATM   21  C   UNL     1     -11.687  12.692  66.185  1.00  0.00    -0.406 A  
BRANCH  21  22
HETATM   22  C   UNL     1     -11.177  11.893  67.311  1.00  0.00    -0.376 A  
HETATM   23  C   UNL     1      -9.966  11.191  67.178  1.00  0.00    -0.215 A  
HETATM   24  C   UNL     1      -9.411  10.502  68.262  1.00  0.00    -0.158 A  
HETATM   25  C   UNL     1     -10.050  10.519  69.498  1.00  0.00    -0.208 A  
HETATM   26  C   UNL     1     -11.275  11.169  69.635  1.00  0.00    -0.333 A  
HETATM   27  C   UNL     1     -11.851  11.813  68.537  1.00  0.00    -0.365 A  
ENDBRANCH  21  22
ENDBRANCH  13  16
ENDBRANCH   7  10
ENDBRANCH   5   7
ENDBRANCH   2   3
TORSDOF 5
ENDMDL
MODEL       84
REMARK 921   NORMALIZED FREE ENERGY PREDICTED BY IDOCK:   -5.51 KCAL/MOL
REMARK 922        TOTAL FREE ENERGY PREDICTED BY IDOCK:   -8.21 KCAL/MOL
REMARK 923 INTER-LIGAND FREE ENERGY PREDICTED BY IDOCK:   -7.08 KCAL/MOL
REMARK 924 INTRA-LIGAND FREE ENERGY PREDICTED BY IDOCK:   -1.12 KCAL/MOL
REMARK 927      BINDING AFFINITY PREDICTED BY RF-SCORE:    0.00 PKD
ROOT
HETATM    1  C   UNL     1      -6.326   9.100  69.775  1.00  0.00    -0.039 C  
HETATM    2  C   UNL     1      -6.608   9.096  71.266  1.00  0.00    -0.080 C  
ENDROOT
BRANCH   2   3
HETATM    3  C   UNL     1      -8.086   8.896  71.511  1.00  0.00    -0.071 C  
HETATM    4  O   UNL     1      -8.519   8.606  72.617  1.00  0.00    -0.378 OA 
HETATM    5  N   UNL     1      -8.906   9.147  70.405  1.00  0.00    -0.200 N  
HETATM    6  H   UNL     1      -8.449   9.439  69.541  1.00  0.00     0.000 HD 
BRANCH   5   7
HETATM    7  S   UNL     1     -10.561   9.009  70.379  1.00  0.00    -0.233 S  
HETATM    8  O   UNL     1     -10.826   7.634  69.994  1.00  0.00    -0.246 OA 
HETATM    9  O   UNL     1     -11.123   9.554  71.598  1.00  0.00    -0.371 OA 
BRANCH   7  10
HETATM   10  C   UNL     1     -11.021  10.040  69.011  1.00  0.00    -0.212 A  
HETATM   11  C   UNL     1     -10.612   9.704  67.721  1.00  0.00    -0.320 A  
HETATM   12  C   UNL     1     -10.777  10.628  66.681  1.00  0.00    -0.246 A  
HETATM   13  C   UNL     1     -11.395  11.867  66.908  1.00  0.00    -0.392 A  
HETATM   14  C   UNL     1     -11.967  12.091  68.172  1.00  0.00    -0.231 A  
HETATM   15  C   UNL     1     -11.751  11.204  69.232  1.00  0.00    -0.401 A  
BRANCH  13  16
HETATM   16  C   UNL     1     -11.327  12.957  65.928  1.00  0.00    -0.348 A  
HETATM   17  C   UNL     1     -11.828  12.929  64.635  1.00  0.00    -0.372 A  
HETATM   18  C   UNL     1     -12.546  11.983  63.757  1.00  0.00    -0.567 C  
HETATM   19  O   UNL     1     -11.571  14.117  64.030  1.00  0.00    -0.280 OA 
HETATM   20  N   UNL     1     -10.879  14.941  64.871  1.00  0.00    -0.410 NA 
HETATM   21  C   UNL     1     -10.690  14.260  66.014  1.00  0.00    -0.304 A  
BRANCH  21  22
HETATM   22  C   UNL     1      -9.934  14.900  67.103  1.00  0.00    -0.231 A  
HETATM   23  C   UNL     1     -10.539  15.902  67.880  1.00  0.00    -0.300 A  
HETATM   24  C   UNL     1      -9.877  16.458  68.980  1.00  0.00    -0.266 A  
HETATM   25  C   UNL     1      -8.607  16.009  69.328  1.00  0.00    -0.224 A  
HETATM   26  C   UNL     1      -7.973  15.052  68.540  1.00  0.00    -0.144 A  
HETATM   27  C   UNL     1      -8.617  14.534  67.413  1.00  0.00    -0.213 A  
ENDBRANCH  21  22
ENDBRANCH  13  16
ENDBRANCH   7  10
ENDBRANCH   5   7
ENDBRANCH   2   3
TORSDOF 5
ENDMDL
MODEL       85
REMARK 921   NORMALIZED FREE ENERGY PREDICTED BY IDOCK:   -5.50 KCAL/MOL
REMARK 922        TOTAL FREE ENERGY PREDICTED BY IDOCK:   -8.19 KCAL/MOL
REMARK 923 INTER-LIGAND FREE ENERGY PREDICTED BY IDOCK:   -6.84 KCAL/MOL
REMARK 924 INTRA-LIGAND FREE ENERGY PREDICTED BY IDOCK:   -1.35 KCAL/MOL
REMARK 927      BINDING AFFINITY PREDICTED BY RF-SCORE:    0.00 PKD
ROOT
HETATM    1  C   UNL     1      -6.972   6.705  67.356  1.00  0.00    -0.078 C  
HETATM    2  C   UNL     1      -7.660   6.998  66.036  1.00  0.00    -0.096 C  
ENDROOT
BRANCH   2   3
HETATM    3  C   UNL     1      -8.469   8.270  66.147  1.00  0.00    -0.134 C  
HETATM    4  O   UNL     1      -9.692   8.254  66.145  1.00  0.00    -0.207 OA 
HETATM    5  N   UNL     1      -7.714   9.435  66.328  1.00  0.00    -0.096 N  
HETATM    6  H   UNL     1      -6.700   9.332  66.372  1.00  0.00     0.000 HD 
BRANCH   5   7
HETATM    7  S   UNL     1      -8.330  10.970  66.479  1.00  0.00    -0.165 S  
HETATM    8  O   UNL     1      -7.200  11.803  66.851  1.00  0.00    -0.144 OA 
HETATM    9  O   UNL     1      -9.137  11.296  65.322  1.00  0.00    -0.200 OA 
BRANCH   7  10
HETATM   10  C   UNL     1      -9.378  10.835  67.904  1.00  0.00    -0.150 A  
HETATM   11  C   UNL     1      -8.854  10.372  69.109  1.00  0.00    -0.180 A  
HETATM   12  C   UNL     1      -9.721  10.051  70.162  1.00  0.00    -0.177 A  
HETATM   13  C   UNL     1     -11.106  10.237  70.039  1.00  0.00    -0.373 A  
HETATM   14  C   UNL     1     -11.578  10.886  68.886  1.00  0.00    -0.378 A  
HETATM   15  C   UNL     1     -10.730  11.150  67.805  1.00  0.00    -0.267 A  
BRANCH  13  16
HETATM   16  C   UNL     1     -12.054   9.653  70.994  1.00  0.00    -0.421 A  
HETATM   17  C   UNL     1     -12.960  10.349  71.780  1.00  0.00    -0.475 A  
HETATM   18  C   UNL     1     -13.361  11.752  72.011  1.00  0.00    -0.417 C  
HETATM   19  O   UNL     1     -13.660   9.470  72.541  1.00  0.00    -0.433 OA 
HETATM   20  N   UNL     1     -13.229   8.194  72.314  1.00  0.00    -0.215 NA 
HETATM   21  C   UNL     1     -12.241   8.273  71.408  1.00  0.00    -0.299 A  
BRANCH  21  22
HETATM   22  C   UNL     1     -11.559   7.035  70.993  1.00  0.00    -0.361 A  
HETATM   23  C   UNL     1     -11.355   6.773  69.627  1.00  0.00    -0.326 A  
HETATM   24  C   UNL     1     -10.627   5.653  69.211  1.00  0.00    -0.359 A  
HETATM   25  C   UNL     1     -10.079   4.789  70.154  1.00  0.00    -0.310 A  
HETATM   26  C   UNL     1     -10.313   5.006  71.510  1.00  0.00    -0.252 A  
HETATM   27  C   UNL     1     -11.084   6.098  71.921  1.00  0.00    -0.324 A  
ENDBRANCH  21  22
ENDBRANCH  13  16
ENDBRANCH   7  10
ENDBRANCH   5   7
ENDBRANCH   2   3
TORSDOF 5
ENDMDL
MODEL       86
REMARK 921   NORMALIZED FREE ENERGY PREDICTED BY IDOCK:   -5.50 KCAL/MOL
REMARK 922        TOTAL FREE ENERGY PREDICTED BY IDOCK:   -8.19 KCAL/MOL
REMARK 923 INTER-LIGAND FREE ENERGY PREDICTED BY IDOCK:   -7.25 KCAL/MOL
REMARK 924 INTRA-LIGAND FREE ENERGY PREDICTED BY IDOCK:   -0.94 KCAL/MOL
REMARK 927      BINDING AFFINITY PREDICTED BY RF-SCORE:    0.00 PKD
ROOT
HETATM    1  C   UNL     1     -10.895   7.035  66.993  1.00  0.00    -0.413 C  
HETATM    2  C   UNL     1      -9.803   7.667  67.835  1.00  0.00    -0.190 C  
ENDROOT
BRANCH   2   3
HETATM    3  C   UNL     1      -9.260   8.893  67.139  1.00  0.00    -0.139 C  
HETATM    4  O   UNL     1      -8.246   9.455  67.528  1.00  0.00    -0.116 OA 
HETATM    5  N   UNL     1      -9.958   9.276  65.987  1.00  0.00    -0.314 N  
HETATM    6  H   UNL     1     -10.759   8.705  65.717  1.00  0.00     0.000 HD 
BRANCH   5   7
HETATM    7  S   UNL     1      -9.593  10.579  65.025  1.00  0.00    -0.304 S  
HETATM    8  O   UNL     1      -8.149  10.549  64.869  1.00  0.00    -0.153 OA 
HETATM    9  O   UNL     1     -10.459  10.595  63.864  1.00  0.00    -0.280 OA 
BRANCH   7  10
HETATM   10  C   UNL     1      -9.985  11.960  66.066  1.00  0.00    -0.232 A  
HETATM   11  C   UNL     1      -8.968  12.617  66.758  1.00  0.00    -0.197 A  
HETATM   12  C   UNL     1      -9.299  13.552  67.747  1.00  0.00    -0.213 A  
HETATM   13  C   UNL     1     -10.638  13.875  68.018  1.00  0.00    -0.252 A  
HETATM   14  C   UNL     1     -11.623  13.339  67.171  1.00  0.00    -0.402 A  
HETATM   15  C   UNL     1     -11.309  12.357  66.225  1.00  0.00    -0.388 A  
BRANCH  13  16
HETATM   16  C   UNL     1     -11.027  14.619  69.221  1.00  0.00    -0.278 A  
HETATM   17  C   UNL     1     -11.754  14.123  70.292  1.00  0.00    -0.258 A  
HETATM   18  C   UNL     1     -12.383  12.848  70.695  1.00  0.00    -0.385 C  
HETATM   19  O   UNL     1     -11.924  15.107  71.211  1.00  0.00    -0.293 OA 
HETATM   20  N   UNL     1     -11.355  16.269  70.777  1.00  0.00    -0.374 NA 
HETATM   21  C   UNL     1     -10.831  16.016  69.566  1.00  0.00    -0.317 A  
BRANCH  21  22
HETATM   22  C   UNL     1     -10.173  17.113  68.835  1.00  0.00    -0.332 A  
HETATM   23  C   UNL     1      -8.771  17.208  68.830  1.00  0.00    -0.235 A  
HETATM   24  C   UNL     1      -8.119  18.182  68.067  1.00  0.00    -0.264 A  
HETATM   25  C   UNL     1      -8.859  19.064  67.285  1.00  0.00    -0.302 A  
HETATM   26  C   UNL     1     -10.250  19.016  67.316  1.00  0.00    -0.476 A  
HETATM   27  C   UNL     1     -10.900  18.074  68.119  1.00  0.00    -0.149 A  
ENDBRANCH  21  22
ENDBRANCH  13  16
ENDBRANCH   7  10
ENDBRANCH   5   7
ENDBRANCH   2   3
TORSDOF 5
ENDMDL
MODEL       87
REMARK 921   NORMALIZED FREE ENERGY PREDICTED BY IDOCK:   -5.46 KCAL/MOL
REMARK 922        TOTAL FREE ENERGY PREDICTED BY IDOCK:   -8.14 KCAL/MOL
REMARK 923 INTER-LIGAND FREE ENERGY PREDICTED BY IDOCK:   -7.19 KCAL/MOL
REMARK 924 INTRA-LIGAND FREE ENERGY PREDICTED BY IDOCK:   -0.94 KCAL/MOL
REMARK 927      BINDING AFFINITY PREDICTED BY RF-SCORE:    0.00 PKD
ROOT
HETATM    1  C   UNL     1     -10.126  20.117  68.515  1.00  0.00    -0.400 C  
HETATM    2  C   UNL     1     -11.014  19.032  67.934  1.00  0.00    -0.157 C  
ENDROOT
BRANCH   2   3
HETATM    3  C   UNL     1     -10.289  18.315  66.818  1.00  0.00    -0.384 C  
HETATM    4  O   UNL     1      -9.728  18.926  65.921  1.00  0.00    -0.474 OA 
HETATM    5  N   UNL     1     -10.247  16.920  66.943  1.00  0.00    -0.290 N  
HETATM    6  H   UNL     1     -10.699  16.511  67.761  1.00  0.00     0.000 HD 
BRANCH   5   7
HETATM    7  S   UNL     1      -9.524  15.877  65.872  1.00  0.00    -0.295 S  
HETATM    8  O   UNL     1     -10.264  16.025  64.632  1.00  0.00    -0.301 OA 
HETATM    9  O   UNL     1      -8.087  16.056  65.899  1.00  0.00     0.074 OA 
BRANCH   7  10
HETATM   10  C   UNL     1      -9.927  14.285  66.542  1.00  0.00    -0.281 A  
HETATM   11  C   UNL     1      -9.158  13.752  67.576  1.00  0.00    -0.209 A  
HETATM   12  C   UNL     1      -9.331  12.413  67.947  1.00  0.00    -0.195 A  
HETATM   13  C   UNL     1     -10.303  11.612  67.328  1.00  0.00    -0.232 A  
HETATM   14  C   UNL     1     -11.188  12.234  66.431  1.00  0.00    -0.370 A  
HETATM   15  C   UNL     1     -10.982  13.551  66.007  1.00  0.00    -0.281 A  
BRANCH  13  16
HETATM   16  C   UNL     1     -10.319  10.153  67.484  1.00  0.00    -0.279 A  
HETATM   17  C   UNL     1      -9.879   9.225  66.553  1.00  0.00    -0.263 A  
HETATM   18  C   UNL     1      -9.287   9.224  65.199  1.00  0.00    -0.239 C  
HETATM   19  O   UNL     1     -10.059   7.974  67.049  1.00  0.00    -0.222 OA 
HETATM   20  N   UNL     1     -10.638   8.030  68.285  1.00  0.00    -0.150 NA 
HETATM   21  C   UNL     1     -10.835   9.329  68.563  1.00  0.00    -0.074 A  
BRANCH  21  22
HETATM   22  C   UNL     1     -11.484   9.690  69.835  1.00  0.00    -0.144 A  
HETATM   23  C   UNL     1     -12.178  10.908  69.945  1.00  0.00    -0.408 A  
HETATM   24  C   UNL     1     -12.882  11.231  71.109  1.00  0.00    -0.452 A  
HETATM   25  C   UNL     1     -12.917  10.335  72.174  1.00  0.00    -0.410 A  
HETATM   26  C   UNL     1     -12.196   9.146  72.100  1.00  0.00    -0.408 A  
HETATM   27  C   UNL     1     -11.451   8.849  70.955  1.00  0.00    -0.351 A  
ENDBRANCH  21  22
ENDBRANCH  13  16
ENDBRANCH   7  10
ENDBRANCH   5   7
ENDBRANCH   2   3
TORSDOF 5
ENDMDL
MODEL       88
REMARK 921   NORMALIZED FREE ENERGY PREDICTED BY IDOCK:   -5.43 KCAL/MOL
REMARK 922        TOTAL FREE ENERGY PREDICTED BY IDOCK:   -8.10 KCAL/MOL
REMARK 923 INTER-LIGAND FREE ENERGY PREDICTED BY IDOCK:   -7.20 KCAL/MOL
REMARK 924 INTRA-LIGAND FREE ENERGY PREDICTED BY IDOCK:   -0.89 KCAL/MOL
REMARK 927      BINDING AFFINITY PREDICTED BY RF-SCORE:    0.00 PKD
ROOT
HETATM    1  C   UNL     1      -5.187  18.040  67.892  1.00  0.00    -0.151 C  
HETATM    2  C   UNL     1      -5.441  19.208  66.958  1.00  0.00    -0.163 C  
ENDROOT
BRANCH   2   3
HETATM    3  C   UNL     1      -6.828  19.104  66.367  1.00  0.00    -0.207 C  
HETATM    4  O   UNL     1      -7.095  18.285  65.500  1.00  0.00    -0.523 OA 
HETATM    5  N   UNL     1      -7.780  19.955  66.942  1.00  0.00    -0.274 N  
HETATM    6  H   UNL     1      -7.466  20.562  67.699  1.00  0.00     0.000 HD 
BRANCH   5   7
HETATM    7  S   UNL     1      -9.376  20.059  66.496  1.00  0.00    -0.373 S  
HETATM    8  O   UNL     1      -9.921  21.160  67.271  1.00  0.00    -0.213 OA 
HETATM    9  O   UNL     1      -9.489  20.047  65.052  1.00  0.00     0.372 OA 
BRANCH   7  10
HETATM   10  C   UNL     1     -10.065  18.561  67.149  1.00  0.00    -0.353 A  
HETATM   11  C   UNL     1     -10.106  18.359  68.528  1.00  0.00    -0.413 A  
HETATM   12  C   UNL     1     -10.435  17.094  69.032  1.00  0.00    -0.321 A  
HETATM   13  C   UNL     1     -10.776  16.040  68.170  1.00  0.00    -0.311 A  
HETATM   14  C   UNL     1     -10.914  16.332  66.803  1.00  0.00    -0.031 A  
HETATM   15  C   UNL     1     -10.525  17.572  66.284  1.00  0.00    -0.283 A  
BRANCH  13  16
HETATM   16  C   UNL     1     -10.845  14.651  68.636  1.00  0.00    -0.261 A  
HETATM   17  C   UNL     1     -10.341  13.539  67.978  1.00  0.00    -0.241 A  
HETATM   18  C   UNL     1      -9.619  13.241  66.724  1.00  0.00    -0.258 C  
HETATM   19  O   UNL     1     -10.600  12.428  68.713  1.00  0.00    -0.227 OA 
HETATM   20  N   UNL     1     -11.296  12.755  69.842  1.00  0.00    -0.051 NA 
HETATM   21  C   UNL     1     -11.486  14.084  69.810  1.00  0.00    -0.230 A  
BRANCH  21  22
HETATM   22  C   UNL     1     -12.247  14.717  70.901  1.00  0.00    -0.391 A  
HETATM   23  C   UNL     1     -13.611  15.006  70.726  1.00  0.00    -0.266 A  
HETATM   24  C   UNL     1     -14.379  15.518  71.777  1.00  0.00    -0.556 A  
HETATM   25  C   UNL     1     -13.797  15.733  73.023  1.00  0.00    -0.499 A  
HETATM   26  C   UNL     1     -12.436  15.498  73.201  1.00  0.00    -0.576 A  
HETATM   27  C   UNL     1     -11.661  15.034  72.134  1.00  0.00    -0.402 A  
ENDBRANCH  21  22
ENDBRANCH  13  16
ENDBRANCH   7  10
ENDBRANCH   5   7
ENDBRANCH   2   3
TORSDOF 5
ENDMDL
MODEL       89
REMARK 921   NORMALIZED FREE ENERGY PREDICTED BY IDOCK:   -5.42 KCAL/MOL
REMARK 922        TOTAL FREE ENERGY PREDICTED BY IDOCK:   -8.08 KCAL/MOL
REMARK 923 INTER-LIGAND FREE ENERGY PREDICTED BY IDOCK:   -6.93 KCAL/MOL
REMARK 924 INTRA-LIGAND FREE ENERGY PREDICTED BY IDOCK:   -1.15 KCAL/MOL
REMARK 927      BINDING AFFINITY PREDICTED BY RF-SCORE:    0.00 PKD
ROOT
HETATM    1  C   UNL     1      -7.448   4.649  68.820  1.00  0.00    -0.064 C  
HETATM    2  C   UNL     1      -8.732   5.434  69.011  1.00  0.00    -0.103 C  
ENDROOT
BRANCH   2   3
HETATM    3  C   UNL     1      -8.414   6.890  69.262  1.00  0.00    -0.129 C  
HETATM    4  O   UNL     1      -7.484   7.450  68.698  1.00  0.00    -0.096 OA 
HETATM    5  N   UNL     1      -9.306   7.550  70.117  1.00  0.00    -0.158 N  
HETATM    6  H   UNL     1     -10.082   7.006  70.491  1.00  0.00     0.000 HD 
BRANCH   5   7
HETATM    7  S   UNL     1      -9.206   9.144  70.572  1.00  0.00    -0.258 S  
HETATM    8  O   UNL     1     -10.246   9.325  71.569  1.00  0.00    -0.330 OA 
HETATM    9  O   UNL     1      -7.831   9.489  70.869  1.00  0.00    -0.299 OA 
BRANCH   7  10
HETATM   10  C   UNL     1      -9.720  10.004  69.108  1.00  0.00    -0.209 A  
HETATM   11  C   UNL     1      -8.802  10.779  68.401  1.00  0.00    -0.146 A  
HETATM   12  C   UNL     1      -9.255  11.633  67.387  1.00  0.00    -0.168 A  
HETATM   13  C   UNL     1     -10.613  11.682  67.037  1.00  0.00    -0.272 A  
HETATM   14  C   UNL     1     -11.476  10.749  67.636  1.00  0.00    -0.234 A  
HETATM   15  C   UNL     1     -11.046   9.939  68.693  1.00  0.00    -0.182 A  
BRANCH  13  16
HETATM   16  C   UNL     1     -11.158  12.753  66.195  1.00  0.00    -0.322 A  
HETATM   17  C   UNL     1     -11.397  12.682  64.831  1.00  0.00    -0.311 A  
HETATM   18  C   UNL     1     -11.258  11.693  63.743  1.00  0.00    -0.498 C  
HETATM   19  O   UNL     1     -11.895  13.870  64.402  1.00  0.00    -0.399 OA 
HETATM   20  N   UNL     1     -11.972  14.757  65.438  1.00  0.00    -0.265 NA 
HETATM   21  C   UNL     1     -11.507  14.124  66.527  1.00  0.00    -0.358 A  
BRANCH  21  22
HETATM   22  C   UNL     1     -11.441  14.860  67.801  1.00  0.00    -0.353 A  
HETATM   23  C   UNL     1     -12.029  14.315  68.955  1.00  0.00    -0.360 A  
HETATM   24  C   UNL     1     -11.899  14.948  70.196  1.00  0.00    -0.357 A  
HETATM   25  C   UNL     1     -11.165  16.125  70.303  1.00  0.00    -0.389 A  
HETATM   26  C   UNL     1     -10.618  16.705  69.162  1.00  0.00    -0.340 A  
HETATM   27  C   UNL     1     -10.792  16.097  67.915  1.00  0.00    -0.332 A  
ENDBRANCH  21  22
ENDBRANCH  13  16
ENDBRANCH   7  10
ENDBRANCH   5   7
ENDBRANCH   2   3
TORSDOF 5
ENDMDL
MODEL       90
REMARK 921   NORMALIZED FREE ENERGY PREDICTED BY IDOCK:   -5.40 KCAL/MOL
REMARK 922        TOTAL FREE ENERGY PREDICTED BY IDOCK:   -8.07 KCAL/MOL
REMARK 923 INTER-LIGAND FREE ENERGY PREDICTED BY IDOCK:   -6.98 KCAL/MOL
REMARK 924 INTRA-LIGAND FREE ENERGY PREDICTED BY IDOCK:   -1.09 KCAL/MOL
REMARK 927      BINDING AFFINITY PREDICTED BY RF-SCORE:    0.00 PKD
ROOT
HETATM    1  C   UNL     1      -8.510   9.169  63.226  1.00  0.00    -0.197 C  
HETATM    2  C   UNL     1      -9.363  10.137  64.023  1.00  0.00    -0.339 C  
ENDROOT
BRANCH   2   3
HETATM    3  C   UNL     1      -8.725  10.403  65.367  1.00  0.00    -0.180 C  
HETATM    4  O   UNL     1      -9.037  11.371  66.045  1.00  0.00    -0.205 OA 
HETATM    5  N   UNL     1      -7.822   9.422  65.794  1.00  0.00    -0.098 N  
HETATM    6  H   UNL     1      -7.674   8.623  65.177  1.00  0.00     0.000 HD 
BRANCH   5   7
HETATM    7  S   UNL     1      -6.972   9.448  67.221  1.00  0.00    -0.086 S  
HETATM    8  O   UNL     1      -6.074   8.309  67.155  1.00  0.00    -0.052 OA 
HETATM    9  O   UNL     1      -6.458  10.779  67.467  1.00  0.00    -0.056 OA 
BRANCH   7  10
HETATM   10  C   UNL     1      -8.217   9.070  68.427  1.00  0.00    -0.116 A  
HETATM   11  C   UNL     1      -9.311   8.282  68.071  1.00  0.00    -0.141 A  
HETATM   12  C   UNL     1     -10.398   8.174  68.948  1.00  0.00    -0.225 A  
HETATM   13  C   UNL     1     -10.382   8.805  70.200  1.00  0.00    -0.225 A  
HETATM   14  C   UNL     1      -9.189   9.428  70.603  1.00  0.00    -0.303 A  
HETATM   15  C   UNL     1      -8.123   9.596  69.712  1.00  0.00    -0.160 A  
BRANCH  13  16
HETATM   16  C   UNL     1     -11.597   8.951  71.009  1.00  0.00    -0.347 A  
HETATM   17  C   UNL     1     -12.262   7.936  71.681  1.00  0.00    -0.308 A  
HETATM   18  C   UNL     1     -12.118   6.481  71.889  1.00  0.00    -0.388 C  
HETATM   19  O   UNL     1     -13.346   8.453  72.313  1.00  0.00    -0.317 OA 
HETATM   20  N   UNL     1     -13.451   9.791  72.062  1.00  0.00    -0.420 NA 
HETATM   21  C   UNL     1     -12.428  10.117  71.255  1.00  0.00    -0.406 A  
BRANCH  21  22
HETATM   22  C   UNL     1     -12.309  11.509  70.789  1.00  0.00    -0.472 A  
HETATM   23  C   UNL     1     -11.779  11.778  69.515  1.00  0.00    -0.408 A  
HETATM   24  C   UNL     1     -11.743  13.082  69.012  1.00  0.00    -0.376 A  
HETATM   25  C   UNL     1     -12.252  14.134  69.767  1.00  0.00    -0.397 A  
HETATM   26  C   UNL     1     -12.737  13.893  71.050  1.00  0.00    -0.428 A  
HETATM   27  C   UNL     1     -12.725  12.596  71.570  1.00  0.00    -0.326 A  
ENDBRANCH  21  22
ENDBRANCH  13  16
ENDBRANCH   7  10
ENDBRANCH   5   7
ENDBRANCH   2   3
TORSDOF 5
ENDMDL
MODEL       91
REMARK 921   NORMALIZED FREE ENERGY PREDICTED BY IDOCK:   -5.40 KCAL/MOL
REMARK 922        TOTAL FREE ENERGY PREDICTED BY IDOCK:   -8.06 KCAL/MOL
REMARK 923 INTER-LIGAND FREE ENERGY PREDICTED BY IDOCK:   -7.41 KCAL/MOL
REMARK 924 INTRA-LIGAND FREE ENERGY PREDICTED BY IDOCK:   -0.65 KCAL/MOL
REMARK 927      BINDING AFFINITY PREDICTED BY RF-SCORE:    0.00 PKD
ROOT
HETATM    1  C   UNL     1      -8.984   7.445  74.235  1.00  0.00    -0.242 C  
HETATM    2  C   UNL     1      -9.850   6.202  74.317  1.00  0.00    -0.267 C  
ENDROOT
BRANCH   2   3
HETATM    3  C   UNL     1     -10.984   6.297  73.322  1.00  0.00    -0.194 C  
HETATM    4  O   UNL     1     -11.509   5.298  72.852  1.00  0.00    -0.307 OA 
HETATM    5  N   UNL     1     -11.425   7.598  73.053  1.00  0.00    -0.609 N  
HETATM    6  H   UNL     1     -10.956   8.360  73.542  1.00  0.00     0.000 HD 
BRANCH   5   7
HETATM    7  S   UNL     1     -12.649   8.006  72.007  1.00  0.00    -0.292 S  
HETATM    8  O   UNL     1     -13.111   6.748  71.448  1.00  0.00    -0.289 OA 
HETATM    9  O   UNL     1     -13.576   8.910  72.656  1.00  0.00    -0.439 OA 
BRANCH   7  10
HETATM   10  C   UNL     1     -11.792   8.874  70.719  1.00  0.00    -0.194 A  
HETATM   11  C   UNL     1     -10.908   8.186  69.888  1.00  0.00    -0.215 A  
HETATM   12  C   UNL     1     -10.067   8.905  69.029  1.00  0.00    -0.205 A  
HETATM   13  C   UNL     1     -10.136  10.304  68.954  1.00  0.00    -0.216 A  
HETATM   14  C   UNL     1     -11.168  10.946  69.659  1.00  0.00    -0.348 A  
HETATM   15  C   UNL     1     -11.969  10.246  70.567  1.00  0.00    -0.415 A  
BRANCH  13  16
HETATM   16  C   UNL     1      -9.094  11.097  68.292  1.00  0.00    -0.162 A  
HETATM   17  C   UNL     1      -7.805  11.307  68.757  1.00  0.00    -0.139 A  
HETATM   18  C   UNL     1      -6.981  10.918  69.921  1.00  0.00    -0.094 C  
HETATM   19  O   UNL     1      -7.135  12.096  67.879  1.00  0.00    -0.084 OA 
HETATM   20  N   UNL     1      -7.949  12.453  66.842  1.00  0.00    -0.097 NA 
HETATM   21  C   UNL     1      -9.147  11.890  67.077  1.00  0.00    -0.191 A  
BRANCH  21  22
HETATM   22  C   UNL     1     -10.243  12.137  66.125  1.00  0.00    -0.254 A  
HETATM   23  C   UNL     1     -10.183  11.590  64.832  1.00  0.00    -0.324 A  
HETATM   24  C   UNL     1     -11.253  11.728  63.942  1.00  0.00    -0.493 A  
HETATM   25  C   UNL     1     -12.405  12.401  64.338  1.00  0.00    -0.532 A  
HETATM   26  C   UNL     1     -12.463  12.990  65.598  1.00  0.00    -0.452 A  
HETATM   27  C   UNL     1     -11.372  12.894  66.467  1.00  0.00    -0.361 A  
ENDBRANCH  21  22
ENDBRANCH  13  16
ENDBRANCH   7  10
ENDBRANCH   5   7
ENDBRANCH   2   3
TORSDOF 5
ENDMDL
MODEL       92
REMARK 921   NORMALIZED FREE ENERGY PREDICTED BY IDOCK:   -5.39 KCAL/MOL
REMARK 922        TOTAL FREE ENERGY PREDICTED BY IDOCK:   -8.04 KCAL/MOL
REMARK 923 INTER-LIGAND FREE ENERGY PREDICTED BY IDOCK:   -7.19 KCAL/MOL
REMARK 924 INTRA-LIGAND FREE ENERGY PREDICTED BY IDOCK:   -0.86 KCAL/MOL
REMARK 927      BINDING AFFINITY PREDICTED BY RF-SCORE:    0.00 PKD
ROOT
HETATM    1  C   UNL     1      -9.960   3.987  64.860  1.00  0.00    -0.211 C  
HETATM    2  C   UNL     1     -10.649   4.775  65.958  1.00  0.00    -0.300 C  
ENDROOT
BRANCH   2   3
HETATM    3  C   UNL     1      -9.682   5.762  66.570  1.00  0.00    -0.159 C  
HETATM    4  O   UNL     1      -9.310   5.659  67.730  1.00  0.00    -0.110 OA 
HETATM    5  N   UNL     1      -9.197   6.736  65.689  1.00  0.00    -0.376 N  
HETATM    6  H   UNL     1      -9.528   6.700  64.725  1.00  0.00     0.000 HD 
BRANCH   5   7
HETATM    7  S   UNL     1      -8.127   7.945  66.081  1.00  0.00    -0.115 S  
HETATM    8  O   UNL     1      -7.070   7.294  66.834  1.00  0.00    -0.081 OA 
HETATM    9  O   UNL     1      -7.818   8.733  64.906  1.00  0.00    -0.107 OA 
BRANCH   7  10
HETATM   10  C   UNL     1      -9.055   8.937  67.222  1.00  0.00    -0.134 A  
HETATM   11  C   UNL     1      -8.562   9.161  68.506  1.00  0.00    -0.129 A  
HETATM   12  C   UNL     1      -9.391   9.746  69.472  1.00  0.00    -0.226 A  
HETATM   13  C   UNL     1     -10.694  10.157  69.152  1.00  0.00    -0.254 A  
HETATM   14  C   UNL     1     -11.087  10.094  67.805  1.00  0.00    -0.293 A  
HETATM   15  C   UNL     1     -10.292   9.453  66.848  1.00  0.00    -0.308 A  
BRANCH  13  16
HETATM   16  C   UNL     1     -11.673  10.502  70.189  1.00  0.00    -0.410 A  
HETATM   17  C   UNL     1     -12.331   9.612  71.024  1.00  0.00    -0.310 A  
HETATM   18  C   UNL     1     -12.375   8.154  71.256  1.00  0.00    -0.285 C  
HETATM   19  O   UNL     1     -13.164  10.301  71.845  1.00  0.00    -0.437 OA 
HETATM   20  N   UNL     1     -13.110  11.637  71.567  1.00  0.00    -0.381 NA 
HETATM   21  C   UNL     1     -12.242  11.788  70.553  1.00  0.00    -0.347 A  
BRANCH  21  22
HETATM   22  C   UNL     1     -12.008  13.140  70.017  1.00  0.00    -0.391 A  
HETATM   23  C   UNL     1     -11.940  14.238  70.892  1.00  0.00    -0.389 A  
HETATM   24  C   UNL     1     -11.624  15.515  70.420  1.00  0.00    -0.359 A  
HETATM   25  C   UNL     1     -11.356  15.712  69.068  1.00  0.00    -0.332 A  
HETATM   26  C   UNL     1     -11.467  14.645  68.180  1.00  0.00    -0.346 A  
HETATM   27  C   UNL     1     -11.832  13.379  68.647  1.00  0.00    -0.397 A  
ENDBRANCH  21  22
ENDBRANCH  13  16
ENDBRANCH   7  10
ENDBRANCH   5   7
ENDBRANCH   2   3
TORSDOF 5
ENDMDL
MODEL       93
REMARK 921   NORMALIZED FREE ENERGY PREDICTED BY IDOCK:   -5.38 KCAL/MOL
REMARK 922        TOTAL FREE ENERGY PREDICTED BY IDOCK:   -8.03 KCAL/MOL
REMARK 923 INTER-LIGAND FREE ENERGY PREDICTED BY IDOCK:   -6.89 KCAL/MOL
REMARK 924 INTRA-LIGAND FREE ENERGY PREDICTED BY IDOCK:   -1.15 KCAL/MOL
REMARK 927      BINDING AFFINITY PREDICTED BY RF-SCORE:    0.00 PKD
ROOT
HETATM    1  C   UNL     1      -9.709   4.389  72.380  1.00  0.00    -0.210 C  
HETATM    2  C   UNL     1     -10.206   4.968  71.069  1.00  0.00    -0.283 C  
ENDROOT
BRANCH   2   3
HETATM    3  C   UNL     1      -9.603   6.336  70.848  1.00  0.00    -0.176 C  
HETATM    4  O   UNL     1      -8.435   6.476  70.518  1.00  0.00    -0.134 OA 
HETATM    5  N   UNL     1     -10.502   7.403  70.972  1.00  0.00    -0.214 N  
HETATM    6  H   UNL     1     -11.470   7.174  71.196  1.00  0.00     0.000 HD 
BRANCH   5   7
HETATM    7  S   UNL     1     -10.124   9.010  70.786  1.00  0.00    -0.264 S  
HETATM    8  O   UNL     1     -11.366   9.726  71.019  1.00  0.00    -0.329 OA 
HETATM    9  O   UNL     1      -8.934   9.330  71.548  1.00  0.00    -0.316 OA 
BRANCH   7  10
HETATM   10  C   UNL     1      -9.760   9.130  69.055  1.00  0.00    -0.166 A  
HETATM   11  C   UNL     1      -8.657   9.870  68.628  1.00  0.00    -0.119 A  
HETATM   12  C   UNL     1      -8.501  10.153  67.265  1.00  0.00    -0.125 A  
HETATM   13  C   UNL     1      -9.410   9.660  66.316  1.00  0.00    -0.238 A  
HETATM   14  C   UNL     1     -10.394   8.761  66.760  1.00  0.00    -0.328 A  
HETATM   15  C   UNL     1     -10.597   8.524  68.124  1.00  0.00    -0.181 A  
BRANCH  13  16
HETATM   16  C   UNL     1      -9.442  10.166  64.940  1.00  0.00    -0.349 A  
HETATM   17  C   UNL     1      -8.870   9.562  63.831  1.00  0.00    -0.210 A  
HETATM   18  C   UNL     1      -8.092   8.344  63.524  1.00  0.00    -0.143 C  
HETATM   19  O   UNL     1      -9.102  10.328  62.734  1.00  0.00    -0.225 OA 
HETATM   20  N   UNL     1      -9.793  11.455  63.077  1.00  0.00    -0.360 NA 
HETATM   21  C   UNL     1      -9.988  11.402  64.405  1.00  0.00    -0.274 A  
BRANCH  21  22
HETATM   22  C   UNL     1     -10.688  12.518  65.063  1.00  0.00    -0.326 A  
HETATM   23  C   UNL     1     -12.069  12.691  64.866  1.00  0.00    -0.494 A  
HETATM   24  C   UNL     1     -12.775  13.684  65.553  1.00  0.00    -0.514 A  
HETATM   25  C   UNL     1     -12.114  14.507  66.460  1.00  0.00    -0.330 A  
HETATM   26  C   UNL     1     -10.738  14.381  66.632  1.00  0.00    -0.292 A  
HETATM   27  C   UNL     1     -10.027  13.421  65.906  1.00  0.00    -0.287 A  
ENDBRANCH  21  22
ENDBRANCH  13  16
ENDBRANCH   7  10
ENDBRANCH   5   7
ENDBRANCH   2   3
TORSDOF 5
ENDMDL
MODEL       94
REMARK 921   NORMALIZED FREE ENERGY PREDICTED BY IDOCK:   -5.38 KCAL/MOL
REMARK 922        TOTAL FREE ENERGY PREDICTED BY IDOCK:   -8.03 KCAL/MOL
REMARK 923 INTER-LIGAND FREE ENERGY PREDICTED BY IDOCK:   -7.20 KCAL/MOL
REMARK 924 INTRA-LIGAND FREE ENERGY PREDICTED BY IDOCK:   -0.83 KCAL/MOL
REMARK 927      BINDING AFFINITY PREDICTED BY RF-SCORE:    0.00 PKD
ROOT
HETATM    1  C   UNL     1      -5.889  20.013  70.824  1.00  0.00    -0.356 C  
HETATM    2  C   UNL     1      -5.844  20.470  69.378  1.00  0.00    -0.392 C  
ENDROOT
BRANCH   2   3
HETATM    3  C   UNL     1      -6.910  19.758  68.578  1.00  0.00    -0.311 C  
HETATM    4  O   UNL     1      -8.011  19.514  69.051  1.00  0.00    -0.356 OA 
HETATM    5  N   UNL     1      -6.563  19.478  67.250  1.00  0.00    -0.192 N  
HETATM    6  H   UNL     1      -5.638  19.774  66.938  1.00  0.00     0.000 HD 
BRANCH   5   7
HETATM    7  S   UNL     1      -7.530  18.707  66.142  1.00  0.00    -0.233 S  
HETATM    8  O   UNL     1      -8.803  19.403  66.192  1.00  0.00    -0.353 OA 
HETATM    9  O   UNL     1      -6.821  18.555  64.887  1.00  0.00    -0.409 OA 
BRANCH   7  10
HETATM   10  C   UNL     1      -7.770  17.109  66.874  1.00  0.00    -0.221 A  
HETATM   11  C   UNL     1      -6.674  16.275  67.093  1.00  0.00    -0.237 A  
HETATM   12  C   UNL     1      -6.885  14.939  67.455  1.00  0.00    -0.189 A  
HETATM   13  C   UNL     1      -8.181  14.439  67.650  1.00  0.00    -0.185 A  
HETATM   14  C   UNL     1      -9.247  15.354  67.611  1.00  0.00    -0.187 A  
HETATM   15  C   UNL     1      -9.053  16.673  67.188  1.00  0.00    -0.227 A  
BRANCH  13  16
HETATM   16  C   UNL     1      -8.451  13.000  67.745  1.00  0.00    -0.188 A  
HETATM   17  C   UNL     1      -7.763  12.087  68.531  1.00  0.00    -0.127 A  
HETATM   18  C   UNL     1      -6.636  12.092  69.486  1.00  0.00    -0.079 C  
HETATM   19  O   UNL     1      -8.294  10.851  68.349  1.00  0.00    -0.122 OA 
HETATM   20  N   UNL     1      -9.307  10.897  67.435  1.00  0.00    -0.154 NA 
HETATM   21  C   UNL     1      -9.407  12.174  67.029  1.00  0.00    -0.201 A  
BRANCH  21  22
HETATM   22  C   UNL     1     -10.409  12.515  66.006  1.00  0.00    -0.277 A  
HETATM   23  C   UNL     1     -11.607  13.149  66.383  1.00  0.00    -0.394 A  
HETATM   24  C   UNL     1     -12.531  13.569  65.421  1.00  0.00    -0.540 A  
HETATM   25  C   UNL     1     -12.265  13.378  64.069  1.00  0.00    -0.466 A  
HETATM   26  C   UNL     1     -11.107  12.709  63.680  1.00  0.00    -0.496 A  
HETATM   27  C   UNL     1     -10.209  12.245  64.645  1.00  0.00    -0.311 A  
ENDBRANCH  21  22
ENDBRANCH  13  16
ENDBRANCH   7  10
ENDBRANCH   5   7
ENDBRANCH   2   3
TORSDOF 5
ENDMDL
MODEL       95
REMARK 921   NORMALIZED FREE ENERGY PREDICTED BY IDOCK:   -5.37 KCAL/MOL
REMARK 922        TOTAL FREE ENERGY PREDICTED BY IDOCK:   -8.02 KCAL/MOL
REMARK 923 INTER-LIGAND FREE ENERGY PREDICTED BY IDOCK:   -7.17 KCAL/MOL
REMARK 924 INTRA-LIGAND FREE ENERGY PREDICTED BY IDOCK:   -0.85 KCAL/MOL
REMARK 927      BINDING AFFINITY PREDICTED BY RF-SCORE:    0.00 PKD
ROOT
HETATM    1  C   UNL     1      -9.319   5.458  66.196  1.00  0.00    -0.167 C  
HETATM    2  C   UNL     1      -8.109   5.729  65.322  1.00  0.00    -0.130 C  
ENDROOT
BRANCH   2   3
HETATM    3  C   UNL     1      -7.669   7.165  65.482  1.00  0.00    -0.108 C  
HETATM    4  O   UNL     1      -6.779   7.643  64.793  1.00  0.00    -0.049 OA 
HETATM    5  N   UNL     1      -8.406   7.909  66.412  1.00  0.00    -0.123 N  
HETATM    6  H   UNL     1      -9.166   7.430  66.894  1.00  0.00     0.000 HD 
BRANCH   5   7
HETATM    7  S   UNL     1      -8.148   9.504  66.795  1.00  0.00    -0.109 S  
HETATM    8  O   UNL     1      -6.924   9.518  67.576  1.00  0.00    -0.082 OA 
HETATM    9  O   UNL     1      -8.275  10.325  65.609  1.00  0.00    -0.141 OA 
BRANCH   7  10
HETATM   10  C   UNL     1      -9.486   9.864  67.901  1.00  0.00    -0.133 A  
HETATM   11  C   UNL     1     -10.649  10.459  67.413  1.00  0.00    -0.321 A  
HETATM   12  C   UNL     1     -11.605  10.949  68.312  1.00  0.00    -0.335 A  
HETATM   13  C   UNL     1     -11.435  10.803  69.697  1.00  0.00    -0.376 A  
HETATM   14  C   UNL     1     -10.351  10.028  70.145  1.00  0.00    -0.321 A  
HETATM   15  C   UNL     1      -9.359   9.592  69.260  1.00  0.00    -0.184 A  
BRANCH  13  16
HETATM   16  C   UNL     1     -12.257  11.543  70.661  1.00  0.00    -0.473 A  
HETATM   17  C   UNL     1     -13.037  10.993  71.666  1.00  0.00    -0.438 A  
HETATM   18  C   UNL     1     -13.374   9.651  72.183  1.00  0.00    -0.545 C  
HETATM   19  O   UNL     1     -13.656  11.990  72.348  1.00  0.00    -0.338 OA 
HETATM   20  N   UNL     1     -13.339  13.204  71.811  1.00  0.00    -0.408 NA 
HETATM   21  C   UNL     1     -12.520  12.967  70.772  1.00  0.00    -0.302 A  
BRANCH  21  22
HETATM   22  C   UNL     1     -12.038  14.108  69.975  1.00  0.00    -0.409 A  
HETATM   23  C   UNL     1     -11.449  15.211  70.617  1.00  0.00    -0.345 A  
HETATM   24  C   UNL     1     -10.898  16.263  69.879  1.00  0.00    -0.352 A  
HETATM   25  C   UNL     1     -10.914  16.221  68.488  1.00  0.00    -0.345 A  
HETATM   26  C   UNL     1     -11.536  15.160  67.836  1.00  0.00    -0.326 A  
HETATM   27  C   UNL     1     -12.131  14.134  68.577  1.00  0.00    -0.312 A  
ENDBRANCH  21  22
ENDBRANCH  13  16
ENDBRANCH   7  10
ENDBRANCH   5   7
ENDBRANCH   2   3
TORSDOF 5
ENDMDL
MODEL       96
REMARK 921   NORMALIZED FREE ENERGY PREDICTED BY IDOCK:   -5.37 KCAL/MOL
REMARK 922        TOTAL FREE ENERGY PREDICTED BY IDOCK:   -8.02 KCAL/MOL
REMARK 923 INTER-LIGAND FREE ENERGY PREDICTED BY IDOCK:   -6.91 KCAL/MOL
REMARK 924 INTRA-LIGAND FREE ENERGY PREDICTED BY IDOCK:   -1.10 KCAL/MOL
REMARK 927      BINDING AFFINITY PREDICTED BY RF-SCORE:    0.00 PKD
ROOT
HETATM    1  C   UNL     1     -12.798  14.795  72.680  1.00  0.00    -0.496 C  
HETATM    2  C   UNL     1     -11.999  15.971  72.148  1.00  0.00    -0.629 C  
ENDROOT
BRANCH   2   3
HETATM    3  C   UNL     1     -11.532  15.682  70.740  1.00  0.00    -0.379 C  
HETATM    4  O   UNL     1     -11.041  16.553  70.037  1.00  0.00    -0.345 OA 
HETATM    5  N   UNL     1     -11.633  14.342  70.348  1.00  0.00    -0.444 N  
HETATM    6  H   UNL     1     -12.005  13.683  71.032  1.00  0.00     0.000 HD 
BRANCH   5   7
HETATM    7  S   UNL     1     -11.198  13.734  68.865  1.00  0.00    -0.286 S  
HETATM    8  O   UNL     1     -12.250  14.151  67.955  1.00  0.00    -0.310 OA 
HETATM    9  O   UNL     1      -9.812  14.053  68.586  1.00  0.00    -0.225 OA 
BRANCH   7  10
HETATM   10  C   UNL     1     -11.359  11.983  69.094  1.00  0.00    -0.281 A  
HETATM   11  C   UNL     1     -11.818  11.483  70.312  1.00  0.00    -0.431 A  
HETATM   12  C   UNL     1     -11.730  10.109  70.571  1.00  0.00    -0.407 A  
HETATM   13  C   UNL     1     -11.234   9.222  69.604  1.00  0.00    -0.061 A  
HETATM   14  C   UNL     1     -10.964   9.734  68.324  1.00  0.00    -0.215 A  
HETATM   15  C   UNL     1     -10.987  11.111  68.076  1.00  0.00    -0.307 A  
BRANCH  13  16
HETATM   16  C   UNL     1     -10.864   7.842  69.937  1.00  0.00    -0.228 A  
HETATM   17  C   UNL     1     -11.597   6.961  70.718  1.00  0.00    -0.349 A  
HETATM   18  C   UNL     1     -12.872   6.958  71.464  1.00  0.00    -0.384 C  
HETATM   19  O   UNL     1     -10.932   5.782  70.807  1.00  0.00    -0.283 OA 
HETATM   20  N   UNL     1      -9.748   5.849  70.130  1.00  0.00    -0.164 NA 
HETATM   21  C   UNL     1      -9.663   7.088  69.618  1.00  0.00    -0.157 A  
BRANCH  21  22
HETATM   22  C   UNL     1      -8.459   7.459  68.856  1.00  0.00    -0.129 A  
HETATM   23  C   UNL     1      -8.177   6.817  67.637  1.00  0.00    -0.119 A  
HETATM   24  C   UNL     1      -7.094   7.215  66.848  1.00  0.00    -0.082 A  
HETATM   25  C   UNL     1      -6.286   8.272  67.257  1.00  0.00    -0.057 A  
HETATM   26  C   UNL     1      -6.521   8.888  68.484  1.00  0.00    -0.055 A  
HETATM   27  C   UNL     1      -7.575   8.454  69.294  1.00  0.00    -0.089 A  
ENDBRANCH  21  22
ENDBRANCH  13  16
ENDBRANCH   7  10
ENDBRANCH   5   7
ENDBRANCH   2   3
TORSDOF 5
ENDMDL
MODEL       97
REMARK 921   NORMALIZED FREE ENERGY PREDICTED BY IDOCK:   -5.35 KCAL/MOL
REMARK 922        TOTAL FREE ENERGY PREDICTED BY IDOCK:   -8.00 KCAL/MOL
REMARK 923 INTER-LIGAND FREE ENERGY PREDICTED BY IDOCK:   -7.08 KCAL/MOL
REMARK 924 INTRA-LIGAND FREE ENERGY PREDICTED BY IDOCK:   -0.91 KCAL/MOL
REMARK 927      BINDING AFFINITY PREDICTED BY RF-SCORE:    0.00 PKD
ROOT
HETATM    1  C   UNL     1     -12.018  12.910  63.336  1.00  0.00    -0.612 C  
HETATM    2  C   UNL     1     -12.519  12.451  64.692  1.00  0.00    -0.500 C  
ENDROOT
BRANCH   2   3
HETATM    3  C   UNL     1     -11.375  12.406  65.678  1.00  0.00    -0.347 C  
HETATM    4  O   UNL     1     -11.429  12.988  66.751  1.00  0.00    -0.312 OA 
HETATM    5  N   UNL     1     -10.301  11.590  65.298  1.00  0.00    -0.260 N  
HETATM    6  H   UNL     1     -10.379  11.102  64.406  1.00  0.00     0.000 HD 
BRANCH   5   7
HETATM    7  S   UNL     1      -8.913  11.351  66.177  1.00  0.00    -0.184 S  
HETATM    8  O   UNL     1      -8.063  10.527  65.336  1.00  0.00    -0.155 OA 
HETATM    9  O   UNL     1      -8.432  12.614  66.698  1.00  0.00    -0.110 OA 
BRANCH   7  10
HETATM   10  C   UNL     1      -9.469  10.337  67.522  1.00  0.00    -0.152 A  
HETATM   11  C   UNL     1     -10.417   9.341  67.293  1.00  0.00    -0.334 A  
HETATM   12  C   UNL     1     -11.020   8.698  68.382  1.00  0.00     0.126 A  
HETATM   13  C   UNL     1     -10.648   9.007  69.700  1.00  0.00    -0.230 A  
HETATM   14  C   UNL     1      -9.556   9.871  69.885  1.00  0.00    -0.265 A  
HETATM   15  C   UNL     1      -8.991  10.565  68.809  1.00  0.00    -0.166 A  
BRANCH  13  16
HETATM   16  C   UNL     1     -11.446   8.573  70.852  1.00  0.00    -0.302 A  
HETATM   17  C   UNL     1     -12.334   9.354  71.574  1.00  0.00    -0.370 A  
HETATM   18  C   UNL     1     -12.837  10.743  71.559  1.00  0.00    -0.567 C  
HETATM   19  O   UNL     1     -12.878   8.609  72.570  1.00  0.00    -0.379 OA 
HETATM   20  N   UNL     1     -12.357   7.347  72.560  1.00  0.00    -0.036 NA 
HETATM   21  C   UNL     1     -11.468   7.301  71.554  1.00  0.00    -0.263 A  
BRANCH  21  22
HETATM   22  C   UNL     1     -10.718   6.054  71.327  1.00  0.00    -0.320 A  
HETATM   23  C   UNL     1     -10.408   5.217  72.412  1.00  0.00    -0.257 A  
HETATM   24  C   UNL     1      -9.782   3.982  72.213  1.00  0.00    -0.217 A  
HETATM   25  C   UNL     1      -9.472   3.559  70.924  1.00  0.00    -0.236 A  
HETATM   26  C   UNL     1      -9.728   4.397  69.841  1.00  0.00    -0.291 A  
HETATM   27  C   UNL     1     -10.308   5.652  70.049  1.00  0.00    -0.345 A  
ENDBRANCH  21  22
ENDBRANCH  13  16
ENDBRANCH   7  10
ENDBRANCH   5   7
ENDBRANCH   2   3
TORSDOF 5
ENDMDL
MODEL       98
REMARK 921   NORMALIZED FREE ENERGY PREDICTED BY IDOCK:   -5.35 KCAL/MOL
REMARK 922        TOTAL FREE ENERGY PREDICTED BY IDOCK:   -8.00 KCAL/MOL
REMARK 923 INTER-LIGAND FREE ENERGY PREDICTED BY IDOCK:   -7.15 KCAL/MOL
REMARK 924 INTRA-LIGAND FREE ENERGY PREDICTED BY IDOCK:   -0.85 KCAL/MOL
REMARK 927      BINDING AFFINITY PREDICTED BY RF-SCORE:    0.00 PKD
ROOT
HETATM    1  C   UNL     1      -9.346  17.036  67.201  1.00  0.00    -0.241 C  
HETATM    2  C   UNL     1      -9.924  16.723  65.834  1.00  0.00    -0.299 C  
ENDROOT
BRANCH   2   3
HETATM    3  C   UNL     1     -10.858  15.538  65.928  1.00  0.00    -0.313 C  
HETATM    4  O   UNL     1     -11.340  15.185  66.995  1.00  0.00    -0.336 OA 
HETATM    5  N   UNL     1     -11.180  14.943  64.703  1.00  0.00    -0.582 N  
HETATM    6  H   UNL     1     -10.768  15.350  63.863  1.00  0.00     0.000 HD 
BRANCH   5   7
HETATM    7  S   UNL     1     -12.177  13.630  64.500  1.00  0.00    -0.385 S  
HETATM    8  O   UNL     1     -13.384  13.944  65.244  1.00  0.00    -0.732 OA 
HETATM    9  O   UNL     1     -12.248  13.274  63.097  1.00  0.00    -0.628 OA 
BRANCH   7  10
HETATM   10  C   UNL     1     -11.327  12.350  65.385  1.00  0.00    -0.337 A  
HETATM   11  C   UNL     1     -11.734  12.011  66.675  1.00  0.00    -0.331 A  
HETATM   12  C   UNL     1     -10.930  11.169  67.455  1.00  0.00    -0.347 A  
HETATM   13  C   UNL     1      -9.746  10.621  66.938  1.00  0.00    -0.213 A  
HETATM   14  C   UNL     1      -9.469  10.827  65.576  1.00  0.00    -0.253 A  
HETATM   15  C   UNL     1     -10.230  11.716  64.810  1.00  0.00    -0.321 A  
BRANCH  13  16
HETATM   16  C   UNL     1      -8.748   9.981  67.803  1.00  0.00    -0.125 A  
HETATM   17  C   UNL     1      -7.759  10.625  68.530  1.00  0.00    -0.107 A  
HETATM   18  C   UNL     1      -7.294  12.008  68.764  1.00  0.00    -0.098 C  
HETATM   19  O   UNL     1      -7.025   9.703  69.202  1.00  0.00    -0.049 OA 
HETATM   20  N   UNL     1      -7.473   8.443  68.926  1.00  0.00    -0.089 NA 
HETATM   21  C   UNL     1      -8.493   8.574  68.062  1.00  0.00    -0.131 A  
BRANCH  21  22
HETATM   22  C   UNL     1      -9.156   7.359  67.559  1.00  0.00    -0.128 A  
HETATM   23  C   UNL     1     -10.559   7.266  67.583  1.00  0.00    -0.316 A  
HETATM   24  C   UNL     1     -11.216   6.166  67.025  1.00  0.00    -0.192 A  
HETATM   25  C   UNL     1     -10.483   5.150  66.419  1.00  0.00    -0.356 A  
HETATM   26  C   UNL     1      -9.091   5.202  66.429  1.00  0.00    -0.131 A  
HETATM   27  C   UNL     1      -8.435   6.279  67.032  1.00  0.00    -0.108 A  
ENDBRANCH  21  22
ENDBRANCH  13  16
ENDBRANCH   7  10
ENDBRANCH   5   7
ENDBRANCH   2   3
TORSDOF 5
ENDMDL
MODEL       99
REMARK 921   NORMALIZED FREE ENERGY PREDICTED BY IDOCK:   -5.35 KCAL/MOL
REMARK 922        TOTAL FREE ENERGY PREDICTED BY IDOCK:   -7.99 KCAL/MOL
REMARK 923 INTER-LIGAND FREE ENERGY PREDICTED BY IDOCK:   -6.74 KCAL/MOL
REMARK 924 INTRA-LIGAND FREE ENERGY PREDICTED BY IDOCK:   -1.25 KCAL/MOL
REMARK 927      BINDING AFFINITY PREDICTED BY RF-SCORE:    0.00 PKD
ROOT
HETATM    1  C   UNL     1      -8.639   7.553  71.802  1.00  0.00    -0.127 C  
HETATM    2  C   UNL     1      -9.798   6.785  71.195  1.00  0.00    -0.188 C  
ENDROOT
BRANCH   2   3
HETATM    3  C   UNL     1      -9.865   7.042  69.708  1.00  0.00    -0.169 C  
HETATM    4  O   UNL     1     -10.927   7.256  69.142  1.00  0.00    -0.173 OA 
HETATM    5  N   UNL     1      -8.624   7.092  69.061  1.00  0.00    -0.129 N  
HETATM    6  H   UNL     1      -7.792   6.956  69.636  1.00  0.00     0.000 HD 
BRANCH   5   7
HETATM    7  S   UNL     1      -8.391   7.356  67.438  1.00  0.00    -0.116 S  
HETATM    8  O   UNL     1      -6.952   7.319  67.245  1.00  0.00    -0.073 OA 
HETATM    9  O   UNL     1      -9.261   6.492  66.666  1.00  0.00    -0.144 OA 
BRANCH   7  10
HETATM   10  C   UNL     1      -8.909   9.040  67.235  1.00  0.00    -0.117 A  
HETATM   11  C   UNL     1      -8.257  10.055  67.933  1.00  0.00    -0.113 A  
HETATM   12  C   UNL     1      -8.805  11.344  67.950  1.00  0.00    -0.149 A  
HETATM   13  C   UNL     1      -9.974  11.641  67.233  1.00  0.00    -0.210 A  
HETATM   14  C   UNL     1     -10.494  10.646  66.388  1.00  0.00    -0.276 A  
HETATM   15  C   UNL     1      -9.992   9.340  66.414  1.00  0.00    -0.356 A  
BRANCH  13  16
HETATM   16  C   UNL     1     -10.725  12.882  67.456  1.00  0.00    -0.241 A  
HETATM   17  C   UNL     1     -10.712  14.005  66.643  1.00  0.00    -0.281 A  
HETATM   18  C   UNL     1     -10.070  14.442  65.386  1.00  0.00    -0.388 C  
HETATM   19  O   UNL     1     -11.524  14.953  67.176  1.00  0.00    -0.352 OA 
HETATM   20  N   UNL     1     -12.065  14.512  68.350  1.00  0.00    -0.267 NA 
HETATM   21  C   UNL     1     -11.579  13.278  68.562  1.00  0.00    -0.333 A  
BRANCH  21  22
HETATM   22  C   UNL     1     -11.972  12.563  69.788  1.00  0.00    -0.359 A  
HETATM   23  C   UNL     1     -12.587  13.264  70.840  1.00  0.00    -0.386 A  
HETATM   24  C   UNL     1     -13.056  12.594  71.974  1.00  0.00    -0.471 A  
HETATM   25  C   UNL     1     -12.933  11.211  72.066  1.00  0.00    -0.385 A  
HETATM   26  C   UNL     1     -12.284  10.506  71.055  1.00  0.00    -0.505 A  
HETATM   27  C   UNL     1     -11.771  11.185  69.946  1.00  0.00    -0.433 A  
ENDBRANCH  21  22
ENDBRANCH  13  16
ENDBRANCH   7  10
ENDBRANCH   5   7
ENDBRANCH   2   3
TORSDOF 5
ENDMDL
MODEL      100
REMARK 921   NORMALIZED FREE ENERGY PREDICTED BY IDOCK:   -5.34 KCAL/MOL
REMARK 922        TOTAL FREE ENERGY PREDICTED BY IDOCK:   -7.98 KCAL/MOL
REMARK 923 INTER-LIGAND FREE ENERGY PREDICTED BY IDOCK:   -8.04 KCAL/MOL
REMARK 924 INTRA-LIGAND FREE ENERGY PREDICTED BY IDOCK:    0.07 KCAL/MOL
REMARK 927      BINDING AFFINITY PREDICTED BY RF-SCORE:    0.00 PKD
ROOT
HETATM    1  C   UNL     1      -5.452  16.796  67.409  1.00  0.00    -0.174 C  
HETATM    2  C   UNL     1      -5.733  18.232  67.005  1.00  0.00    -0.159 C  
ENDROOT
BRANCH   2   3
HETATM    3  C   UNL     1      -7.201  18.401  66.688  1.00  0.00    -0.214 C  
HETATM    4  O   UNL     1      -7.690  17.957  65.660  1.00  0.00    -0.541 OA 
HETATM    5  N   UNL     1      -7.952  19.027  67.691  1.00  0.00    -0.256 N  
HETATM    6  H   UNL     1      -7.457  19.310  68.537  1.00  0.00     0.000 HD 
BRANCH   5   7
HETATM    7  S   UNL     1      -9.580  19.347  67.620  1.00  0.00    -0.340 S  
HETATM    8  O   UNL     1      -9.917  19.916  68.913  1.00  0.00    -0.409 OA 
HETATM    9  O   UNL     1      -9.892  20.058  66.397  1.00  0.00    -0.408 OA 
BRANCH   7  10
HETATM   10  C   UNL     1     -10.297  17.726  67.551  1.00  0.00    -0.369 A  
HETATM   11  C   UNL     1     -10.208  16.881  68.657  1.00  0.00    -0.301 A  
HETATM   12  C   UNL     1     -10.568  15.533  68.527  1.00  0.00    -0.246 A  
HETATM   13  C   UNL     1     -11.066  15.033  67.314  1.00  0.00    -0.334 A  
HETATM   14  C   UNL     1     -11.324  15.952  66.284  1.00  0.00     0.225 A  
HETATM   15  C   UNL     1     -10.909  17.285  66.382  1.00  0.00     0.061 A  
BRANCH  13  16
HETATM   16  C   UNL     1     -11.179  13.592  67.060  1.00  0.00    -0.328 A  
HETATM   17  C   UNL     1     -10.930  12.950  65.856  1.00  0.00    -0.276 A  
HETATM   18  C   UNL     1     -10.505  13.311  64.488  1.00  0.00    -0.434 C  
HETATM   19  O   UNL     1     -11.148  11.619  66.006  1.00  0.00    -0.301 OA 
HETATM   20  N   UNL     1     -11.569  11.344  67.276  1.00  0.00    -0.560 NA 
HETATM   21  C   UNL     1     -11.627  12.517  67.928  1.00  0.00    -0.347 A  
BRANCH  21  22
HETATM   22  C   UNL     1     -12.088  12.527  69.326  1.00  0.00    -0.214 A  
HETATM   23  C   UNL     1     -12.390  13.748  69.955  1.00  0.00    -0.334 A  
HETATM   24  C   UNL     1     -12.919  13.779  71.249  1.00  0.00    -0.409 A  
HETATM   25  C   UNL     1     -13.171  12.590  71.927  1.00  0.00    -0.495 A  
HETATM   26  C   UNL     1     -12.833  11.374  71.339  1.00  0.00    -0.502 A  
HETATM   27  C   UNL     1     -12.257  11.348  70.065  1.00  0.00    -0.377 A  
ENDBRANCH  21  22
ENDBRANCH  13  16
ENDBRANCH   7  10
ENDBRANCH   5   7
ENDBRANCH   2   3
TORSDOF 5
ENDMDL
MODEL      101
REMARK 921   NORMALIZED FREE ENERGY PREDICTED BY IDOCK:   -5.33 KCAL/MOL
REMARK 922        TOTAL FREE ENERGY PREDICTED BY IDOCK:   -7.97 KCAL/MOL
REMARK 923 INTER-LIGAND FREE ENERGY PREDICTED BY IDOCK:   -7.66 KCAL/MOL
REMARK 924 INTRA-LIGAND FREE ENERGY PREDICTED BY IDOCK:   -0.31 KCAL/MOL
REMARK 927      BINDING AFFINITY PREDICTED BY RF-SCORE:    0.00 PKD
ROOT
HETATM    1  C   UNL     1      -8.513  10.487  63.655  1.00  0.00    -0.133 C  
HETATM    2  C   UNL     1      -9.351  11.235  62.635  1.00  0.00    -0.313 C  
ENDROOT
BRANCH   2   3
HETATM    3  C   UNL     1     -10.394  12.071  63.339  1.00  0.00    -0.434 C  
HETATM    4  O   UNL     1     -11.584  11.963  63.080  1.00  0.00    -0.312 OA 
HETATM    5  N   UNL     1      -9.899  12.905  64.349  1.00  0.00    -0.601 N  
HETATM    6  H   UNL     1      -8.894  12.879  64.524  1.00  0.00     0.000 HD 
BRANCH   5   7
HETATM    7  S   UNL     1     -10.807  13.933  65.285  1.00  0.00    -0.354 S  
HETATM    8  O   UNL     1      -9.973  15.103  65.493  1.00  0.00    -0.335 OA 
HETATM    9  O   UNL     1     -12.138  14.065  64.727  1.00  0.00    -0.393 OA 
BRANCH   7  10
HETATM   10  C   UNL     1     -10.906  13.072  66.833  1.00  0.00    -0.264 A  
HETATM   11  C   UNL     1     -11.032  11.683  66.847  1.00  0.00    -0.342 A  
HETATM   12  C   UNL     1     -11.337  11.029  68.047  1.00  0.00    -0.374 A  
HETATM   13  C   UNL     1     -11.467  11.746  69.247  1.00  0.00    -0.369 A  
HETATM   14  C   UNL     1     -11.143  13.113  69.230  1.00  0.00    -0.201 A  
HETATM   15  C   UNL     1     -10.901  13.785  68.027  1.00  0.00    -0.263 A  
BRANCH  13  16
HETATM   16  C   UNL     1     -12.059  11.145  70.447  1.00  0.00    -0.475 A  
HETATM   17  C   UNL     1     -12.130   9.790  70.736  1.00  0.00    -0.279 A  
HETATM   18  C   UNL     1     -11.725   8.513  70.114  1.00  0.00     0.192 C  
HETATM   19  O   UNL     1     -12.752   9.620  71.930  1.00  0.00    -0.374 OA 
HETATM   20  N   UNL     1     -13.134  10.825  72.446  1.00  0.00    -0.051 NA 
HETATM   21  C   UNL     1     -12.757  11.763  71.561  1.00  0.00    -0.295 A  
BRANCH  21  22
HETATM   22  C   UNL     1     -13.074  13.173  71.845  1.00  0.00    -0.482 A  
HETATM   23  C   UNL     1     -12.570  13.783  73.007  1.00  0.00     0.197 A  
HETATM   24  C   UNL     1     -12.776  15.144  73.252  1.00  0.00    -0.628 A  
HETATM   25  C   UNL     1     -13.475  15.919  72.331  1.00  0.00    -0.440 A  
HETATM   26  C   UNL     1     -14.023  15.321  71.199  1.00  0.00    -0.462 A  
HETATM   27  C   UNL     1     -13.858  13.950  70.982  1.00  0.00     0.121 A  
ENDBRANCH  21  22
ENDBRANCH  13  16
ENDBRANCH   7  10
ENDBRANCH   5   7
ENDBRANCH   2   3
TORSDOF 5
ENDMDL
MODEL      102
REMARK 921   NORMALIZED FREE ENERGY PREDICTED BY IDOCK:   -5.33 KCAL/MOL
REMARK 922        TOTAL FREE ENERGY PREDICTED BY IDOCK:   -7.97 KCAL/MOL
REMARK 923 INTER-LIGAND FREE ENERGY PREDICTED BY IDOCK:   -6.79 KCAL/MOL
REMARK 924 INTRA-LIGAND FREE ENERGY PREDICTED BY IDOCK:   -1.18 KCAL/MOL
REMARK 927      BINDING AFFINITY PREDICTED BY RF-SCORE:    0.00 PKD
ROOT
HETATM    1  C   UNL     1      -7.574   4.432  65.504  1.00  0.00    -0.085 C  
HETATM    2  C   UNL     1      -8.509   4.821  64.375  1.00  0.00    -0.134 C  
ENDROOT
BRANCH   2   3
HETATM    3  C   UNL     1      -8.151   6.196  63.859  1.00  0.00    -0.068 C  
HETATM    4  O   UNL     1      -7.624   6.354  62.768  1.00  0.00    -0.065 OA 
HETATM    5  N   UNL     1      -8.540   7.256  64.687  1.00  0.00    -0.348 N  
HETATM    6  H   UNL     1      -9.025   7.018  65.553  1.00  0.00     0.000 HD 
BRANCH   5   7
HETATM    7  S   UNL     1      -8.279   8.867  64.380  1.00  0.00    -0.164 S  
HETATM    8  O   UNL     1      -6.839   9.044  64.449  1.00  0.00    -0.084 OA 
HETATM    9  O   UNL     1      -9.016   9.272  63.200  1.00  0.00    -0.204 OA 
BRANCH   7  10
HETATM   10  C   UNL     1      -8.979   9.658  65.805  1.00  0.00    -0.169 A  
HETATM   11  C   UNL     1     -10.106   9.112  66.418  1.00  0.00    -0.345 A  
HETATM   12  C   UNL     1     -10.789   9.851  67.393  1.00  0.00    -0.293 A  
HETATM   13  C   UNL     1     -10.326  11.111  67.799  1.00  0.00    -0.215 A  
HETATM   14  C   UNL     1      -9.084  11.543  67.303  1.00  0.00    -0.164 A  
HETATM   15  C   UNL     1      -8.429  10.844  66.283  1.00  0.00    -0.166 A  
BRANCH  13  16
HETATM   16  C   UNL     1     -11.158  12.023  68.592  1.00  0.00    -0.298 A  
HETATM   17  C   UNL     1     -11.676  11.772  69.853  1.00  0.00    -0.323 A  
HETATM   18  C   UNL     1     -11.660  10.681  70.849  1.00  0.00    -0.311 C  
HETATM   19  O   UNL     1     -12.400  12.846  70.262  1.00  0.00    -0.299 OA 
HETATM   20  N   UNL     1     -12.410  13.809  69.294  1.00  0.00    -0.252 NA 
HETATM   21  C   UNL     1     -11.695  13.332  68.262  1.00  0.00    -0.353 A  
BRANCH  21  22
HETATM   22  C   UNL     1     -11.564  14.157  67.049  1.00  0.00    -0.404 A  
HETATM   23  C   UNL     1     -10.722  15.283  67.057  1.00  0.00    -0.313 A  
HETATM   24  C   UNL     1     -10.506  16.027  65.893  1.00  0.00    -0.373 A  
HETATM   25  C   UNL     1     -11.115  15.647  64.700  1.00  0.00    -0.387 A  
HETATM   26  C   UNL     1     -11.990  14.563  64.685  1.00  0.00    -0.478 A  
HETATM   27  C   UNL     1     -12.243  13.852  65.862  1.00  0.00    -0.497 A  
ENDBRANCH  21  22
ENDBRANCH  13  16
ENDBRANCH   7  10
ENDBRANCH   5   7
ENDBRANCH   2   3
TORSDOF 5
ENDMDL
MODEL      103
REMARK 921   NORMALIZED FREE ENERGY PREDICTED BY IDOCK:   -5.33 KCAL/MOL
REMARK 922        TOTAL FREE ENERGY PREDICTED BY IDOCK:   -7.97 KCAL/MOL
REMARK 923 INTER-LIGAND FREE ENERGY PREDICTED BY IDOCK:   -6.78 KCAL/MOL
REMARK 924 INTRA-LIGAND FREE ENERGY PREDICTED BY IDOCK:   -1.19 KCAL/MOL
REMARK 927      BINDING AFFINITY PREDICTED BY RF-SCORE:    0.00 PKD
ROOT
HETATM    1  C   UNL     1     -14.397   8.944  72.297  1.00  0.00    -0.418 C  
HETATM    2  C   UNL     1     -13.190   9.805  71.976  1.00  0.00    -0.557 C  
ENDROOT
BRANCH   2   3
HETATM    3  C   UNL     1     -11.935   8.963  71.997  1.00  0.00    -0.369 C  
HETATM    4  O   UNL     1     -10.846   9.428  71.695  1.00  0.00    -0.368 OA 
HETATM    5  N   UNL     1     -12.111   7.654  72.462  1.00  0.00    -0.543 N  
HETATM    6  H   UNL     1     -13.053   7.381  72.743  1.00  0.00     0.000 HD 
BRANCH   5   7
HETATM    7  S   UNL     1     -10.917   6.507  72.592  1.00  0.00    -0.261 S  
HETATM    8  O   UNL     1      -9.857   7.141  73.356  1.00  0.00    -0.204 OA 
HETATM    9  O   UNL     1     -11.485   5.247  73.026  1.00  0.00    -0.313 OA 
BRANCH   7  10
HETATM   10  C   UNL     1     -10.343   6.345  70.922  1.00  0.00    -0.204 A  
HETATM   11  C   UNL     1      -8.979   6.436  70.646  1.00  0.00    -0.144 A  
HETATM   12  C   UNL     1      -8.549   6.536  69.317  1.00  0.00    -0.127 A  
HETATM   13  C   UNL     1      -9.466   6.494  68.256  1.00  0.00    -0.118 A  
HETATM   14  C   UNL     1     -10.807   6.207  68.562  1.00  0.00    -0.389 A  
HETATM   15  C   UNL     1     -11.255   6.170  69.887  1.00  0.00    -0.484 A  
BRANCH  13  16
HETATM   16  C   UNL     1      -9.089   6.879  66.891  1.00  0.00    -0.152 A  
HETATM   17  C   UNL     1      -8.472   6.067  65.951  1.00  0.00    -0.143 A  
HETATM   18  C   UNL     1      -7.979   4.678  65.856  1.00  0.00    -0.099 C  
HETATM   19  O   UNL     1      -8.277   6.774  64.809  1.00  0.00    -0.121 OA 
HETATM   20  N   UNL     1      -8.719   8.057  64.961  1.00  0.00    -0.010 NA 
HETATM   21  C   UNL     1      -9.187   8.161  66.215  1.00  0.00    -0.191 A  
BRANCH  21  22
HETATM   22  C   UNL     1      -9.705   9.462  66.673  1.00  0.00    -0.280 A  
HETATM   23  C   UNL     1     -10.216  10.379  65.738  1.00  0.00    -0.305 A  
HETATM   24  C   UNL     1     -10.800  11.580  66.155  1.00  0.00    -0.330 A  
HETATM   25  C   UNL     1     -10.896  11.873  67.512  1.00  0.00    -0.283 A  
HETATM   26  C   UNL     1     -10.352  10.999  68.448  1.00  0.00    -0.200 A  
HETATM   27  C   UNL     1      -9.724   9.823  68.027  1.00  0.00    -0.165 A  
ENDBRANCH  21  22
ENDBRANCH  13  16
ENDBRANCH   7  10
ENDBRANCH   5   7
ENDBRANCH   2   3
TORSDOF 5
ENDMDL
MODEL      104
REMARK 921   NORMALIZED FREE ENERGY PREDICTED BY IDOCK:   -5.32 KCAL/MOL
REMARK 922        TOTAL FREE ENERGY PREDICTED BY IDOCK:   -7.96 KCAL/MOL
REMARK 923 INTER-LIGAND FREE ENERGY PREDICTED BY IDOCK:   -6.85 KCAL/MOL
REMARK 924 INTRA-LIGAND FREE ENERGY PREDICTED BY IDOCK:   -1.11 KCAL/MOL
REMARK 927      BINDING AFFINITY PREDICTED BY RF-SCORE:    0.00 PKD
ROOT
HETATM    1  C   UNL     1      -8.448  17.089  66.218  1.00  0.00    -0.304 C  
HETATM    2  C   UNL     1      -9.841  16.762  66.722  1.00  0.00    -0.282 C  
ENDROOT
BRANCH   2   3
HETATM    3  C   UNL     1     -10.597  15.976  65.676  1.00  0.00    -0.377 C  
HETATM    4  O   UNL     1     -10.969  16.491  64.631  1.00  0.00    -0.732 OA 
HETATM    5  N   UNL     1     -10.762  14.616  65.965  1.00  0.00    -0.302 N  
HETATM    6  H   UNL     1     -10.364  14.273  66.840  1.00  0.00     0.000 HD 
BRANCH   5   7
HETATM    7  S   UNL     1     -11.549  13.513  65.005  1.00  0.00    -0.343 S  
HETATM    8  O   UNL     1     -12.964  13.780  65.193  1.00  0.00    -0.738 OA 
HETATM    9  O   UNL     1     -10.969  13.510  63.677  1.00  0.00    -0.001 OA 
BRANCH   7  10
HETATM   10  C   UNL     1     -11.190  11.970  65.802  1.00  0.00    -0.334 A  
HETATM   11  C   UNL     1     -11.626  11.746  67.108  1.00  0.00    -0.342 A  
HETATM   12  C   UNL     1     -11.152  10.632  67.812  1.00  0.00    -0.385 A  
HETATM   13  C   UNL     1     -10.286   9.709  67.207  1.00  0.00    -0.310 A  
HETATM   14  C   UNL     1     -10.025   9.861  65.835  1.00  0.00    -0.347 A  
HETATM   15  C   UNL     1     -10.439  11.003  65.141  1.00  0.00    -0.329 A  
BRANCH  13  16
HETATM   16  C   UNL     1      -9.554   8.706  67.988  1.00  0.00    -0.168 A  
HETATM   17  C   UNL     1      -9.870   7.360  68.096  1.00  0.00    -0.156 A  
HETATM   18  C   UNL     1     -10.895   6.429  67.582  1.00  0.00    -0.425 C  
HETATM   19  O   UNL     1      -8.969   6.753  68.910  1.00  0.00    -0.131 OA 
HETATM   20  N   UNL     1      -8.065   7.662  69.383  1.00  0.00    -0.125 NA 
HETATM   21  C   UNL     1      -8.408   8.855  68.869  1.00  0.00    -0.122 A  
BRANCH  21  22
HETATM   22  C   UNL     1      -7.617  10.040  69.241  1.00  0.00    -0.109 A  
HETATM   23  C   UNL     1      -6.868  10.036  70.431  1.00  0.00    -0.140 A  
HETATM   24  C   UNL     1      -6.034  11.110  70.759  1.00  0.00    -0.003 A  
HETATM   25  C   UNL     1      -5.924  12.195  69.895  1.00  0.00    -0.149 A  
HETATM   26  C   UNL     1      -6.695  12.237  68.736  1.00  0.00    -0.089 A  
HETATM   27  C   UNL     1      -7.566  11.185  68.436  1.00  0.00    -0.110 A  
ENDBRANCH  21  22
ENDBRANCH  13  16
ENDBRANCH   7  10
ENDBRANCH   5   7
ENDBRANCH   2   3
TORSDOF 5
ENDMDL
MODEL      105
REMARK 921   NORMALIZED FREE ENERGY PREDICTED BY IDOCK:   -5.32 KCAL/MOL
REMARK 922        TOTAL FREE ENERGY PREDICTED BY IDOCK:   -7.96 KCAL/MOL
REMARK 923 INTER-LIGAND FREE ENERGY PREDICTED BY IDOCK:   -6.82 KCAL/MOL
REMARK 924 INTRA-LIGAND FREE ENERGY PREDICTED BY IDOCK:   -1.14 KCAL/MOL
REMARK 927      BINDING AFFINITY PREDICTED BY RF-SCORE:    0.00 PKD
ROOT
HETATM    1  C   UNL     1     -10.617  19.509  67.234  1.00  0.00    -0.610 C  
HETATM    2  C   UNL     1     -10.368  18.115  67.778  1.00  0.00    -0.413 C  
ENDROOT
BRANCH   2   3
HETATM    3  C   UNL     1     -10.506  17.097  66.670  1.00  0.00    -0.259 C  
HETATM    4  O   UNL     1     -10.445  17.418  65.492  1.00  0.00    -0.624 OA 
HETATM    5  N   UNL     1     -10.628  15.770  67.102  1.00  0.00    -0.310 N  
HETATM    6  H   UNL     1     -10.611  15.603  68.108  1.00  0.00     0.000 HD 
BRANCH   5   7
HETATM    7  S   UNL     1     -10.796  14.445  66.114  1.00  0.00    -0.317 S  
HETATM    8  O   UNL     1     -12.148  14.524  65.592  1.00  0.00    -0.357 OA 
HETATM    9  O   UNL     1      -9.663  14.350  65.216  1.00  0.00    -0.243 OA 
BRANCH   7  10
HETATM   10  C   UNL     1     -10.748  13.092  67.259  1.00  0.00    -0.250 A  
HETATM   11  C   UNL     1      -9.567  12.800  67.940  1.00  0.00    -0.211 A  
HETATM   12  C   UNL     1      -9.464  11.605  68.664  1.00  0.00    -0.129 A  
HETATM   13  C   UNL     1     -10.549  10.722  68.757  1.00  0.00    -0.229 A  
HETATM   14  C   UNL     1     -11.780  11.139  68.224  1.00  0.00    -0.323 A  
HETATM   15  C   UNL     1     -11.876  12.298  67.445  1.00  0.00    -0.327 A  
BRANCH  13  16
HETATM   16  C   UNL     1     -10.391   9.351  69.255  1.00  0.00    -0.217 A  
HETATM   17  C   UNL     1     -10.808   8.873  70.489  1.00  0.00    -0.236 A  
HETATM   18  C   UNL     1     -11.490   9.391  71.692  1.00  0.00    -0.463 C  
HETATM   19  O   UNL     1     -10.482   7.560  70.593  1.00  0.00    -0.212 OA 
HETATM   20  N   UNL     1      -9.826   7.140  69.471  1.00  0.00    -0.161 NA 
HETATM   21  C   UNL     1      -9.729   8.204  68.657  1.00  0.00    -0.153 A  
BRANCH  21  22
HETATM   22  C   UNL     1      -9.029   8.050  67.371  1.00  0.00    -0.141 A  
HETATM   23  C   UNL     1      -9.594   8.583  66.199  1.00  0.00    -0.276 A  
HETATM   24  C   UNL     1      -8.906   8.534  64.982  1.00  0.00    -0.074 A  
HETATM   25  C   UNL     1      -7.636   7.968  64.923  1.00  0.00    -0.106 A  
HETATM   26  C   UNL     1      -7.081   7.393  66.063  1.00  0.00    -0.066 A  
HETATM   27  C   UNL     1      -7.793   7.398  67.267  1.00  0.00    -0.114 A  
ENDBRANCH  21  22
ENDBRANCH  13  16
ENDBRANCH   7  10
ENDBRANCH   5   7
ENDBRANCH   2   3
TORSDOF 5
ENDMDL
MODEL      106
REMARK 921   NORMALIZED FREE ENERGY PREDICTED BY IDOCK:   -5.32 KCAL/MOL
REMARK 922        TOTAL FREE ENERGY PREDICTED BY IDOCK:   -7.96 KCAL/MOL
REMARK 923 INTER-LIGAND FREE ENERGY PREDICTED BY IDOCK:   -7.11 KCAL/MOL
REMARK 924 INTRA-LIGAND FREE ENERGY PREDICTED BY IDOCK:   -0.85 KCAL/MOL
REMARK 927      BINDING AFFINITY PREDICTED BY RF-SCORE:    0.00 PKD
ROOT
HETATM    1  C   UNL     1      -7.817  10.703  62.389  1.00  0.00    -0.204 C  
HETATM    2  C   UNL     1      -8.376   9.933  63.570  1.00  0.00    -0.166 C  
ENDROOT
BRANCH   2   3
HETATM    3  C   UNL     1      -9.150  10.865  64.474  1.00  0.00    -0.163 C  
HETATM    4  O   UNL     1     -10.360  11.000  64.371  1.00  0.00    -0.317 OA 
HETATM    5  N   UNL     1      -8.388  11.487  65.471  1.00  0.00    -0.354 N  
HETATM    6  H   UNL     1      -7.393  11.263  65.506  1.00  0.00     0.000 HD 
BRANCH   5   7
HETATM    7  S   UNL     1      -8.966  12.557  66.602  1.00  0.00    -0.127 S  
HETATM    8  O   UNL     1      -7.792  13.053  67.298  1.00  0.00    -0.171 OA 
HETATM    9  O   UNL     1      -9.899  13.476  65.982  1.00  0.00    -0.288 OA 
BRANCH   7  10
HETATM   10  C   UNL     1      -9.844  11.504  67.727  1.00  0.00    -0.177 A  
HETATM   11  C   UNL     1     -11.226  11.360  67.607  1.00  0.00    -0.346 A  
HETATM   12  C   UNL     1     -11.944  10.718  68.623  1.00  0.00    -0.103 A  
HETATM   13  C   UNL     1     -11.288  10.172  69.737  1.00  0.00    -0.312 A  
HETATM   14  C   UNL     1      -9.884  10.165  69.730  1.00  0.00    -0.245 A  
HETATM   15  C   UNL     1      -9.161  10.859  68.753  1.00  0.00    -0.187 A  
BRANCH  13  16
HETATM   16  C   UNL     1     -12.020   9.755  70.939  1.00  0.00    -0.413 A  
HETATM   17  C   UNL     1     -12.778  10.574  71.762  1.00  0.00    -0.402 A  
HETATM   18  C   UNL     1     -13.166  11.997  71.837  1.00  0.00    -0.469 C  
HETATM   19  O   UNL     1     -13.295   9.833  72.775  1.00  0.00    -0.123 OA 
HETATM   20  N   UNL     1     -12.880   8.536  72.678  1.00  0.00    -0.263 NA 
HETATM   21  C   UNL     1     -12.085   8.462  71.597  1.00  0.00    -0.313 A  
BRANCH  21  22
HETATM   22  C   UNL     1     -11.461   7.171  71.264  1.00  0.00    -0.314 A  
HETATM   23  C   UNL     1     -11.227   6.833  69.920  1.00  0.00    -0.379 A  
HETATM   24  C   UNL     1     -10.551   5.657  69.581  1.00  0.00    -0.401 A  
HETATM   25  C   UNL     1     -10.083   4.810  70.582  1.00  0.00    -0.288 A  
HETATM   26  C   UNL     1     -10.348   5.104  71.917  1.00  0.00    -0.275 A  
HETATM   27  C   UNL     1     -11.069   6.255  72.250  1.00  0.00    -0.311 A  
ENDBRANCH  21  22
ENDBRANCH  13  16
ENDBRANCH   7  10
ENDBRANCH   5   7
ENDBRANCH   2   3
TORSDOF 5
ENDMDL
MODEL      107
REMARK 921   NORMALIZED FREE ENERGY PREDICTED BY IDOCK:   -5.31 KCAL/MOL
REMARK 922        TOTAL FREE ENERGY PREDICTED BY IDOCK:   -7.94 KCAL/MOL
REMARK 923 INTER-LIGAND FREE ENERGY PREDICTED BY IDOCK:   -6.85 KCAL/MOL
REMARK 924 INTRA-LIGAND FREE ENERGY PREDICTED BY IDOCK:   -1.09 KCAL/MOL
REMARK 927      BINDING AFFINITY PREDICTED BY RF-SCORE:    0.00 PKD
ROOT
HETATM    1  C   UNL     1     -11.688  15.041  69.682  1.00  0.00    -0.353 C  
HETATM    2  C   UNL     1     -11.940  13.582  70.012  1.00  0.00    -0.410 C  
ENDROOT
BRANCH   2   3
HETATM    3  C   UNL     1     -11.832  12.744  68.759  1.00  0.00    -0.307 C  
HETATM    4  O   UNL     1     -12.410  11.672  68.654  1.00  0.00    -0.394 OA 
HETATM    5  N   UNL     1     -11.094  13.326  67.722  1.00  0.00    -0.256 N  
HETATM    6  H   UNL     1     -10.699  14.251  67.892  1.00  0.00     0.000 HD 
BRANCH   5   7
HETATM    7  S   UNL     1     -10.807  12.639  66.237  1.00  0.00    -0.280 S  
HETATM    8  O   UNL     1     -12.114  12.256  65.732  1.00  0.00    -0.587 OA 
HETATM    9  O   UNL     1      -9.935  13.492  65.456  1.00  0.00    -0.281 OA 
BRANCH   7  10
HETATM   10  C   UNL     1      -9.943  11.147  66.655  1.00  0.00    -0.207 A  
HETATM   11  C   UNL     1     -10.224   9.967  65.966  1.00  0.00    -0.277 A  
HETATM   12  C   UNL     1      -9.715   8.752  66.442  1.00  0.00    -0.335 A  
HETATM   13  C   UNL     1      -8.884   8.710  67.572  1.00  0.00    -0.139 A  
HETATM   14  C   UNL     1      -8.467   9.933  68.122  1.00  0.00    -0.114 A  
HETATM   15  C   UNL     1      -9.020  11.146  67.695  1.00  0.00    -0.140 A  
BRANCH  13  16
HETATM   16  C   UNL     1      -8.573   7.451  68.257  1.00  0.00    -0.124 A  
HETATM   17  C   UNL     1      -7.627   6.516  67.866  1.00  0.00    -0.103 A  
HETATM   18  C   UNL     1      -6.642   6.341  66.778  1.00  0.00    -0.055 C  
HETATM   19  O   UNL     1      -7.631   5.480  68.743  1.00  0.00    -0.081 OA 
HETATM   20  N   UNL     1      -8.579   5.675  69.706  1.00  0.00    -0.120 NA 
HETATM   21  C   UNL     1      -9.186   6.840  69.424  1.00  0.00    -0.143 A  
BRANCH  21  22
HETATM   22  C   UNL     1     -10.288   7.292  70.290  1.00  0.00    -0.219 A  
HETATM   23  C   UNL     1     -10.154   8.479  71.031  1.00  0.00    -0.257 A  
HETATM   24  C   UNL     1     -11.220   8.980  71.785  1.00  0.00    -0.448 A  
HETATM   25  C   UNL     1     -12.440   8.311  71.796  1.00  0.00    -0.367 A  
HETATM   26  C   UNL     1     -12.576   7.109  71.107  1.00  0.00    -0.384 A  
HETATM   27  C   UNL     1     -11.493   6.584  70.395  1.00  0.00    -0.465 A  
ENDBRANCH  21  22
ENDBRANCH  13  16
ENDBRANCH   7  10
ENDBRANCH   5   7
ENDBRANCH   2   3
TORSDOF 5
ENDMDL
MODEL      108
REMARK 921   NORMALIZED FREE ENERGY PREDICTED BY IDOCK:   -5.30 KCAL/MOL
REMARK 922        TOTAL FREE ENERGY PREDICTED BY IDOCK:   -7.94 KCAL/MOL
REMARK 923 INTER-LIGAND FREE ENERGY PREDICTED BY IDOCK:   -6.93 KCAL/MOL
REMARK 924 INTRA-LIGAND FREE ENERGY PREDICTED BY IDOCK:   -1.01 KCAL/MOL
REMARK 927      BINDING AFFINITY PREDICTED BY RF-SCORE:    0.00 PKD
ROOT
HETATM    1  C   UNL     1     -12.139  13.957  64.353  1.00  0.00    -0.477 C  
HETATM    2  C   UNL     1     -11.416  15.288  64.449  1.00  0.00    -0.244 C  
ENDROOT
BRANCH   2   3
HETATM    3  C   UNL     1     -10.547  15.315  65.685  1.00  0.00    -0.362 C  
HETATM    4  O   UNL     1     -10.068  16.357  66.108  1.00  0.00    -0.309 OA 
HETATM    5  N   UNL     1     -10.408  14.083  66.335  1.00  0.00    -0.283 N  
HETATM    6  H   UNL     1     -10.897  13.284  65.931  1.00  0.00     0.000 HD 
BRANCH   5   7
HETATM    7  S   UNL     1      -9.517  13.813  67.710  1.00  0.00    -0.224 S  
HETATM    8  O   UNL     1      -8.158  13.590  67.249  1.00  0.00    -0.168 OA 
HETATM    9  O   UNL     1      -9.803  14.835  68.696  1.00  0.00    -0.213 OA 
BRANCH   7  10
HETATM   10  C   UNL     1     -10.142  12.256  68.285  1.00  0.00    -0.218 A  
HETATM   11  C   UNL     1     -11.504  11.974  68.181  1.00  0.00    -0.383 A  
HETATM   12  C   UNL     1     -12.029  10.853  68.835  1.00  0.00    -0.277 A  
HETATM   13  C   UNL     1     -11.197   9.979  69.551  1.00  0.00    -0.254 A  
HETATM   14  C   UNL     1      -9.810  10.185  69.472  1.00  0.00    -0.255 A  
HETATM   15  C   UNL     1      -9.282  11.336  68.877  1.00  0.00    -0.076 A  
BRANCH  13  16
HETATM   16  C   UNL     1     -11.740   8.974  70.472  1.00  0.00    -0.160 A  
HETATM   17  C   UNL     1     -12.575   9.218  71.552  1.00  0.00    -0.352 A  
HETATM   18  C   UNL     1     -13.220  10.378  72.200  1.00  0.00    -0.418 C  
HETATM   19  O   UNL     1     -12.861   8.044  72.171  1.00  0.00    -0.301 OA 
HETATM   20  N   UNL     1     -12.215   7.010  71.555  1.00  0.00    -0.347 NA 
HETATM   21  C   UNL     1     -11.507   7.542  70.544  1.00  0.00    -0.237 A  
BRANCH  21  22
HETATM   22  C   UNL     1     -10.675   6.652  69.717  1.00  0.00    -0.304 A  
HETATM   23  C   UNL     1      -9.686   5.857  70.322  1.00  0.00    -0.212 A  
HETATM   24  C   UNL     1      -8.949   4.933  69.573  1.00  0.00    -0.130 A  
HETATM   25  C   UNL     1      -9.201   4.780  68.213  1.00  0.00    -0.159 A  
HETATM   26  C   UNL     1     -10.143   5.593  67.589  1.00  0.00    -0.208 A  
HETATM   27  C   UNL     1     -10.843   6.550  68.329  1.00  0.00    -0.359 A  
ENDBRANCH  21  22
ENDBRANCH  13  16
ENDBRANCH   7  10
ENDBRANCH   5   7
ENDBRANCH   2   3
TORSDOF 5
ENDMDL
MODEL      109
REMARK 921   NORMALIZED FREE ENERGY PREDICTED BY IDOCK:   -5.29 KCAL/MOL
REMARK 922        TOTAL FREE ENERGY PREDICTED BY IDOCK:   -7.92 KCAL/MOL
REMARK 923 INTER-LIGAND FREE ENERGY PREDICTED BY IDOCK:   -7.08 KCAL/MOL
REMARK 924 INTRA-LIGAND FREE ENERGY PREDICTED BY IDOCK:   -0.84 KCAL/MOL
REMARK 927      BINDING AFFINITY PREDICTED BY RF-SCORE:    0.00 PKD
ROOT
HETATM    1  C   UNL     1     -10.769  19.766  67.771  1.00  0.00    -0.420 C  
HETATM    2  C   UNL     1     -10.037  19.924  66.452  1.00  0.00    -0.615 C  
ENDROOT
BRANCH   2   3
HETATM    3  C   UNL     1      -8.755  19.124  66.475  1.00  0.00    -0.337 C  
HETATM    4  O   UNL     1      -7.712  19.571  66.019  1.00  0.00    -0.302 OA 
HETATM    5  N   UNL     1      -8.844  17.885  67.121  1.00  0.00    -0.242 N  
HETATM    6  H   UNL     1      -9.748  17.630  67.518  1.00  0.00     0.000 HD 
BRANCH   5   7
HETATM    7  S   UNL     1      -7.601  16.797  67.298  1.00  0.00    -0.190 S  
HETATM    8  O   UNL     1      -6.869  16.843  66.045  1.00  0.00    -0.062 OA 
HETATM    9  O   UNL     1      -6.922  17.020  68.557  1.00  0.00    -0.179 OA 
BRANCH   7  10
HETATM   10  C   UNL     1      -8.448  15.240  67.359  1.00  0.00    -0.179 A  
HETATM   11  C   UNL     1      -8.064  14.278  68.292  1.00  0.00    -0.143 A  
HETATM   12  C   UNL     1      -8.573  12.976  68.192  1.00  0.00    -0.188 A  
HETATM   13  C   UNL     1      -9.503  12.639  67.197  1.00  0.00    -0.214 A  
HETATM   14  C   UNL     1     -10.012  13.678  66.399  1.00  0.00    -0.299 A  
HETATM   15  C   UNL     1      -9.464  14.964  66.449  1.00  0.00    -0.327 A  
BRANCH  13  16
HETATM   16  C   UNL     1      -9.833  11.244  66.886  1.00  0.00    -0.220 A  
HETATM   17  C   UNL     1      -9.583  10.589  65.690  1.00  0.00    -0.226 A  
HETATM   18  C   UNL     1      -8.976  10.895  64.378  1.00  0.00    -0.121 C  
HETATM   19  O   UNL     1     -10.035   9.312  65.775  1.00  0.00    -0.299 OA 
HETATM   20  N   UNL     1     -10.615   9.092  66.992  1.00  0.00    -0.233 NA 
HETATM   21  C   UNL     1     -10.535  10.246  67.675  1.00  0.00    -0.239 A  
BRANCH  21  22
HETATM   22  C   UNL     1     -11.118  10.311  69.025  1.00  0.00    -0.277 A  
HETATM   23  C   UNL     1     -10.785   9.334  69.979  1.00  0.00    -0.259 A  
HETATM   24  C   UNL     1     -11.249   9.425  71.295  1.00  0.00    -0.437 A  
HETATM   25  C   UNL     1     -12.038  10.505  71.682  1.00  0.00    -0.197 A  
HETATM   26  C   UNL     1     -12.418  11.456  70.739  1.00  0.00    -0.460 A  
HETATM   27  C   UNL     1     -11.994  11.335  69.412  1.00  0.00    -0.410 A  
ENDBRANCH  21  22
ENDBRANCH  13  16
ENDBRANCH   7  10
ENDBRANCH   5   7
ENDBRANCH   2   3
TORSDOF 5
ENDMDL
MODEL      110
REMARK 921   NORMALIZED FREE ENERGY PREDICTED BY IDOCK:   -5.27 KCAL/MOL
REMARK 922        TOTAL FREE ENERGY PREDICTED BY IDOCK:   -7.89 KCAL/MOL
REMARK 923 INTER-LIGAND FREE ENERGY PREDICTED BY IDOCK:   -6.83 KCAL/MOL
REMARK 924 INTRA-LIGAND FREE ENERGY PREDICTED BY IDOCK:   -1.07 KCAL/MOL
REMARK 927      BINDING AFFINITY PREDICTED BY RF-SCORE:    0.00 PKD
ROOT
HETATM    1  C   UNL     1      -7.757  15.836  68.975  1.00  0.00    -0.202 C  
HETATM    2  C   UNL     1      -9.212  15.610  69.338  1.00  0.00    -0.279 C  
ENDROOT
BRANCH   2   3
HETATM    3  C   UNL     1      -9.841  14.635  68.369  1.00  0.00    -0.220 C  
HETATM    4  O   UNL     1     -10.137  14.965  67.230  1.00  0.00    -0.234 OA 
HETATM    5  N   UNL     1      -9.977  13.329  68.853  1.00  0.00    -0.431 N  
HETATM    6  H   UNL     1      -9.646  13.145  69.800  1.00  0.00     0.000 HD 
BRANCH   5   7
HETATM    7  S   UNL     1     -10.631  12.052  68.016  1.00  0.00    -0.217 S  
HETATM    8  O   UNL     1     -12.053  12.338  67.928  1.00  0.00    -0.466 OA 
HETATM    9  O   UNL     1      -9.856  11.795  66.820  1.00  0.00    -0.194 OA 
BRANCH   7  10
HETATM   10  C   UNL     1     -10.432  10.698  69.144  1.00  0.00    -0.222 A  
HETATM   11  C   UNL     1      -9.214  10.023  69.209  1.00  0.00    -0.212 A  
HETATM   12  C   UNL     1      -9.127   8.822  69.925  1.00  0.00    -0.158 A  
HETATM   13  C   UNL     1     -10.234   8.314  70.620  1.00  0.00    -0.214 A  
HETATM   14  C   UNL     1     -11.385   9.117  70.693  1.00  0.00    -0.323 A  
HETATM   15  C   UNL     1     -11.503  10.284  69.930  1.00  0.00    -0.340 A  
BRANCH  13  16
HETATM   16  C   UNL     1     -10.263   6.940  71.132  1.00  0.00    -0.211 A  
HETATM   17  C   UNL     1     -10.275   6.562  72.466  1.00  0.00    -0.183 A  
HETATM   18  C   UNL     1     -10.268   7.214  73.792  1.00  0.00    -0.395 C  
HETATM   19  O   UNL     1     -10.294   5.207  72.547  1.00  0.00    -0.189 OA 
HETATM   20  N   UNL     1     -10.266   4.654  71.299  1.00  0.00    -0.172 NA 
HETATM   21  C   UNL     1     -10.217   5.672  70.424  1.00  0.00    -0.235 A  
BRANCH  21  22
HETATM   22  C   UNL     1     -10.143   5.367  68.985  1.00  0.00    -0.283 A  
HETATM   23  C   UNL     1      -9.470   4.212  68.549  1.00  0.00    -0.216 A  
HETATM   24  C   UNL     1      -9.468   3.849  67.198  1.00  0.00    -0.231 A  
HETATM   25  C   UNL     1     -10.152   4.625  66.267  1.00  0.00    -0.292 A  
HETATM   26  C   UNL     1     -10.783   5.797  66.674  1.00  0.00    -0.333 A  
HETATM   27  C   UNL     1     -10.741   6.185  68.017  1.00  0.00    -0.370 A  
ENDBRANCH  21  22
ENDBRANCH  13  16
ENDBRANCH   7  10
ENDBRANCH   5   7
ENDBRANCH   2   3
TORSDOF 5
ENDMDL
MODEL      111
REMARK 921   NORMALIZED FREE ENERGY PREDICTED BY IDOCK:   -5.25 KCAL/MOL
REMARK 922        TOTAL FREE ENERGY PREDICTED BY IDOCK:   -7.87 KCAL/MOL
REMARK 923 INTER-LIGAND FREE ENERGY PREDICTED BY IDOCK:   -6.80 KCAL/MOL
REMARK 924 INTRA-LIGAND FREE ENERGY PREDICTED BY IDOCK:   -1.07 KCAL/MOL
REMARK 927      BINDING AFFINITY PREDICTED BY RF-SCORE:    0.00 PKD
ROOT
HETATM    1  C   UNL     1     -13.618  15.707  73.251  1.00  0.00    -0.452 C  
HETATM    2  C   UNL     1     -12.519  14.768  72.791  1.00  0.00    -0.417 C  
ENDROOT
BRANCH   2   3
HETATM    3  C   UNL     1     -11.715  15.417  71.688  1.00  0.00    -0.415 C  
HETATM    4  O   UNL     1     -11.361  16.585  71.754  1.00  0.00    -0.218 OA 
HETATM    5  N   UNL     1     -11.349  14.559  70.643  1.00  0.00    -0.501 N  
HETATM    6  H   UNL     1     -11.647  13.586  70.711  1.00  0.00     0.000 HD 
BRANCH   5   7
HETATM    7  S   UNL     1     -10.469  14.992  69.302  1.00  0.00    -0.248 S  
HETATM    8  O   UNL     1     -11.351  15.842  68.522  1.00  0.00    -0.343 OA 
HETATM    9  O   UNL     1      -9.157  15.459  69.700  1.00  0.00    -0.263 OA 
BRANCH   7  10
HETATM   10  C   UNL     1     -10.303  13.458  68.428  1.00  0.00    -0.251 A  
HETATM   11  C   UNL     1     -11.442  12.748  68.051  1.00  0.00    -0.364 A  
HETATM   12  C   UNL     1     -11.312  11.439  67.569  1.00  0.00    -0.362 A  
HETATM   13  C   UNL     1     -10.049  10.849  67.412  1.00  0.00    -0.223 A  
HETATM   14  C   UNL     1      -8.919  11.660  67.617  1.00  0.00    -0.166 A  
HETATM   15  C   UNL     1      -9.038  12.944  68.159  1.00  0.00    -0.207 A  
BRANCH  13  16
HETATM   16  C   UNL     1      -9.889   9.408  67.188  1.00  0.00    -0.242 A  
HETATM   17  C   UNL     1     -10.156   8.402  68.104  1.00  0.00    -0.200 A  
HETATM   18  C   UNL     1     -10.642   8.285  69.495  1.00  0.00    -0.216 C  
HETATM   19  O   UNL     1      -9.882   7.199  67.540  1.00  0.00    -0.138 OA 
HETATM   20  N   UNL     1      -9.406   7.365  66.271  1.00  0.00    -0.148 NA 
HETATM   21  C   UNL     1      -9.370   8.687  66.039  1.00  0.00    -0.218 A  
BRANCH  21  22
HETATM   22  C   UNL     1      -8.861   9.166  64.743  1.00  0.00    -0.200 A  
HETATM   23  C   UNL     1      -9.591  10.119  64.013  1.00  0.00    -0.320 A  
HETATM   24  C   UNL     1      -9.084  10.660  62.827  1.00  0.00    -0.309 A  
HETATM   25  C   UNL     1      -7.832  10.268  62.362  1.00  0.00    -0.165 A  
HETATM   26  C   UNL     1      -7.116   9.289  63.047  1.00  0.00    -0.091 A  
HETATM   27  C   UNL     1      -7.648   8.714  64.204  1.00  0.00    -0.121 A  
ENDBRANCH  21  22
ENDBRANCH  13  16
ENDBRANCH   7  10
ENDBRANCH   5   7
ENDBRANCH   2   3
TORSDOF 5
ENDMDL
MODEL      112
REMARK 921   NORMALIZED FREE ENERGY PREDICTED BY IDOCK:   -5.25 KCAL/MOL
REMARK 922        TOTAL FREE ENERGY PREDICTED BY IDOCK:   -7.86 KCAL/MOL
REMARK 923 INTER-LIGAND FREE ENERGY PREDICTED BY IDOCK:   -7.72 KCAL/MOL
REMARK 924 INTRA-LIGAND FREE ENERGY PREDICTED BY IDOCK:   -0.14 KCAL/MOL
REMARK 927      BINDING AFFINITY PREDICTED BY RF-SCORE:    0.00 PKD
ROOT
HETATM    1  C   UNL     1      -6.105  18.238  66.039  1.00  0.00    -0.247 C  
HETATM    2  C   UNL     1      -6.590  18.192  67.476  1.00  0.00    -0.197 C  
ENDROOT
BRANCH   2   3
HETATM    3  C   UNL     1      -8.095  18.322  67.517  1.00  0.00    -0.239 C  
HETATM    4  O   UNL     1      -8.641  19.308  67.991  1.00  0.00    -0.301 OA 
HETATM    5  N   UNL     1      -8.795  17.275  66.905  1.00  0.00    -0.231 N  
HETATM    6  H   UNL     1      -8.242  16.525  66.489  1.00  0.00     0.000 HD 
BRANCH   5   7
HETATM    7  S   UNL     1     -10.447  17.149  66.800  1.00  0.00    -0.214 S  
HETATM    8  O   UNL     1     -10.963  17.892  67.937  1.00  0.00    -0.294 OA 
HETATM    9  O   UNL     1     -10.883  17.464  65.455  1.00  0.00    -0.512 OA 
BRANCH   7  10
HETATM   10  C   UNL     1     -10.733  15.428  67.119  1.00  0.00    -0.314 A  
HETATM   11  C   UNL     1     -10.128  14.816  68.216  1.00  0.00    -0.221 A  
HETATM   12  C   UNL     1     -10.167  13.421  68.338  1.00  0.00    -0.251 A  
HETATM   13  C   UNL     1     -10.850  12.633  67.399  1.00  0.00    -0.272 A  
HETATM   14  C   UNL     1     -11.608  13.295  66.419  1.00  0.00    -0.387 A  
HETATM   15  C   UNL     1     -11.523  14.681  66.250  1.00  0.00    -0.351 A  
BRANCH  13  16
HETATM   16  C   UNL     1     -10.673  11.179  67.334  1.00  0.00    -0.294 A  
HETATM   17  C   UNL     1     -10.208  10.457  66.245  1.00  0.00    -0.222 A  
HETATM   18  C   UNL     1      -9.742  10.726  64.869  1.00  0.00    -0.330 C  
HETATM   19  O   UNL     1     -10.188   9.137  66.559  1.00  0.00    -0.278 OA 
HETATM   20  N   UNL     1     -10.657   8.940  67.826  1.00  0.00    -0.231 NA 
HETATM   21  C   UNL     1     -10.986  10.149  68.310  1.00  0.00    -0.248 A  
BRANCH  21  22
HETATM   22  C   UNL     1     -11.559  10.238  69.664  1.00  0.00    -0.267 A  
HETATM   23  C   UNL     1     -11.951  11.487  70.178  1.00  0.00    -0.452 A  
HETATM   24  C   UNL     1     -12.584  11.587  71.420  1.00  0.00    -0.419 A  
HETATM   25  C   UNL     1     -12.850  10.439  72.161  1.00  0.00    -0.321 A  
HETATM   26  C   UNL     1     -12.425   9.199  71.690  1.00  0.00    -0.434 A  
HETATM   27  C   UNL     1     -11.747   9.108  70.471  1.00  0.00    -0.193 A  
ENDBRANCH  21  22
ENDBRANCH  13  16
ENDBRANCH   7  10
ENDBRANCH   5   7
ENDBRANCH   2   3
TORSDOF 5
ENDMDL
MODEL      113
REMARK 921   NORMALIZED FREE ENERGY PREDICTED BY IDOCK:   -5.24 KCAL/MOL
REMARK 922        TOTAL FREE ENERGY PREDICTED BY IDOCK:   -7.85 KCAL/MOL
REMARK 923 INTER-LIGAND FREE ENERGY PREDICTED BY IDOCK:   -7.34 KCAL/MOL
REMARK 924 INTRA-LIGAND FREE ENERGY PREDICTED BY IDOCK:   -0.51 KCAL/MOL
REMARK 927      BINDING AFFINITY PREDICTED BY RF-SCORE:    0.00 PKD
ROOT
HETATM    1  C   UNL     1      -7.654   8.330  72.423  1.00  0.00    -0.160 C  
HETATM    2  C   UNL     1      -8.451   7.927  73.649  1.00  0.00    -0.299 C  
ENDROOT
BRANCH   2   3
HETATM    3  C   UNL     1      -9.898   7.702  73.273  1.00  0.00    -0.301 C  
HETATM    4  O   UNL     1     -10.605   6.916  73.887  1.00  0.00    -0.369 OA 
HETATM    5  N   UNL     1     -10.370   8.513  72.234  1.00  0.00    -0.332 N  
HETATM    6  H   UNL     1      -9.713   9.177  71.825  1.00  0.00     0.000 HD 
BRANCH   5   7
HETATM    7  S   UNL     1     -11.909   8.486  71.611  1.00  0.00    -0.334 S  
HETATM    8  O   UNL     1     -12.023   7.212  70.923  1.00  0.00    -0.326 OA 
HETATM    9  O   UNL     1     -12.864   8.859  72.635  1.00  0.00    -0.393 OA 
BRANCH   7  10
HETATM   10  C   UNL     1     -11.855   9.754  70.372  1.00  0.00    -0.193 A  
HETATM   11  C   UNL     1     -11.050   9.589  69.246  1.00  0.00    -0.109 A  
HETATM   12  C   UNL     1     -10.831  10.675  68.389  1.00  0.00    -0.282 A  
HETATM   13  C   UNL     1     -11.452  11.912  68.618  1.00  0.00    -0.350 A  
HETATM   14  C   UNL     1     -12.405  11.985  69.647  1.00  0.00    -0.083 A  
HETATM   15  C   UNL     1     -12.582  10.927  70.546  1.00  0.00    -0.409 A  
BRANCH  13  16
HETATM   16  C   UNL     1     -11.029  13.132  67.920  1.00  0.00    -0.271 A  
HETATM   17  C   UNL     1     -11.130  14.428  68.401  1.00  0.00    -0.255 A  
HETATM   18  C   UNL     1     -11.616  15.113  69.616  1.00  0.00    -0.335 C  
HETATM   19  O   UNL     1     -10.643  15.289  67.472  1.00  0.00    -0.262 OA 
HETATM   20  N   UNL     1     -10.239  14.610  66.358  1.00  0.00    -0.280 NA 
HETATM   21  C   UNL     1     -10.486  13.310  66.585  1.00  0.00    -0.279 A  
BRANCH  21  22
HETATM   22  C   UNL     1     -10.176  12.335  65.525  1.00  0.00    -0.296 A  
HETATM   23  C   UNL     1      -9.137  11.406  65.711  1.00  0.00    -0.195 A  
HETATM   24  C   UNL     1      -8.885  10.410  64.762  1.00  0.00    -0.211 A  
HETATM   25  C   UNL     1      -9.679  10.317  63.623  1.00  0.00    -0.276 A  
HETATM   26  C   UNL     1     -10.681  11.257  63.399  1.00  0.00    -0.349 A  
HETATM   27  C   UNL     1     -10.897  12.283  64.325  1.00  0.00    -0.392 A  
ENDBRANCH  21  22
ENDBRANCH  13  16
ENDBRANCH   7  10
ENDBRANCH   5   7
ENDBRANCH   2   3
TORSDOF 5
ENDMDL
MODEL      114
REMARK 921   NORMALIZED FREE ENERGY PREDICTED BY IDOCK:   -5.23 KCAL/MOL
REMARK 922        TOTAL FREE ENERGY PREDICTED BY IDOCK:   -7.84 KCAL/MOL
REMARK 923 INTER-LIGAND FREE ENERGY PREDICTED BY IDOCK:   -6.95 KCAL/MOL
REMARK 924 INTRA-LIGAND FREE ENERGY PREDICTED BY IDOCK:   -0.90 KCAL/MOL
REMARK 927      BINDING AFFINITY PREDICTED BY RF-SCORE:    0.00 PKD
ROOT
HETATM    1  C   UNL     1     -10.965   1.716  63.083  1.00  0.00    -0.214 C  
HETATM    2  C   UNL     1     -10.876   3.228  63.001  1.00  0.00    -0.174 C  
ENDROOT
BRANCH   2   3
HETATM    3  C   UNL     1      -9.821   3.735  63.956  1.00  0.00    -0.179 C  
HETATM    4  O   UNL     1      -9.001   4.577  63.617  1.00  0.00    -0.138 OA 
HETATM    5  N   UNL     1      -9.911   3.228  65.258  1.00  0.00    -0.387 N  
HETATM    6  H   UNL     1     -10.668   2.573  65.452  1.00  0.00     0.000 HD 
BRANCH   5   7
HETATM    7  S   UNL     1      -8.891   3.605  66.513  1.00  0.00    -0.138 S  
HETATM    8  O   UNL     1      -9.381   2.843  67.649  1.00  0.00    -0.194 OA 
HETATM    9  O   UNL     1      -7.512   3.485  66.084  1.00  0.00    -0.075 OA 
BRANCH   7  10
HETATM   10  C   UNL     1      -9.260   5.312  66.822  1.00  0.00    -0.126 A  
HETATM   11  C   UNL     1     -10.585   5.718  66.974  1.00  0.00    -0.373 A  
HETATM   12  C   UNL     1     -10.891   7.085  66.990  1.00  0.00    -0.413 A  
HETATM   13  C   UNL     1      -9.878   8.053  66.906  1.00  0.00    -0.318 A  
HETATM   14  C   UNL     1      -8.546   7.610  66.950  1.00  0.00    -0.123 A  
HETATM   15  C   UNL     1      -8.232   6.248  66.869  1.00  0.00    -0.109 A  
BRANCH  13  16
HETATM   16  C   UNL     1     -10.175   9.463  66.633  1.00  0.00    -0.319 A  
HETATM   17  C   UNL     1      -9.916  10.142  65.452  1.00  0.00    -0.307 A  
HETATM   18  C   UNL     1      -9.329   9.854  64.127  1.00  0.00    -0.295 C  
HETATM   19  O   UNL     1     -10.324  11.431  65.578  1.00  0.00    -0.247 OA 
HETATM   20  N   UNL     1     -10.827  11.652  66.828  1.00  0.00    -0.264 NA 
HETATM   21  C   UNL     1     -10.724  10.493  67.499  1.00  0.00    -0.276 A  
BRANCH  21  22
HETATM   22  C   UNL     1     -11.166  10.445  68.903  1.00  0.00    -0.290 A  
HETATM   23  C   UNL     1     -11.888  11.522  69.445  1.00  0.00    -0.417 A  
HETATM   24  C   UNL     1     -12.401  11.462  70.745  1.00  0.00    -0.483 A  
HETATM   25  C   UNL     1     -12.215  10.318  71.515  1.00  0.00    -0.449 A  
HETATM   26  C   UNL     1     -11.460   9.262  71.011  1.00  0.00    -0.387 A  
HETATM   27  C   UNL     1     -10.906   9.345  69.731  1.00  0.00    -0.250 A  
ENDBRANCH  21  22
ENDBRANCH  13  16
ENDBRANCH   7  10
ENDBRANCH   5   7
ENDBRANCH   2   3
TORSDOF 5
ENDMDL
MODEL      115
REMARK 921   NORMALIZED FREE ENERGY PREDICTED BY IDOCK:   -5.23 KCAL/MOL
REMARK 922        TOTAL FREE ENERGY PREDICTED BY IDOCK:   -7.84 KCAL/MOL
REMARK 923 INTER-LIGAND FREE ENERGY PREDICTED BY IDOCK:   -6.84 KCAL/MOL
REMARK 924 INTRA-LIGAND FREE ENERGY PREDICTED BY IDOCK:   -1.00 KCAL/MOL
REMARK 927      BINDING AFFINITY PREDICTED BY RF-SCORE:    0.00 PKD
ROOT
HETATM    1  C   UNL     1     -11.332   6.369  69.971  1.00  0.00    -0.496 C  
HETATM    2  C   UNL     1     -10.054   6.261  70.781  1.00  0.00    -0.229 C  
ENDROOT
BRANCH   2   3
HETATM    3  C   UNL     1      -8.889   6.797  69.981  1.00  0.00    -0.142 C  
HETATM    4  O   UNL     1      -7.751   6.381  70.148  1.00  0.00    -0.094 OA 
HETATM    5  N   UNL     1      -9.230   7.733  68.997  1.00  0.00    -0.144 N  
HETATM    6  H   UNL     1     -10.218   7.970  68.902  1.00  0.00     0.000 HD 
BRANCH   5   7
HETATM    7  S   UNL     1      -8.164   8.489  67.973  1.00  0.00    -0.120 S  
HETATM    8  O   UNL     1      -7.348   9.336  68.824  1.00  0.00    -0.073 OA 
HETATM    9  O   UNL     1      -7.548   7.517  67.093  1.00  0.00    -0.102 OA 
BRANCH   7  10
HETATM   10  C   UNL     1      -9.218   9.553  67.022  1.00  0.00    -0.139 A  
HETATM   11  C   UNL     1      -9.004   9.697  65.652  1.00  0.00    -0.208 A  
HETATM   12  C   UNL     1      -9.683  10.700  64.949  1.00  0.00    -0.341 A  
HETATM   13  C   UNL     1     -10.614  11.530  65.592  1.00  0.00    -0.326 A  
HETATM   14  C   UNL     1     -10.946  11.229  66.924  1.00  0.00    -0.348 A  
HETATM   15  C   UNL     1     -10.229  10.273  67.651  1.00  0.00    -0.247 A  
BRANCH  13  16
HETATM   16  C   UNL     1     -11.120  12.756  64.967  1.00  0.00    -0.317 A  
HETATM   17  C   UNL     1     -12.116  12.835  64.005  1.00  0.00    -0.457 A  
HETATM   18  C   UNL     1     -13.003  11.912  63.265  1.00  0.00    -0.166 C  
HETATM   19  O   UNL     1     -12.307  14.134  63.663  1.00  0.00    -0.741 OA 
HETATM   20  N   UNL     1     -11.442  14.939  64.348  1.00  0.00    -0.297 NA 
HETATM   21  C   UNL     1     -10.693  14.136  65.121  1.00  0.00    -0.388 A  
BRANCH  21  22
HETATM   22  C   UNL     1      -9.639  14.737  65.956  1.00  0.00    -0.334 A  
HETATM   23  C   UNL     1      -9.454  16.131  65.952  1.00  0.00    -0.337 A  
HETATM   24  C   UNL     1      -8.526  16.735  66.806  1.00  0.00    -0.268 A  
HETATM   25  C   UNL     1      -7.782  15.958  67.689  1.00  0.00    -0.169 A  
HETATM   26  C   UNL     1      -7.918  14.572  67.672  1.00  0.00    -0.190 A  
HETATM   27  C   UNL     1      -8.810  13.966  66.782  1.00  0.00    -0.170 A  
ENDBRANCH  21  22
ENDBRANCH  13  16
ENDBRANCH   7  10
ENDBRANCH   5   7
ENDBRANCH   2   3
TORSDOF 5
ENDMDL
MODEL      116
REMARK 921   NORMALIZED FREE ENERGY PREDICTED BY IDOCK:   -5.22 KCAL/MOL
REMARK 922        TOTAL FREE ENERGY PREDICTED BY IDOCK:   -7.82 KCAL/MOL
REMARK 923 INTER-LIGAND FREE ENERGY PREDICTED BY IDOCK:   -6.91 KCAL/MOL
REMARK 924 INTRA-LIGAND FREE ENERGY PREDICTED BY IDOCK:   -0.91 KCAL/MOL
REMARK 927      BINDING AFFINITY PREDICTED BY RF-SCORE:    0.00 PKD
ROOT
HETATM    1  C   UNL     1     -11.998  11.749  63.820  1.00  0.00    -0.468 C  
HETATM    2  C   UNL     1     -11.465  12.452  65.054  1.00  0.00    -0.378 C  
ENDROOT
BRANCH   2   3
HETATM    3  C   UNL     1     -10.176  11.802  65.502  1.00  0.00    -0.252 C  
HETATM    4  O   UNL     1      -9.537  12.233  66.451  1.00  0.00    -0.228 OA 
HETATM    5  N   UNL     1      -9.827  10.641  64.802  1.00  0.00    -0.283 N  
HETATM    6  H   UNL     1     -10.459  10.334  64.063  1.00  0.00     0.000 HD 
BRANCH   5   7
HETATM    7  S   UNL     1      -8.471   9.721  65.074  1.00  0.00    -0.166 S  
HETATM    8  O   UNL     1      -8.402   8.798  63.955  1.00  0.00    -0.172 OA 
HETATM    9  O   UNL     1      -7.348  10.577  65.394  1.00  0.00    -0.142 OA 
BRANCH   7  10
HETATM   10  C   UNL     1      -8.916   8.779  66.510  1.00  0.00    -0.148 A  
HETATM   11  C   UNL     1      -9.767   7.682  66.383  1.00  0.00    -0.197 A  
HETATM   12  C   UNL     1     -10.296   7.082  67.533  1.00  0.00    -0.288 A  
HETATM   13  C   UNL     1      -9.943   7.537  68.812  1.00  0.00    -0.175 A  
HETATM   14  C   UNL     1      -8.938   8.514  68.905  1.00  0.00    -0.146 A  
HETATM   15  C   UNL     1      -8.452   9.162  67.764  1.00  0.00    -0.117 A  
BRANCH  13  16
HETATM   16  C   UNL     1     -10.686   7.131  70.010  1.00  0.00    -0.268 A  
HETATM   17  C   UNL     1     -10.739   5.854  70.549  1.00  0.00    -0.294 A  
HETATM   18  C   UNL     1     -10.185   4.516  70.256  1.00  0.00    -0.137 C  
HETATM   19  O   UNL     1     -11.531   5.865  71.651  1.00  0.00    -0.259 OA 
HETATM   20  N   UNL     1     -12.042   7.114  71.858  1.00  0.00    -0.311 NA 
HETATM   21  C   UNL     1     -11.576   7.894  70.868  1.00  0.00    -0.273 A  
BRANCH  21  22
HETATM   22  C   UNL     1     -11.998   9.304  70.819  1.00  0.00    -0.269 A  
HETATM   23  C   UNL     1     -12.680   9.869  71.911  1.00  0.00    -0.501 A  
HETATM   24  C   UNL     1     -13.006  11.229  71.929  1.00  0.00    -0.471 A  
HETATM   25  C   UNL     1     -12.641  12.047  70.865  1.00  0.00    -0.347 A  
HETATM   26  C   UNL     1     -12.008  11.495  69.754  1.00  0.00    -0.415 A  
HETATM   27  C   UNL     1     -11.728  10.126  69.716  1.00  0.00    -0.205 A  
ENDBRANCH  21  22
ENDBRANCH  13  16
ENDBRANCH   7  10
ENDBRANCH   5   7
ENDBRANCH   2   3
TORSDOF 5
ENDMDL
MODEL      117
REMARK 921   NORMALIZED FREE ENERGY PREDICTED BY IDOCK:   -5.20 KCAL/MOL
REMARK 922        TOTAL FREE ENERGY PREDICTED BY IDOCK:   -7.80 KCAL/MOL
REMARK 923 INTER-LIGAND FREE ENERGY PREDICTED BY IDOCK:   -7.11 KCAL/MOL
REMARK 924 INTRA-LIGAND FREE ENERGY PREDICTED BY IDOCK:   -0.69 KCAL/MOL
REMARK 927      BINDING AFFINITY PREDICTED BY RF-SCORE:    0.00 PKD
ROOT
HETATM    1  C   UNL     1      -8.639   8.906  64.616  1.00  0.00    -0.169 C  
HETATM    2  C   UNL     1      -8.981   9.949  63.569  1.00  0.00    -0.277 C  
ENDROOT
BRANCH   2   3
HETATM    3  C   UNL     1     -10.064  10.866  64.088  1.00  0.00    -0.355 C  
HETATM    4  O   UNL     1     -10.741  11.550  63.334  1.00  0.00    -0.385 OA 
HETATM    5  N   UNL     1     -10.274  10.807  65.471  1.00  0.00    -0.267 N  
HETATM    6  H   UNL     1      -9.691  10.161  66.004  1.00  0.00     0.000 HD 
BRANCH   5   7
HETATM    7  S   UNL     1     -11.390  11.699  66.317  1.00  0.00    -0.133 S  
HETATM    8  O   UNL     1     -12.358  12.141  65.329  1.00  0.00    -0.513 OA 
HETATM    9  O   UNL     1     -11.819  10.969  67.493  1.00  0.00    -0.571 OA 
BRANCH   7  10
HETATM   10  C   UNL     1     -10.459  13.122  66.820  1.00  0.00    -0.261 A  
HETATM   11  C   UNL     1     -10.170  14.124  65.894  1.00  0.00    -0.332 A  
HETATM   12  C   UNL     1      -9.250  15.127  66.226  1.00  0.00    -0.336 A  
HETATM   13  C   UNL     1      -8.653  15.167  67.495  1.00  0.00    -0.193 A  
HETATM   14  C   UNL     1      -9.112  14.258  68.463  1.00  0.00    -0.191 A  
HETATM   15  C   UNL     1      -9.980  13.215  68.123  1.00  0.00    -0.234 A  
BRANCH  13  16
HETATM   16  C   UNL     1      -7.490  16.016  67.777  1.00  0.00    -0.153 A  
HETATM   17  C   UNL     1      -6.218  15.579  68.116  1.00  0.00    -0.130 A  
HETATM   18  C   UNL     1      -5.519  14.294  68.325  1.00  0.00    -0.114 C  
HETATM   19  O   UNL     1      -5.412  16.654  68.307  1.00  0.00    -0.110 OA 
HETATM   20  N   UNL     1      -6.113  17.813  68.135  1.00  0.00    -0.170 NA 
HETATM   21  C   UNL     1      -7.377  17.463  67.844  1.00  0.00    -0.190 A  
BRANCH  21  22
HETATM   22  C   UNL     1      -8.376  18.525  67.637  1.00  0.00    -0.268 A  
HETATM   23  C   UNL     1      -8.933  19.186  68.745  1.00  0.00    -0.388 A  
HETATM   24  C   UNL     1      -9.811  20.261  68.575  1.00  0.00    -0.237 A  
HETATM   25  C   UNL     1     -10.132  20.702  67.294  1.00  0.00    -0.350 A  
HETATM   26  C   UNL     1      -9.627  20.028  66.185  1.00  0.00    -0.476 A  
HETATM   27  C   UNL     1      -8.790  18.922  66.358  1.00  0.00    -0.310 A  
ENDBRANCH  21  22
ENDBRANCH  13  16
ENDBRANCH   7  10
ENDBRANCH   5   7
ENDBRANCH   2   3
TORSDOF 5
ENDMDL
MODEL      118
REMARK 921   NORMALIZED FREE ENERGY PREDICTED BY IDOCK:   -5.20 KCAL/MOL
REMARK 922        TOTAL FREE ENERGY PREDICTED BY IDOCK:   -7.80 KCAL/MOL
REMARK 923 INTER-LIGAND FREE ENERGY PREDICTED BY IDOCK:   -6.93 KCAL/MOL
REMARK 924 INTRA-LIGAND FREE ENERGY PREDICTED BY IDOCK:   -0.87 KCAL/MOL
REMARK 927      BINDING AFFINITY PREDICTED BY RF-SCORE:    0.00 PKD
ROOT
HETATM    1  C   UNL     1     -10.388   7.337  73.395  1.00  0.00    -0.410 C  
HETATM    2  C   UNL     1     -11.267   6.498  72.487  1.00  0.00    -0.298 C  
ENDROOT
BRANCH   2   3
HETATM    3  C   UNL     1     -10.418   5.786  71.460  1.00  0.00    -0.235 C  
HETATM    4  O   UNL     1     -10.188   4.588  71.538  1.00  0.00    -0.184 OA 
HETATM    5  N   UNL     1      -9.995   6.584  70.390  1.00  0.00    -0.178 N  
HETATM    6  H   UNL     1     -10.289   7.560  70.390  1.00  0.00     0.000 HD 
BRANCH   5   7
HETATM    7  S   UNL     1      -9.053   6.074  69.120  1.00  0.00    -0.123 S  
HETATM    8  O   UNL     1      -7.695   6.052  69.632  1.00  0.00    -0.093 OA 
HETATM    9  O   UNL     1      -9.633   4.892  68.517  1.00  0.00    -0.135 OA 
BRANCH   7  10
HETATM   10  C   UNL     1      -9.167   7.427  67.978  1.00  0.00    -0.132 A  
HETATM   11  C   UNL     1     -10.411   7.987  67.688  1.00  0.00    -0.312 A  
HETATM   12  C   UNL     1     -10.529   8.893  66.626  1.00  0.00    -0.231 A  
HETATM   13  C   UNL     1      -9.406   9.286  65.883  1.00  0.00    -0.297 A  
HETATM   14  C   UNL     1      -8.145   8.853  66.327  1.00  0.00    -0.110 A  
HETATM   15  C   UNL     1      -8.023   7.899  67.343  1.00  0.00    -0.122 A  
BRANCH  13  16
HETATM   16  C   UNL     1      -9.532   9.996  64.606  1.00  0.00    -0.367 A  
HETATM   17  C   UNL     1      -8.994   9.600  63.391  1.00  0.00    -0.219 A  
HETATM   18  C   UNL     1      -8.183   8.484  62.862  1.00  0.00    -0.172 C  
HETATM   19  O   UNL     1      -9.316  10.513  62.440  1.00  0.00    -0.265 OA 
HETATM   20  N   UNL     1     -10.035  11.537  62.986  1.00  0.00    -0.359 NA 
HETATM   21  C   UNL     1     -10.158  11.270  64.297  1.00  0.00    -0.313 A  
BRANCH  21  22
HETATM   22  C   UNL     1     -10.869  12.235  65.153  1.00  0.00    -0.340 A  
HETATM   23  C   UNL     1     -10.354  12.557  66.420  1.00  0.00    -0.261 A  
HETATM   24  C   UNL     1     -10.957  13.540  67.213  1.00  0.00    -0.293 A  
HETATM   25  C   UNL     1     -12.073  14.226  66.742  1.00  0.00    -0.446 A  
HETATM   26  C   UNL     1     -12.624  13.886  65.510  1.00  0.00    -0.560 A  
HETATM   27  C   UNL     1     -12.050  12.868  64.742  1.00  0.00    -0.474 A  
ENDBRANCH  21  22
ENDBRANCH  13  16
ENDBRANCH   7  10
ENDBRANCH   5   7
ENDBRANCH   2   3
TORSDOF 5
ENDMDL
MODEL      119
REMARK 921   NORMALIZED FREE ENERGY PREDICTED BY IDOCK:   -5.18 KCAL/MOL
REMARK 922        TOTAL FREE ENERGY PREDICTED BY IDOCK:   -7.78 KCAL/MOL
REMARK 923 INTER-LIGAND FREE ENERGY PREDICTED BY IDOCK:   -6.67 KCAL/MOL
REMARK 924 INTRA-LIGAND FREE ENERGY PREDICTED BY IDOCK:   -1.10 KCAL/MOL
REMARK 927      BINDING AFFINITY PREDICTED BY RF-SCORE:    0.00 PKD
ROOT
HETATM    1  C   UNL     1     -12.409   8.936  71.810  1.00  0.00    -0.424 C  
HETATM    2  C   UNL     1     -11.719   7.885  72.659  1.00  0.00    -0.398 C  
ENDROOT
BRANCH   2   3
HETATM    3  C   UNL     1     -10.272   7.753  72.243  1.00  0.00    -0.228 C  
HETATM    4  O   UNL     1      -9.547   6.887  72.710  1.00  0.00    -0.145 OA 
HETATM    5  N   UNL     1      -9.865   8.639  71.238  1.00  0.00    -0.214 N  
HETATM    6  H   UNL     1     -10.564   9.286  70.875  1.00  0.00     0.000 HD 
BRANCH   5   7
HETATM    7  S   UNL     1      -8.339   8.724  70.587  1.00  0.00    -0.172 S  
HETATM    8  O   UNL     1      -7.497   9.247  71.647  1.00  0.00    -0.339 OA 
HETATM    9  O   UNL     1      -8.010   7.474  69.932  1.00  0.00    -0.117 OA 
BRANCH   7  10
HETATM   10  C   UNL     1      -8.504   9.998  69.364  1.00  0.00    -0.170 A  
HETATM   11  C   UNL     1      -7.366  10.523  68.752  1.00  0.00    -0.092 A  
HETATM   12  C   UNL     1      -7.476  11.675  67.963  1.00  0.00    -0.100 A  
HETATM   13  C   UNL     1      -8.722  12.280  67.737  1.00  0.00    -0.174 A  
HETATM   14  C   UNL     1      -9.866  11.615  68.207  1.00  0.00    -0.199 A  
HETATM   15  C   UNL     1      -9.762  10.502  69.049  1.00  0.00    -0.221 A  
BRANCH  13  16
HETATM   16  C   UNL     1      -8.836  13.626  67.166  1.00  0.00    -0.237 A  
HETATM   17  C   UNL     1      -8.310  14.792  67.701  1.00  0.00    -0.170 A  
HETATM   18  C   UNL     1      -7.519  15.197  68.882  1.00  0.00    -0.143 C  
HETATM   19  O   UNL     1      -8.627  15.838  66.896  1.00  0.00    -0.203 OA 
HETATM   20  N   UNL     1      -9.383  15.415  65.841  1.00  0.00    -0.329 NA 
HETATM   21  C   UNL     1      -9.553  14.090  65.990  1.00  0.00    -0.205 A  
BRANCH  21  22
HETATM   22  C   UNL     1     -10.367  13.365  65.001  1.00  0.00    -0.361 A  
HETATM   23  C   UNL     1      -9.950  12.104  64.541  1.00  0.00    -0.231 A  
HETATM   24  C   UNL     1     -10.752  11.352  63.676  1.00  0.00    -0.470 A  
HETATM   25  C   UNL     1     -11.990  11.844  63.271  1.00  0.00    -0.441 A  
HETATM   26  C   UNL     1     -12.397  13.111  63.678  1.00  0.00    -0.482 A  
HETATM   27  C   UNL     1     -11.571  13.881  64.502  1.00  0.00    -0.409 A  
ENDBRANCH  21  22
ENDBRANCH  13  16
ENDBRANCH   7  10
ENDBRANCH   5   7
ENDBRANCH   2   3
TORSDOF 5
ENDMDL
MODEL      120
REMARK 921   NORMALIZED FREE ENERGY PREDICTED BY IDOCK:   -5.17 KCAL/MOL
REMARK 922        TOTAL FREE ENERGY PREDICTED BY IDOCK:   -7.76 KCAL/MOL
REMARK 923 INTER-LIGAND FREE ENERGY PREDICTED BY IDOCK:   -6.58 KCAL/MOL
REMARK 924 INTRA-LIGAND FREE ENERGY PREDICTED BY IDOCK:   -1.18 KCAL/MOL
REMARK 927      BINDING AFFINITY PREDICTED BY RF-SCORE:    0.00 PKD
ROOT
HETATM    1  C   UNL     1     -12.189  14.589  64.314  1.00  0.00    -0.441 C  
HETATM    2  C   UNL     1     -11.132  15.604  64.706  1.00  0.00    -0.426 C  
ENDROOT
BRANCH   2   3
HETATM    3  C   UNL     1     -10.700  15.374  66.136  1.00  0.00    -0.314 C  
HETATM    4  O   UNL     1     -10.680  16.283  66.953  1.00  0.00    -0.300 OA 
HETATM    5  N   UNL     1     -10.410  14.042  66.458  1.00  0.00    -0.280 N  
HETATM    6  H   UNL     1     -10.513  13.350  65.716  1.00  0.00     0.000 HD 
BRANCH   5   7
HETATM    7  S   UNL     1      -9.912  13.495  67.944  1.00  0.00    -0.252 S  
HETATM    8  O   UNL     1      -8.586  14.054  68.136  1.00  0.00    -0.165 OA 
HETATM    9  O   UNL     1     -10.954  13.713  68.927  1.00  0.00    -0.245 OA 
BRANCH   7  10
HETATM   10  C   UNL     1      -9.718  11.752  67.677  1.00  0.00    -0.182 A  
HETATM   11  C   UNL     1     -10.699  11.043  66.984  1.00  0.00    -0.319 A  
HETATM   12  C   UNL     1     -10.660   9.643  66.971  1.00  0.00    -0.267 A  
HETATM   13  C   UNL     1      -9.619   8.944  67.602  1.00  0.00    -0.181 A  
HETATM   14  C   UNL     1      -8.549   9.692  68.121  1.00  0.00    -0.119 A  
HETATM   15  C   UNL     1      -8.611  11.088  68.196  1.00  0.00    -0.140 A  
BRANCH  13  16
HETATM   16  C   UNL     1      -9.697   7.500  67.853  1.00  0.00    -0.170 A  
HETATM   17  C   UNL     1      -9.251   6.496  67.007  1.00  0.00    -0.134 A  
HETATM   18  C   UNL     1      -8.596   6.383  65.688  1.00  0.00    -0.138 C  
HETATM   19  O   UNL     1      -9.500   5.289  67.575  1.00  0.00    -0.117 OA 
HETATM   20  N   UNL     1     -10.134   5.448  68.774  1.00  0.00    -0.177 NA 
HETATM   21  C   UNL     1     -10.294   6.770  68.957  1.00  0.00    -0.195 A  
BRANCH  21  22
HETATM   22  C   UNL     1     -10.988   7.238  70.168  1.00  0.00    -0.280 A  
HETATM   23  C   UNL     1     -10.437   8.284  70.930  1.00  0.00    -0.230 A  
HETATM   24  C   UNL     1     -11.122   8.811  72.029  1.00  0.00    -0.441 A  
HETATM   25  C   UNL     1     -12.375   8.312  72.373  1.00  0.00    -0.385 A  
HETATM   26  C   UNL     1     -12.914   7.245  71.660  1.00  0.00    -0.417 A  
HETATM   27  C   UNL     1     -12.204   6.686  70.593  1.00  0.00    -0.262 A  
ENDBRANCH  21  22
ENDBRANCH  13  16
ENDBRANCH   7  10
ENDBRANCH   5   7
ENDBRANCH   2   3
TORSDOF 5
ENDMDL
MODEL      121
REMARK 921   NORMALIZED FREE ENERGY PREDICTED BY IDOCK:   -5.16 KCAL/MOL
REMARK 922        TOTAL FREE ENERGY PREDICTED BY IDOCK:   -7.75 KCAL/MOL
REMARK 923 INTER-LIGAND FREE ENERGY PREDICTED BY IDOCK:   -6.83 KCAL/MOL
REMARK 924 INTRA-LIGAND FREE ENERGY PREDICTED BY IDOCK:   -0.91 KCAL/MOL
REMARK 927      BINDING AFFINITY PREDICTED BY RF-SCORE:    0.00 PKD
ROOT
HETATM    1  C   UNL     1     -10.686   4.449  65.399  1.00  0.00    -0.145 C  
HETATM    2  C   UNL     1     -10.460   5.567  66.398  1.00  0.00    -0.294 C  
ENDROOT
BRANCH   2   3
HETATM    3  C   UNL     1      -9.342   6.466  65.924  1.00  0.00     0.055 C  
HETATM    4  O   UNL     1      -8.314   6.012  65.444  1.00  0.00    -0.141 OA 
HETATM    5  N   UNL     1      -9.614   7.838  66.004  1.00  0.00    -0.433 N  
HETATM    6  H   UNL     1     -10.527   8.112  66.368  1.00  0.00     0.000 HD 
BRANCH   5   7
HETATM    7  S   UNL     1      -8.577   9.055  65.557  1.00  0.00    -0.178 S  
HETATM    8  O   UNL     1      -7.330   8.770  66.245  1.00  0.00    -0.084 OA 
HETATM    9  O   UNL     1      -8.603   9.226  64.119  1.00  0.00    -0.184 OA 
BRANCH   7  10
HETATM   10  C   UNL     1      -9.291  10.484  66.328  1.00  0.00    -0.170 A  
HETATM   11  C   UNL     1      -8.518  11.272  67.179  1.00  0.00    -0.149 A  
HETATM   12  C   UNL     1      -9.137  12.258  67.959  1.00  0.00    -0.191 A  
HETATM   13  C   UNL     1     -10.515  12.498  67.859  1.00  0.00    -0.226 A  
HETATM   14  C   UNL     1     -11.226  11.821  66.854  1.00  0.00    -0.387 A  
HETATM   15  C   UNL     1     -10.632  10.791  66.116  1.00  0.00    -0.241 A  
BRANCH  13  16
HETATM   16  C   UNL     1     -11.234  13.308  68.849  1.00  0.00    -0.322 A  
HETATM   17  C   UNL     1     -11.994  12.827  69.905  1.00  0.00    -0.298 A  
HETATM   18  C   UNL     1     -12.389  11.519  70.466  1.00  0.00    -0.432 C  
HETATM   19  O   UNL     1     -12.508  13.874  70.599  1.00  0.00    -0.335 OA 
HETATM   20  N   UNL     1     -12.141  15.056  70.021  1.00  0.00    -0.319 NA 
HETATM   21  C   UNL     1     -11.397  14.748  68.946  1.00  0.00    -0.282 A  
BRANCH  21  22
HETATM   22  C   UNL     1     -10.885  15.841  68.102  1.00  0.00    -0.307 A  
HETATM   23  C   UNL     1     -10.722  15.641  66.721  1.00  0.00    -0.300 A  
HETATM   24  C   UNL     1     -10.330  16.690  65.883  1.00  0.00    -0.355 A  
HETATM   25  C   UNL     1     -10.111  17.958  66.412  1.00  0.00    -0.369 A  
HETATM   26  C   UNL     1     -10.220  18.163  67.785  1.00  0.00    -0.395 A  
HETATM   27  C   UNL     1     -10.564  17.101  68.626  1.00  0.00    -0.352 A  
ENDBRANCH  21  22
ENDBRANCH  13  16
ENDBRANCH   7  10
ENDBRANCH   5   7
ENDBRANCH   2   3
TORSDOF 5
ENDMDL
MODEL      122
REMARK 921   NORMALIZED FREE ENERGY PREDICTED BY IDOCK:   -5.15 KCAL/MOL
REMARK 922        TOTAL FREE ENERGY PREDICTED BY IDOCK:   -7.74 KCAL/MOL
REMARK 923 INTER-LIGAND FREE ENERGY PREDICTED BY IDOCK:   -7.17 KCAL/MOL
REMARK 924 INTRA-LIGAND FREE ENERGY PREDICTED BY IDOCK:   -0.57 KCAL/MOL
REMARK 927      BINDING AFFINITY PREDICTED BY RF-SCORE:    0.00 PKD
ROOT
HETATM    1  C   UNL     1     -10.882  19.840  67.530  1.00  0.00    -0.406 C  
HETATM    2  C   UNL     1     -10.474  19.364  66.148  1.00  0.00    -0.600 C  
ENDROOT
BRANCH   2   3
HETATM    3  C   UNL     1      -9.491  18.222  66.265  1.00  0.00    -0.230 C  
HETATM    4  O   UNL     1      -9.590  17.218  65.575  1.00  0.00    -0.464 OA 
HETATM    5  N   UNL     1      -8.433  18.444  67.156  1.00  0.00    -0.250 N  
HETATM    6  H   UNL     1      -8.413  19.340  67.642  1.00  0.00     0.000 HD 
BRANCH   5   7
HETATM    7  S   UNL     1      -7.210  17.371  67.488  1.00  0.00    -0.170 S  
HETATM    8  O   UNL     1      -6.578  17.100  66.209  1.00  0.00    -0.226 OA 
HETATM    9  O   UNL     1      -6.427  17.844  68.611  1.00  0.00    -0.199 OA 
BRANCH   7  10
HETATM   10  C   UNL     1      -8.090  15.906  67.965  1.00  0.00    -0.141 A  
HETATM   11  C   UNL     1      -7.834  14.701  67.312  1.00  0.00    -0.213 A  
HETATM   12  C   UNL     1      -8.681  13.606  67.528  1.00  0.00    -0.198 A  
HETATM   13  C   UNL     1      -9.752  13.688  68.430  1.00  0.00    -0.217 A  
HETATM   14  C   UNL     1      -9.861  14.851  69.212  1.00  0.00    -0.164 A  
HETATM   15  C   UNL     1      -9.062  15.971  68.958  1.00  0.00    -0.242 A  
BRANCH  13  16
HETATM   16  C   UNL     1     -10.814  12.676  68.466  1.00  0.00    -0.279 A  
HETATM   17  C   UNL     1     -11.824  12.580  69.412  1.00  0.00    -0.308 A  
HETATM   18  C   UNL     1     -12.265  13.303  70.623  1.00  0.00    -0.417 C  
HETATM   19  O   UNL     1     -12.611  11.514  69.120  1.00  0.00    -0.185 OA 
HETATM   20  N   UNL     1     -12.141  10.864  68.014  1.00  0.00    -0.403 NA 
HETATM   21  C   UNL     1     -11.041  11.522  67.614  1.00  0.00    -0.266 A  
BRANCH  21  22
HETATM   22  C   UNL     1     -10.299  11.017  66.447  1.00  0.00    -0.302 A  
HETATM   23  C   UNL     1     -10.660  11.432  65.154  1.00  0.00    -0.352 A  
HETATM   24  C   UNL     1      -9.913  11.043  64.038  1.00  0.00    -0.390 A  
HETATM   25  C   UNL     1      -8.783  10.246  64.200  1.00  0.00    -0.214 A  
HETATM   26  C   UNL     1      -8.438   9.786  65.468  1.00  0.00    -0.150 A  
HETATM   27  C   UNL     1      -9.217  10.135  66.575  1.00  0.00    -0.182 A  
ENDBRANCH  21  22
ENDBRANCH  13  16
ENDBRANCH   7  10
ENDBRANCH   5   7
ENDBRANCH   2   3
TORSDOF 5
ENDMDL
MODEL      123
REMARK 921   NORMALIZED FREE ENERGY PREDICTED BY IDOCK:   -5.15 KCAL/MOL
REMARK 922        TOTAL FREE ENERGY PREDICTED BY IDOCK:   -7.73 KCAL/MOL
REMARK 923 INTER-LIGAND FREE ENERGY PREDICTED BY IDOCK:   -7.00 KCAL/MOL
REMARK 924 INTRA-LIGAND FREE ENERGY PREDICTED BY IDOCK:   -0.73 KCAL/MOL
REMARK 927      BINDING AFFINITY PREDICTED BY RF-SCORE:    0.00 PKD
ROOT
HETATM    1  C   UNL     1      -8.678   3.934  70.149  1.00  0.00    -0.120 C  
HETATM    2  C   UNL     1      -9.798   4.456  69.268  1.00  0.00    -0.218 C  
ENDROOT
BRANCH   2   3
HETATM    3  C   UNL     1     -10.564   5.538  69.994  1.00  0.00    -0.314 C  
HETATM    4  O   UNL     1     -11.622   5.972  69.564  1.00  0.00    -0.303 OA 
HETATM    5  N   UNL     1     -10.009   5.933  71.217  1.00  0.00    -0.183 N  
HETATM    6  H   UNL     1      -9.151   5.467  71.513  1.00  0.00     0.000 HD 
BRANCH   5   7
HETATM    7  S   UNL     1     -10.629   7.097  72.227  1.00  0.00    -0.224 S  
HETATM    8  O   UNL     1     -12.043   6.788  72.348  1.00  0.00    -0.206 OA 
HETATM    9  O   UNL     1      -9.798   7.223  73.407  1.00  0.00    -0.219 OA 
BRANCH   7  10
HETATM   10  C   UNL     1     -10.492   8.575  71.255  1.00  0.00    -0.225 A  
HETATM   11  C   UNL     1     -11.616   9.371  71.041  1.00  0.00    -0.400 A  
HETATM   12  C   UNL     1     -11.562  10.403  70.095  1.00  0.00    -0.392 A  
HETATM   13  C   UNL     1     -10.377  10.681  69.398  1.00  0.00    -0.234 A  
HETATM   14  C   UNL     1      -9.216   9.989  69.779  1.00  0.00    -0.227 A  
HETATM   15  C   UNL     1      -9.274   8.914  70.674  1.00  0.00    -0.256 A  
BRANCH  13  16
HETATM   16  C   UNL     1     -10.361  11.549  68.214  1.00  0.00    -0.211 A  
HETATM   17  C   UNL     1      -9.942  11.192  66.942  1.00  0.00    -0.198 A  
HETATM   18  C   UNL     1      -9.407   9.996  66.258  1.00  0.00    -0.213 C  
HETATM   19  O   UNL     1     -10.066  12.260  66.113  1.00  0.00    -0.234 OA 
HETATM   20  N   UNL     1     -10.531  13.344  66.801  1.00  0.00    -0.272 NA 
HETATM   21  C   UNL     1     -10.691  12.957  68.077  1.00  0.00    -0.228 A  
BRANCH  21  22
HETATM   22  C   UNL     1     -11.156  13.945  69.064  1.00  0.00    -0.302 A  
HETATM   23  C   UNL     1     -12.245  13.640  69.899  1.00  0.00    -0.367 A  
HETATM   24  C   UNL     1     -12.646  14.522  70.909  1.00  0.00    -0.414 A  
HETATM   25  C   UNL     1     -11.954  15.712  71.109  1.00  0.00    -0.457 A  
HETATM   26  C   UNL     1     -10.904  16.053  70.260  1.00  0.00    -0.327 A  
HETATM   27  C   UNL     1     -10.538  15.193  69.220  1.00  0.00    -0.253 A  
ENDBRANCH  21  22
ENDBRANCH  13  16
ENDBRANCH   7  10
ENDBRANCH   5   7
ENDBRANCH   2   3
TORSDOF 5
ENDMDL
MODEL      124
REMARK 921   NORMALIZED FREE ENERGY PREDICTED BY IDOCK:   -5.14 KCAL/MOL
REMARK 922        TOTAL FREE ENERGY PREDICTED BY IDOCK:   -7.72 KCAL/MOL
REMARK 923 INTER-LIGAND FREE ENERGY PREDICTED BY IDOCK:   -7.06 KCAL/MOL
REMARK 924 INTRA-LIGAND FREE ENERGY PREDICTED BY IDOCK:   -0.66 KCAL/MOL
REMARK 927      BINDING AFFINITY PREDICTED BY RF-SCORE:    0.00 PKD
ROOT
HETATM    1  C   UNL     1      -7.970   2.684  69.969  1.00  0.00    -0.053 C  
HETATM    2  C   UNL     1      -9.400   3.141  70.186  1.00  0.00    -0.238 C  
ENDROOT
BRANCH   2   3
HETATM    3  C   UNL     1      -9.434   4.632  70.427  1.00  0.00    -0.171 C  
HETATM    4  O   UNL     1      -8.432   5.323  70.316  1.00  0.00    -0.106 OA 
HETATM    5  N   UNL     1     -10.703   5.155  70.705  1.00  0.00    -0.141 N  
HETATM    6  H   UNL     1     -11.485   4.500  70.719  1.00  0.00     0.000 HD 
BRANCH   5   7
HETATM    7  S   UNL     1     -11.043   6.752  71.012  1.00  0.00    -0.289 S  
HETATM    8  O   UNL     1     -12.466   6.794  71.300  1.00  0.00    -0.362 OA 
HETATM    9  O   UNL     1     -10.084   7.290  71.954  1.00  0.00    -0.178 OA 
BRANCH   7  10
HETATM   10  C   UNL     1     -10.801   7.517  69.430  1.00  0.00    -0.150 A  
HETATM   11  C   UNL     1     -11.034   6.788  68.264  1.00  0.00    -0.270 A  
HETATM   12  C   UNL     1     -10.628   7.311  67.030  1.00  0.00    -0.415 A  
HETATM   13  C   UNL     1     -10.037   8.581  66.943  1.00  0.00    -0.364 A  
HETATM   14  C   UNL     1      -9.996   9.364  68.109  1.00  0.00    -0.202 A  
HETATM   15  C   UNL     1     -10.338   8.827  69.355  1.00  0.00    -0.217 A  
BRANCH  13  16
HETATM   16  C   UNL     1      -9.348   9.033  65.729  1.00  0.00    -0.302 A  
HETATM   17  C   UNL     1      -8.217   8.461  65.166  1.00  0.00    -0.157 A  
HETATM   18  C   UNL     1      -7.308   7.330  65.442  1.00  0.00    -0.079 C  
HETATM   19  O   UNL     1      -7.869   9.158  64.055  1.00  0.00    -0.116 OA 
HETATM   20  N   UNL     1      -8.719  10.209  63.865  1.00  0.00    -0.192 NA 
HETATM   21  C   UNL     1      -9.605  10.179  64.875  1.00  0.00    -0.306 A  
BRANCH  21  22
HETATM   22  C   UNL     1     -10.635  11.230  64.944  1.00  0.00    -0.364 A  
HETATM   23  C   UNL     1     -10.975  11.795  66.186  1.00  0.00    -0.355 A  
HETATM   24  C   UNL     1     -11.879  12.859  66.268  1.00  0.00    -0.477 A  
HETATM   25  C   UNL     1     -12.443  13.385  65.110  1.00  0.00    -0.509 A  
HETATM   26  C   UNL     1     -12.155  12.806  63.877  1.00  0.00    -0.562 A  
HETATM   27  C   UNL     1     -11.290  11.710  63.802  1.00  0.00    -0.482 A  
ENDBRANCH  21  22
ENDBRANCH  13  16
ENDBRANCH   7  10
ENDBRANCH   5   7
ENDBRANCH   2   3
TORSDOF 5
ENDMDL
MODEL      125
REMARK 921   NORMALIZED FREE ENERGY PREDICTED BY IDOCK:   -5.13 KCAL/MOL
REMARK 922        TOTAL FREE ENERGY PREDICTED BY IDOCK:   -7.71 KCAL/MOL
REMARK 923 INTER-LIGAND FREE ENERGY PREDICTED BY IDOCK:   -6.58 KCAL/MOL
REMARK 924 INTRA-LIGAND FREE ENERGY PREDICTED BY IDOCK:   -1.13 KCAL/MOL
REMARK 927      BINDING AFFINITY PREDICTED BY RF-SCORE:    0.00 PKD
ROOT
HETATM    1  C   UNL     1     -11.362  11.698  63.734  1.00  0.00    -0.482 C  
HETATM    2  C   UNL     1     -11.849  13.132  63.812  1.00  0.00    -0.546 C  
ENDROOT
BRANCH   2   3
HETATM    3  C   UNL     1     -11.570  13.699  65.184  1.00  0.00    -0.319 C  
HETATM    4  O   UNL     1     -11.612  14.902  65.402  1.00  0.00    -0.339 OA 
HETATM    5  N   UNL     1     -11.343  12.744  66.182  1.00  0.00    -0.312 N  
HETATM    6  H   UNL     1     -11.386  11.762  65.907  1.00  0.00     0.000 HD 
BRANCH   5   7
HETATM    7  S   UNL     1     -11.011  13.072  67.776  1.00  0.00    -0.261 S  
HETATM    8  O   UNL     1      -9.771  13.828  67.762  1.00  0.00    -0.218 OA 
HETATM    9  O   UNL     1     -12.191  13.601  68.429  1.00  0.00    -0.332 OA 
BRANCH   7  10
HETATM   10  C   UNL     1     -10.646  11.468  68.440  1.00  0.00    -0.201 A  
HETATM   11  C   UNL     1      -9.451  10.834  68.103  1.00  0.00    -0.161 A  
HETATM   12  C   UNL     1      -9.265   9.487  68.439  1.00  0.00    -0.130 A  
HETATM   13  C   UNL     1     -10.243   8.780  69.155  1.00  0.00    -0.215 A  
HETATM   14  C   UNL     1     -11.344   9.502  69.645  1.00  0.00    -0.069 A  
HETATM   15  C   UNL     1     -11.569  10.828  69.261  1.00  0.00    -0.376 A  
BRANCH  13  16
HETATM   16  C   UNL     1     -10.212   7.318  69.272  1.00  0.00    -0.193 A  
HETATM   17  C   UNL     1     -10.580   6.409  68.291  1.00  0.00    -0.256 A  
HETATM   18  C   UNL     1     -11.087   6.438  66.903  1.00  0.00    -0.346 C  
HETATM   19  O   UNL     1     -10.422   5.148  68.767  1.00  0.00    -0.148 OA 
HETATM   20  N   UNL     1      -9.985   5.178  70.060  1.00  0.00    -0.233 NA 
HETATM   21  C   UNL     1      -9.876   6.472  70.404  1.00  0.00    -0.175 A  
BRANCH  21  22
HETATM   22  C   UNL     1      -9.450   6.808  71.773  1.00  0.00    -0.150 A  
HETATM   23  C   UNL     1      -8.321   7.620  71.975  1.00  0.00    -0.129 A  
HETATM   24  C   UNL     1      -7.951   8.032  73.259  1.00  0.00    -0.230 A  
HETATM   25  C   UNL     1      -8.715   7.652  74.359  1.00  0.00    -0.208 A  
HETATM   26  C   UNL     1      -9.808   6.808  74.183  1.00  0.00    -0.352 A  
HETATM   27  C   UNL     1     -10.145   6.357  72.903  1.00  0.00    -0.198 A  
ENDBRANCH  21  22
ENDBRANCH  13  16
ENDBRANCH   7  10
ENDBRANCH   5   7
ENDBRANCH   2   3
TORSDOF 5
ENDMDL
MODEL      126
REMARK 921   NORMALIZED FREE ENERGY PREDICTED BY IDOCK:   -5.13 KCAL/MOL
REMARK 922        TOTAL FREE ENERGY PREDICTED BY IDOCK:   -7.71 KCAL/MOL
REMARK 923 INTER-LIGAND FREE ENERGY PREDICTED BY IDOCK:   -6.74 KCAL/MOL
REMARK 924 INTRA-LIGAND FREE ENERGY PREDICTED BY IDOCK:   -0.97 KCAL/MOL
REMARK 927      BINDING AFFINITY PREDICTED BY RF-SCORE:    0.00 PKD
ROOT
HETATM    1  C   UNL     1      -5.424  16.875  67.135  1.00  0.00    -0.189 C  
HETATM    2  C   UNL     1      -5.724  18.301  66.714  1.00  0.00    -0.165 C  
ENDROOT
BRANCH   2   3
HETATM    3  C   UNL     1      -7.192  18.445  66.386  1.00  0.00    -0.243 C  
HETATM    4  O   UNL     1      -7.785  17.609  65.720  1.00  0.00    -0.540 OA 
HETATM    5  N   UNL     1      -7.820  19.554  66.966  1.00  0.00    -0.253 N  
HETATM    6  H   UNL     1      -7.247  20.161  67.553  1.00  0.00     0.000 HD 
BRANCH   5   7
HETATM    7  S   UNL     1      -9.418  19.965  66.781  1.00  0.00    -0.423 S  
HETATM    8  O   UNL     1      -9.619  21.123  67.634  1.00  0.00    -0.255 OA 
HETATM    9  O   UNL     1      -9.756  20.018  65.374  1.00  0.00    -0.208 OA 
BRANCH   7  10
HETATM   10  C   UNL     1     -10.265  18.600  67.535  1.00  0.00    -0.386 A  
HETATM   11  C   UNL     1     -10.033  18.295  68.875  1.00  0.00    -0.361 A  
HETATM   12  C   UNL     1     -10.520  17.093  69.404  1.00  0.00    -0.203 A  
HETATM   13  C   UNL     1     -11.282  16.215  68.619  1.00  0.00    -0.369 A  
HETATM   14  C   UNL     1     -11.658  16.644  67.335  1.00  0.00     0.592 A  
HETATM   15  C   UNL     1     -11.124  17.811  66.777  1.00  0.00     0.379 A  
BRANCH  13  16
HETATM   16  C   UNL     1     -11.559  14.838  69.044  1.00  0.00    -0.324 A  
HETATM   17  C   UNL     1     -11.772  14.409  70.346  1.00  0.00    -0.280 A  
HETATM   18  C   UNL     1     -11.823  14.997  71.700  1.00  0.00    -0.441 C  
HETATM   19  O   UNL     1     -11.989  13.070  70.346  1.00  0.00    -0.332 OA 
HETATM   20  N   UNL     1     -11.899  12.572  69.077  1.00  0.00    -0.307 NA 
HETATM   21  C   UNL     1     -11.611  13.609  68.273  1.00  0.00    -0.339 A  
BRANCH  21  22
HETATM   22  C   UNL     1     -11.421  13.357  66.834  1.00  0.00    -0.376 A  
HETATM   23  C   UNL     1     -12.498  12.901  66.055  1.00  0.00    -0.171 A  
HETATM   24  C   UNL     1     -12.371  12.746  64.671  1.00  0.00    -0.524 A  
HETATM   25  C   UNL     1     -11.169  13.061  64.043  1.00  0.00    -0.448 A  
HETATM   26  C   UNL     1     -10.077  13.467  64.805  1.00  0.00    -0.267 A  
HETATM   27  C   UNL     1     -10.193  13.573  66.195  1.00  0.00    -0.303 A  
ENDBRANCH  21  22
ENDBRANCH  13  16
ENDBRANCH   7  10
ENDBRANCH   5   7
ENDBRANCH   2   3
TORSDOF 5
ENDMDL
MODEL      127
REMARK 921   NORMALIZED FREE ENERGY PREDICTED BY IDOCK:   -5.13 KCAL/MOL
REMARK 922        TOTAL FREE ENERGY PREDICTED BY IDOCK:   -7.71 KCAL/MOL
REMARK 923 INTER-LIGAND FREE ENERGY PREDICTED BY IDOCK:   -7.14 KCAL/MOL
REMARK 924 INTRA-LIGAND FREE ENERGY PREDICTED BY IDOCK:   -0.57 KCAL/MOL
REMARK 927      BINDING AFFINITY PREDICTED BY RF-SCORE:    0.00 PKD
ROOT
HETATM    1  C   UNL     1      -8.037  10.637  62.366  1.00  0.00    -0.233 C  
HETATM    2  C   UNL     1      -9.410  10.213  62.852  1.00  0.00    -0.320 C  
ENDROOT
BRANCH   2   3
HETATM    3  C   UNL     1     -10.050  11.335  63.637  1.00  0.00    -0.382 C  
HETATM    4  O   UNL     1     -10.374  12.386  63.104  1.00  0.00    -0.302 OA 
HETATM    5  N   UNL     1     -10.306  11.042  64.982  1.00  0.00    -0.291 N  
HETATM    6  H   UNL     1     -10.048  10.113  65.315  1.00  0.00     0.000 HD 
BRANCH   5   7
HETATM    7  S   UNL     1     -10.997  12.078  66.081  1.00  0.00    -0.313 S  
HETATM    8  O   UNL     1     -10.049  13.169  66.229  1.00  0.00    -0.272 OA 
HETATM    9  O   UNL     1     -12.374  12.342  65.716  1.00  0.00    -0.644 OA 
BRANCH   7  10
HETATM   10  C   UNL     1     -10.961  11.138  67.584  1.00  0.00    -0.269 A  
HETATM   11  C   UNL     1     -10.229   9.953  67.644  1.00  0.00    -0.255 A  
HETATM   12  C   UNL     1     -10.383   9.101  68.745  1.00  0.00    -0.235 A  
HETATM   13  C   UNL     1     -11.224   9.446  69.813  1.00  0.00    -0.139 A  
HETATM   14  C   UNL     1     -11.793  10.731  69.809  1.00  0.00    -0.409 A  
HETATM   15  C   UNL     1     -11.697  11.561  68.687  1.00  0.00    -0.389 A  
BRANCH  13  16
HETATM   16  C   UNL     1     -11.627   8.467  70.829  1.00  0.00    -0.252 A  
HETATM   17  C   UNL     1     -12.589   8.652  71.810  1.00  0.00    -0.349 A  
HETATM   18  C   UNL     1     -13.519   9.713  72.249  1.00  0.00    -0.488 C  
HETATM   19  O   UNL     1     -12.679   7.528  72.566  1.00  0.00    -0.003 OA 
HETATM   20  N   UNL     1     -11.779   6.594  72.141  1.00  0.00    -0.300 NA 
HETATM   21  C   UNL     1     -11.108   7.140  71.113  1.00  0.00    -0.254 A  
BRANCH  21  22
HETATM   22  C   UNL     1     -10.037   6.359  70.471  1.00  0.00    -0.221 A  
HETATM   23  C   UNL     1      -8.710   6.495  70.915  1.00  0.00    -0.136 A  
HETATM   24  C   UNL     1      -7.690   5.696  70.388  1.00  0.00    -0.094 A  
HETATM   25  C   UNL     1      -7.985   4.738  69.422  1.00  0.00    -0.070 A  
HETATM   26  C   UNL     1      -9.285   4.624  68.936  1.00  0.00    -0.181 A  
HETATM   27  C   UNL     1     -10.292   5.458  69.429  1.00  0.00    -0.339 A  
ENDBRANCH  21  22
ENDBRANCH  13  16
ENDBRANCH   7  10
ENDBRANCH   5   7
ENDBRANCH   2   3
TORSDOF 5
ENDMDL
MODEL      128
REMARK 921   NORMALIZED FREE ENERGY PREDICTED BY IDOCK:   -5.12 KCAL/MOL
REMARK 922        TOTAL FREE ENERGY PREDICTED BY IDOCK:   -7.70 KCAL/MOL
REMARK 923 INTER-LIGAND FREE ENERGY PREDICTED BY IDOCK:   -6.71 KCAL/MOL
REMARK 924 INTRA-LIGAND FREE ENERGY PREDICTED BY IDOCK:   -0.99 KCAL/MOL
REMARK 927      BINDING AFFINITY PREDICTED BY RF-SCORE:    0.00 PKD
ROOT
HETATM    1  C   UNL     1     -12.560   9.149  71.834  1.00  0.00    -0.463 C  
HETATM    2  C   UNL     1     -11.373   8.353  72.340  1.00  0.00    -0.448 C  
ENDROOT
BRANCH   2   3
HETATM    3  C   UNL     1     -10.388   8.124  71.217  1.00  0.00    -0.199 C  
HETATM    4  O   UNL     1      -9.661   7.142  71.192  1.00  0.00    -0.165 OA 
HETATM    5  N   UNL     1     -10.436   9.073  70.188  1.00  0.00    -0.204 N  
HETATM    6  H   UNL     1     -11.119   9.825  70.279  1.00  0.00     0.000 HD 
BRANCH   5   7
HETATM    7  S   UNL     1      -9.475   9.078  68.834  1.00  0.00    -0.153 S  
HETATM    8  O   UNL     1      -8.128   9.318  69.319  1.00  0.00    -0.099 OA 
HETATM    9  O   UNL     1      -9.768   7.919  68.014  1.00  0.00    -0.152 OA 
BRANCH   7  10
HETATM   10  C   UNL     1     -10.002  10.542  67.983  1.00  0.00    -0.155 A  
HETATM   11  C   UNL     1      -9.871  10.624  66.597  1.00  0.00    -0.245 A  
HETATM   12  C   UNL     1     -10.071  11.854  65.956  1.00  0.00    -0.261 A  
HETATM   13  C   UNL     1     -10.451  12.993  66.682  1.00  0.00    -0.271 A  
HETATM   14  C   UNL     1     -10.761  12.829  68.042  1.00  0.00    -0.246 A  
HETATM   15  C   UNL     1     -10.503  11.623  68.703  1.00  0.00    -0.234 A  
BRANCH  13  16
HETATM   16  C   UNL     1     -10.389  14.338  66.099  1.00  0.00    -0.305 A  
HETATM   17  C   UNL     1     -11.339  14.917  65.271  1.00  0.00    -0.358 A  
HETATM   18  C   UNL     1     -12.640  14.555  64.673  1.00  0.00    -0.220 C  
HETATM   19  O   UNL     1     -10.932  16.166  64.928  1.00  0.00    -0.525 OA 
HETATM   20  N   UNL     1      -9.712  16.437  65.478  1.00  0.00    -0.499 NA 
HETATM   21  C   UNL     1      -9.343  15.344  66.166  1.00  0.00    -0.332 A  
BRANCH  21  22
HETATM   22  C   UNL     1      -8.037  15.341  66.845  1.00  0.00    -0.224 A  
HETATM   23  C   UNL     1      -7.590  14.179  67.498  1.00  0.00    -0.200 A  
HETATM   24  C   UNL     1      -6.314  14.120  68.068  1.00  0.00    -0.154 A  
HETATM   25  C   UNL     1      -5.460  15.215  67.978  1.00  0.00    -0.142 A  
HETATM   26  C   UNL     1      -5.903  16.390  67.377  1.00  0.00    -0.189 A  
HETATM   27  C   UNL     1      -7.197  16.464  66.854  1.00  0.00    -0.266 A  
ENDBRANCH  21  22
ENDBRANCH  13  16
ENDBRANCH   7  10
ENDBRANCH   5   7
ENDBRANCH   2   3
TORSDOF 5
ENDMDL
MODEL      129
REMARK 921   NORMALIZED FREE ENERGY PREDICTED BY IDOCK:   -5.11 KCAL/MOL
REMARK 922        TOTAL FREE ENERGY PREDICTED BY IDOCK:   -7.68 KCAL/MOL
REMARK 923 INTER-LIGAND FREE ENERGY PREDICTED BY IDOCK:   -6.44 KCAL/MOL
REMARK 924 INTRA-LIGAND FREE ENERGY PREDICTED BY IDOCK:   -1.24 KCAL/MOL
REMARK 927      BINDING AFFINITY PREDICTED BY RF-SCORE:    0.00 PKD
ROOT
HETATM    1  C   UNL     1      -8.940   9.484  62.582  1.00  0.00    -0.249 C  
HETATM    2  C   UNL     1      -9.127   9.909  64.026  1.00  0.00    -0.300 C  
ENDROOT
BRANCH   2   3
HETATM    3  C   UNL     1      -8.505   8.888  64.950  1.00  0.00    -0.178 C  
HETATM    4  O   UNL     1      -7.884   9.221  65.949  1.00  0.00    -0.097 OA 
HETATM    5  N   UNL     1      -8.764   7.553  64.613  1.00  0.00    -0.338 N  
HETATM    6  H   UNL     1      -9.341   7.384  63.790  1.00  0.00     0.000 HD 
BRANCH   5   7
HETATM    7  S   UNL     1      -8.211   6.224  65.442  1.00  0.00    -0.142 S  
HETATM    8  O   UNL     1      -8.791   5.079  64.762  1.00  0.00    -0.153 OA 
HETATM    9  O   UNL     1      -6.778   6.320  65.634  1.00  0.00    -0.046 OA 
BRANCH   7  10
HETATM   10  C   UNL     1      -9.022   6.374  67.012  1.00  0.00    -0.119 A  
HETATM   11  C   UNL     1     -10.415   6.354  67.078  1.00  0.00    -0.349 A  
HETATM   12  C   UNL     1     -11.054   6.698  68.276  1.00  0.00    -0.283 A  
HETATM   13  C   UNL     1     -10.314   7.013  69.425  1.00  0.00    -0.218 A  
HETATM   14  C   UNL     1      -8.921   6.833  69.375  1.00  0.00    -0.137 A  
HETATM   15  C   UNL     1      -8.270   6.553  68.169  1.00  0.00    -0.117 A  
BRANCH  13  16
HETATM   16  C   UNL     1     -10.932   7.646  70.595  1.00  0.00    -0.259 A  
HETATM   17  C   UNL     1     -11.361   7.002  71.746  1.00  0.00    -0.258 A  
HETATM   18  C   UNL     1     -11.406   5.626  72.281  1.00  0.00    -0.300 C  
HETATM   19  O   UNL     1     -11.885   7.916  72.601  1.00  0.00    -0.353 OA 
HETATM   20  N   UNL     1     -11.850   9.164  72.047  1.00  0.00    -0.360 NA 
HETATM   21  C   UNL     1     -11.309   9.031  70.825  1.00  0.00    -0.277 A  
BRANCH  21  22
HETATM   22  C   UNL     1     -11.176  10.226  69.975  1.00  0.00    -0.376 A  
HETATM   23  C   UNL     1     -11.948  11.368  70.249  1.00  0.00    -0.460 A  
HETATM   24  C   UNL     1     -11.773  12.547  69.517  1.00  0.00    -0.375 A  
HETATM   25  C   UNL     1     -10.812  12.607  68.512  1.00  0.00    -0.279 A  
HETATM   26  C   UNL     1     -10.072  11.470  68.195  1.00  0.00    -0.201 A  
HETATM   27  C   UNL     1     -10.285  10.279  68.894  1.00  0.00    -0.220 A  
ENDBRANCH  21  22
ENDBRANCH  13  16
ENDBRANCH   7  10
ENDBRANCH   5   7
ENDBRANCH   2   3
TORSDOF 5
ENDMDL
MODEL      130
REMARK 921   NORMALIZED FREE ENERGY PREDICTED BY IDOCK:   -5.09 KCAL/MOL
REMARK 922        TOTAL FREE ENERGY PREDICTED BY IDOCK:   -7.66 KCAL/MOL
REMARK 923 INTER-LIGAND FREE ENERGY PREDICTED BY IDOCK:   -7.14 KCAL/MOL
REMARK 924 INTRA-LIGAND FREE ENERGY PREDICTED BY IDOCK:   -0.52 KCAL/MOL
REMARK 927      BINDING AFFINITY PREDICTED BY RF-SCORE:    0.00 PKD
ROOT
HETATM    1  C   UNL     1     -12.091  13.806  64.300  1.00  0.00    -0.481 C  
HETATM    2  C   UNL     1     -10.681  13.553  64.799  1.00  0.00    -0.412 C  
ENDROOT
BRANCH   2   3
HETATM    3  C   UNL     1     -10.272  12.132  64.491  1.00  0.00    -0.293 C  
HETATM    4  O   UNL     1     -10.906  11.436  63.711  1.00  0.00    -0.373 OA 
HETATM    5  N   UNL     1      -9.082  11.715  65.102  1.00  0.00    -0.414 N  
HETATM    6  H   UNL     1      -8.598  12.393  65.691  1.00  0.00     0.000 HD 
BRANCH   5   7
HETATM    7  S   UNL     1      -8.393  10.212  64.948  1.00  0.00    -0.169 S  
HETATM    8  O   UNL     1      -9.059   9.598  63.813  1.00  0.00    -0.241 OA 
HETATM    9  O   UNL     1      -6.949  10.323  64.983  1.00  0.00    -0.135 OA 
BRANCH   7  10
HETATM   10  C   UNL     1      -8.950   9.372  66.407  1.00  0.00    -0.152 A  
HETATM   11  C   UNL     1      -8.045   9.081  67.427  1.00  0.00    -0.108 A  
HETATM   12  C   UNL     1      -8.430   8.225  68.468  1.00  0.00    -0.126 A  
HETATM   13  C   UNL     1      -9.728   7.697  68.526  1.00  0.00    -0.162 A  
HETATM   14  C   UNL     1     -10.667   8.165  67.591  1.00  0.00    -0.203 A  
HETATM   15  C   UNL     1     -10.277   8.968  66.513  1.00  0.00    -0.318 A  
BRANCH  13  16
HETATM   16  C   UNL     1     -10.074   6.589  69.424  1.00  0.00    -0.198 A  
HETATM   17  C   UNL     1      -9.583   5.294  69.355  1.00  0.00    -0.156 A  
HETATM   18  C   UNL     1      -8.647   4.519  68.515  1.00  0.00    -0.105 C  
HETATM   19  O   UNL     1     -10.137   4.552  70.347  1.00  0.00    -0.224 OA 
HETATM   20  N   UNL     1     -11.017   5.305  71.071  1.00  0.00    -0.059 NA 
HETATM   21  C   UNL     1     -11.025   6.531  70.521  1.00  0.00    -0.294 A  
BRANCH  21  22
HETATM   22  C   UNL     1     -11.920   7.555  71.085  1.00  0.00    -0.334 A  
HETATM   23  C   UNL     1     -11.542   8.908  71.054  1.00  0.00    -0.347 A  
HETATM   24  C   UNL     1     -12.413   9.909  71.496  1.00  0.00    -0.506 A  
HETATM   25  C   UNL     1     -13.682   9.573  71.958  1.00  0.00    -0.435 A  
HETATM   26  C   UNL     1     -14.055   8.234  72.041  1.00  0.00    -0.470 A  
HETATM   27  C   UNL     1     -13.163   7.233  71.646  1.00  0.00    -0.421 A  
ENDBRANCH  21  22
ENDBRANCH  13  16
ENDBRANCH   7  10
ENDBRANCH   5   7
ENDBRANCH   2   3
TORSDOF 5
ENDMDL
MODEL      131
REMARK 921   NORMALIZED FREE ENERGY PREDICTED BY IDOCK:   -5.08 KCAL/MOL
REMARK 922        TOTAL FREE ENERGY PREDICTED BY IDOCK:   -7.64 KCAL/MOL
REMARK 923 INTER-LIGAND FREE ENERGY PREDICTED BY IDOCK:   -6.57 KCAL/MOL
REMARK 924 INTRA-LIGAND FREE ENERGY PREDICTED BY IDOCK:   -1.07 KCAL/MOL
REMARK 927      BINDING AFFINITY PREDICTED BY RF-SCORE:    0.00 PKD
ROOT
HETATM    1  C   UNL     1     -13.506   9.764  71.858  1.00  0.00    -0.485 C  
HETATM    2  C   UNL     1     -12.717   8.587  72.400  1.00  0.00    -0.394 C  
ENDROOT
BRANCH   2   3
HETATM    3  C   UNL     1     -11.661   8.170  71.403  1.00  0.00    -0.285 C  
HETATM    4  O   UNL     1     -11.845   7.245  70.625  1.00  0.00    -0.303 OA 
HETATM    5  N   UNL     1     -10.511   8.968  71.393  1.00  0.00    -0.297 N  
HETATM    6  H   UNL     1     -10.482   9.752  72.045  1.00  0.00     0.000 HD 
BRANCH   5   7
HETATM    7  S   UNL     1      -9.192   8.748  70.408  1.00  0.00    -0.195 S  
HETATM    8  O   UNL     1      -8.157   9.609  70.954  1.00  0.00    -0.293 OA 
HETATM    9  O   UNL     1      -8.948   7.333  70.215  1.00  0.00    -0.150 OA 
BRANCH   7  10
HETATM   10  C   UNL     1      -9.721   9.464  68.875  1.00  0.00    -0.164 A  
HETATM   11  C   UNL     1     -10.220   8.645  67.862  1.00  0.00    -0.273 A  
HETATM   12  C   UNL     1     -10.422   9.175  66.582  1.00  0.00    -0.237 A  
HETATM   13  C   UNL     1     -10.179  10.531  66.314  1.00  0.00    -0.296 A  
HETATM   14  C   UNL     1      -9.865  11.365  67.400  1.00  0.00    -0.199 A  
HETATM   15  C   UNL     1      -9.598  10.835  68.667  1.00  0.00    -0.187 A  
BRANCH  13  16
HETATM   16  C   UNL     1     -10.103  11.048  64.944  1.00  0.00    -0.359 A  
HETATM   17  C   UNL     1     -10.930  12.010  64.384  1.00  0.00    -0.333 A  
HETATM   18  C   UNL     1     -12.079  12.843  64.795  1.00  0.00    -0.474 C  
HETATM   19  O   UNL     1     -10.560  12.224  63.096  1.00  0.00    -0.364 OA 
HETATM   20  N   UNL     1      -9.519  11.408  62.757  1.00  0.00    -0.355 NA 
HETATM   21  C   UNL     1      -9.239  10.665  63.841  1.00  0.00    -0.243 A  
BRANCH  21  22
HETATM   22  C   UNL     1      -8.166   9.660  63.753  1.00  0.00    -0.162 A  
HETATM   23  C   UNL     1      -7.077   9.720  64.639  1.00  0.00    -0.127 A  
HETATM   24  C   UNL     1      -6.094   8.724  64.639  1.00  0.00    -0.065 A  
HETATM   25  C   UNL     1      -6.196   7.646  63.766  1.00  0.00    -0.054 A  
HETATM   26  C   UNL     1      -7.242   7.595  62.849  1.00  0.00    -0.086 A  
HETATM   27  C   UNL     1      -8.195   8.617  62.816  1.00  0.00    -0.188 A  
ENDBRANCH  21  22
ENDBRANCH  13  16
ENDBRANCH   7  10
ENDBRANCH   5   7
ENDBRANCH   2   3
TORSDOF 5
ENDMDL
MODEL      132
REMARK 921   NORMALIZED FREE ENERGY PREDICTED BY IDOCK:   -5.07 KCAL/MOL
REMARK 922        TOTAL FREE ENERGY PREDICTED BY IDOCK:   -7.64 KCAL/MOL
REMARK 923 INTER-LIGAND FREE ENERGY PREDICTED BY IDOCK:   -6.94 KCAL/MOL
REMARK 924 INTRA-LIGAND FREE ENERGY PREDICTED BY IDOCK:   -0.69 KCAL/MOL
REMARK 927      BINDING AFFINITY PREDICTED BY RF-SCORE:    0.00 PKD
ROOT
HETATM    1  C   UNL     1      -8.138  10.533  62.501  1.00  0.00    -0.201 C  
HETATM    2  C   UNL     1      -9.629  10.336  62.695  1.00  0.00    -0.251 C  
ENDROOT
BRANCH   2   3
HETATM    3  C   UNL     1     -10.206  11.494  63.475  1.00  0.00    -0.420 C  
HETATM    4  O   UNL     1     -10.387  12.588  62.959  1.00  0.00    -0.143 OA 
HETATM    5  N   UNL     1     -10.582  11.191  64.790  1.00  0.00    -0.319 N  
HETATM    6  H   UNL     1     -10.440  10.232  65.106  1.00  0.00     0.000 HD 
BRANCH   5   7
HETATM    7  S   UNL     1     -11.239  12.261  65.877  1.00  0.00    -0.354 S  
HETATM    8  O   UNL     1     -10.367  13.422  65.849  1.00  0.00    -0.279 OA 
HETATM    9  O   UNL     1     -12.661  12.401  65.636  1.00  0.00    -0.575 OA 
BRANCH   7  10
HETATM   10  C   UNL     1     -10.988  11.446  67.432  1.00  0.00    -0.273 A  
HETATM   11  C   UNL     1     -10.548  10.124  67.459  1.00  0.00    -0.327 A  
HETATM   12  C   UNL     1     -10.568   9.413  68.666  1.00  0.00    -0.230 A  
HETATM   13  C   UNL     1     -10.976  10.028  69.859  1.00  0.00    -0.339 A  
HETATM   14  C   UNL     1     -11.226  11.411  69.830  1.00  0.00    -0.266 A  
HETATM   15  C   UNL     1     -11.271  12.113  68.620  1.00  0.00    -0.318 A  
BRANCH  13  16
HETATM   16  C   UNL     1     -11.280   9.252  71.066  1.00  0.00    -0.392 A  
HETATM   17  C   UNL     1     -12.536   9.062  71.624  1.00  0.00    -0.351 A  
HETATM   18  C   UNL     1     -13.931   9.460  71.346  1.00  0.00    -0.172 C  
HETATM   19  O   UNL     1     -12.419   8.294  72.737  1.00  0.00    -0.265 OA 
HETATM   20  N   UNL     1     -11.110   7.982  72.966  1.00  0.00    -0.335 NA 
HETATM   21  C   UNL     1     -10.394   8.569  71.993  1.00  0.00    -0.338 A  
BRANCH  21  22
HETATM   22  C   UNL     1      -8.928   8.428  72.007  1.00  0.00    -0.290 A  
HETATM   23  C   UNL     1      -8.142   9.198  71.132  1.00  0.00    -0.136 A  
HETATM   24  C   UNL     1      -6.746   9.153  71.192  1.00  0.00    -0.090 A  
HETATM   25  C   UNL     1      -6.115   8.351  72.138  1.00  0.00    -0.063 A  
HETATM   26  C   UNL     1      -6.877   7.545  72.980  1.00  0.00    -0.070 A  
HETATM   27  C   UNL     1      -8.271   7.554  72.884  1.00  0.00    -0.149 A  
ENDBRANCH  21  22
ENDBRANCH  13  16
ENDBRANCH   7  10
ENDBRANCH   5   7
ENDBRANCH   2   3
TORSDOF 5
ENDMDL
MODEL      133
REMARK 921   NORMALIZED FREE ENERGY PREDICTED BY IDOCK:   -5.07 KCAL/MOL
REMARK 922        TOTAL FREE ENERGY PREDICTED BY IDOCK:   -7.63 KCAL/MOL
REMARK 923 INTER-LIGAND FREE ENERGY PREDICTED BY IDOCK:   -7.02 KCAL/MOL
REMARK 924 INTRA-LIGAND FREE ENERGY PREDICTED BY IDOCK:   -0.61 KCAL/MOL
REMARK 927      BINDING AFFINITY PREDICTED BY RF-SCORE:    0.00 PKD
ROOT
HETATM    1  C   UNL     1      -6.099  10.233  63.132  1.00  0.00    -0.145 C  
HETATM    2  C   UNL     1      -7.506  10.379  62.585  1.00  0.00    -0.144 C  
ENDROOT
BRANCH   2   3
HETATM    3  C   UNL     1      -8.509  10.291  63.712  1.00  0.00    -0.179 C  
HETATM    4  O   UNL     1      -9.696  10.522  63.533  1.00  0.00    -0.300 OA 
HETATM    5  N   UNL     1      -7.986   9.853  64.935  1.00  0.00    -0.132 N  
HETATM    6  H   UNL     1      -6.991   9.632  64.964  1.00  0.00     0.000 HD 
BRANCH   5   7
HETATM    7  S   UNL     1      -8.848   9.664  66.341  1.00  0.00    -0.153 S  
HETATM    8  O   UNL     1     -10.075   8.991  65.953  1.00  0.00    -0.240 OA 
HETATM    9  O   UNL     1      -7.997   9.107  67.373  1.00  0.00    -0.102 OA 
BRANCH   7  10
HETATM   10  C   UNL     1      -9.272  11.331  66.771  1.00  0.00    -0.175 A  
HETATM   11  C   UNL     1      -8.349  12.130  67.445  1.00  0.00    -0.174 A  
HETATM   12  C   UNL     1      -8.760  13.357  67.982  1.00  0.00    -0.178 A  
HETATM   13  C   UNL     1     -10.073  13.819  67.807  1.00  0.00    -0.245 A  
HETATM   14  C   UNL     1     -10.918  13.082  66.960  1.00  0.00    -0.289 A  
HETATM   15  C   UNL     1     -10.538  11.826  66.473  1.00  0.00    -0.289 A  
BRANCH  13  16
HETATM   16  C   UNL     1     -10.609  14.941  68.585  1.00  0.00    -0.251 A  
HETATM   17  C   UNL     1     -10.306  16.282  68.406  1.00  0.00    -0.271 A  
HETATM   18  C   UNL     1      -9.461  17.106  67.518  1.00  0.00    -0.247 C  
HETATM   19  O   UNL     1     -10.989  17.021  69.317  1.00  0.00    -0.214 OA 
HETATM   20  N   UNL     1     -11.727  16.210  70.132  1.00  0.00    -0.258 NA 
HETATM   21  C   UNL     1     -11.496  14.947  69.736  1.00  0.00    -0.295 A  
BRANCH  21  22
HETATM   22  C   UNL     1     -12.145  13.846  70.467  1.00  0.00    -0.426 A  
HETATM   23  C   UNL     1     -11.895  12.514  70.093  1.00  0.00    -0.336 A  
HETATM   24  C   UNL     1     -12.421  11.449  70.830  1.00  0.00    -0.460 A  
HETATM   25  C   UNL     1     -13.191  11.699  71.962  1.00  0.00    -0.443 A  
HETATM   26  C   UNL     1     -13.489  13.011  72.320  1.00  0.00    -0.645 A  
HETATM   27  C   UNL     1     -13.003  14.073  71.552  1.00  0.00    -0.427 A  
ENDBRANCH  21  22
ENDBRANCH  13  16
ENDBRANCH   7  10
ENDBRANCH   5   7
ENDBRANCH   2   3
TORSDOF 5
ENDMDL
MODEL      134
REMARK 921   NORMALIZED FREE ENERGY PREDICTED BY IDOCK:   -5.07 KCAL/MOL
REMARK 922        TOTAL FREE ENERGY PREDICTED BY IDOCK:   -7.63 KCAL/MOL
REMARK 923 INTER-LIGAND FREE ENERGY PREDICTED BY IDOCK:   -6.43 KCAL/MOL
REMARK 924 INTRA-LIGAND FREE ENERGY PREDICTED BY IDOCK:   -1.19 KCAL/MOL
REMARK 927      BINDING AFFINITY PREDICTED BY RF-SCORE:    0.00 PKD
ROOT
HETATM    1  C   UNL     1      -9.498   3.710  71.368  1.00  0.00    -0.227 C  
HETATM    2  C   UNL     1     -10.142   4.787  70.516  1.00  0.00    -0.291 C  
ENDROOT
BRANCH   2   3
HETATM    3  C   UNL     1     -10.364   6.034  71.340  1.00  0.00    -0.220 C  
HETATM    4  O   UNL     1     -10.355   6.004  72.562  1.00  0.00    -0.187 OA 
HETATM    5  N   UNL     1     -10.497   7.214  70.599  1.00  0.00    -0.208 N  
HETATM    6  H   UNL     1     -10.433   7.138  69.584  1.00  0.00     0.000 HD 
BRANCH   5   7
HETATM    7  S   UNL     1     -10.750   8.728  71.233  1.00  0.00    -0.297 S  
HETATM    8  O   UNL     1     -12.060   8.670  71.856  1.00  0.00    -0.309 OA 
HETATM    9  O   UNL     1      -9.590   9.148  71.992  1.00  0.00    -0.300 OA 
BRANCH   7  10
HETATM   10  C   UNL     1     -10.898   9.742  69.784  1.00  0.00    -0.257 A  
HETATM   11  C   UNL     1     -10.096   9.484  68.673  1.00  0.00    -0.198 A  
HETATM   12  C   UNL     1     -10.048  10.413  67.626  1.00  0.00    -0.223 A  
HETATM   13  C   UNL     1     -10.836  11.574  67.654  1.00  0.00    -0.277 A  
HETATM   14  C   UNL     1     -11.773  11.704  68.692  1.00  0.00    -0.386 A  
HETATM   15  C   UNL     1     -11.782  10.816  69.774  1.00  0.00    -0.399 A  
BRANCH  13  16
HETATM   16  C   UNL     1     -10.602  12.690  66.731  1.00  0.00    -0.254 A  
HETATM   17  C   UNL     1     -11.366  13.008  65.618  1.00  0.00    -0.301 A  
HETATM   18  C   UNL     1     -12.567  12.492  64.928  1.00  0.00    -0.469 C  
HETATM   19  O   UNL     1     -10.838  14.100  65.009  1.00  0.00    -0.350 OA 
HETATM   20  N   UNL     1      -9.714  14.515  65.665  1.00  0.00    -0.295 NA 
HETATM   21  C   UNL     1      -9.528  13.668  66.691  1.00  0.00    -0.277 A  
BRANCH  21  22
HETATM   22  C   UNL     1      -8.356  13.857  67.562  1.00  0.00    -0.202 A  
HETATM   23  C   UNL     1      -8.467  14.641  68.723  1.00  0.00    -0.161 A  
HETATM   24  C   UNL     1      -7.397  14.759  69.616  1.00  0.00    -0.114 A  
HETATM   25  C   UNL     1      -6.207  14.082  69.370  1.00  0.00    -0.108 A  
HETATM   26  C   UNL     1      -6.063  13.340  68.200  1.00  0.00    -0.108 A  
HETATM   27  C   UNL     1      -7.116  13.265  67.284  1.00  0.00    -0.016 A  
ENDBRANCH  21  22
ENDBRANCH  13  16
ENDBRANCH   7  10
ENDBRANCH   5   7
ENDBRANCH   2   3
TORSDOF 5
ENDMDL
MODEL      135
REMARK 921   NORMALIZED FREE ENERGY PREDICTED BY IDOCK:   -5.04 KCAL/MOL
REMARK 922        TOTAL FREE ENERGY PREDICTED BY IDOCK:   -7.60 KCAL/MOL
REMARK 923 INTER-LIGAND FREE ENERGY PREDICTED BY IDOCK:   -7.33 KCAL/MOL
REMARK 924 INTRA-LIGAND FREE ENERGY PREDICTED BY IDOCK:   -0.27 KCAL/MOL
REMARK 927      BINDING AFFINITY PREDICTED BY RF-SCORE:    0.00 PKD
ROOT
HETATM    1  C   UNL     1      -8.547  15.033  68.301  1.00  0.00    -0.156 C  
HETATM    2  C   UNL     1      -8.970  15.135  66.848  1.00  0.00    -0.277 C  
ENDROOT
BRANCH   2   3
HETATM    3  C   UNL     1     -10.001  14.075  66.535  1.00  0.00    -0.284 C  
HETATM    4  O   UNL     1     -10.961  13.879  67.265  1.00  0.00    -0.283 OA 
HETATM    5  N   UNL     1      -9.808  13.405  65.320  1.00  0.00    -0.527 N  
HETATM    6  H   UNL     1      -9.004  13.684  64.757  1.00  0.00     0.000 HD 
BRANCH   5   7
HETATM    7  S   UNL     1     -10.776  12.197  64.719  1.00  0.00    -0.316 S  
HETATM    8  O   UNL     1     -12.126  12.552  65.118  1.00  0.00    -0.417 OA 
HETATM    9  O   UNL     1     -10.458  11.954  63.327  1.00  0.00    -0.414 OA 
BRANCH   7  10
HETATM   10  C   UNL     1     -10.292  10.789  65.684  1.00  0.00    -0.230 A  
HETATM   11  C   UNL     1      -9.308   9.925  65.204  1.00  0.00    -0.317 A  
HETATM   12  C   UNL     1      -9.090   8.701  65.849  1.00  0.00    -0.259 A  
HETATM   13  C   UNL     1      -9.810   8.354  67.002  1.00  0.00    -0.296 A  
HETATM   14  C   UNL     1     -10.650   9.328  67.566  1.00  0.00    -0.329 A  
HETATM   15  C   UNL     1     -10.923  10.525  66.895  1.00  0.00    -0.199 A  
BRANCH  13  16
HETATM   16  C   UNL     1      -9.815   6.984  67.529  1.00  0.00    -0.186 A  
HETATM   17  C   UNL     1      -9.480   5.835  66.829  1.00  0.00    -0.143 A  
HETATM   18  C   UNL     1      -9.033   5.471  65.468  1.00  0.00    -0.133 C  
HETATM   19  O   UNL     1      -9.611   4.759  67.645  1.00  0.00    -0.139 OA 
HETATM   20  N   UNL     1     -10.057   5.147  68.877  1.00  0.00    -0.179 NA 
HETATM   21  C   UNL     1     -10.218   6.480  68.830  1.00  0.00    -0.171 A  
BRANCH  21  22
HETATM   22  C   UNL     1     -10.728   7.174  70.024  1.00  0.00    -0.268 A  
HETATM   23  C   UNL     1     -11.999   6.852  70.531  1.00  0.00    -0.358 A  
HETATM   24  C   UNL     1     -12.467   7.426  71.717  1.00  0.00    -0.367 A  
HETATM   25  C   UNL     1     -11.664   8.318  72.423  1.00  0.00    -0.463 A  
HETATM   26  C   UNL     1     -10.423   8.685  71.911  1.00  0.00    -0.410 A  
HETATM   27  C   UNL     1      -9.979   8.147  70.699  1.00  0.00    -0.204 A  
ENDBRANCH  21  22
ENDBRANCH  13  16
ENDBRANCH   7  10
ENDBRANCH   5   7
ENDBRANCH   2   3
TORSDOF 5
ENDMDL
MODEL      136
REMARK 921   NORMALIZED FREE ENERGY PREDICTED BY IDOCK:   -5.02 KCAL/MOL
REMARK 922        TOTAL FREE ENERGY PREDICTED BY IDOCK:   -7.57 KCAL/MOL
REMARK 923 INTER-LIGAND FREE ENERGY PREDICTED BY IDOCK:   -6.44 KCAL/MOL
REMARK 924 INTRA-LIGAND FREE ENERGY PREDICTED BY IDOCK:   -1.13 KCAL/MOL
REMARK 927      BINDING AFFINITY PREDICTED BY RF-SCORE:    0.00 PKD
ROOT
HETATM    1  C   UNL     1     -11.363  14.829  69.646  1.00  0.00    -0.316 C  
HETATM    2  C   UNL     1     -12.120  13.520  69.519  1.00  0.00    -0.352 C  
ENDROOT
BRANCH   2   3
HETATM    3  C   UNL     1     -11.997  12.988  68.110  1.00  0.00    -0.280 C  
HETATM    4  O   UNL     1     -12.129  11.798  67.861  1.00  0.00    -0.592 OA 
HETATM    5  N   UNL     1     -11.802  13.964  67.125  1.00  0.00    -0.389 N  
HETATM    6  H   UNL     1     -11.762  14.935  67.433  1.00  0.00     0.000 HD 
BRANCH   5   7
HETATM    7  S   UNL     1     -11.632  13.674  65.499  1.00  0.00    -0.336 S  
HETATM    8  O   UNL     1     -12.896  13.097  65.077  1.00  0.00    -0.692 OA 
HETATM    9  O   UNL     1     -11.101  14.849  64.839  1.00  0.00    -0.383 OA 
BRANCH   7  10
HETATM   10  C   UNL     1     -10.418  12.381  65.455  1.00  0.00    -0.275 A  
HETATM   11  C   UNL     1     -10.694  11.194  64.777  1.00  0.00    -0.334 A  
HETATM   12  C   UNL     1      -9.839  10.096  64.932  1.00  0.00    -0.390 A  
HETATM   13  C   UNL     1      -8.681  10.187  65.719  1.00  0.00    -0.166 A  
HETATM   14  C   UNL     1      -8.334  11.450  66.227  1.00  0.00    -0.111 A  
HETATM   15  C   UNL     1      -9.213  12.535  66.132  1.00  0.00    -0.077 A  
BRANCH  13  16
HETATM   16  C   UNL     1      -7.929   8.997  66.131  1.00  0.00    -0.103 A  
HETATM   17  C   UNL     1      -7.027   8.286  65.353  1.00  0.00    -0.063 A  
HETATM   18  C   UNL     1      -6.470   8.349  63.987  1.00  0.00    -0.071 C  
HETATM   19  O   UNL     1      -6.538   7.245  66.073  1.00  0.00    -0.050 OA 
HETATM   20  N   UNL     1      -7.109   7.213  67.314  1.00  0.00    -0.081 NA 
HETATM   21  C   UNL     1      -7.975   8.239  67.370  1.00  0.00    -0.106 A  
BRANCH  21  22
HETATM   22  C   UNL     1      -8.767   8.430  68.596  1.00  0.00    -0.133 A  
HETATM   23  C   UNL     1      -8.117   8.644  69.823  1.00  0.00    -0.114 A  
HETATM   24  C   UNL     1      -8.845   8.923  70.984  1.00  0.00    -0.285 A  
HETATM   25  C   UNL     1     -10.233   9.010  70.932  1.00  0.00    -0.324 A  
HETATM   26  C   UNL     1     -10.897   8.753  69.735  1.00  0.00    -0.196 A  
HETATM   27  C   UNL     1     -10.169   8.424  68.587  1.00  0.00    -0.220 A  
ENDBRANCH  21  22
ENDBRANCH  13  16
ENDBRANCH   7  10
ENDBRANCH   5   7
ENDBRANCH   2   3
TORSDOF 5
ENDMDL
MODEL      137
REMARK 921   NORMALIZED FREE ENERGY PREDICTED BY IDOCK:   -5.01 KCAL/MOL
REMARK 922        TOTAL FREE ENERGY PREDICTED BY IDOCK:   -7.56 KCAL/MOL
REMARK 923 INTER-LIGAND FREE ENERGY PREDICTED BY IDOCK:   -6.63 KCAL/MOL
REMARK 924 INTRA-LIGAND FREE ENERGY PREDICTED BY IDOCK:   -0.93 KCAL/MOL
REMARK 927      BINDING AFFINITY PREDICTED BY RF-SCORE:    0.00 PKD
ROOT
HETATM    1  C   UNL     1      -9.894   3.480  71.842  1.00  0.00    -0.237 C  
HETATM    2  C   UNL     1      -8.830   4.351  71.201  1.00  0.00    -0.153 C  
ENDROOT
BRANCH   2   3
HETATM    3  C   UNL     1      -9.411   5.091  70.019  1.00  0.00    -0.166 C  
HETATM    4  O   UNL     1     -10.615   5.122  69.811  1.00  0.00    -0.272 OA 
HETATM    5  N   UNL     1      -8.478   5.790  69.243  1.00  0.00    -0.107 N  
HETATM    6  H   UNL     1      -7.501   5.744  69.535  1.00  0.00     0.000 HD 
BRANCH   5   7
HETATM    7  S   UNL     1      -8.825   6.686  67.889  1.00  0.00    -0.113 S  
HETATM    8  O   UNL     1      -7.537   7.069  67.340  1.00  0.00    -0.104 OA 
HETATM    9  O   UNL     1      -9.799   5.991  67.071  1.00  0.00    -0.134 OA 
BRANCH   7  10
HETATM   10  C   UNL     1      -9.568   8.148  68.565  1.00  0.00    -0.148 A  
HETATM   11  C   UNL     1      -9.106   8.665  69.775  1.00  0.00    -0.150 A  
HETATM   12  C   UNL     1      -9.834   9.674  70.418  1.00  0.00    -0.315 A  
HETATM   13  C   UNL     1     -10.993  10.211  69.837  1.00  0.00    -0.344 A  
HETATM   14  C   UNL     1     -11.318   9.804  68.532  1.00  0.00     0.025 A  
HETATM   15  C   UNL     1     -10.637   8.752  67.910  1.00  0.00    -0.236 A  
BRANCH  13  16
HETATM   16  C   UNL     1     -11.924  11.049  70.600  1.00  0.00    -0.464 A  
HETATM   17  C   UNL     1     -12.830  10.610  71.554  1.00  0.00    -0.462 A  
HETATM   18  C   UNL     1     -13.239   9.332  72.172  1.00  0.00    -0.535 C  
HETATM   19  O   UNL     1     -13.522  11.673  72.036  1.00  0.00    -0.411 OA 
HETATM   20  N   UNL     1     -13.129  12.822  71.411  1.00  0.00    -0.290 NA 
HETATM   21  C   UNL     1     -12.188  12.475  70.517  1.00  0.00    -0.297 A  
BRANCH  21  22
HETATM   22  C   UNL     1     -11.601  13.523  69.665  1.00  0.00    -0.340 A  
HETATM   23  C   UNL     1     -11.316  14.788  70.207  1.00  0.00    -0.277 A  
HETATM   24  C   UNL     1     -10.671  15.768  69.446  1.00  0.00    -0.266 A  
HETATM   25  C   UNL     1     -10.288  15.492  68.137  1.00  0.00    -0.237 A  
HETATM   26  C   UNL     1     -10.605  14.262  67.568  1.00  0.00    -0.261 A  
HETATM   27  C   UNL     1     -11.294  13.302  68.315  1.00  0.00    -0.335 A  
ENDBRANCH  21  22
ENDBRANCH  13  16
ENDBRANCH   7  10
ENDBRANCH   5   7
ENDBRANCH   2   3
TORSDOF 5
ENDMDL
MODEL      138
REMARK 921   NORMALIZED FREE ENERGY PREDICTED BY IDOCK:   -4.97 KCAL/MOL
REMARK 922        TOTAL FREE ENERGY PREDICTED BY IDOCK:   -7.51 KCAL/MOL
REMARK 923 INTER-LIGAND FREE ENERGY PREDICTED BY IDOCK:   -6.93 KCAL/MOL
REMARK 924 INTRA-LIGAND FREE ENERGY PREDICTED BY IDOCK:   -0.58 KCAL/MOL
REMARK 927      BINDING AFFINITY PREDICTED BY RF-SCORE:    0.00 PKD
ROOT
HETATM    1  C   UNL     1      -6.172   8.605  73.019  1.00  0.00    -0.080 C  
HETATM    2  C   UNL     1      -6.927   7.350  72.624  1.00  0.00    -0.068 C  
ENDROOT
BRANCH   2   3
HETATM    3  C   UNL     1      -8.370   7.688  72.327  1.00  0.00    -0.108 C  
HETATM    4  O   UNL     1      -8.876   8.733  72.710  1.00  0.00    -0.382 OA 
HETATM    5  N   UNL     1      -9.040   6.758  71.523  1.00  0.00    -0.145 N  
HETATM    6  H   UNL     1      -8.509   5.945  71.208  1.00  0.00     0.000 HD 
BRANCH   5   7
HETATM    7  S   UNL     1     -10.624   6.865  71.037  1.00  0.00    -0.223 S  
HETATM    8  O   UNL     1     -11.056   5.494  70.828  1.00  0.00    -0.192 OA 
HETATM    9  O   UNL     1     -11.357   7.741  71.929  1.00  0.00    -0.251 OA 
BRANCH   7  10
HETATM   10  C   UNL     1     -10.497   7.629  69.442  1.00  0.00    -0.220 A  
HETATM   11  C   UNL     1     -10.885   6.925  68.303  1.00  0.00    -0.244 A  
HETATM   12  C   UNL     1     -10.574   7.435  67.036  1.00  0.00    -0.414 A  
HETATM   13  C   UNL     1      -9.923   8.670  66.895  1.00  0.00    -0.330 A  
HETATM   14  C   UNL     1      -9.722   9.439  68.053  1.00  0.00    -0.167 A  
HETATM   15  C   UNL     1      -9.969   8.911  69.325  1.00  0.00    -0.192 A  
BRANCH  13  16
HETATM   16  C   UNL     1      -9.334   9.093  65.619  1.00  0.00    -0.300 A  
HETATM   17  C   UNL     1      -8.243   8.514  64.988  1.00  0.00    -0.158 A  
HETATM   18  C   UNL     1      -7.304   7.398  65.224  1.00  0.00    -0.076 C  
HETATM   19  O   UNL     1      -7.987   9.182  63.835  1.00  0.00    -0.126 OA 
HETATM   20  N   UNL     1      -8.860  10.221  63.682  1.00  0.00    -0.202 NA 
HETATM   21  C   UNL     1      -9.666  10.213  64.756  1.00  0.00    -0.322 A  
BRANCH  21  22
HETATM   22  C   UNL     1     -10.697  11.257  64.876  1.00  0.00    -0.337 A  
HETATM   23  C   UNL     1     -10.973  11.828  66.130  1.00  0.00    -0.355 A  
HETATM   24  C   UNL     1     -11.879  12.887  66.256  1.00  0.00    -0.477 A  
HETATM   25  C   UNL     1     -12.509  13.401  65.127  1.00  0.00    -0.509 A  
HETATM   26  C   UNL     1     -12.284  12.816  63.883  1.00  0.00    -0.543 A  
HETATM   27  C   UNL     1     -11.417  11.726  63.768  1.00  0.00    -0.510 A  
ENDBRANCH  21  22
ENDBRANCH  13  16
ENDBRANCH   7  10
ENDBRANCH   5   7
ENDBRANCH   2   3
TORSDOF 5
ENDMDL
MODEL      139
REMARK 921   NORMALIZED FREE ENERGY PREDICTED BY IDOCK:   -4.97 KCAL/MOL
REMARK 922        TOTAL FREE ENERGY PREDICTED BY IDOCK:   -7.50 KCAL/MOL
REMARK 923 INTER-LIGAND FREE ENERGY PREDICTED BY IDOCK:   -6.40 KCAL/MOL
REMARK 924 INTRA-LIGAND FREE ENERGY PREDICTED BY IDOCK:   -1.10 KCAL/MOL
REMARK 927      BINDING AFFINITY PREDICTED BY RF-SCORE:    0.00 PKD
ROOT
HETATM    1  C   UNL     1      -6.251  17.503  66.162  1.00  0.00    -0.242 C  
HETATM    2  C   UNL     1      -7.123  16.806  67.190  1.00  0.00    -0.222 C  
ENDROOT
BRANCH   2   3
HETATM    3  C   UNL     1      -8.448  16.425  66.570  1.00  0.00    -0.301 C  
HETATM    4  O   UNL     1      -9.069  17.200  65.858  1.00  0.00    -0.513 OA 
HETATM    5  N   UNL     1      -8.854  15.107  66.811  1.00  0.00    -0.254 N  
HETATM    6  H   UNL     1      -8.234  14.523  67.372  1.00  0.00     0.000 HD 
BRANCH   5   7
HETATM    7  S   UNL     1     -10.259  14.413  66.260  1.00  0.00    -0.311 S  
HETATM    8  O   UNL     1     -11.330  15.212  66.827  1.00  0.00    -0.326 OA 
HETATM    9  O   UNL     1     -10.177  14.199  64.829  1.00  0.00    -0.419 OA 
BRANCH   7  10
HETATM   10  C   UNL     1     -10.273  12.844  67.086  1.00  0.00    -0.239 A  
HETATM   11  C   UNL     1     -11.299  11.935  66.829  1.00  0.00    -0.393 A  
HETATM   12  C   UNL     1     -11.437  10.802  67.641  1.00  0.00    -0.234 A  
HETATM   13  C   UNL     1     -10.527  10.541  68.677  1.00  0.00    -0.211 A  
HETATM   14  C   UNL     1      -9.400  11.372  68.782  1.00  0.00    -0.115 A  
HETATM   15  C   UNL     1      -9.288  12.540  68.019  1.00  0.00    -0.205 A  
BRANCH  13  16
HETATM   16  C   UNL     1     -10.801   9.538  69.713  1.00  0.00    -0.264 A  
HETATM   17  C   UNL     1     -11.746   9.638  70.722  1.00  0.00    -0.314 A  
HETATM   18  C   UNL     1     -12.762  10.608  71.181  1.00  0.00    -0.522 C  
HETATM   19  O   UNL     1     -11.702   8.520  71.490  1.00  0.00    -0.269 OA 
HETATM   20  N   UNL     1     -10.727   7.674  71.044  1.00  0.00    -0.226 NA 
HETATM   21  C   UNL     1     -10.145   8.272  69.992  1.00  0.00    -0.196 A  
BRANCH  21  22
HETATM   22  C   UNL     1      -9.022   7.594  69.323  1.00  0.00    -0.135 A  
HETATM   23  C   UNL     1      -9.119   7.256  67.962  1.00  0.00    -0.133 A  
HETATM   24  C   UNL     1      -8.033   6.698  67.280  1.00  0.00    -0.117 A  
HETATM   25  C   UNL     1      -6.829   6.485  67.944  1.00  0.00    -0.074 A  
HETATM   26  C   UNL     1      -6.730   6.767  69.304  1.00  0.00    -0.053 A  
HETATM   27  C   UNL     1      -7.833   7.278  69.995  1.00  0.00    -0.111 A  
ENDBRANCH  21  22
ENDBRANCH  13  16
ENDBRANCH   7  10
ENDBRANCH   5   7
ENDBRANCH   2   3
TORSDOF 5
ENDMDL
MODEL      140
REMARK 921   NORMALIZED FREE ENERGY PREDICTED BY IDOCK:   -4.94 KCAL/MOL
REMARK 922        TOTAL FREE ENERGY PREDICTED BY IDOCK:   -7.47 KCAL/MOL
REMARK 923 INTER-LIGAND FREE ENERGY PREDICTED BY IDOCK:   -6.46 KCAL/MOL
REMARK 924 INTRA-LIGAND FREE ENERGY PREDICTED BY IDOCK:   -1.01 KCAL/MOL
REMARK 927      BINDING AFFINITY PREDICTED BY RF-SCORE:    0.00 PKD
ROOT
HETATM    1  C   UNL     1     -13.618  15.114  70.880  1.00  0.00    -0.397 C  
HETATM    2  C   UNL     1     -12.276  14.431  70.695  1.00  0.00    -0.414 C  
ENDROOT
BRANCH   2   3
HETATM    3  C   UNL     1     -11.829  14.554  69.257  1.00  0.00    -0.323 C  
HETATM    4  O   UNL     1     -11.812  15.632  68.681  1.00  0.00    -0.372 OA 
HETATM    5  N   UNL     1     -11.368  13.365  68.678  1.00  0.00    -0.266 N  
HETATM    6  H   UNL     1     -11.371  12.529  69.264  1.00  0.00     0.000 HD 
BRANCH   5   7
HETATM    7  S   UNL     1     -10.818  13.199  67.120  1.00  0.00    -0.260 S  
HETATM    8  O   UNL     1     -11.967  13.471  66.275  1.00  0.00    -0.370 OA 
HETATM    9  O   UNL     1      -9.585  13.940  66.949  1.00  0.00    -0.250 OA 
BRANCH   7  10
HETATM   10  C   UNL     1     -10.477  11.462  67.006  1.00  0.00    -0.236 A  
HETATM   11  C   UNL     1     -11.283  10.551  67.686  1.00  0.00    -0.338 A  
HETATM   12  C   UNL     1     -10.883   9.212  67.782  1.00  0.00    -0.159 A  
HETATM   13  C   UNL     1      -9.708   8.763  67.160  1.00  0.00    -0.248 A  
HETATM   14  C   UNL     1      -9.026   9.663  66.325  1.00  0.00    -0.184 A  
HETATM   15  C   UNL     1      -9.381  11.015  66.274  1.00  0.00    -0.206 A  
BRANCH  13  16
HETATM   16  C   UNL     1      -9.117   7.457  67.474  1.00  0.00    -0.128 A  
HETATM   17  C   UNL     1      -8.475   6.612  66.581  1.00  0.00    -0.120 A  
HETATM   18  C   UNL     1      -8.125   6.594  65.146  1.00  0.00    -0.133 C  
HETATM   19  O   UNL     1      -8.069   5.495  67.236  1.00  0.00    -0.101 OA 
HETATM   20  N   UNL     1      -8.445   5.547  68.548  1.00  0.00    -0.100 NA 
HETATM   21  C   UNL     1      -9.106   6.705  68.717  1.00  0.00    -0.131 A  
BRANCH  21  22
HETATM   22  C   UNL     1      -9.663   7.016  70.044  1.00  0.00    -0.171 A  
HETATM   23  C   UNL     1      -9.024   7.959  70.867  1.00  0.00    -0.147 A  
HETATM   24  C   UNL     1      -9.584   8.342  72.090  1.00  0.00    -0.367 A  
HETATM   25  C   UNL     1     -10.798   7.800  72.500  1.00  0.00    -0.386 A  
HETATM   26  C   UNL     1     -11.420   6.828  71.721  1.00  0.00    -0.320 A  
HETATM   27  C   UNL     1     -10.833   6.410  70.523  1.00  0.00    -0.335 A  
ENDBRANCH  21  22
ENDBRANCH  13  16
ENDBRANCH   7  10
ENDBRANCH   5   7
ENDBRANCH   2   3
TORSDOF 5
ENDMDL
MODEL      141
REMARK 921   NORMALIZED FREE ENERGY PREDICTED BY IDOCK:   -4.94 KCAL/MOL
REMARK 922        TOTAL FREE ENERGY PREDICTED BY IDOCK:   -7.46 KCAL/MOL
REMARK 923 INTER-LIGAND FREE ENERGY PREDICTED BY IDOCK:   -6.73 KCAL/MOL
REMARK 924 INTRA-LIGAND FREE ENERGY PREDICTED BY IDOCK:   -0.73 KCAL/MOL
REMARK 927      BINDING AFFINITY PREDICTED BY RF-SCORE:    0.00 PKD
ROOT
HETATM    1  C   UNL     1     -11.612  10.433  70.807  1.00  0.00    -0.450 C  
HETATM    2  C   UNL     1     -10.985   9.133  71.273  1.00  0.00    -0.400 C  
ENDROOT
BRANCH   2   3
HETATM    3  C   UNL     1      -9.479   9.262  71.287  1.00  0.00    -0.175 C  
HETATM    4  O   UNL     1      -8.806   8.813  72.203  1.00  0.00    -0.345 OA 
HETATM    5  N   UNL     1      -8.928   9.855  70.145  1.00  0.00    -0.356 N  
HETATM    6  H   UNL     1      -9.574  10.144  69.411  1.00  0.00     0.000 HD 
BRANCH   5   7
HETATM    7  S   UNL     1      -7.310  10.126  69.884  1.00  0.00    -0.165 S  
HETATM    8  O   UNL     1      -6.774  10.523  71.174  1.00  0.00    -0.194 OA 
HETATM    9  O   UNL     1      -6.732   9.015  69.155  1.00  0.00    -0.049 OA 
BRANCH   7  10
HETATM   10  C   UNL     1      -7.315  11.565  68.847  1.00  0.00    -0.116 A  
HETATM   11  C   UNL     1      -6.798  12.768  69.327  1.00  0.00    -0.012 A  
HETATM   12  C   UNL     1      -7.007  13.948  68.602  1.00  0.00    -0.108 A  
HETATM   13  C   UNL     1      -7.684  13.930  67.373  1.00  0.00    -0.165 A  
HETATM   14  C   UNL     1      -8.018  12.679  66.829  1.00  0.00     0.115 A  
HETATM   15  C   UNL     1      -7.872  11.503  67.573  1.00  0.00    -0.133 A  
BRANCH  13  16
HETATM   16  C   UNL     1      -8.166  15.161  66.737  1.00  0.00    -0.172 A  
HETATM   17  C   UNL     1      -7.532  16.394  66.752  1.00  0.00    -0.243 A  
HETATM   18  C   UNL     1      -6.294  16.985  67.301  1.00  0.00    -0.196 C  
HETATM   19  O   UNL     1      -8.283  17.292  66.064  1.00  0.00    -0.488 OA 
HETATM   20  N   UNL     1      -9.429  16.705  65.607  1.00  0.00    -0.497 NA 
HETATM   21  C   UNL     1      -9.403  15.427  66.022  1.00  0.00    -0.329 A  
BRANCH  21  22
HETATM   22  C   UNL     1     -10.543  14.554  65.698  1.00  0.00    -0.343 A  
HETATM   23  C   UNL     1     -10.559  13.846  64.484  1.00  0.00    -0.375 A  
HETATM   24  C   UNL     1     -11.583  12.938  64.194  1.00  0.00    -0.456 A  
HETATM   25  C   UNL     1     -12.596  12.713  65.121  1.00  0.00    -0.459 A  
HETATM   26  C   UNL     1     -12.622  13.441  66.307  1.00  0.00    -0.231 A  
HETATM   27  C   UNL     1     -11.625  14.384  66.572  1.00  0.00    -0.388 A  
ENDBRANCH  21  22
ENDBRANCH  13  16
ENDBRANCH   7  10
ENDBRANCH   5   7
ENDBRANCH   2   3
TORSDOF 5
ENDMDL
MODEL      142
REMARK 921   NORMALIZED FREE ENERGY PREDICTED BY IDOCK:   -4.92 KCAL/MOL
REMARK 922        TOTAL FREE ENERGY PREDICTED BY IDOCK:   -7.44 KCAL/MOL
REMARK 923 INTER-LIGAND FREE ENERGY PREDICTED BY IDOCK:   -6.52 KCAL/MOL
REMARK 924 INTRA-LIGAND FREE ENERGY PREDICTED BY IDOCK:   -0.92 KCAL/MOL
REMARK 927      BINDING AFFINITY PREDICTED BY RF-SCORE:    0.00 PKD
ROOT
HETATM    1  C   UNL     1      -9.466   3.916  63.613  1.00  0.00    -0.145 C  
HETATM    2  C   UNL     1      -8.041   4.432  63.682  1.00  0.00    -0.095 C  
ENDROOT
BRANCH   2   3
HETATM    3  C   UNL     1      -7.781   5.051  65.036  1.00  0.00    -0.083 C  
HETATM    4  O   UNL     1      -7.091   6.052  65.161  1.00  0.00    -0.061 OA 
HETATM    5  N   UNL     1      -8.451   4.438  66.102  1.00  0.00    -0.113 N  
HETATM    6  H   UNL     1      -9.049   3.642  65.882  1.00  0.00     0.000 HD 
BRANCH   5   7
HETATM    7  S   UNL     1      -8.355   4.900  67.695  1.00  0.00    -0.104 S  
HETATM    8  O   UNL     1      -9.337   4.087  68.390  1.00  0.00    -0.139 OA 
HETATM    9  O   UNL     1      -6.971   4.912  68.124  1.00  0.00    -0.058 OA 
BRANCH   7  10
HETATM   10  C   UNL     1      -8.971   6.563  67.661  1.00  0.00    -0.114 A  
HETATM   11  C   UNL     1      -8.216   7.593  68.219  1.00  0.00    -0.125 A  
HETATM   12  C   UNL     1      -8.795   8.856  68.396  1.00  0.00    -0.134 A  
HETATM   13  C   UNL     1     -10.108   9.114  67.973  1.00  0.00    -0.238 A  
HETATM   14  C   UNL     1     -10.768   8.112  67.242  1.00  0.00    -0.263 A  
HETATM   15  C   UNL     1     -10.223   6.829  67.117  1.00  0.00    -0.291 A  
BRANCH  13  16
HETATM   16  C   UNL     1     -10.835  10.317  68.395  1.00  0.00    -0.288 A  
HETATM   17  C   UNL     1     -11.281  10.598  69.677  1.00  0.00    -0.289 A  
HETATM   18  C   UNL     1     -11.257   9.962  71.011  1.00  0.00    -0.435 C  
HETATM   19  O   UNL     1     -11.917  11.797  69.677  1.00  0.00    -0.306 OA 
HETATM   20  N   UNL     1     -11.940  12.324  68.418  1.00  0.00    -0.336 NA 
HETATM   21  C   UNL     1     -11.322  11.442  67.615  1.00  0.00    -0.290 A  
BRANCH  21  22
HETATM   22  C   UNL     1     -11.228  11.739  66.176  1.00  0.00    -0.363 A  
HETATM   23  C   UNL     1     -10.240  11.113  65.396  1.00  0.00    -0.327 A  
HETATM   24  C   UNL     1     -10.189  11.304  64.011  1.00  0.00    -0.403 A  
HETATM   25  C   UNL     1     -11.135  12.109  63.384  1.00  0.00    -0.495 A  
HETATM   26  C   UNL     1     -12.091  12.775  64.147  1.00  0.00    -0.513 A  
HETATM   27  C   UNL     1     -12.108  12.623  65.537  1.00  0.00    -0.515 A  
ENDBRANCH  21  22
ENDBRANCH  13  16
ENDBRANCH   7  10
ENDBRANCH   5   7
ENDBRANCH   2   3
TORSDOF 5
ENDMDL
MODEL      143
REMARK 921   NORMALIZED FREE ENERGY PREDICTED BY IDOCK:   -4.86 KCAL/MOL
REMARK 922        TOTAL FREE ENERGY PREDICTED BY IDOCK:   -7.37 KCAL/MOL
REMARK 923 INTER-LIGAND FREE ENERGY PREDICTED BY IDOCK:   -6.20 KCAL/MOL
REMARK 924 INTRA-LIGAND FREE ENERGY PREDICTED BY IDOCK:   -1.17 KCAL/MOL
REMARK 927      BINDING AFFINITY PREDICTED BY RF-SCORE:    0.00 PKD
ROOT
HETATM    1  C   UNL     1      -6.548   6.106  70.194  1.00  0.00    -0.044 C  
HETATM    2  C   UNL     1      -6.236   5.091  69.111  1.00  0.00    -0.030 C  
ENDROOT
BRANCH   2   3
HETATM    3  C   UNL     1      -7.272   5.171  68.014  1.00  0.00    -0.067 C  
HETATM    4  O   UNL     1      -8.346   4.594  68.102  1.00  0.00    -0.094 OA 
HETATM    5  N   UNL     1      -6.935   6.013  66.946  1.00  0.00    -0.067 N  
HETATM    6  H   UNL     1      -6.037   6.493  66.996  1.00  0.00     0.000 HD 
BRANCH   5   7
HETATM    7  S   UNL     1      -7.874   6.294  65.605  1.00  0.00    -0.104 S  
HETATM    8  O   UNL     1      -6.983   6.897  64.631  1.00  0.00    -0.054 OA 
HETATM    9  O   UNL     1      -8.633   5.105  65.274  1.00  0.00    -0.138 OA 
BRANCH   7  10
HETATM   10  C   UNL     1      -8.985   7.559  66.162  1.00  0.00    -0.153 A  
HETATM   11  C   UNL     1      -8.696   8.899  65.903  1.00  0.00    -0.197 A  
HETATM   12  C   UNL     1      -9.445   9.901  66.532  1.00  0.00    -0.230 A  
HETATM   13  C   UNL     1     -10.516   9.578  67.380  1.00  0.00    -0.336 A  
HETATM   14  C   UNL     1     -10.899   8.229  67.464  1.00  0.00    -0.094 A  
HETATM   15  C   UNL     1     -10.120   7.218  66.892  1.00  0.00    -0.317 A  
BRANCH  13  16
HETATM   16  C   UNL     1     -11.128  10.573  68.268  1.00  0.00    -0.340 A  
HETATM   17  C   UNL     1     -11.632  11.808  67.890  1.00  0.00    -0.307 A  
HETATM   18  C   UNL     1     -11.786  12.599  66.651  1.00  0.00    -0.464 C  
HETATM   19  O   UNL     1     -12.110  12.451  68.986  1.00  0.00    -0.259 OA 
HETATM   20  N   UNL     1     -11.914  11.693  70.106  1.00  0.00    -0.349 NA 
HETATM   21  C   UNL     1     -11.297  10.567  69.710  1.00  0.00    -0.300 A  
BRANCH  21  22
HETATM   22  C   UNL     1     -10.928   9.568  70.727  1.00  0.00    -0.389 A  
HETATM   23  C   UNL     1      -9.572   9.302  70.987  1.00  0.00    -0.329 A  
HETATM   24  C   UNL     1      -9.194   8.428  72.011  1.00  0.00    -0.304 A  
HETATM   25  C   UNL     1     -10.165   7.821  72.802  1.00  0.00    -0.360 A  
HETATM   26  C   UNL     1     -11.514   8.035  72.528  1.00  0.00    -0.471 A  
HETATM   27  C   UNL     1     -11.889   8.869  71.470  1.00  0.00    -0.402 A  
ENDBRANCH  21  22
ENDBRANCH  13  16
ENDBRANCH   7  10
ENDBRANCH   5   7
ENDBRANCH   2   3
TORSDOF 5
ENDMDL
MODEL      144
REMARK 921   NORMALIZED FREE ENERGY PREDICTED BY IDOCK:   -4.86 KCAL/MOL
REMARK 922        TOTAL FREE ENERGY PREDICTED BY IDOCK:   -7.36 KCAL/MOL
REMARK 923 INTER-LIGAND FREE ENERGY PREDICTED BY IDOCK:   -6.31 KCAL/MOL
REMARK 924 INTRA-LIGAND FREE ENERGY PREDICTED BY IDOCK:   -1.05 KCAL/MOL
REMARK 927      BINDING AFFINITY PREDICTED BY RF-SCORE:    0.00 PKD
ROOT
HETATM    1  C   UNL     1      -6.160   3.843  66.362  1.00  0.00    -0.031 C  
HETATM    2  C   UNL     1      -7.004   4.978  65.814  1.00  0.00    -0.066 C  
ENDROOT
BRANCH   2   3
HETATM    3  C   UNL     1      -7.169   6.052  66.864  1.00  0.00    -0.071 C  
HETATM    4  O   UNL     1      -6.430   7.025  66.907  1.00  0.00    -0.049 OA 
HETATM    5  N   UNL     1      -8.268   5.882  67.715  1.00  0.00    -0.105 N  
HETATM    6  H   UNL     1      -8.856   5.064  67.559  1.00  0.00     0.000 HD 
BRANCH   5   7
HETATM    7  S   UNL     1      -8.694   6.899  68.957  1.00  0.00    -0.130 S  
HETATM    8  O   UNL     1      -9.905   6.331  69.521  1.00  0.00    -0.150 OA 
HETATM    9  O   UNL     1      -7.544   7.165  69.796  1.00  0.00    -0.098 OA 
BRANCH   7  10
HETATM   10  C   UNL     1      -9.153   8.387  68.107  1.00  0.00    -0.138 A  
HETATM   11  C   UNL     1      -8.529   9.591  68.430  1.00  0.00    -0.119 A  
HETATM   12  C   UNL     1      -9.045  10.793  67.928  1.00  0.00    -0.150 A  
HETATM   13  C   UNL     1     -10.149  10.799  67.063  1.00  0.00    -0.249 A  
HETATM   14  C   UNL     1     -10.629   9.560  66.606  1.00  0.00    -0.174 A  
HETATM   15  C   UNL     1     -10.164   8.358  67.151  1.00  0.00    -0.362 A  
BRANCH  13  16
HETATM   16  C   UNL     1     -10.883  12.031  66.753  1.00  0.00    -0.307 A  
HETATM   17  C   UNL     1     -10.912  12.682  65.529  1.00  0.00    -0.279 A  
HETATM   18  C   UNL     1     -10.339  12.505  64.178  1.00  0.00    -0.416 C  
HETATM   19  O   UNL     1     -11.691  13.789  65.629  1.00  0.00    -0.327 OA 
HETATM   20  N   UNL     1     -12.167  13.924  66.902  1.00  0.00    -0.416 NA 
HETATM   21  C   UNL     1     -11.674  12.895  67.612  1.00  0.00    -0.370 A  
BRANCH  21  22
HETATM   22  C   UNL     1     -12.001  12.803  69.045  1.00  0.00    -0.288 A  
HETATM   23  C   UNL     1     -12.257  13.973  69.781  1.00  0.00    -0.396 A  
HETATM   24  C   UNL     1     -12.662  13.907  71.118  1.00  0.00    -0.441 A  
HETATM   25  C   UNL     1     -12.834  12.671  71.733  1.00  0.00    -0.343 A  
HETATM   26  C   UNL     1     -12.538  11.503  71.034  1.00  0.00    -0.457 A  
HETATM   27  C   UNL     1     -12.084  11.574  69.714  1.00  0.00    -0.374 A  
ENDBRANCH  21  22
ENDBRANCH  13  16
ENDBRANCH   7  10
ENDBRANCH   5   7
ENDBRANCH   2   3
TORSDOF 5
ENDMDL
MODEL      145
REMARK 921   NORMALIZED FREE ENERGY PREDICTED BY IDOCK:   -4.85 KCAL/MOL
REMARK 922        TOTAL FREE ENERGY PREDICTED BY IDOCK:   -7.34 KCAL/MOL
REMARK 923 INTER-LIGAND FREE ENERGY PREDICTED BY IDOCK:   -7.04 KCAL/MOL
REMARK 924 INTRA-LIGAND FREE ENERGY PREDICTED BY IDOCK:   -0.31 KCAL/MOL
REMARK 927      BINDING AFFINITY PREDICTED BY RF-SCORE:    0.00 PKD
ROOT
HETATM    1  C   UNL     1      -7.073  15.423  68.576  1.00  0.00    -0.114 C  
HETATM    2  C   UNL     1      -7.650  15.648  67.192  1.00  0.00    -0.258 C  
ENDROOT
BRANCH   2   3
HETATM    3  C   UNL     1      -8.963  14.913  67.053  1.00  0.00    -0.236 C  
HETATM    4  O   UNL     1      -9.987  15.325  67.579  1.00  0.00    -0.225 OA 
HETATM    5  N   UNL     1      -8.923  13.787  66.222  1.00  0.00    -0.465 N  
HETATM    6  H   UNL     1      -8.030  13.560  65.785  1.00  0.00     0.000 HD 
BRANCH   5   7
HETATM    7  S   UNL     1     -10.208  12.789  65.887  1.00  0.00    -0.290 S  
HETATM    8  O   UNL     1     -11.290  13.673  65.493  1.00  0.00    -0.296 OA 
HETATM    9  O   UNL     1      -9.783  11.710  65.017  1.00  0.00    -0.238 OA 
BRANCH   7  10
HETATM   10  C   UNL     1     -10.618  12.127  67.480  1.00  0.00    -0.214 A  
HETATM   11  C   UNL     1      -9.740  11.249  68.114  1.00  0.00    -0.188 A  
HETATM   12  C   UNL     1     -10.161  10.554  69.255  1.00  0.00    -0.244 A  
HETATM   13  C   UNL     1     -11.436  10.767  69.800  1.00  0.00    -0.386 A  
HETATM   14  C   UNL     1     -12.218  11.797  69.252  1.00  0.00    -0.202 A  
HETATM   15  C   UNL     1     -11.834  12.450  68.076  1.00  0.00    -0.376 A  
BRANCH  13  16
HETATM   16  C   UNL     1     -12.009   9.863  70.805  1.00  0.00    -0.410 A  
HETATM   17  C   UNL     1     -12.957  10.196  71.760  1.00  0.00    -0.462 A  
HETATM   18  C   UNL     1     -13.726  11.387  72.175  1.00  0.00     0.083 C  
HETATM   19  O   UNL     1     -13.236   9.102  72.514  1.00  0.00    -0.444 OA 
HETATM   20  N   UNL     1     -12.476   8.040  72.112  1.00  0.00    -0.310 NA 
HETATM   21  C   UNL     1     -11.704   8.475  71.102  1.00  0.00    -0.281 A  
BRANCH  21  22
HETATM   22  C   UNL     1     -10.748   7.538  70.488  1.00  0.00    -0.244 A  
HETATM   23  C   UNL     1      -9.367   7.781  70.590  1.00  0.00    -0.162 A  
HETATM   24  C   UNL     1      -8.436   6.860  70.100  1.00  0.00    -0.140 A  
HETATM   25  C   UNL     1      -8.872   5.674  69.515  1.00  0.00    -0.116 A  
HETATM   26  C   UNL     1     -10.236   5.439  69.362  1.00  0.00    -0.334 A  
HETATM   27  C   UNL     1     -11.163   6.386  69.808  1.00  0.00    -0.484 A  
ENDBRANCH  21  22
ENDBRANCH  13  16
ENDBRANCH   7  10
ENDBRANCH   5   7
ENDBRANCH   2   3
TORSDOF 5
ENDMDL
MODEL      146
REMARK 921   NORMALIZED FREE ENERGY PREDICTED BY IDOCK:   -4.84 KCAL/MOL
REMARK 922        TOTAL FREE ENERGY PREDICTED BY IDOCK:   -7.34 KCAL/MOL
REMARK 923 INTER-LIGAND FREE ENERGY PREDICTED BY IDOCK:   -6.29 KCAL/MOL
REMARK 924 INTRA-LIGAND FREE ENERGY PREDICTED BY IDOCK:   -1.05 KCAL/MOL
REMARK 927      BINDING AFFINITY PREDICTED BY RF-SCORE:    0.00 PKD
ROOT
HETATM    1  C   UNL     1     -10.548  20.221  67.854  1.00  0.00    -0.224 C  
HETATM    2  C   UNL     1      -9.693  20.480  66.628  1.00  0.00    -0.407 C  
ENDROOT
BRANCH   2   3
HETATM    3  C   UNL     1      -9.160  19.174  66.085  1.00  0.00    -0.224 C  
HETATM    4  O   UNL     1      -8.218  19.140  65.306  1.00  0.00     0.119 OA 
HETATM    5  N   UNL     1      -9.773  18.026  66.602  1.00  0.00    -0.317 N  
HETATM    6  H   UNL     1     -10.513  18.163  67.290  1.00  0.00     0.000 HD 
BRANCH   5   7
HETATM    7  S   UNL     1      -9.398  16.462  66.189  1.00  0.00    -0.314 S  
HETATM    8  O   UNL     1     -10.157  16.190  64.982  1.00  0.00    -0.478 OA 
HETATM    9  O   UNL     1      -7.962  16.274  66.216  1.00  0.00    -0.294 OA 
BRANCH   7  10
HETATM   10  C   UNL     1     -10.134  15.522  67.501  1.00  0.00    -0.241 A  
HETATM   11  C   UNL     1      -9.327  14.757  68.343  1.00  0.00    -0.197 A  
HETATM   12  C   UNL     1      -9.920  13.844  69.225  1.00  0.00     0.235 A  
HETATM   13  C   UNL     1     -11.315  13.724  69.311  1.00  0.00    -0.325 A  
HETATM   14  C   UNL     1     -12.095  14.645  68.591  1.00  0.00    -0.237 A  
HETATM   15  C   UNL     1     -11.516  15.514  67.661  1.00  0.00    -0.211 A  
BRANCH  13  16
HETATM   16  C   UNL     1     -11.954  12.598  70.000  1.00  0.00    -0.377 A  
HETATM   17  C   UNL     1     -12.885  12.685  71.024  1.00  0.00    -0.166 A  
HETATM   18  C   UNL     1     -13.575  13.741  71.793  1.00  0.00    -0.450 C  
HETATM   19  O   UNL     1     -13.242  11.434  71.412  1.00  0.00    -0.326 OA 
HETATM   20  N   UNL     1     -12.553  10.498  70.695  1.00  0.00    -0.353 NA 
HETATM   21  C   UNL     1     -11.746  11.168  69.855  1.00  0.00    -0.355 A  
BRANCH  21  22
HETATM   22  C   UNL     1     -10.851  10.402  68.972  1.00  0.00    -0.273 A  
HETATM   23  C   UNL     1     -11.285  10.030  67.688  1.00  0.00    -0.099 A  
HETATM   24  C   UNL     1     -10.422   9.387  66.795  1.00  0.00    -0.265 A  
HETATM   25  C   UNL     1      -9.108   9.121  67.166  1.00  0.00    -0.146 A  
HETATM   26  C   UNL     1      -8.675   9.438  68.451  1.00  0.00    -0.124 A  
HETATM   27  C   UNL     1      -9.554  10.036  69.359  1.00  0.00    -0.237 A  
ENDBRANCH  21  22
ENDBRANCH  13  16
ENDBRANCH   7  10
ENDBRANCH   5   7
ENDBRANCH   2   3
TORSDOF 5
ENDMDL
MODEL      147
REMARK 921   NORMALIZED FREE ENERGY PREDICTED BY IDOCK:   -4.84 KCAL/MOL
REMARK 922        TOTAL FREE ENERGY PREDICTED BY IDOCK:   -7.34 KCAL/MOL
REMARK 923 INTER-LIGAND FREE ENERGY PREDICTED BY IDOCK:   -6.14 KCAL/MOL
REMARK 924 INTRA-LIGAND FREE ENERGY PREDICTED BY IDOCK:   -1.20 KCAL/MOL
REMARK 927      BINDING AFFINITY PREDICTED BY RF-SCORE:    0.00 PKD
ROOT
HETATM    1  C   UNL     1      -7.723   4.192  65.337  1.00  0.00    -0.086 C  
HETATM    2  C   UNL     1      -8.504   5.113  64.418  1.00  0.00    -0.138 C  
ENDROOT
BRANCH   2   3
HETATM    3  C   UNL     1      -7.795   6.441  64.295  1.00  0.00    -0.114 C  
HETATM    4  O   UNL     1      -6.860   6.600  63.523  1.00  0.00    -0.046 OA 
HETATM    5  N   UNL     1      -8.342   7.475  65.064  1.00  0.00    -0.286 N  
HETATM    6  H   UNL     1      -9.159   7.252  65.633  1.00  0.00     0.000 HD 
BRANCH   5   7
HETATM    7  S   UNL     1      -7.774   9.035  65.130  1.00  0.00    -0.105 S  
HETATM    8  O   UNL     1      -6.431   8.932  65.673  1.00  0.00    -0.062 OA 
HETATM    9  O   UNL     1      -8.009   9.701  63.865  1.00  0.00    -0.127 OA 
BRANCH   7  10
HETATM   10  C   UNL     1      -8.795   9.774  66.378  1.00  0.00    -0.146 A  
HETATM   11  C   UNL     1      -8.213  10.284  67.537  1.00  0.00    -0.114 A  
HETATM   12  C   UNL     1      -9.028  10.657  68.613  1.00  0.00    -0.170 A  
HETATM   13  C   UNL     1     -10.426  10.572  68.523  1.00  0.00    -0.210 A  
HETATM   14  C   UNL     1     -10.982  10.239  67.277  1.00  0.00    -0.277 A  
HETATM   15  C   UNL     1     -10.177   9.804  66.218  1.00  0.00    -0.282 A  
BRANCH  13  16
HETATM   16  C   UNL     1     -11.286  10.677  69.708  1.00  0.00    -0.363 A  
HETATM   17  C   UNL     1     -11.914  11.826  70.165  1.00  0.00    -0.339 A  
HETATM   18  C   UNL     1     -12.024  13.246  69.775  1.00  0.00    -0.391 C  
HETATM   19  O   UNL     1     -12.616  11.534  71.289  1.00  0.00    -0.383 OA 
HETATM   20  N   UNL     1     -12.455  10.219  71.624  1.00  0.00    -0.405 NA 
HETATM   21  C   UNL     1     -11.634   9.682  70.707  1.00  0.00    -0.321 A  
BRANCH  21  22
HETATM   22  C   UNL     1     -11.254   8.266  70.839  1.00  0.00    -0.292 A  
HETATM   23  C   UNL     1     -11.013   7.722  72.113  1.00  0.00    -0.318 A  
HETATM   24  C   UNL     1     -10.744   6.359  72.275  1.00  0.00    -0.253 A  
HETATM   25  C   UNL     1     -10.730   5.517  71.167  1.00  0.00    -0.280 A  
HETATM   26  C   UNL     1     -10.919   6.046  69.893  1.00  0.00    -0.458 A  
HETATM   27  C   UNL     1     -11.137   7.417  69.730  1.00  0.00    -0.169 A  
ENDBRANCH  21  22
ENDBRANCH  13  16
ENDBRANCH   7  10
ENDBRANCH   5   7
ENDBRANCH   2   3
TORSDOF 5
ENDMDL
MODEL      148
REMARK 921   NORMALIZED FREE ENERGY PREDICTED BY IDOCK:   -4.84 KCAL/MOL
REMARK 922        TOTAL FREE ENERGY PREDICTED BY IDOCK:   -7.34 KCAL/MOL
REMARK 923 INTER-LIGAND FREE ENERGY PREDICTED BY IDOCK:   -6.35 KCAL/MOL
REMARK 924 INTRA-LIGAND FREE ENERGY PREDICTED BY IDOCK:   -0.99 KCAL/MOL
REMARK 927      BINDING AFFINITY PREDICTED BY RF-SCORE:    0.00 PKD
ROOT
HETATM    1  C   UNL     1      -9.186   6.898  69.990  1.00  0.00    -0.155 C  
HETATM    2  C   UNL     1     -10.016   6.997  71.256  1.00  0.00    -0.196 C  
ENDROOT
BRANCH   2   3
HETATM    3  C   UNL     1     -10.609   8.381  71.377  1.00  0.00    -0.234 C  
HETATM    4  O   UNL     1      -9.957   9.323  71.804  1.00  0.00    -0.273 OA 
HETATM    5  N   UNL     1     -11.917   8.507  70.893  1.00  0.00    -0.431 N  
HETATM    6  H   UNL     1     -12.353   7.670  70.505  1.00  0.00     0.000 HD 
BRANCH   5   7
HETATM    7  S   UNL     1     -12.819   9.902  70.898  1.00  0.00    -0.235 S  
HETATM    8  O   UNL     1     -14.113   9.525  70.357  1.00  0.00     0.363 OA 
HETATM    9  O   UNL     1     -12.720  10.551  72.190  1.00  0.00    -0.320 OA 
BRANCH   7  10
HETATM   10  C   UNL     1     -12.005  10.900  69.679  1.00  0.00    -0.343 A  
HETATM   11  C   UNL     1     -11.984  12.287  69.820  1.00  0.00    -0.365 A  
HETATM   12  C   UNL     1     -11.547  13.083  68.754  1.00  0.00    -0.350 A  
HETATM   13  C   UNL     1     -11.081  12.504  67.564  1.00  0.00    -0.311 A  
HETATM   14  C   UNL     1     -10.934  11.107  67.530  1.00  0.00    -0.331 A  
HETATM   15  C   UNL     1     -11.427  10.303  68.563  1.00  0.00    -0.169 A  
BRANCH  13  16
HETATM   16  C   UNL     1     -10.890  13.293  66.342  1.00  0.00    -0.296 A  
HETATM   17  C   UNL     1     -11.555  13.114  65.138  1.00  0.00    -0.318 A  
HETATM   18  C   UNL     1     -12.590  12.221  64.579  1.00  0.00    -0.416 C  
HETATM   19  O   UNL     1     -11.107  14.027  64.239  1.00  0.00    -0.325 OA 
HETATM   20  N   UNL     1     -10.131  14.804  64.795  1.00  0.00    -0.205 NA 
HETATM   21  C   UNL     1      -9.955  14.367  66.053  1.00  0.00    -0.317 A  
BRANCH  21  22
HETATM   22  C   UNL     1      -8.927  15.009  66.889  1.00  0.00    -0.276 A  
HETATM   23  C   UNL     1      -7.930  14.226  67.496  1.00  0.00    -0.203 A  
HETATM   24  C   UNL     1      -6.887  14.820  68.215  1.00  0.00    -0.115 A  
HETATM   25  C   UNL     1      -6.817  16.206  68.323  1.00  0.00    -0.126 A  
HETATM   26  C   UNL     1      -7.822  16.994  67.769  1.00  0.00    -0.188 A  
HETATM   27  C   UNL     1      -8.890  16.395  67.095  1.00  0.00    -0.214 A  
ENDBRANCH  21  22
ENDBRANCH  13  16
ENDBRANCH   7  10
ENDBRANCH   5   7
ENDBRANCH   2   3
TORSDOF 5
ENDMDL
MODEL      149
REMARK 921   NORMALIZED FREE ENERGY PREDICTED BY IDOCK:   -4.84 KCAL/MOL
REMARK 922        TOTAL FREE ENERGY PREDICTED BY IDOCK:   -7.33 KCAL/MOL
REMARK 923 INTER-LIGAND FREE ENERGY PREDICTED BY IDOCK:   -6.73 KCAL/MOL
REMARK 924 INTRA-LIGAND FREE ENERGY PREDICTED BY IDOCK:   -0.60 KCAL/MOL
REMARK 927      BINDING AFFINITY PREDICTED BY RF-SCORE:    0.00 PKD
ROOT
HETATM    1  C   UNL     1     -10.448  19.723  68.052  1.00  0.00    -0.523 C  
HETATM    2  C   UNL     1      -9.310  19.997  67.088  1.00  0.00    -0.502 C  
ENDROOT
BRANCH   2   3
HETATM    3  C   UNL     1      -8.021  19.429  67.636  1.00  0.00    -0.283 C  
HETATM    4  O   UNL     1      -7.064  20.144  67.894  1.00  0.00    -0.273 OA 
HETATM    5  N   UNL     1      -8.046  18.053  67.894  1.00  0.00    -0.238 N  
HETATM    6  H   UNL     1      -8.914  17.556  67.697  1.00  0.00     0.000 HD 
BRANCH   5   7
HETATM    7  S   UNL     1      -6.780  17.161  68.495  1.00  0.00    -0.187 S  
HETATM    8  O   UNL     1      -5.663  17.431  67.607  1.00  0.00    -0.125 OA 
HETATM    9  O   UNL     1      -6.656  17.375  69.922  1.00  0.00    -0.096 OA 
BRANCH   7  10
HETATM   10  C   UNL     1      -7.300  15.491  68.198  1.00  0.00    -0.115 A  
HETATM   11  C   UNL     1      -8.115  15.203  67.105  1.00  0.00    -0.245 A  
HETATM   12  C   UNL     1      -8.708  13.938  67.000  1.00  0.00    -0.215 A  
HETATM   13  C   UNL     1      -8.453  12.939  67.952  1.00  0.00    -0.181 A  
HETATM   14  C   UNL     1      -7.478  13.201  68.929  1.00  0.00     0.011 A  
HETATM   15  C   UNL     1      -6.930  14.480  69.080  1.00  0.00    -0.121 A  
BRANCH  13  16
HETATM   16  C   UNL     1      -9.266  11.721  68.033  1.00  0.00    -0.181 A  
HETATM   17  C   UNL     1      -9.056  10.650  68.889  1.00  0.00    -0.176 A  
HETATM   18  C   UNL     1      -8.102  10.264  69.949  1.00  0.00    -0.071 C  
HETATM   19  O   UNL     1     -10.007   9.707  68.668  1.00  0.00    -0.157 OA 
HETATM   20  N   UNL     1     -10.841  10.098  67.659  1.00  0.00    -0.284 NA 
HETATM   21  C   UNL     1     -10.403  11.295  67.235  1.00  0.00    -0.201 A  
BRANCH  21  22
HETATM   22  C   UNL     1     -11.102  11.949  66.116  1.00  0.00    -0.374 A  
HETATM   23  C   UNL     1     -12.146  12.854  66.377  1.00  0.00    -0.400 A  
HETATM   24  C   UNL     1     -12.762  13.560  65.339  1.00  0.00    -0.495 A  
HETATM   25  C   UNL     1     -12.333  13.384  64.027  1.00  0.00    -0.402 A  
HETATM   26  C   UNL     1     -11.334  12.456  63.745  1.00  0.00    -0.536 A  
HETATM   27  C   UNL     1     -10.755  11.715  64.779  1.00  0.00    -0.365 A  
ENDBRANCH  21  22
ENDBRANCH  13  16
ENDBRANCH   7  10
ENDBRANCH   5   7
ENDBRANCH   2   3
TORSDOF 5
ENDMDL
MODEL      150
REMARK 921   NORMALIZED FREE ENERGY PREDICTED BY IDOCK:   -4.83 KCAL/MOL
REMARK 922        TOTAL FREE ENERGY PREDICTED BY IDOCK:   -7.32 KCAL/MOL
REMARK 923 INTER-LIGAND FREE ENERGY PREDICTED BY IDOCK:   -6.86 KCAL/MOL
REMARK 924 INTRA-LIGAND FREE ENERGY PREDICTED BY IDOCK:   -0.47 KCAL/MOL
REMARK 927      BINDING AFFINITY PREDICTED BY RF-SCORE:    0.00 PKD
ROOT
HETATM    1  C   UNL     1      -9.660   4.621  64.777  1.00  0.00    -0.051 C  
HETATM    2  C   UNL     1     -10.549   4.750  66.000  1.00  0.00    -0.300 C  
ENDROOT
BRANCH   2   3
HETATM    3  C   UNL     1      -9.806   5.461  67.106  1.00  0.00    -0.158 C  
HETATM    4  O   UNL     1      -9.675   4.963  68.214  1.00  0.00    -0.138 OA 
HETATM    5  N   UNL     1      -9.223   6.680  66.736  1.00  0.00    -0.144 N  
HETATM    6  H   UNL     1      -9.344   6.980  65.768  1.00  0.00     0.000 HD 
BRANCH   5   7
HETATM    7  S   UNL     1      -8.351   7.677  67.737  1.00  0.00    -0.118 S  
HETATM    8  O   UNL     1      -7.970   6.848  68.868  1.00  0.00    -0.113 OA 
HETATM    9  O   UNL     1      -7.347   8.390  66.975  1.00  0.00    -0.082 OA 
BRANCH   7  10
HETATM   10  C   UNL     1      -9.574   8.825  68.312  1.00  0.00    -0.146 A  
HETATM   11  C   UNL     1     -10.449   9.419  67.402  1.00  0.00    -0.343 A  
HETATM   12  C   UNL     1     -11.255  10.487  67.816  1.00  0.00    -0.344 A  
HETATM   13  C   UNL     1     -11.234  10.935  69.146  1.00  0.00    -0.318 A  
HETATM   14  C   UNL     1     -10.488  10.190  70.075  1.00  0.00    -0.325 A  
HETATM   15  C   UNL     1      -9.631   9.165  69.660  1.00  0.00    -0.182 A  
BRANCH  13  16
HETATM   16  C   UNL     1     -11.838  12.212  69.542  1.00  0.00    -0.386 A  
HETATM   17  C   UNL     1     -12.531  12.461  70.717  1.00  0.00    -0.267 A  
HETATM   18  C   UNL     1     -12.935  11.722  71.931  1.00  0.00    -0.435 C  
HETATM   19  O   UNL     1     -12.946  13.754  70.726  1.00  0.00    -0.266 OA 
HETATM   20  N   UNL     1     -12.576  14.381  69.571  1.00  0.00    -0.124 NA 
HETATM   21  C   UNL     1     -11.932  13.470  68.822  1.00  0.00    -0.339 A  
BRANCH  21  22
HETATM   22  C   UNL     1     -11.444  13.865  67.490  1.00  0.00    -0.368 A  
HETATM   23  C   UNL     1     -12.346  13.966  66.417  1.00  0.00    -0.468 A  
HETATM   24  C   UNL     1     -11.926  14.431  65.166  1.00  0.00    -0.391 A  
HETATM   25  C   UNL     1     -10.602  14.816  64.975  1.00  0.00    -0.452 A  
HETATM   26  C   UNL     1      -9.685  14.677  66.014  1.00  0.00    -0.340 A  
HETATM   27  C   UNL     1     -10.097  14.165  67.248  1.00  0.00    -0.256 A  
ENDBRANCH  21  22
ENDBRANCH  13  16
ENDBRANCH   7  10
ENDBRANCH   5   7
ENDBRANCH   2   3
TORSDOF 5
ENDMDL
MODEL      151
REMARK 921   NORMALIZED FREE ENERGY PREDICTED BY IDOCK:   -4.83 KCAL/MOL
REMARK 922        TOTAL FREE ENERGY PREDICTED BY IDOCK:   -7.32 KCAL/MOL
REMARK 923 INTER-LIGAND FREE ENERGY PREDICTED BY IDOCK:   -6.18 KCAL/MOL
REMARK 924 INTRA-LIGAND FREE ENERGY PREDICTED BY IDOCK:   -1.14 KCAL/MOL
REMARK 927      BINDING AFFINITY PREDICTED BY RF-SCORE:    0.00 PKD
ROOT
HETATM    1  C   UNL     1     -11.706  15.060  71.334  1.00  0.00    -0.409 C  
HETATM    2  C   UNL     1     -11.181  16.265  70.576  1.00  0.00    -0.327 C  
ENDROOT
BRANCH   2   3
HETATM    3  C   UNL     1     -10.204  15.820  69.513  1.00  0.00    -0.271 C  
HETATM    4  O   UNL     1      -9.435  16.607  68.979  1.00  0.00    -0.259 OA 
HETATM    5  N   UNL     1     -10.198  14.444  69.256  1.00  0.00    -0.415 N  
HETATM    6  H   UNL     1     -10.840  13.865  69.797  1.00  0.00     0.000 HD 
BRANCH   5   7
HETATM    7  S   UNL     1      -9.234  13.673  68.144  1.00  0.00    -0.205 S  
HETATM    8  O   UNL     1      -9.751  14.070  66.846  1.00  0.00    -0.253 OA 
HETATM    9  O   UNL     1      -7.838  13.874  68.475  1.00  0.00    -0.133 OA 
BRANCH   7  10
HETATM   10  C   UNL     1      -9.650  11.965  68.379  1.00  0.00    -0.196 A  
HETATM   11  C   UNL     1     -10.950  11.527  68.127  1.00  0.00    -0.279 A  
HETATM   12  C   UNL     1     -11.335  10.240  68.526  1.00  0.00    -0.231 A  
HETATM   13  C   UNL     1     -10.418   9.367  69.131  1.00  0.00    -0.230 A  
HETATM   14  C   UNL     1      -9.073   9.771  69.192  1.00  0.00    -0.166 A  
HETATM   15  C   UNL     1      -8.693  11.075  68.856  1.00  0.00    -0.122 A  
BRANCH  13  16
HETATM   16  C   UNL     1     -10.849   8.142  69.812  1.00  0.00    -0.190 A  
HETATM   17  C   UNL     1     -11.613   8.071  70.967  1.00  0.00    -0.283 A  
HETATM   18  C   UNL     1     -12.257   9.004  71.915  1.00  0.00    -0.451 C  
HETATM   19  O   UNL     1     -11.803   6.769  71.299  1.00  0.00    -0.311 OA 
HETATM   20  N   UNL     1     -11.161   5.952  70.413  1.00  0.00    -0.297 NA 
HETATM   21  C   UNL     1     -10.551   6.750  69.521  1.00  0.00    -0.232 A  
BRANCH  21  22
HETATM   22  C   UNL     1      -9.746   6.133  68.454  1.00  0.00    -0.133 A  
HETATM   23  C   UNL     1      -8.354   6.014  68.608  1.00  0.00    -0.113 A  
HETATM   24  C   UNL     1      -7.578   5.347  67.654  1.00  0.00    -0.088 A  
HETATM   25  C   UNL     1      -8.186   4.776  66.540  1.00  0.00    -0.107 A  
HETATM   26  C   UNL     1      -9.556   4.926  66.346  1.00  0.00    -0.177 A  
HETATM   27  C   UNL     1     -10.321   5.636  67.276  1.00  0.00    -0.295 A  
ENDBRANCH  21  22
ENDBRANCH  13  16
ENDBRANCH   7  10
ENDBRANCH   5   7
ENDBRANCH   2   3
TORSDOF 5
ENDMDL
MODEL      152
REMARK 921   NORMALIZED FREE ENERGY PREDICTED BY IDOCK:   -4.82 KCAL/MOL
REMARK 922        TOTAL FREE ENERGY PREDICTED BY IDOCK:   -7.31 KCAL/MOL
REMARK 923 INTER-LIGAND FREE ENERGY PREDICTED BY IDOCK:   -6.19 KCAL/MOL
REMARK 924 INTRA-LIGAND FREE ENERGY PREDICTED BY IDOCK:   -1.12 KCAL/MOL
REMARK 927      BINDING AFFINITY PREDICTED BY RF-SCORE:    0.00 PKD
ROOT
HETATM    1  C   UNL     1      -8.448   2.030  64.850  1.00  0.00    -0.090 C  
HETATM    2  C   UNL     1      -7.381   3.096  64.690  1.00  0.00    -0.071 C  
ENDROOT
BRANCH   2   3
HETATM    3  C   UNL     1      -7.306   3.943  65.939  1.00  0.00    -0.073 C  
HETATM    4  O   UNL     1      -6.490   4.846  66.054  1.00  0.00    -0.038 OA 
HETATM    5  N   UNL     1      -8.285   3.663  66.901  1.00  0.00    -0.095 N  
HETATM    6  H   UNL     1      -8.956   2.926  66.683  1.00  0.00     0.000 HD 
BRANCH   5   7
HETATM    7  S   UNL     1      -8.447   4.428  68.366  1.00  0.00    -0.094 S  
HETATM    8  O   UNL     1      -9.533   3.741  69.041  1.00  0.00    -0.162 OA 
HETATM    9  O   UNL     1      -7.151   4.562  69.000  1.00  0.00    -0.050 OA 
BRANCH   7  10
HETATM   10  C   UNL     1      -9.041   6.035  67.906  1.00  0.00    -0.117 A  
HETATM   11  C   UNL     1      -8.236   7.156  68.109  1.00  0.00    -0.124 A  
HETATM   12  C   UNL     1      -8.785   8.436  67.962  1.00  0.00    -0.139 A  
HETATM   13  C   UNL     1     -10.119   8.608  67.562  1.00  0.00    -0.277 A  
HETATM   14  C   UNL     1     -10.840   7.464  67.180  1.00  0.00    -0.340 A  
HETATM   15  C   UNL     1     -10.322   6.180  67.385  1.00  0.00    -0.262 A  
BRANCH  13  16
HETATM   16  C   UNL     1     -10.800   9.903  67.674  1.00  0.00    -0.318 A  
HETATM   17  C   UNL     1     -10.841  10.894  66.706  1.00  0.00    -0.224 A  
HETATM   18  C   UNL     1     -10.328  11.114  65.338  1.00  0.00    -0.331 C  
HETATM   19  O   UNL     1     -11.558  11.948  67.174  1.00  0.00    -0.444 OA 
HETATM   20  N   UNL     1     -11.980  11.708  68.450  1.00  0.00    -0.533 NA 
HETATM   21  C   UNL     1     -11.514  10.495  68.792  1.00  0.00    -0.224 A  
BRANCH  21  22
HETATM   22  C   UNL     1     -11.793   9.985  70.145  1.00  0.00    -0.245 A  
HETATM   23  C   UNL     1     -13.048  10.214  70.735  1.00  0.00    -0.351 A  
HETATM   24  C   UNL     1     -13.372   9.660  71.977  1.00  0.00    -0.547 A  
HETATM   25  C   UNL     1     -12.451   8.855  72.641  1.00  0.00    -0.241 A  
HETATM   26  C   UNL     1     -11.186   8.657  72.095  1.00  0.00    -0.438 A  
HETATM   27  C   UNL     1     -10.848   9.253  70.877  1.00  0.00    -0.365 A  
ENDBRANCH  21  22
ENDBRANCH  13  16
ENDBRANCH   7  10
ENDBRANCH   5   7
ENDBRANCH   2   3
TORSDOF 5
ENDMDL
MODEL      153
REMARK 921   NORMALIZED FREE ENERGY PREDICTED BY IDOCK:   -4.82 KCAL/MOL
REMARK 922        TOTAL FREE ENERGY PREDICTED BY IDOCK:   -7.31 KCAL/MOL
REMARK 923 INTER-LIGAND FREE ENERGY PREDICTED BY IDOCK:   -6.38 KCAL/MOL
REMARK 924 INTRA-LIGAND FREE ENERGY PREDICTED BY IDOCK:   -0.93 KCAL/MOL
REMARK 927      BINDING AFFINITY PREDICTED BY RF-SCORE:    0.00 PKD
ROOT
HETATM    1  C   UNL     1      -6.855   7.582  71.866  1.00  0.00    -0.061 C  
HETATM    2  C   UNL     1      -6.942   6.134  71.421  1.00  0.00    -0.076 C  
ENDROOT
BRANCH   2   3
HETATM    3  C   UNL     1      -7.581   6.052  70.054  1.00  0.00    -0.087 C  
HETATM    4  O   UNL     1      -8.708   5.604  69.899  1.00  0.00    -0.122 OA 
HETATM    5  N   UNL     1      -6.818   6.596  69.013  1.00  0.00    -0.056 N  
HETATM    6  H   UNL     1      -5.913   6.996  69.258  1.00  0.00     0.000 HD 
BRANCH   5   7
HETATM    7  S   UNL     1      -7.263   6.644  67.414  1.00  0.00    -0.088 S  
HETATM    8  O   UNL     1      -6.045   6.949  66.685  1.00  0.00    -0.031 OA 
HETATM    9  O   UNL     1      -8.047   5.472  67.082  1.00  0.00    -0.101 OA 
BRANCH   7  10
HETATM   10  C   UNL     1      -8.300   8.081  67.337  1.00  0.00    -0.123 A  
HETATM   11  C   UNL     1      -9.686   7.940  67.406  1.00  0.00    -0.210 A  
HETATM   12  C   UNL     1     -10.507   9.038  67.118  1.00  0.00    -0.333 A  
HETATM   13  C   UNL     1      -9.955  10.292  66.813  1.00  0.00    -0.261 A  
HETATM   14  C   UNL     1      -8.564  10.443  66.943  1.00  0.00    -0.127 A  
HETATM   15  C   UNL     1      -7.733   9.340  67.166  1.00  0.00    -0.095 A  
BRANCH  13  16
HETATM   16  C   UNL     1     -10.761  11.372  66.234  1.00  0.00    -0.322 A  
HETATM   17  C   UNL     1     -10.895  11.664  64.885  1.00  0.00    -0.301 A  
HETATM   18  C   UNL     1     -10.398  11.141  63.595  1.00  0.00    -0.449 C  
HETATM   19  O   UNL     1     -11.715  12.735  64.738  1.00  0.00    -0.322 OA 
HETATM   20  N   UNL     1     -12.119  13.198  65.957  1.00  0.00    -0.430 NA 
HETATM   21  C   UNL     1     -11.537  12.416  66.882  1.00  0.00    -0.370 A  
BRANCH  21  22
HETATM   22  C   UNL     1     -11.772  12.708  68.306  1.00  0.00    -0.389 A  
HETATM   23  C   UNL     1     -11.936  14.039  68.729  1.00  0.00    -0.382 A  
HETATM   24  C   UNL     1     -12.254  14.337  70.058  1.00  0.00    -0.417 A  
HETATM   25  C   UNL     1     -12.429  13.309  70.979  1.00  0.00    -0.422 A  
HETATM   26  C   UNL     1     -12.223  11.988  70.589  1.00  0.00    -0.409 A  
HETATM   27  C   UNL     1     -11.855  11.697  69.272  1.00  0.00    -0.396 A  
ENDBRANCH  21  22
ENDBRANCH  13  16
ENDBRANCH   7  10
ENDBRANCH   5   7
ENDBRANCH   2   3
TORSDOF 5
ENDMDL
MODEL      154
REMARK 921   NORMALIZED FREE ENERGY PREDICTED BY IDOCK:   -4.81 KCAL/MOL
REMARK 922        TOTAL FREE ENERGY PREDICTED BY IDOCK:   -7.29 KCAL/MOL
REMARK 923 INTER-LIGAND FREE ENERGY PREDICTED BY IDOCK:   -6.36 KCAL/MOL
REMARK 924 INTRA-LIGAND FREE ENERGY PREDICTED BY IDOCK:   -0.93 KCAL/MOL
REMARK 927      BINDING AFFINITY PREDICTED BY RF-SCORE:    0.00 PKD
ROOT
HETATM    1  C   UNL     1     -10.761  11.651  63.131  1.00  0.00    -0.312 C  
HETATM    2  C   UNL     1     -12.151  12.160  63.465  1.00  0.00    -0.649 C  
ENDROOT
BRANCH   2   3
HETATM    3  C   UNL     1     -12.182  12.681  64.883  1.00  0.00    -0.471 C  
HETATM    4  O   UNL     1     -13.017  13.496  65.248  1.00  0.00    -0.701 OA 
HETATM    5  N   UNL     1     -11.243  12.102  65.745  1.00  0.00    -0.327 N  
HETATM    6  H   UNL     1     -10.628  11.389  65.354  1.00  0.00     0.000 HD 
BRANCH   5   7
HETATM    7  S   UNL     1     -11.047  12.477  67.351  1.00  0.00    -0.289 S  
HETATM    8  O   UNL     1      -9.938  13.414  67.394  1.00  0.00    -0.225 OA 
HETATM    9  O   UNL     1     -12.325  12.820  67.940  1.00  0.00    -0.181 OA 
BRANCH   7  10
HETATM   10  C   UNL     1     -10.475  10.949  68.046  1.00  0.00    -0.191 A  
HETATM   11  C   UNL     1      -9.532  10.963  69.073  1.00  0.00    -0.160 A  
HETATM   12  C   UNL     1      -8.916   9.767  69.462  1.00  0.00    -0.215 A  
HETATM   13  C   UNL     1      -9.270   8.546  68.868  1.00  0.00    -0.146 A  
HETATM   14  C   UNL     1     -10.358   8.543  67.979  1.00  0.00    -0.272 A  
HETATM   15  C   UNL     1     -10.935   9.738  67.537  1.00  0.00    -0.205 A  
BRANCH  13  16
HETATM   16  C   UNL     1      -8.458   7.336  69.041  1.00  0.00    -0.129 A  
HETATM   17  C   UNL     1      -7.623   6.767  68.092  1.00  0.00    -0.107 A  
HETATM   18  C   UNL     1      -7.202   7.032  66.701  1.00  0.00    -0.083 C  
HETATM   19  O   UNL     1      -7.045   5.655  68.613  1.00  0.00    -0.062 OA 
HETATM   20  N   UNL     1      -7.492   5.438  69.886  1.00  0.00    -0.068 NA 
HETATM   21  C   UNL     1      -8.368   6.417  70.163  1.00  0.00    -0.134 A  
BRANCH  21  22
HETATM   22  C   UNL     1      -9.041   6.416  71.472  1.00  0.00    -0.144 A  
HETATM   23  C   UNL     1      -8.397   6.972  72.591  1.00  0.00    -0.119 A  
HETATM   24  C   UNL     1      -9.051   7.069  73.823  1.00  0.00    -0.217 A  
HETATM   25  C   UNL     1     -10.364   6.627  73.951  1.00  0.00    -0.385 A  
HETATM   26  C   UNL     1     -11.001   6.029  72.866  1.00  0.00    -0.303 A  
HETATM   27  C   UNL     1     -10.327   5.888  71.650  1.00  0.00    -0.268 A  
ENDBRANCH  21  22
ENDBRANCH  13  16
ENDBRANCH   7  10
ENDBRANCH   5   7
ENDBRANCH   2   3
TORSDOF 5
ENDMDL
MODEL      155
REMARK 921   NORMALIZED FREE ENERGY PREDICTED BY IDOCK:   -4.80 KCAL/MOL
REMARK 922        TOTAL FREE ENERGY PREDICTED BY IDOCK:   -7.29 KCAL/MOL
REMARK 923 INTER-LIGAND FREE ENERGY PREDICTED BY IDOCK:   -6.39 KCAL/MOL
REMARK 924 INTRA-LIGAND FREE ENERGY PREDICTED BY IDOCK:   -0.90 KCAL/MOL
REMARK 927      BINDING AFFINITY PREDICTED BY RF-SCORE:    0.00 PKD
ROOT
HETATM    1  C   UNL     1     -11.338  14.955  71.048  1.00  0.00    -0.259 C  
HETATM    2  C   UNL     1     -12.200  15.763  70.096  1.00  0.00    -0.340 C  
ENDROOT
BRANCH   2   3
HETATM    3  C   UNL     1     -11.468  15.976  68.791  1.00  0.00    -0.375 C  
HETATM    4  O   UNL     1     -10.936  17.043  68.521  1.00  0.00    -0.335 OA 
HETATM    5  N   UNL     1     -11.384  14.845  67.970  1.00  0.00    -0.311 N  
HETATM    6  H   UNL     1     -11.814  13.986  68.314  1.00  0.00     0.000 HD 
BRANCH   5   7
HETATM    7  S   UNL     1     -10.645  14.782  66.485  1.00  0.00    -0.306 S  
HETATM    8  O   UNL     1     -11.669  15.162  65.529  1.00  0.00    -0.220 OA 
HETATM    9  O   UNL     1      -9.380  15.488  66.531  1.00  0.00    -0.239 OA 
BRANCH   7  10
HETATM   10  C   UNL     1     -10.338  13.048  66.271  1.00  0.00    -0.285 A  
HETATM   11  C   UNL     1      -9.525  12.371  67.178  1.00  0.00    -0.198 A  
HETATM   12  C   UNL     1      -9.100  11.068  66.887  1.00  0.00    -0.165 A  
HETATM   13  C   UNL     1      -9.522  10.416  65.719  1.00  0.00    -0.247 A  
HETATM   14  C   UNL     1     -10.492  11.054  64.927  1.00  0.00    -0.371 A  
HETATM   15  C   UNL     1     -10.872  12.377  65.175  1.00  0.00    -0.333 A  
BRANCH  13  16
HETATM   16  C   UNL     1      -8.880   9.184  65.245  1.00  0.00    -0.240 A  
HETATM   17  C   UNL     1      -8.219   9.016  64.037  1.00  0.00    -0.167 A  
HETATM   18  C   UNL     1      -7.885   9.826  62.848  1.00  0.00    -0.131 C  
HETATM   19  O   UNL     1      -7.765   7.740  63.949  1.00  0.00    -0.111 OA 
HETATM   20  N   UNL     1      -8.129   7.028  65.056  1.00  0.00    -0.128 NA 
HETATM   21  C   UNL     1      -8.828   7.862  65.843  1.00  0.00    -0.148 A  
BRANCH  21  22
HETATM   22  C   UNL     1      -9.380   7.346  67.107  1.00  0.00    -0.172 A  
HETATM   23  C   UNL     1     -10.738   6.989  67.183  1.00  0.00    -0.433 A  
HETATM   24  C   UNL     1     -11.265   6.409  68.341  1.00  0.00    -0.297 A  
HETATM   25  C   UNL     1     -10.439   6.161  69.434  1.00  0.00    -0.316 A  
HETATM   26  C   UNL     1      -9.103   6.552  69.393  1.00  0.00    -0.141 A  
HETATM   27  C   UNL     1      -8.591   7.178  68.253  1.00  0.00    -0.122 A  
ENDBRANCH  21  22
ENDBRANCH  13  16
ENDBRANCH   7  10
ENDBRANCH   5   7
ENDBRANCH   2   3
TORSDOF 5
ENDMDL
MODEL      156
REMARK 921   NORMALIZED FREE ENERGY PREDICTED BY IDOCK:   -4.74 KCAL/MOL
REMARK 922        TOTAL FREE ENERGY PREDICTED BY IDOCK:   -7.21 KCAL/MOL
REMARK 923 INTER-LIGAND FREE ENERGY PREDICTED BY IDOCK:   -6.23 KCAL/MOL
REMARK 924 INTRA-LIGAND FREE ENERGY PREDICTED BY IDOCK:   -0.97 KCAL/MOL
REMARK 927      BINDING AFFINITY PREDICTED BY RF-SCORE:    0.00 PKD
ROOT
HETATM    1  C   UNL     1      -6.060  19.934  64.349  1.00  0.00    -0.300 C  
HETATM    2  C   UNL     1      -5.728  20.768  65.572  1.00  0.00    -0.259 C  
ENDROOT
BRANCH   2   3
HETATM    3  C   UNL     1      -6.636  20.387  66.718  1.00  0.00    -0.233 C  
HETATM    4  O   UNL     1      -7.567  21.101  67.063  1.00  0.00    -0.284 OA 
HETATM    5  N   UNL     1      -6.374  19.135  67.287  1.00  0.00    -0.184 N  
HETATM    6  H   UNL     1      -5.608  18.592  66.889  1.00  0.00     0.000 HD 
BRANCH   5   7
HETATM    7  S   UNL     1      -7.205  18.458  68.556  1.00  0.00    -0.290 S  
HETATM    8  O   UNL     1      -6.257  17.573  69.209  1.00  0.00    -0.215 OA 
HETATM    9  O   UNL     1      -7.887  19.492  69.309  1.00  0.00    -0.308 OA 
BRANCH   7  10
HETATM   10  C   UNL     1      -8.407  17.440  67.741  1.00  0.00    -0.218 A  
HETATM   11  C   UNL     1      -9.522  16.986  68.444  1.00  0.00    -0.269 A  
HETATM   12  C   UNL     1     -10.345  16.005  67.875  1.00  0.00    -0.269 A  
HETATM   13  C   UNL     1     -10.093  15.509  66.587  1.00  0.00    -0.275 A  
HETATM   14  C   UNL     1      -9.080  16.127  65.836  1.00  0.00    -0.268 A  
HETATM   15  C   UNL     1      -8.214  17.060  66.417  1.00  0.00    -0.326 A  
BRANCH  13  16
HETATM   16  C   UNL     1     -10.748  14.298  66.082  1.00  0.00    -0.295 A  
HETATM   17  C   UNL     1     -11.787  14.249  65.165  1.00  0.00    -0.384 A  
HETATM   18  C   UNL     1     -12.603  15.199  64.381  1.00  0.00     0.073 C  
HETATM   19  O   UNL     1     -12.133  12.955  64.949  1.00  0.00    -0.379 OA 
HETATM   20  N   UNL     1     -11.373  12.123  65.721  1.00  0.00    -0.344 NA 
HETATM   21  C   UNL     1     -10.548  12.904  66.438  1.00  0.00    -0.271 A  
BRANCH  21  22
HETATM   22  C   UNL     1      -9.625  12.269  67.394  1.00  0.00    -0.179 A  
HETATM   23  C   UNL     1     -10.107  11.303  68.295  1.00  0.00    -0.198 A  
HETATM   24  C   UNL     1      -9.235  10.617  69.147  1.00  0.00    -0.162 A  
HETATM   25  C   UNL     1      -7.868  10.874  69.099  1.00  0.00    -0.119 A  
HETATM   26  C   UNL     1      -7.380  11.861  68.247  1.00  0.00    -0.093 A  
HETATM   27  C   UNL     1      -8.260  12.581  67.433  1.00  0.00    -0.183 A  
ENDBRANCH  21  22
ENDBRANCH  13  16
ENDBRANCH   7  10
ENDBRANCH   5   7
ENDBRANCH   2   3
TORSDOF 5
ENDMDL
MODEL      157
REMARK 921   NORMALIZED FREE ENERGY PREDICTED BY IDOCK:   -4.73 KCAL/MOL
REMARK 922        TOTAL FREE ENERGY PREDICTED BY IDOCK:   -7.19 KCAL/MOL
REMARK 923 INTER-LIGAND FREE ENERGY PREDICTED BY IDOCK:   -5.97 KCAL/MOL
REMARK 924 INTRA-LIGAND FREE ENERGY PREDICTED BY IDOCK:   -1.23 KCAL/MOL
REMARK 927      BINDING AFFINITY PREDICTED BY RF-SCORE:    0.00 PKD
ROOT
HETATM    1  C   UNL     1      -7.522   7.221  72.511  1.00  0.00    -0.086 C  
HETATM    2  C   UNL     1      -8.389   7.989  73.490  1.00  0.00    -0.292 C  
ENDROOT
BRANCH   2   3
HETATM    3  C   UNL     1      -9.845   7.851  73.109  1.00  0.00    -0.290 C  
HETATM    4  O   UNL     1     -10.583   7.056  73.673  1.00  0.00    -0.357 OA 
HETATM    5  N   UNL     1     -10.285   8.750  72.129  1.00  0.00    -0.326 N  
HETATM    6  H   UNL     1      -9.601   9.412  71.762  1.00  0.00     0.000 HD 
BRANCH   5   7
HETATM    7  S   UNL     1     -11.826   8.830  71.515  1.00  0.00    -0.333 S  
HETATM    8  O   UNL     1     -12.081   7.518  70.946  1.00  0.00    -0.293 OA 
HETATM    9  O   UNL     1     -12.724   9.392  72.503  1.00  0.00    -0.317 OA 
BRANCH   7  10
HETATM   10  C   UNL     1     -11.654   9.968  70.166  1.00  0.00    -0.252 A  
HETATM   11  C   UNL     1     -11.075   9.544  68.971  1.00  0.00    -0.060 A  
HETATM   12  C   UNL     1     -10.733  10.490  67.996  1.00  0.00    -0.287 A  
HETATM   13  C   UNL     1     -11.011  11.853  68.182  1.00  0.00    -0.272 A  
HETATM   14  C   UNL     1     -11.767  12.217  69.309  1.00  0.00    -0.388 A  
HETATM   15  C   UNL     1     -12.056  11.292  70.317  1.00  0.00    -0.459 A  
BRANCH  13  16
HETATM   16  C   UNL     1     -10.418  12.888  67.328  1.00  0.00    -0.236 A  
HETATM   17  C   UNL     1     -11.103  13.728  66.462  1.00  0.00    -0.306 A  
HETATM   18  C   UNL     1     -12.498  13.967  66.041  1.00  0.00    -0.489 C  
HETATM   19  O   UNL     1     -10.217  14.546  65.839  1.00  0.00    -0.292 OA 
HETATM   20  N   UNL     1      -8.942  14.261  66.238  1.00  0.00    -0.070 NA 
HETATM   21  C   UNL     1      -9.027  13.246  67.113  1.00  0.00    -0.229 A  
BRANCH  21  22
HETATM   22  C   UNL     1      -7.785  12.703  67.689  1.00  0.00    -0.155 A  
HETATM   23  C   UNL     1      -6.868  12.028  66.865  1.00  0.00    -0.036 A  
HETATM   24  C   UNL     1      -5.639  11.587  67.366  1.00  0.00    -0.072 A  
HETATM   25  C   UNL     1      -5.302  11.829  68.695  1.00  0.00    -0.049 A  
HETATM   26  C   UNL     1      -6.218  12.453  69.538  1.00  0.00    -0.126 A  
HETATM   27  C   UNL     1      -7.466  12.847  69.046  1.00  0.00     0.104 A  
ENDBRANCH  21  22
ENDBRANCH  13  16
ENDBRANCH   7  10
ENDBRANCH   5   7
ENDBRANCH   2   3
TORSDOF 5
ENDMDL
MODEL      158
REMARK 921   NORMALIZED FREE ENERGY PREDICTED BY IDOCK:   -4.72 KCAL/MOL
REMARK 922        TOTAL FREE ENERGY PREDICTED BY IDOCK:   -7.19 KCAL/MOL
REMARK 923 INTER-LIGAND FREE ENERGY PREDICTED BY IDOCK:   -6.16 KCAL/MOL
REMARK 924 INTRA-LIGAND FREE ENERGY PREDICTED BY IDOCK:   -1.03 KCAL/MOL
REMARK 927      BINDING AFFINITY PREDICTED BY RF-SCORE:    0.00 PKD
ROOT
HETATM    1  C   UNL     1      -7.423   2.289  69.327  1.00  0.00    -0.043 C  
HETATM    2  C   UNL     1      -7.270   2.178  67.822  1.00  0.00    -0.047 C  
ENDROOT
BRANCH   2   3
HETATM    3  C   UNL     1      -8.398   2.912  67.134  1.00  0.00    -0.091 C  
HETATM    4  O   UNL     1      -9.536   2.903  67.580  1.00  0.00    -0.202 OA 
HETATM    5  N   UNL     1      -8.018   3.654  66.008  1.00  0.00    -0.092 N  
HETATM    6  H   UNL     1      -7.030   3.640  65.752  1.00  0.00     0.000 HD 
BRANCH   5   7
HETATM    7  S   UNL     1      -9.038   4.555  65.056  1.00  0.00    -0.154 S  
HETATM    8  O   UNL     1      -8.219   5.024  63.952  1.00  0.00    -0.112 OA 
HETATM    9  O   UNL     1     -10.261   3.820  64.807  1.00  0.00    -0.193 OA 
BRANCH   7  10
HETATM   10  C   UNL     1      -9.397   5.957  66.082  1.00  0.00    -0.132 A  
HETATM   11  C   UNL     1     -10.606   6.018  66.774  1.00  0.00    -0.359 A  
HETATM   12  C   UNL     1     -10.986   7.214  67.396  1.00  0.00    -0.296 A  
HETATM   13  C   UNL     1     -10.145   8.337  67.376  1.00  0.00    -0.298 A  
HETATM   14  C   UNL     1      -8.857   8.180  66.839  1.00  0.00    -0.145 A  
HETATM   15  C   UNL     1      -8.493   7.011  66.161  1.00  0.00    -0.136 A  
BRANCH  13  16
HETATM   16  C   UNL     1     -10.625   9.670  67.759  1.00  0.00    -0.320 A  
HETATM   17  C   UNL     1     -10.739  10.771  66.925  1.00  0.00    -0.252 A  
HETATM   18  C   UNL     1     -10.490  11.104  65.507  1.00  0.00    -0.317 C  
HETATM   19  O   UNL     1     -11.210  11.826  67.638  1.00  0.00    -0.243 OA 
HETATM   20  N   UNL     1     -11.391  11.475  68.945  1.00  0.00    -0.241 NA 
HETATM   21  C   UNL     1     -11.019  10.189  69.057  1.00  0.00    -0.226 A  
BRANCH  21  22
HETATM   22  C   UNL     1     -11.078   9.548  70.382  1.00  0.00    -0.330 A  
HETATM   23  C   UNL     1     -12.319   9.370  71.018  1.00  0.00    -0.332 A  
HETATM   24  C   UNL     1     -12.413   8.680  72.231  1.00  0.00    -0.460 A  
HETATM   25  C   UNL     1     -11.271   8.143  72.817  1.00  0.00    -0.407 A  
HETATM   26  C   UNL     1     -10.027   8.351  72.225  1.00  0.00    -0.383 A  
HETATM   27  C   UNL     1      -9.930   9.085  71.039  1.00  0.00    -0.349 A  
ENDBRANCH  21  22
ENDBRANCH  13  16
ENDBRANCH   7  10
ENDBRANCH   5   7
ENDBRANCH   2   3
TORSDOF 5
ENDMDL
MODEL      159
REMARK 921   NORMALIZED FREE ENERGY PREDICTED BY IDOCK:   -4.71 KCAL/MOL
REMARK 922        TOTAL FREE ENERGY PREDICTED BY IDOCK:   -7.17 KCAL/MOL
REMARK 923 INTER-LIGAND FREE ENERGY PREDICTED BY IDOCK:   -5.99 KCAL/MOL
REMARK 924 INTRA-LIGAND FREE ENERGY PREDICTED BY IDOCK:   -1.19 KCAL/MOL
REMARK 927      BINDING AFFINITY PREDICTED BY RF-SCORE:    0.00 PKD
ROOT
HETATM    1  C   UNL     1     -10.981   2.710  62.870  1.00  0.00    -0.192 C  
HETATM    2  C   UNL     1      -9.663   1.995  63.100  1.00  0.00    -0.096 C  
ENDROOT
BRANCH   2   3
HETATM    3  C   UNL     1      -8.916   2.645  64.242  1.00  0.00    -0.111 C  
HETATM    4  O   UNL     1      -7.979   3.404  64.045  1.00  0.00    -0.080 OA 
HETATM    5  N   UNL     1      -9.431   2.371  65.515  1.00  0.00    -0.355 N  
HETATM    6  H   UNL     1     -10.253   1.768  65.567  1.00  0.00     0.000 HD 
BRANCH   5   7
HETATM    7  S   UNL     1      -8.817   2.943  66.948  1.00  0.00    -0.152 S  
HETATM    8  O   UNL     1      -9.627   2.329  67.986  1.00  0.00    -0.199 OA 
HETATM    9  O   UNL     1      -7.375   2.805  66.960  1.00  0.00    -0.063 OA 
BRANCH   7  10
HETATM   10  C   UNL     1      -9.239   4.665  66.897  1.00  0.00    -0.127 A  
HETATM   11  C   UNL     1      -8.243   5.628  67.053  1.00  0.00    -0.101 A  
HETATM   12  C   UNL     1      -8.601   6.969  67.240  1.00  0.00    -0.121 A  
HETATM   13  C   UNL     1      -9.947   7.366  67.221  1.00  0.00    -0.259 A  
HETATM   14  C   UNL     1     -10.908   6.403  66.869  1.00  0.00    -0.428 A  
HETATM   15  C   UNL     1     -10.567   5.052  66.745  1.00  0.00    -0.220 A  
BRANCH  13  16
HETATM   16  C   UNL     1     -10.370   8.690  67.692  1.00  0.00    -0.317 A  
HETATM   17  C   UNL     1     -10.466   9.841  66.925  1.00  0.00    -0.211 A  
HETATM   18  C   UNL     1     -10.240  10.247  65.523  1.00  0.00    -0.308 C  
HETATM   19  O   UNL     1     -10.884  10.867  67.709  1.00  0.00    -0.218 OA 
HETATM   20  N   UNL     1     -11.045  10.448  68.998  1.00  0.00    -0.237 NA 
HETATM   21  C   UNL     1     -10.715   9.146  69.028  1.00  0.00    -0.153 A  
BRANCH  21  22
HETATM   22  C   UNL     1     -10.764   8.431  70.314  1.00  0.00    -0.240 A  
HETATM   23  C   UNL     1     -10.048   8.927  71.418  1.00  0.00    -0.379 A  
HETATM   24  C   UNL     1     -10.154   8.322  72.674  1.00  0.00    -0.365 A  
HETATM   25  C   UNL     1     -10.990   7.224  72.850  1.00  0.00    -0.381 A  
HETATM   26  C   UNL     1     -11.669   6.690  71.758  1.00  0.00    -0.363 A  
HETATM   27  C   UNL     1     -11.521   7.266  70.492  1.00  0.00    -0.310 A  
ENDBRANCH  21  22
ENDBRANCH  13  16
ENDBRANCH   7  10
ENDBRANCH   5   7
ENDBRANCH   2   3
TORSDOF 5
ENDMDL
MODEL      160
REMARK 921   NORMALIZED FREE ENERGY PREDICTED BY IDOCK:   -4.71 KCAL/MOL
REMARK 922        TOTAL FREE ENERGY PREDICTED BY IDOCK:   -7.17 KCAL/MOL
REMARK 923 INTER-LIGAND FREE ENERGY PREDICTED BY IDOCK:   -6.23 KCAL/MOL
REMARK 924 INTRA-LIGAND FREE ENERGY PREDICTED BY IDOCK:   -0.95 KCAL/MOL
REMARK 927      BINDING AFFINITY PREDICTED BY RF-SCORE:    0.00 PKD
ROOT
HETATM    1  C   UNL     1     -10.711   3.176  73.412  1.00  0.00    -0.299 C  
HETATM    2  C   UNL     1      -9.795   3.680  72.313  1.00  0.00    -0.234 C  
ENDROOT
BRANCH   2   3
HETATM    3  C   UNL     1      -9.893   5.185  72.209  1.00  0.00    -0.171 C  
HETATM    4  O   UNL     1      -8.898   5.895  72.235  1.00  0.00    -0.138 OA 
HETATM    5  N   UNL     1     -11.187   5.679  72.004  1.00  0.00    -0.240 N  
HETATM    6  H   UNL     1     -11.942   4.996  71.941  1.00  0.00     0.000 HD 
BRANCH   5   7
HETATM    7  S   UNL     1     -11.596   7.281  71.855  1.00  0.00    -0.288 S  
HETATM    8  O   UNL     1     -13.017   7.289  71.554  1.00  0.00    -0.365 OA 
HETATM    9  O   UNL     1     -11.076   8.032  72.979  1.00  0.00    -0.382 OA 
BRANCH   7  10
HETATM   10  C   UNL     1     -10.740   7.770  70.380  1.00  0.00    -0.236 A  
HETATM   11  C   UNL     1      -9.963   8.928  70.380  1.00  0.00    -0.230 A  
HETATM   12  C   UNL     1      -9.477   9.434  69.168  1.00  0.00    -0.163 A  
HETATM   13  C   UNL     1      -9.717   8.764  67.958  1.00  0.00    -0.183 A  
HETATM   14  C   UNL     1     -10.334   7.504  68.019  1.00  0.00    -0.254 A  
HETATM   15  C   UNL     1     -10.879   7.022  69.215  1.00  0.00    -0.241 A  
BRANCH  13  16
HETATM   16  C   UNL     1      -9.476   9.403  66.659  1.00  0.00    -0.230 A  
HETATM   17  C   UNL     1      -8.926   8.799  65.538  1.00  0.00    -0.181 A  
HETATM   18  C   UNL     1      -8.407   7.472  65.151  1.00  0.00    -0.092 C  
HETATM   19  O   UNL     1      -8.854   9.707  64.532  1.00  0.00    -0.195 OA 
HETATM   20  N   UNL     1      -9.314  10.922  64.951  1.00  0.00    -0.216 NA 
HETATM   21  C   UNL     1      -9.669  10.780  66.239  1.00  0.00    -0.205 A  
BRANCH  21  22
HETATM   22  C   UNL     1     -10.177  11.954  66.967  1.00  0.00    -0.233 A  
HETATM   23  C   UNL     1     -11.506  11.973  67.426  1.00  0.00    -0.406 A  
HETATM   24  C   UNL     1     -11.985  13.034  68.201  1.00  0.00    -0.322 A  
HETATM   25  C   UNL     1     -11.137  14.083  68.545  1.00  0.00    -0.279 A  
HETATM   26  C   UNL     1      -9.832  14.105  68.060  1.00  0.00    -0.223 A  
HETATM   27  C   UNL     1      -9.372  13.068  67.242  1.00  0.00    -0.220 A  
ENDBRANCH  21  22
ENDBRANCH  13  16
ENDBRANCH   7  10
ENDBRANCH   5   7
ENDBRANCH   2   3
TORSDOF 5
ENDMDL
MODEL      161
REMARK 921   NORMALIZED FREE ENERGY PREDICTED BY IDOCK:   -4.68 KCAL/MOL
REMARK 922        TOTAL FREE ENERGY PREDICTED BY IDOCK:   -7.13 KCAL/MOL
REMARK 923 INTER-LIGAND FREE ENERGY PREDICTED BY IDOCK:   -6.71 KCAL/MOL
REMARK 924 INTRA-LIGAND FREE ENERGY PREDICTED BY IDOCK:   -0.42 KCAL/MOL
REMARK 927      BINDING AFFINITY PREDICTED BY RF-SCORE:    0.00 PKD
ROOT
HETATM    1  C   UNL     1     -13.892   8.855  72.339  1.00  0.00    -0.518 C  
HETATM    2  C   UNL     1     -13.541   7.573  71.608  1.00  0.00    -0.442 C  
ENDROOT
BRANCH   2   3
HETATM    3  C   UNL     1     -12.060   7.538  71.310  1.00  0.00    -0.323 C  
HETATM    4  O   UNL     1     -11.226   7.519  72.204  1.00  0.00    -0.246 OA 
HETATM    5  N   UNL     1     -11.733   7.448  69.951  1.00  0.00    -0.498 N  
HETATM    6  H   UNL     1     -12.507   7.413  69.287  1.00  0.00     0.000 HD 
BRANCH   5   7
HETATM    7  S   UNL     1     -10.194   7.394  69.330  1.00  0.00    -0.203 S  
HETATM    8  O   UNL     1      -9.318   7.274  70.482  1.00  0.00    -0.158 OA 
HETATM    9  O   UNL     1     -10.129   6.429  68.251  1.00  0.00    -0.137 OA 
BRANCH   7  10
HETATM   10  C   UNL     1      -9.979   9.025  68.669  1.00  0.00    -0.172 A  
HETATM   11  C   UNL     1      -9.281   9.203  67.475  1.00  0.00    -0.144 A  
HETATM   12  C   UNL     1      -8.916  10.494  67.074  1.00  0.00    -0.149 A  
HETATM   13  C   UNL     1      -9.286  11.617  67.829  1.00  0.00    -0.178 A  
HETATM   14  C   UNL     1     -10.152  11.416  68.917  1.00  0.00    -0.166 A  
HETATM   15  C   UNL     1     -10.468  10.127  69.362  1.00  0.00    -0.254 A  
BRANCH  13  16
HETATM   16  C   UNL     1      -8.687  12.936  67.600  1.00  0.00    -0.185 A  
HETATM   17  C   UNL     1      -7.507  13.408  68.155  1.00  0.00    -0.133 A  
HETATM   18  C   UNL     1      -6.455  12.924  69.073  1.00  0.00    -0.103 C  
HETATM   19  O   UNL     1      -7.280  14.672  67.716  1.00  0.00    -0.140 OA 
HETATM   20  N   UNL     1      -8.295  15.083  66.899  1.00  0.00    -0.230 NA 
HETATM   21  C   UNL     1      -9.175  14.069  66.833  1.00  0.00    -0.260 A  
BRANCH  21  22
HETATM   22  C   UNL     1     -10.401  14.247  66.038  1.00  0.00    -0.318 A  
HETATM   23  C   UNL     1     -10.538  15.371  65.204  1.00  0.00    -0.458 A  
HETATM   24  C   UNL     1     -11.649  15.515  64.368  1.00  0.00    -0.258 A  
HETATM   25  C   UNL     1     -12.632  14.530  64.340  1.00  0.00    -0.180 A  
HETATM   26  C   UNL     1     -12.537  13.434  65.194  1.00  0.00    -0.495 A  
HETATM   27  C   UNL     1     -11.450  13.318  66.066  1.00  0.00    -0.360 A  
ENDBRANCH  21  22
ENDBRANCH  13  16
ENDBRANCH   7  10
ENDBRANCH   5   7
ENDBRANCH   2   3
TORSDOF 5
ENDMDL
MODEL      162
REMARK 921   NORMALIZED FREE ENERGY PREDICTED BY IDOCK:   -4.67 KCAL/MOL
REMARK 922        TOTAL FREE ENERGY PREDICTED BY IDOCK:   -7.11 KCAL/MOL
REMARK 923 INTER-LIGAND FREE ENERGY PREDICTED BY IDOCK:   -5.78 KCAL/MOL
REMARK 924 INTRA-LIGAND FREE ENERGY PREDICTED BY IDOCK:   -1.34 KCAL/MOL
REMARK 927      BINDING AFFINITY PREDICTED BY RF-SCORE:    0.00 PKD
ROOT
HETATM    1  C   UNL     1     -10.010   7.824  70.960  1.00  0.00    -0.191 C  
HETATM    2  C   UNL     1     -10.753   7.799  72.282  1.00  0.00    -0.325 C  
ENDROOT
BRANCH   2   3
HETATM    3  C   UNL     1     -11.948   8.722  72.220  1.00  0.00    -0.345 C  
HETATM    4  O   UNL     1     -12.934   8.542  72.921  1.00  0.00    -0.219 OA 
HETATM    5  N   UNL     1     -11.799   9.824  71.369  1.00  0.00    -0.389 N  
HETATM    6  H   UNL     1     -10.913   9.912  70.871  1.00  0.00     0.000 HD 
BRANCH   5   7
HETATM    7  S   UNL     1     -12.942  10.998  71.100  1.00  0.00    -0.256 S  
HETATM    8  O   UNL     1     -14.036  10.323  70.424  1.00  0.00     0.520 OA 
HETATM    9  O   UNL     1     -13.178  11.747  72.318  1.00  0.00    -0.438 OA 
BRANCH   7  10
HETATM   10  C   UNL     1     -12.153  12.051  69.910  1.00  0.00    -0.263 A  
HETATM   11  C   UNL     1     -11.550  11.493  68.784  1.00  0.00    -0.379 A  
HETATM   12  C   UNL     1     -10.737  12.292  67.969  1.00  0.00    -0.245 A  
HETATM   13  C   UNL     1     -10.562  13.657  68.241  1.00  0.00    -0.261 A  
HETATM   14  C   UNL     1     -11.337  14.224  69.266  1.00  0.00    -0.322 A  
HETATM   15  C   UNL     1     -12.100  13.425  70.124  1.00  0.00    -0.415 A  
BRANCH  13  16
HETATM   16  C   UNL     1      -9.509  14.447  67.592  1.00  0.00    -0.214 A  
HETATM   17  C   UNL     1      -9.680  15.333  66.540  1.00  0.00    -0.268 A  
HETATM   18  C   UNL     1     -10.785  15.840  65.700  1.00  0.00    -0.360 C  
HETATM   19  O   UNL     1      -8.478  15.869  66.206  1.00  0.00    -0.311 OA 
HETATM   20  N   UNL     1      -7.489  15.344  66.988  1.00  0.00    -0.185 NA 
HETATM   21  C   UNL     1      -8.074  14.461  67.814  1.00  0.00    -0.168 A  
BRANCH  21  22
HETATM   22  C   UNL     1      -7.231  13.709  68.759  1.00  0.00    -0.100 A  
HETATM   23  C   UNL     1      -6.527  14.393  69.766  1.00  0.00    -0.150 A  
HETATM   24  C   UNL     1      -5.797  13.696  70.733  1.00  0.00    -0.177 A  
HETATM   25  C   UNL     1      -5.772  12.305  70.719  1.00  0.00    -0.085 A  
HETATM   26  C   UNL     1      -6.423  11.613  69.701  1.00  0.00    -0.124 A  
HETATM   27  C   UNL     1      -7.110  12.314  68.706  1.00  0.00    -0.107 A  
ENDBRANCH  21  22
ENDBRANCH  13  16
ENDBRANCH   7  10
ENDBRANCH   5   7
ENDBRANCH   2   3
TORSDOF 5
ENDMDL
MODEL      163
REMARK 921   NORMALIZED FREE ENERGY PREDICTED BY IDOCK:   -4.56 KCAL/MOL
REMARK 922        TOTAL FREE ENERGY PREDICTED BY IDOCK:   -6.97 KCAL/MOL
REMARK 923 INTER-LIGAND FREE ENERGY PREDICTED BY IDOCK:   -7.28 KCAL/MOL
REMARK 924 INTRA-LIGAND FREE ENERGY PREDICTED BY IDOCK:    0.31 KCAL/MOL
REMARK 927      BINDING AFFINITY PREDICTED BY RF-SCORE:    0.00 PKD
ROOT
HETATM    1  C   UNL     1      -7.500   7.660  63.383  1.00  0.00    -0.108 C  
HETATM    2  C   UNL     1      -8.124   8.624  64.375  1.00  0.00    -0.156 C  
ENDROOT
BRANCH   2   3
HETATM    3  C   UNL     1      -8.971   9.640  63.644  1.00  0.00    -0.216 C  
HETATM    4  O   UNL     1      -9.138   9.584  62.435  1.00  0.00    -0.264 OA 
HETATM    5  N   UNL     1      -9.600  10.583  64.466  1.00  0.00    -0.273 N  
HETATM    6  H   UNL     1      -9.440  10.508  65.471  1.00  0.00     0.000 HD 
BRANCH   5   7
HETATM    7  S   UNL     1     -10.585  11.814  63.944  1.00  0.00    -0.439 S  
HETATM    8  O   UNL     1      -9.695  12.787  63.336  1.00  0.00    -0.031 OA 
HETATM    9  O   UNL     1     -11.704  11.272  63.200  1.00  0.00    -0.004 OA 
BRANCH   7  10
HETATM   10  C   UNL     1     -11.178  12.515  65.462  1.00  0.00    -0.314 A  
HETATM   11  C   UNL     1     -11.291  13.898  65.589  1.00  0.00    -0.310 A  
HETATM   12  C   UNL     1     -11.538  14.458  66.849  1.00  0.00    -0.404 A  
HETATM   13  C   UNL     1     -11.725  13.644  67.977  1.00  0.00    -0.387 A  
HETATM   14  C   UNL     1     -11.797  12.256  67.776  1.00  0.00    -0.341 A  
HETATM   15  C   UNL     1     -11.488  11.686  66.536  1.00  0.00    -0.260 A  
BRANCH  13  16
HETATM   16  C   UNL     1     -11.698  14.190  69.338  1.00  0.00    -0.361 A  
HETATM   17  C   UNL     1     -11.367  15.489  69.695  1.00  0.00    -0.315 A  
HETATM   18  C   UNL     1     -10.957  16.740  69.025  1.00  0.00    -0.239 C  
HETATM   19  O   UNL     1     -11.449  15.617  71.044  1.00  0.00    -0.328 OA 
HETATM   20  N   UNL     1     -11.799  14.427  71.616  1.00  0.00    -0.191 NA 
HETATM   21  C   UNL     1     -11.927  13.539  70.616  1.00  0.00    -0.230 A  
BRANCH  21  22
HETATM   22  C   UNL     1     -12.271  12.145  70.948  1.00  0.00    -0.310 A  
HETATM   23  C   UNL     1     -13.236  11.878  71.934  1.00  0.00    -0.467 A  
HETATM   24  C   UNL     1     -13.650  10.569  72.200  1.00  0.00    -0.167 A  
HETATM   25  C   UNL     1     -13.116   9.509  71.473  1.00  0.00    -0.470 A  
HETATM   26  C   UNL     1     -12.123   9.751  70.526  1.00  0.00    -0.244 A  
HETATM   27  C   UNL     1     -11.676  11.055  70.298  1.00  0.00    -0.445 A  
ENDBRANCH  21  22
ENDBRANCH  13  16
ENDBRANCH   7  10
ENDBRANCH   5   7
ENDBRANCH   2   3
TORSDOF 5
ENDMDL
MODEL      164
REMARK 921   NORMALIZED FREE ENERGY PREDICTED BY IDOCK:   -4.52 KCAL/MOL
REMARK 922        TOTAL FREE ENERGY PREDICTED BY IDOCK:   -6.92 KCAL/MOL
REMARK 923 INTER-LIGAND FREE ENERGY PREDICTED BY IDOCK:   -5.87 KCAL/MOL
REMARK 924 INTRA-LIGAND FREE ENERGY PREDICTED BY IDOCK:   -1.05 KCAL/MOL
REMARK 927      BINDING AFFINITY PREDICTED BY RF-SCORE:    0.00 PKD
ROOT
HETATM    1  C   UNL     1      -6.469  18.653  64.957  1.00  0.00    -0.106 C  
HETATM    2  C   UNL     1      -5.698  19.396  66.031  1.00  0.00    -0.180 C  
ENDROOT
BRANCH   2   3
HETATM    3  C   UNL     1      -6.082  18.875  67.396  1.00  0.00    -0.175 C  
HETATM    4  O   UNL     1      -5.831  19.502  68.416  1.00  0.00    -0.211 OA 
HETATM    5  N   UNL     1      -6.807  17.677  67.388  1.00  0.00    -0.162 N  
HETATM    6  H   UNL     1      -7.013  17.263  66.479  1.00  0.00     0.000 HD 
BRANCH   5   7
HETATM    7  S   UNL     1      -7.358  16.873  68.732  1.00  0.00    -0.236 S  
HETATM    8  O   UNL     1      -6.195  16.706  69.585  1.00  0.00    -0.212 OA 
HETATM    9  O   UNL     1      -8.556  17.513  69.236  1.00  0.00     0.022 OA 
BRANCH   7  10
HETATM   10  C   UNL     1      -7.778  15.274  68.090  1.00  0.00    -0.117 A  
HETATM   11  C   UNL     1      -8.693  15.165  67.044  1.00  0.00    -0.264 A  
HETATM   12  C   UNL     1      -9.194  13.904  66.692  1.00  0.00    -0.253 A  
HETATM   13  C   UNL     1      -8.748  12.744  67.342  1.00  0.00    -0.196 A  
HETATM   14  C   UNL     1      -7.686  12.871  68.253  1.00  0.00    -0.137 A  
HETATM   15  C   UNL     1      -7.226  14.129  68.658  1.00  0.00    -0.116 A  
BRANCH  13  16
HETATM   16  C   UNL     1      -9.447  11.461  67.203  1.00  0.00    -0.186 A  
HETATM   17  C   UNL     1      -9.250  10.525  66.200  1.00  0.00    -0.170 A  
HETATM   18  C   UNL     1      -8.404  10.364  64.999  1.00  0.00    -0.166 C  
HETATM   19  O   UNL     1     -10.083   9.472  66.401  1.00  0.00    -0.254 OA 
HETATM   20  N   UNL     1     -10.864   9.684  67.500  1.00  0.00    -0.260 NA 
HETATM   21  C   UNL     1     -10.526  10.889  67.990  1.00  0.00    -0.191 A  
BRANCH  21  22
HETATM   22  C   UNL     1     -11.241  11.399  69.172  1.00  0.00    -0.335 A  
HETATM   23  C   UNL     1     -11.551  12.766  69.267  1.00  0.00    -0.372 A  
HETATM   24  C   UNL     1     -12.311  13.260  70.332  1.00  0.00    -0.365 A  
HETATM   25  C   UNL     1     -12.786  12.390  71.309  1.00  0.00    -0.337 A  
HETATM   26  C   UNL     1     -12.448  11.041  71.258  1.00  0.00    -0.475 A  
HETATM   27  C   UNL     1     -11.646  10.559  70.219  1.00  0.00    -0.417 A  
ENDBRANCH  21  22
ENDBRANCH  13  16
ENDBRANCH   7  10
ENDBRANCH   5   7
ENDBRANCH   2   3
TORSDOF 5
ENDMDL
MODEL      165
REMARK 921   NORMALIZED FREE ENERGY PREDICTED BY IDOCK:   -4.51 KCAL/MOL
REMARK 922        TOTAL FREE ENERGY PREDICTED BY IDOCK:   -6.91 KCAL/MOL
REMARK 923 INTER-LIGAND FREE ENERGY PREDICTED BY IDOCK:   -6.15 KCAL/MOL
REMARK 924 INTRA-LIGAND FREE ENERGY PREDICTED BY IDOCK:   -0.76 KCAL/MOL
REMARK 927      BINDING AFFINITY PREDICTED BY RF-SCORE:    0.00 PKD
ROOT
HETATM    1  C   UNL     1      -9.446   4.019  72.180  1.00  0.00    -0.192 C  
HETATM    2  C   UNL     1     -10.021   4.820  71.027  1.00  0.00    -0.279 C  
ENDROOT
BRANCH   2   3
HETATM    3  C   UNL     1     -10.207   6.261  71.440  1.00  0.00    -0.201 C  
HETATM    4  O   UNL     1     -10.623   6.561  72.550  1.00  0.00    -0.200 OA 
HETATM    5  N   UNL     1      -9.793   7.205  70.492  1.00  0.00    -0.180 N  
HETATM    6  H   UNL     1      -9.406   6.849  69.618  1.00  0.00     0.000 HD 
BRANCH   5   7
HETATM    7  S   UNL     1      -9.877   8.854  70.670  1.00  0.00    -0.231 S  
HETATM    8  O   UNL     1     -11.054   9.092  71.487  1.00  0.00    -0.313 OA 
HETATM    9  O   UNL     1      -8.586   9.376  71.068  1.00  0.00    -0.274 OA 
BRANCH   7  10
HETATM   10  C   UNL     1     -10.251   9.409  69.028  1.00  0.00    -0.205 A  
HETATM   11  C   UNL     1     -10.339   8.485  67.987  1.00  0.00    -0.272 A  
HETATM   12  C   UNL     1     -10.407   8.939  66.664  1.00  0.00    -0.294 A  
HETATM   13  C   UNL     1     -10.440  10.311  66.372  1.00  0.00    -0.233 A  
HETATM   14  C   UNL     1     -10.546  11.206  67.450  1.00  0.00    -0.272 A  
HETATM   15  C   UNL     1     -10.414  10.767  68.772  1.00  0.00    -0.221 A  
BRANCH  13  16
HETATM   16  C   UNL     1     -10.223  10.820  65.013  1.00  0.00    -0.373 A  
HETATM   17  C   UNL     1     -11.061  11.675  64.315  1.00  0.00    -0.338 A  
HETATM   18  C   UNL     1     -12.343  12.377  64.534  1.00  0.00    -0.519 C  
HETATM   19  O   UNL     1     -10.533  11.916  63.088  1.00  0.00    -0.389 OA 
HETATM   20  N   UNL     1      -9.369  11.220  62.925  1.00  0.00    -0.357 NA 
HETATM   21  C   UNL     1      -9.170  10.525  64.057  1.00  0.00    -0.253 A  
BRANCH  21  22
HETATM   22  C   UNL     1      -7.991   9.648  64.151  1.00  0.00    -0.143 A  
HETATM   23  C   UNL     1      -6.708  10.210  64.266  1.00  0.00    -0.108 A  
HETATM   24  C   UNL     1      -5.583   9.401  64.453  1.00  0.00    -0.069 A  
HETATM   25  C   UNL     1      -5.726   8.019  64.545  1.00  0.00    -0.045 A  
HETATM   26  C   UNL     1      -6.983   7.442  64.385  1.00  0.00    -0.059 A  
HETATM   27  C   UNL     1      -8.099   8.250  64.148  1.00  0.00    -0.136 A  
ENDBRANCH  21  22
ENDBRANCH  13  16
ENDBRANCH   7  10
ENDBRANCH   5   7
ENDBRANCH   2   3
TORSDOF 5
ENDMDL
MODEL      166
REMARK 921   NORMALIZED FREE ENERGY PREDICTED BY IDOCK:   -4.50 KCAL/MOL
REMARK 922        TOTAL FREE ENERGY PREDICTED BY IDOCK:   -6.89 KCAL/MOL
REMARK 923 INTER-LIGAND FREE ENERGY PREDICTED BY IDOCK:   -6.48 KCAL/MOL
REMARK 924 INTRA-LIGAND FREE ENERGY PREDICTED BY IDOCK:   -0.42 KCAL/MOL
REMARK 927      BINDING AFFINITY PREDICTED BY RF-SCORE:    0.00 PKD
ROOT
HETATM    1  C   UNL     1     -12.140  14.553  64.465  1.00  0.00    -0.501 C  
HETATM    2  C   UNL     1     -12.754  13.283  65.022  1.00  0.00    -0.438 C  
ENDROOT
BRANCH   2   3
HETATM    3  C   UNL     1     -11.816  12.655  66.027  1.00  0.00    -0.436 C  
HETATM    4  O   UNL     1     -12.100  12.586  67.214  1.00  0.00    -0.490 OA 
HETATM    5  N   UNL     1     -10.653  12.098  65.480  1.00  0.00    -0.268 N  
HETATM    6  H   UNL     1     -10.537  12.159  64.469  1.00  0.00     0.000 HD 
BRANCH   5   7
HETATM    7  S   UNL     1      -9.446  11.346  66.339  1.00  0.00    -0.211 S  
HETATM    8  O   UNL     1     -10.098  10.789  67.511  1.00  0.00    -0.177 OA 
HETATM    9  O   UNL     1      -8.664  10.502  65.460  1.00  0.00    -0.173 OA 
BRANCH   7  10
HETATM   10  C   UNL     1      -8.447  12.706  66.886  1.00  0.00    -0.116 A  
HETATM   11  C   UNL     1      -7.157  12.471  67.362  1.00  0.00    -0.146 A  
HETATM   12  C   UNL     1      -6.458  13.503  68.000  1.00  0.00    -0.135 A  
HETATM   13  C   UNL     1      -7.015  14.785  68.123  1.00  0.00    -0.130 A  
HETATM   14  C   UNL     1      -8.230  15.035  67.462  1.00  0.00    -0.199 A  
HETATM   15  C   UNL     1      -8.965  13.997  66.879  1.00  0.00    -0.243 A  
BRANCH  13  16
HETATM   16  C   UNL     1      -6.446  15.794  69.022  1.00  0.00    -0.130 A  
HETATM   17  C   UNL     1      -5.909  15.563  70.279  1.00  0.00    -0.132 A  
HETATM   18  C   UNL     1      -5.679  14.414  71.179  1.00  0.00    -0.181 C  
HETATM   19  O   UNL     1      -5.489  16.739  70.810  1.00  0.00    -0.182 OA 
HETATM   20  N   UNL     1      -5.755  17.770  69.955  1.00  0.00    -0.243 NA 
HETATM   21  C   UNL     1      -6.359  17.237  68.880  1.00  0.00    -0.199 A  
BRANCH  21  22
HETATM   22  C   UNL     1      -6.794  18.134  67.796  1.00  0.00    -0.202 A  
HETATM   23  C   UNL     1      -7.688  19.182  68.071  1.00  0.00    -0.318 A  
HETATM   24  C   UNL     1      -8.043  20.104  67.081  1.00  0.00    -0.370 A  
HETATM   25  C   UNL     1      -7.495  20.002  65.806  1.00  0.00    -0.311 A  
HETATM   26  C   UNL     1      -6.645  18.941  65.502  1.00  0.00    -0.311 A  
HETATM   27  C   UNL     1      -6.332  17.992  66.480  1.00  0.00    -0.239 A  
ENDBRANCH  21  22
ENDBRANCH  13  16
ENDBRANCH   7  10
ENDBRANCH   5   7
ENDBRANCH   2   3
TORSDOF 5
ENDMDL
MODEL      167
REMARK 921   NORMALIZED FREE ENERGY PREDICTED BY IDOCK:   -4.49 KCAL/MOL
REMARK 922        TOTAL FREE ENERGY PREDICTED BY IDOCK:   -6.88 KCAL/MOL
REMARK 923 INTER-LIGAND FREE ENERGY PREDICTED BY IDOCK:   -6.13 KCAL/MOL
REMARK 924 INTRA-LIGAND FREE ENERGY PREDICTED BY IDOCK:   -0.75 KCAL/MOL
REMARK 927      BINDING AFFINITY PREDICTED BY RF-SCORE:    0.00 PKD
ROOT
HETATM    1  C   UNL     1      -9.591   7.292  74.319  1.00  0.00    -0.139 C  
HETATM    2  C   UNL     1      -9.638   5.788  74.131  1.00  0.00    -0.160 C  
ENDROOT
BRANCH   2   3
HETATM    3  C   UNL     1      -9.711   5.454  72.659  1.00  0.00    -0.151 C  
HETATM    4  O   UNL     1      -9.789   4.299  72.266  1.00  0.00    -0.152 OA 
HETATM    5  N   UNL     1      -9.763   6.563  71.805  1.00  0.00    -0.160 N  
HETATM    6  H   UNL     1      -9.749   7.486  72.237  1.00  0.00     0.000 HD 
BRANCH   5   7
HETATM    7  S   UNL     1      -9.846   6.501  70.147  1.00  0.00    -0.167 S  
HETATM    8  O   UNL     1      -8.551   6.006  69.715  1.00  0.00    -0.127 OA 
HETATM    9  O   UNL     1     -11.065   5.835  69.736  1.00  0.00    -0.369 OA 
BRANCH   7  10
HETATM   10  C   UNL     1      -9.935   8.214  69.694  1.00  0.00    -0.193 A  
HETATM   11  C   UNL     1     -11.159   8.881  69.741  1.00  0.00    -0.099 A  
HETATM   12  C   UNL     1     -11.274  10.155  69.172  1.00  0.00    -0.234 A  
HETATM   13  C   UNL     1     -10.163  10.793  68.599  1.00  0.00    -0.198 A  
HETATM   14  C   UNL     1      -8.909  10.176  68.743  1.00  0.00    -0.146 A  
HETATM   15  C   UNL     1      -8.795   8.877  69.251  1.00  0.00    -0.139 A  
BRANCH  13  16
HETATM   16  C   UNL     1     -10.304  11.982  67.752  1.00  0.00    -0.210 A  
HETATM   17  C   UNL     1      -9.919  12.094  66.425  1.00  0.00    -0.225 A  
HETATM   18  C   UNL     1      -9.295  11.245  65.388  1.00  0.00    -0.232 C  
HETATM   19  O   UNL     1     -10.202  13.344  65.980  1.00  0.00    -0.288 OA 
HETATM   20  N   UNL     1     -10.744  14.096  66.983  1.00  0.00    -0.283 NA 
HETATM   21  C   UNL     1     -10.792  13.312  68.073  1.00  0.00    -0.243 A  
BRANCH  21  22
HETATM   22  C   UNL     1     -11.308  13.879  69.331  1.00  0.00    -0.311 A  
HETATM   23  C   UNL     1     -12.202  13.134  70.119  1.00  0.00    -0.360 A  
HETATM   24  C   UNL     1     -12.632  13.608  71.363  1.00  0.00    -0.415 A  
HETATM   25  C   UNL     1     -12.161  14.827  71.843  1.00  0.00    -0.415 A  
HETATM   26  C   UNL     1     -11.314  15.600  71.055  1.00  0.00    -0.426 A  
HETATM   27  C   UNL     1     -10.926  15.147  69.790  1.00  0.00    -0.293 A  
ENDBRANCH  21  22
ENDBRANCH  13  16
ENDBRANCH   7  10
ENDBRANCH   5   7
ENDBRANCH   2   3
TORSDOF 5
ENDMDL
MODEL      168
REMARK 921   NORMALIZED FREE ENERGY PREDICTED BY IDOCK:   -4.47 KCAL/MOL
REMARK 922        TOTAL FREE ENERGY PREDICTED BY IDOCK:   -6.86 KCAL/MOL
REMARK 923 INTER-LIGAND FREE ENERGY PREDICTED BY IDOCK:   -5.77 KCAL/MOL
REMARK 924 INTRA-LIGAND FREE ENERGY PREDICTED BY IDOCK:   -1.09 KCAL/MOL
REMARK 927      BINDING AFFINITY PREDICTED BY RF-SCORE:    0.00 PKD
ROOT
HETATM    1  C   UNL     1      -8.516   2.242  69.447  1.00  0.00    -0.088 C  
HETATM    2  C   UNL     1      -9.555   2.669  70.466  1.00  0.00    -0.149 C  
ENDROOT
BRANCH   2   3
HETATM    3  C   UNL     1      -9.105   3.931  71.165  1.00  0.00    -0.120 C  
HETATM    4  O   UNL     1      -8.113   4.546  70.801  1.00  0.00    -0.066 OA 
HETATM    5  N   UNL     1      -9.951   4.370  72.191  1.00  0.00    -0.178 N  
HETATM    6  H   UNL     1     -10.785   3.814  72.379  1.00  0.00     0.000 HD 
BRANCH   5   7
HETATM    7  S   UNL     1      -9.710   5.719  73.129  1.00  0.00    -0.156 S  
HETATM    8  O   UNL     1     -10.781   5.703  74.109  1.00  0.00    -0.244 OA 
HETATM    9  O   UNL     1      -8.326   5.789  73.551  1.00  0.00    -0.112 OA 
BRANCH   7  10
HETATM   10  C   UNL     1     -10.044   7.047  72.002  1.00  0.00    -0.185 A  
HETATM   11  C   UNL     1      -9.093   8.049  71.809  1.00  0.00    -0.207 A  
HETATM   12  C   UNL     1      -9.443   9.206  71.102  1.00  0.00    -0.331 A  
HETATM   13  C   UNL     1     -10.720   9.350  70.539  1.00  0.00    -0.335 A  
HETATM   14  C   UNL     1     -11.584   8.243  70.586  1.00  0.00    -0.199 A  
HETATM   15  C   UNL     1     -11.268   7.110  71.344  1.00  0.00    -0.278 A  
BRANCH  13  16
HETATM   16  C   UNL     1     -11.209  10.644  70.049  1.00  0.00    -0.382 A  
HETATM   17  C   UNL     1     -12.167  11.442  70.657  1.00  0.00    -0.389 A  
HETATM   18  C   UNL     1     -13.015  11.410  71.866  1.00  0.00    -0.466 C  
HETATM   19  O   UNL     1     -12.361  12.556  69.907  1.00  0.00    -0.178 OA 
HETATM   20  N   UNL     1     -11.580  12.520  68.787  1.00  0.00    -0.299 NA 
HETATM   21  C   UNL     1     -10.895  11.366  68.828  1.00  0.00    -0.208 A  
BRANCH  21  22
HETATM   22  C   UNL     1      -9.986  11.042  67.716  1.00  0.00    -0.194 A  
HETATM   23  C   UNL     1      -8.753  11.708  67.603  1.00  0.00    -0.156 A  
HETATM   24  C   UNL     1      -7.832  11.353  66.613  1.00  0.00    -0.137 A  
HETATM   25  C   UNL     1      -8.121  10.315  65.733  1.00  0.00    -0.149 A  
HETATM   26  C   UNL     1      -9.357   9.676  65.799  1.00  0.00    -0.286 A  
HETATM   27  C   UNL     1     -10.296  10.068  66.758  1.00  0.00    -0.283 A  
ENDBRANCH  21  22
ENDBRANCH  13  16
ENDBRANCH   7  10
ENDBRANCH   5   7
ENDBRANCH   2   3
TORSDOF 5
ENDMDL
MODEL      169
REMARK 921   NORMALIZED FREE ENERGY PREDICTED BY IDOCK:   -4.47 KCAL/MOL
REMARK 922        TOTAL FREE ENERGY PREDICTED BY IDOCK:   -6.86 KCAL/MOL
REMARK 923 INTER-LIGAND FREE ENERGY PREDICTED BY IDOCK:   -6.08 KCAL/MOL
REMARK 924 INTRA-LIGAND FREE ENERGY PREDICTED BY IDOCK:   -0.78 KCAL/MOL
REMARK 927      BINDING AFFINITY PREDICTED BY RF-SCORE:    0.00 PKD
ROOT
HETATM    1  C   UNL     1     -10.437  16.995  67.174  1.00  0.00    -0.291 C  
HETATM    2  C   UNL     1     -10.009  16.066  66.054  1.00  0.00    -0.365 C  
ENDROOT
BRANCH   2   3
HETATM    3  C   UNL     1     -10.871  14.825  66.054  1.00  0.00    -0.318 C  
HETATM    4  O   UNL     1     -11.373  14.394  67.082  1.00  0.00    -0.315 OA 
HETATM    5  N   UNL     1     -11.105  14.269  64.791  1.00  0.00    -0.408 N  
HETATM    6  H   UNL     1     -10.684  14.739  63.989  1.00  0.00     0.000 HD 
BRANCH   5   7
HETATM    7  S   UNL     1     -12.009  12.910  64.487  1.00  0.00    -0.424 S  
HETATM    8  O   UNL     1     -12.996  12.858  65.551  1.00  0.00    -0.494 OA 
HETATM    9  O   UNL     1     -12.421  12.889  63.098  1.00  0.00    -0.641 OA 
BRANCH   7  10
HETATM   10  C   UNL     1     -10.853  11.595  64.772  1.00  0.00    -0.308 A  
HETATM   11  C   UNL     1     -10.564  11.197  66.077  1.00  0.00    -0.298 A  
HETATM   12  C   UNL     1      -9.493  10.325  66.312  1.00  0.00    -0.223 A  
HETATM   13  C   UNL     1      -8.738   9.806  65.249  1.00  0.00    -0.182 A  
HETATM   14  C   UNL     1      -9.178  10.075  63.942  1.00  0.00    -0.317 A  
HETATM   15  C   UNL     1     -10.204  10.994  63.698  1.00  0.00    -0.431 A  
BRANCH  13  16
HETATM   16  C   UNL     1      -7.453   9.133  65.469  1.00  0.00    -0.089 A  
HETATM   17  C   UNL     1      -6.263   9.740  65.841  1.00  0.00    -0.072 A  
HETATM   18  C   UNL     1      -5.773  11.100  66.148  1.00  0.00    -0.129 C  
HETATM   19  O   UNL     1      -5.291   8.797  65.940  1.00  0.00    -0.036 OA 
HETATM   20  N   UNL     1      -5.787   7.566  65.614  1.00  0.00    -0.037 NA 
HETATM   21  C   UNL     1      -7.081   7.740  65.296  1.00  0.00    -0.060 A  
BRANCH  21  22
HETATM   22  C   UNL     1      -7.867   6.571  64.868  1.00  0.00    -0.114 A  
HETATM   23  C   UNL     1      -8.753   5.956  65.769  1.00  0.00    -0.153 A  
HETATM   24  C   UNL     1      -9.581   4.906  65.360  1.00  0.00    -0.115 A  
HETATM   25  C   UNL     1      -9.548   4.467  64.040  1.00  0.00    -0.055 A  
HETATM   26  C   UNL     1      -8.642   5.032  63.146  1.00  0.00    -0.112 A  
HETATM   27  C   UNL     1      -7.780   6.047  63.571  1.00  0.00    -0.097 A  
ENDBRANCH  21  22
ENDBRANCH  13  16
ENDBRANCH   7  10
ENDBRANCH   5   7
ENDBRANCH   2   3
TORSDOF 5
ENDMDL
MODEL      170
REMARK 921   NORMALIZED FREE ENERGY PREDICTED BY IDOCK:   -4.45 KCAL/MOL
REMARK 922        TOTAL FREE ENERGY PREDICTED BY IDOCK:   -6.83 KCAL/MOL
REMARK 923 INTER-LIGAND FREE ENERGY PREDICTED BY IDOCK:   -5.75 KCAL/MOL
REMARK 924 INTRA-LIGAND FREE ENERGY PREDICTED BY IDOCK:   -1.08 KCAL/MOL
REMARK 927      BINDING AFFINITY PREDICTED BY RF-SCORE:    0.00 PKD
ROOT
HETATM    1  C   UNL     1     -12.964  15.300  73.070  1.00  0.00    -0.599 C  
HETATM    2  C   UNL     1     -13.413  14.128  72.218  1.00  0.00    -0.578 C  
ENDROOT
BRANCH   2   3
HETATM    3  C   UNL     1     -12.709  14.163  70.881  1.00  0.00    -0.361 C  
HETATM    4  O   UNL     1     -12.599  15.198  70.241  1.00  0.00    -0.350 OA 
HETATM    5  N   UNL     1     -12.135  12.948  70.485  1.00  0.00    -0.497 N  
HETATM    6  H   UNL     1     -12.235  12.156  71.120  1.00  0.00     0.000 HD 
BRANCH   5   7
HETATM    7  S   UNL     1     -11.304  12.689  69.071  1.00  0.00    -0.294 S  
HETATM    8  O   UNL     1     -12.317  12.649  68.031  1.00  0.00    -0.179 OA 
HETATM    9  O   UNL     1     -10.187  13.607  68.977  1.00  0.00    -0.135 OA 
BRANCH   7  10
HETATM   10  C   UNL     1     -10.687  11.038  69.274  1.00  0.00    -0.222 A  
HETATM   11  C   UNL     1     -11.488  10.068  69.875  1.00  0.00    -0.274 A  
HETATM   12  C   UNL     1     -10.926   8.838  70.240  1.00  0.00    -0.255 A  
HETATM   13  C   UNL     1      -9.582   8.547  69.962  1.00  0.00    -0.170 A  
HETATM   14  C   UNL     1      -8.861   9.469  69.184  1.00  0.00    -0.147 A  
HETATM   15  C   UNL     1      -9.393  10.725  68.872  1.00  0.00    -0.183 A  
BRANCH  13  16
HETATM   16  C   UNL     1      -8.894   7.405  70.575  1.00  0.00    -0.148 A  
HETATM   17  C   UNL     1      -8.608   7.247  71.922  1.00  0.00    -0.114 A  
HETATM   18  C   UNL     1      -8.810   7.993  73.181  1.00  0.00    -0.318 C  
HETATM   19  O   UNL     1      -7.959   6.070  72.107  1.00  0.00    -0.105 OA 
HETATM   20  N   UNL     1      -7.769   5.437  70.911  1.00  0.00    -0.088 NA 
HETATM   21  C   UNL     1      -8.296   6.231  69.964  1.00  0.00    -0.129 A  
BRANCH  21  22
HETATM   22  C   UNL     1      -8.204   5.809  68.556  1.00  0.00    -0.108 A  
HETATM   23  C   UNL     1      -6.948   5.731  67.930  1.00  0.00    -0.066 A  
HETATM   24  C   UNL     1      -6.824   5.243  66.625  1.00  0.00    -0.063 A  
HETATM   25  C   UNL     1      -7.952   4.811  65.933  1.00  0.00    -0.103 A  
HETATM   26  C   UNL     1      -9.209   4.926  66.520  1.00  0.00    -0.135 A  
HETATM   27  C   UNL     1      -9.335   5.461  67.806  1.00  0.00    -0.124 A  
ENDBRANCH  21  22
ENDBRANCH  13  16
ENDBRANCH   7  10
ENDBRANCH   5   7
ENDBRANCH   2   3
TORSDOF 5
ENDMDL
MODEL      171
REMARK 921   NORMALIZED FREE ENERGY PREDICTED BY IDOCK:   -4.43 KCAL/MOL
REMARK 922        TOTAL FREE ENERGY PREDICTED BY IDOCK:   -6.80 KCAL/MOL
REMARK 923 INTER-LIGAND FREE ENERGY PREDICTED BY IDOCK:   -5.87 KCAL/MOL
REMARK 924 INTRA-LIGAND FREE ENERGY PREDICTED BY IDOCK:   -0.93 KCAL/MOL
REMARK 927      BINDING AFFINITY PREDICTED BY RF-SCORE:    0.00 PKD
ROOT
HETATM    1  C   UNL     1      -9.217   2.263  65.324  1.00  0.00    -0.083 C  
HETATM    2  C   UNL     1      -8.761   3.638  64.875  1.00  0.00    -0.114 C  
ENDROOT
BRANCH   2   3
HETATM    3  C   UNL     1      -8.149   4.384  66.039  1.00  0.00    -0.102 C  
HETATM    4  O   UNL     1      -7.578   5.454  65.885  1.00  0.00    -0.081 OA 
HETATM    5  N   UNL     1      -8.360   3.796  67.292  1.00  0.00    -0.097 N  
HETATM    6  H   UNL     1      -8.899   2.931  67.317  1.00  0.00     0.000 HD 
BRANCH   5   7
HETATM    7  S   UNL     1      -7.806   4.389  68.741  1.00  0.00    -0.070 S  
HETATM    8  O   UNL     1      -8.245   3.432  69.741  1.00  0.00    -0.052 OA 
HETATM    9  O   UNL     1      -6.407   4.748  68.628  1.00  0.00    -0.033 OA 
BRANCH   7  10
HETATM   10  C   UNL     1      -8.771   5.861  68.959  1.00  0.00    -0.114 A  
HETATM   11  C   UNL     1      -8.140   7.063  69.280  1.00  0.00    -0.120 A  
HETATM   12  C   UNL     1      -8.910   8.164  69.673  1.00  0.00    -0.143 A  
HETATM   13  C   UNL     1     -10.312   8.093  69.699  1.00  0.00    -0.221 A  
HETATM   14  C   UNL     1     -10.917   6.934  69.185  1.00  0.00    -0.240 A  
HETATM   15  C   UNL     1     -10.157   5.807  68.851  1.00  0.00    -0.242 A  
BRANCH  13  16
HETATM   16  C   UNL     1     -11.126   9.113  70.368  1.00  0.00    -0.293 A  
HETATM   17  C   UNL     1     -11.646   9.034  71.652  1.00  0.00    -0.356 A  
HETATM   18  C   UNL     1     -11.646   8.079  72.779  1.00  0.00    -0.390 C  
HETATM   19  O   UNL     1     -12.350  10.163  71.919  1.00  0.00    -0.362 OA 
HETATM   20  N   UNL     1     -12.347  10.995  70.836  1.00  0.00    -0.381 NA 
HETATM   21  C   UNL     1     -11.642  10.377  69.874  1.00  0.00    -0.284 A  
BRANCH  21  22
HETATM   22  C   UNL     1     -11.499  11.038  68.566  1.00  0.00    -0.379 A  
HETATM   23  C   UNL     1     -10.955  10.330  67.480  1.00  0.00    -0.344 A  
HETATM   24  C   UNL     1     -10.897  10.902  66.205  1.00  0.00    -0.166 A  
HETATM   25  C   UNL     1     -11.397  12.184  65.993  1.00  0.00    -0.410 A  
HETATM   26  C   UNL     1     -11.895  12.917  67.067  1.00  0.00    -0.437 A  
HETATM   27  C   UNL     1     -11.905  12.362  68.350  1.00  0.00    -0.361 A  
ENDBRANCH  21  22
ENDBRANCH  13  16
ENDBRANCH   7  10
ENDBRANCH   5   7
ENDBRANCH   2   3
TORSDOF 5
ENDMDL
MODEL      172
REMARK 921   NORMALIZED FREE ENERGY PREDICTED BY IDOCK:   -4.41 KCAL/MOL
REMARK 922        TOTAL FREE ENERGY PREDICTED BY IDOCK:   -6.77 KCAL/MOL
REMARK 923 INTER-LIGAND FREE ENERGY PREDICTED BY IDOCK:   -5.71 KCAL/MOL
REMARK 924 INTRA-LIGAND FREE ENERGY PREDICTED BY IDOCK:   -1.07 KCAL/MOL
REMARK 927      BINDING AFFINITY PREDICTED BY RF-SCORE:    0.00 PKD
ROOT
HETATM    1  C   UNL     1      -9.848  10.511  64.560  1.00  0.00    -0.401 C  
HETATM    2  C   UNL     1     -10.670  11.785  64.499  1.00  0.00    -0.369 C  
ENDROOT
BRANCH   2   3
HETATM    3  C   UNL     1     -11.341  12.031  65.831  1.00  0.00    -0.337 C  
HETATM    4  O   UNL     1     -12.366  12.690  65.921  1.00  0.00    -0.593 OA 
HETATM    5  N   UNL     1     -10.744  11.383  66.920  1.00  0.00    -0.252 N  
HETATM    6  H   UNL     1      -9.923  10.809  66.729  1.00  0.00     0.000 HD 
BRANCH   5   7
HETATM    7  S   UNL     1     -11.260  11.471  68.496  1.00  0.00    -0.287 S  
HETATM    8  O   UNL     1     -10.807  12.764  68.978  1.00  0.00    -0.225 OA 
HETATM    9  O   UNL     1     -12.658  11.102  68.581  1.00  0.00    -0.318 OA 
BRANCH   7  10
HETATM   10  C   UNL     1     -10.279  10.232  69.301  1.00  0.00    -0.227 A  
HETATM   11  C   UNL     1     -10.653   9.760  70.559  1.00  0.00    -0.376 A  
HETATM   12  C   UNL     1      -9.766   8.958  71.288  1.00  0.00    -0.359 A  
HETATM   13  C   UNL     1      -8.526   8.580  70.750  1.00  0.00    -0.166 A  
HETATM   14  C   UNL     1      -8.266   8.912  69.410  1.00  0.00    -0.107 A  
HETATM   15  C   UNL     1      -9.116   9.765  68.697  1.00  0.00    -0.130 A  
BRANCH  13  16
HETATM   16  C   UNL     1      -7.469   7.994  71.581  1.00  0.00    -0.082 A  
HETATM   17  C   UNL     1      -6.181   8.484  71.736  1.00  0.00    -0.064 A  
HETATM   18  C   UNL     1      -5.373   9.620  71.248  1.00  0.00    -0.063 C  
HETATM   19  O   UNL     1      -5.490   7.670  72.575  1.00  0.00    -0.037 OA 
HETATM   20  N   UNL     1      -6.270   6.621  72.970  1.00  0.00    -0.058 NA 
HETATM   21  C   UNL     1      -7.459   6.770  72.365  1.00  0.00    -0.088 A  
BRANCH  21  22
HETATM   22  C   UNL     1      -8.499   5.752  72.585  1.00  0.00    -0.120 A  
HETATM   23  C   UNL     1      -9.380   5.876  73.674  1.00  0.00    -0.134 A  
HETATM   24  C   UNL     1     -10.436   4.975  73.851  1.00  0.00    -0.317 A  
HETATM   25  C   UNL     1     -10.636   3.948  72.934  1.00  0.00    -0.233 A  
HETATM   26  C   UNL     1      -9.744   3.781  71.877  1.00  0.00    -0.237 A  
HETATM   27  C   UNL     1      -8.661   4.652  71.731  1.00  0.00    -0.129 A  
ENDBRANCH  21  22
ENDBRANCH  13  16
ENDBRANCH   7  10
ENDBRANCH   5   7
ENDBRANCH   2   3
TORSDOF 5
ENDMDL
MODEL      173
REMARK 921   NORMALIZED FREE ENERGY PREDICTED BY IDOCK:   -4.38 KCAL/MOL
REMARK 922        TOTAL FREE ENERGY PREDICTED BY IDOCK:   -6.75 KCAL/MOL
REMARK 923 INTER-LIGAND FREE ENERGY PREDICTED BY IDOCK:   -5.73 KCAL/MOL
REMARK 924 INTRA-LIGAND FREE ENERGY PREDICTED BY IDOCK:   -1.01 KCAL/MOL
REMARK 927      BINDING AFFINITY PREDICTED BY RF-SCORE:    0.00 PKD
ROOT
HETATM    1  C   UNL     1      -8.417   3.478  63.838  1.00  0.00    -0.090 C  
HETATM    2  C   UNL     1      -8.536   4.472  62.698  1.00  0.00    -0.098 C  
ENDROOT
BRANCH   2   3
HETATM    3  C   UNL     1      -8.189   5.860  63.184  1.00  0.00    -0.064 C  
HETATM    4  O   UNL     1      -7.809   6.732  62.416  1.00  0.00    -0.095 OA 
HETATM    5  N   UNL     1      -8.411   6.079  64.549  1.00  0.00    -0.321 N  
HETATM    6  H   UNL     1      -8.784   5.300  65.092  1.00  0.00     0.000 HD 
BRANCH   5   7
HETATM    7  S   UNL     1      -8.121   7.500  65.358  1.00  0.00    -0.136 S  
HETATM    8  O   UNL     1      -6.676   7.583  65.483  1.00  0.00    -0.044 OA 
HETATM    9  O   UNL     1      -8.871   8.579  64.749  1.00  0.00    -0.090 OA 
BRANCH   7  10
HETATM   10  C   UNL     1      -8.775   7.173  66.974  1.00  0.00    -0.123 A  
HETATM   11  C   UNL     1     -10.071   6.679  67.111  1.00  0.00    -0.230 A  
HETATM   12  C   UNL     1     -10.664   6.637  68.379  1.00  0.00    -0.314 A  
HETATM   13  C   UNL     1      -9.955   7.037  69.522  1.00  0.00    -0.166 A  
HETATM   14  C   UNL     1      -8.593   7.344  69.371  1.00  0.00    -0.134 A  
HETATM   15  C   UNL     1      -8.010   7.451  68.103  1.00  0.00    -0.123 A  
BRANCH  13  16
HETATM   16  C   UNL     1     -10.626   7.277  70.804  1.00  0.00    -0.237 A  
HETATM   17  C   UNL     1     -10.813   6.348  71.817  1.00  0.00    -0.241 A  
HETATM   18  C   UNL     1     -10.497   4.929  72.077  1.00  0.00    -0.245 C  
HETATM   19  O   UNL     1     -11.479   6.935  72.844  1.00  0.00    -0.207 OA 
HETATM   20  N   UNL     1     -11.776   8.233  72.541  1.00  0.00    -0.397 NA 
HETATM   21  C   UNL     1     -11.301   8.461  71.305  1.00  0.00    -0.266 A  
BRANCH  21  22
HETATM   22  C   UNL     1     -11.510   9.787  70.700  1.00  0.00    -0.397 A  
HETATM   23  C   UNL     1     -12.170  10.793  71.428  1.00  0.00    -0.374 A  
HETATM   24  C   UNL     1     -12.297  12.087  70.914  1.00  0.00    -0.384 A  
HETATM   25  C   UNL     1     -11.753  12.400  69.672  1.00  0.00    -0.377 A  
HETATM   26  C   UNL     1     -11.139  11.405  68.916  1.00  0.00    -0.290 A  
HETATM   27  C   UNL     1     -11.058  10.100  69.411  1.00  0.00    -0.288 A  
ENDBRANCH  21  22
ENDBRANCH  13  16
ENDBRANCH   7  10
ENDBRANCH   5   7
ENDBRANCH   2   3
TORSDOF 5
ENDMDL
MODEL      174
REMARK 921   NORMALIZED FREE ENERGY PREDICTED BY IDOCK:   -4.38 KCAL/MOL
REMARK 922        TOTAL FREE ENERGY PREDICTED BY IDOCK:   -6.75 KCAL/MOL
REMARK 923 INTER-LIGAND FREE ENERGY PREDICTED BY IDOCK:   -5.72 KCAL/MOL
REMARK 924 INTRA-LIGAND FREE ENERGY PREDICTED BY IDOCK:   -1.03 KCAL/MOL
REMARK 927      BINDING AFFINITY PREDICTED BY RF-SCORE:    0.00 PKD
ROOT
HETATM    1  C   UNL     1      -7.937   2.322  66.044  1.00  0.00    -0.082 C  
HETATM    2  C   UNL     1      -8.684   3.130  65.001  1.00  0.00    -0.114 C  
ENDROOT
BRANCH   2   3
HETATM    3  C   UNL     1      -8.007   4.466  64.800  1.00  0.00    -0.090 C  
HETATM    4  O   UNL     1      -7.401   4.729  63.771  1.00  0.00    -0.052 OA 
HETATM    5  N   UNL     1      -8.197   5.386  65.839  1.00  0.00    -0.115 N  
HETATM    6  H   UNL     1      -8.767   5.085  66.629  1.00  0.00     0.000 HD 
BRANCH   5   7
HETATM    7  S   UNL     1      -7.573   6.924  65.892  1.00  0.00    -0.094 S  
HETATM    8  O   UNL     1      -6.272   6.789  66.523  1.00  0.00    -0.041 OA 
HETATM    9  O   UNL     1      -7.701   7.556  64.595  1.00  0.00    -0.107 OA 
BRANCH   7  10
HETATM   10  C   UNL     1      -8.640   7.741  67.049  1.00  0.00    -0.129 A  
HETATM   11  C   UNL     1     -10.010   7.814  66.797  1.00  0.00    -0.331 A  
HETATM   12  C   UNL     1     -10.813   8.648  67.585  1.00  0.00    -0.081 A  
HETATM   13  C   UNL     1     -10.270   9.372  68.657  1.00  0.00    -0.222 A  
HETATM   14  C   UNL     1      -8.930   9.125  69.001  1.00  0.00    -0.143 A  
HETATM   15  C   UNL     1      -8.105   8.345  68.183  1.00  0.00    -0.120 A  
BRANCH  13  16
HETATM   16  C   UNL     1     -11.009  10.458  69.312  1.00  0.00    -0.287 A  
HETATM   17  C   UNL     1     -11.664  10.384  70.532  1.00  0.00    -0.344 A  
HETATM   18  C   UNL     1     -11.905   9.381  71.589  1.00  0.00    -0.464 C  
HETATM   19  O   UNL     1     -12.238  11.584  70.804  1.00  0.00    -0.374 OA 
HETATM   20  N   UNL     1     -12.013  12.463  69.784  1.00  0.00    -0.310 NA 
HETATM   21  C   UNL     1     -11.300  11.805  68.854  1.00  0.00    -0.267 A  
BRANCH  21  22
HETATM   22  C   UNL     1     -10.939  12.507  67.611  1.00  0.00    -0.279 A  
HETATM   23  C   UNL     1     -11.781  12.422  66.489  1.00  0.00    -0.443 A  
HETATM   24  C   UNL     1     -11.510  13.156  65.329  1.00  0.00    -0.328 A  
HETATM   25  C   UNL     1     -10.403  13.997  65.281  1.00  0.00    -0.403 A  
HETATM   26  C   UNL     1      -9.531  14.057  66.365  1.00  0.00    -0.278 A  
HETATM   27  C   UNL     1      -9.777  13.284  67.504  1.00  0.00    -0.224 A  
ENDBRANCH  21  22
ENDBRANCH  13  16
ENDBRANCH   7  10
ENDBRANCH   5   7
ENDBRANCH   2   3
TORSDOF 5
ENDMDL
MODEL      175
REMARK 921   NORMALIZED FREE ENERGY PREDICTED BY IDOCK:   -4.38 KCAL/MOL
REMARK 922        TOTAL FREE ENERGY PREDICTED BY IDOCK:   -6.74 KCAL/MOL
REMARK 923 INTER-LIGAND FREE ENERGY PREDICTED BY IDOCK:   -5.84 KCAL/MOL
REMARK 924 INTRA-LIGAND FREE ENERGY PREDICTED BY IDOCK:   -0.90 KCAL/MOL
REMARK 927      BINDING AFFINITY PREDICTED BY RF-SCORE:    0.00 PKD
ROOT
HETATM    1  C   UNL     1      -7.262   3.669  62.371  1.00  0.00    -0.040 C  
HETATM    2  C   UNL     1      -7.342   5.099  62.871  1.00  0.00    -0.044 C  
ENDROOT
BRANCH   2   3
HETATM    3  C   UNL     1      -7.276   5.123  64.380  1.00  0.00    -0.055 C  
HETATM    4  O   UNL     1      -6.578   5.929  64.979  1.00  0.00    -0.041 OA 
HETATM    5  N   UNL     1      -8.127   4.215  65.022  1.00  0.00    -0.096 N  
HETATM    6  H   UNL     1      -8.712   3.625  64.430  1.00  0.00     0.000 HD 
BRANCH   5   7
HETATM    7  S   UNL     1      -8.266   4.018  66.666  1.00  0.00    -0.101 S  
HETATM    8  O   UNL     1      -9.251   2.966  66.845  1.00  0.00    -0.166 OA 
HETATM    9  O   UNL     1      -6.951   3.907  67.264  1.00  0.00    -0.053 OA 
BRANCH   7  10
HETATM   10  C   UNL     1      -9.016   5.540  67.182  1.00  0.00    -0.112 A  
HETATM   11  C   UNL     1     -10.346   5.802  66.858  1.00  0.00    -0.306 A  
HETATM   12  C   UNL     1     -10.867   7.086  67.064  1.00  0.00    -0.413 A  
HETATM   13  C   UNL     1     -10.085   8.099  67.640  1.00  0.00    -0.267 A  
HETATM   14  C   UNL     1      -8.817   7.746  68.131  1.00  0.00    -0.125 A  
HETATM   15  C   UNL     1      -8.265   6.487  67.872  1.00  0.00    -0.116 A  
BRANCH  13  16
HETATM   16  C   UNL     1     -10.495   9.507  67.606  1.00  0.00    -0.321 A  
HETATM   17  C   UNL     1     -10.267  10.403  66.573  1.00  0.00    -0.229 A  
HETATM   18  C   UNL     1      -9.627  10.402  65.241  1.00  0.00    -0.316 C  
HETATM   19  O   UNL     1     -10.786  11.612  66.906  1.00  0.00    -0.233 OA 
HETATM   20  N   UNL     1     -11.335  11.568  68.155  1.00  0.00    -0.270 NA 
HETATM   21  C   UNL     1     -11.150  10.320  68.617  1.00  0.00    -0.239 A  
BRANCH  21  22
HETATM   22  C   UNL     1     -11.619   9.990  69.973  1.00  0.00    -0.279 A  
HETATM   23  C   UNL     1     -12.469  10.878  70.655  1.00  0.00    -0.460 A  
HETATM   24  C   UNL     1     -13.005  10.545  71.903  1.00  0.00    -0.553 A  
HETATM   25  C   UNL     1     -12.712   9.313  72.480  1.00  0.00    -0.310 A  
HETATM   26  C   UNL     1     -11.834   8.441  71.842  1.00  0.00    -0.398 A  
HETATM   27  C   UNL     1     -11.260   8.798  70.618  1.00  0.00    -0.294 A  
ENDBRANCH  21  22
ENDBRANCH  13  16
ENDBRANCH   7  10
ENDBRANCH   5   7
ENDBRANCH   2   3
TORSDOF 5
ENDMDL
MODEL      176
REMARK 921   NORMALIZED FREE ENERGY PREDICTED BY IDOCK:   -4.35 KCAL/MOL
REMARK 922        TOTAL FREE ENERGY PREDICTED BY IDOCK:   -6.70 KCAL/MOL
REMARK 923 INTER-LIGAND FREE ENERGY PREDICTED BY IDOCK:   -5.89 KCAL/MOL
REMARK 924 INTRA-LIGAND FREE ENERGY PREDICTED BY IDOCK:   -0.81 KCAL/MOL
REMARK 927      BINDING AFFINITY PREDICTED BY RF-SCORE:    0.00 PKD
ROOT
HETATM    1  C   UNL     1     -12.180  13.908  64.028  1.00  0.00    -0.413 C  
HETATM    2  C   UNL     1     -10.850  13.810  64.752  1.00  0.00    -0.410 C  
ENDROOT
BRANCH   2   3
HETATM    3  C   UNL     1     -10.364  12.379  64.747  1.00  0.00    -0.299 C  
HETATM    4  O   UNL     1     -10.865  11.534  64.020  1.00  0.00    -0.340 OA 
HETATM    5  N   UNL     1      -9.260  12.129  65.572  1.00  0.00    -0.434 N  
HETATM    6  H   UNL     1      -8.881  12.917  66.096  1.00  0.00     0.000 HD 
BRANCH   5   7
HETATM    7  S   UNL     1      -8.516  10.657  65.768  1.00  0.00    -0.177 S  
HETATM    8  O   UNL     1      -8.807   9.914  64.555  1.00  0.00    -0.175 OA 
HETATM    9  O   UNL     1      -7.148  10.848  66.206  1.00  0.00    -0.131 OA 
BRANCH   7  10
HETATM   10  C   UNL     1      -9.451   9.915  67.080  1.00  0.00    -0.158 A  
HETATM   11  C   UNL     1      -9.307  10.385  68.385  1.00  0.00    -0.150 A  
HETATM   12  C   UNL     1      -9.865   9.659  69.446  1.00  0.00    -0.203 A  
HETATM   13  C   UNL     1     -10.610   8.494  69.210  1.00  0.00    -0.193 A  
HETATM   14  C   UNL     1     -10.897   8.160  67.876  1.00  0.00    -0.038 A  
HETATM   15  C   UNL     1     -10.292   8.840  66.813  1.00  0.00    -0.328 A  
BRANCH  13  16
HETATM   16  C   UNL     1     -10.958   7.566  70.292  1.00  0.00    -0.264 A  
HETATM   17  C   UNL     1     -11.949   7.752  71.245  1.00  0.00    -0.302 A  
HETATM   18  C   UNL     1     -12.961   8.771  71.590  1.00  0.00    -0.390 C  
HETATM   19  O   UNL     1     -11.970   6.684  72.083  1.00  0.00    -0.305 OA 
HETATM   20  N   UNL     1     -10.996   5.790  71.740  1.00  0.00    -0.264 NA 
HETATM   21  C   UNL     1     -10.348   6.307  70.682  1.00  0.00    -0.203 A  
BRANCH  21  22
HETATM   22  C   UNL     1      -9.212   5.562  70.115  1.00  0.00    -0.173 A  
HETATM   23  C   UNL     1      -9.327   4.180  69.883  1.00  0.00    -0.235 A  
HETATM   24  C   UNL     1      -8.299   3.467  69.257  1.00  0.00    -0.084 A  
HETATM   25  C   UNL     1      -7.149   4.129  68.839  1.00  0.00    -0.051 A  
HETATM   26  C   UNL     1      -6.997   5.487  69.103  1.00  0.00    -0.063 A  
HETATM   27  C   UNL     1      -8.005   6.187  69.774  1.00  0.00    -0.110 A  
ENDBRANCH  21  22
ENDBRANCH  13  16
ENDBRANCH   7  10
ENDBRANCH   5   7
ENDBRANCH   2   3
TORSDOF 5
ENDMDL
MODEL      177
REMARK 921   NORMALIZED FREE ENERGY PREDICTED BY IDOCK:   -4.33 KCAL/MOL
REMARK 922        TOTAL FREE ENERGY PREDICTED BY IDOCK:   -6.67 KCAL/MOL
REMARK 923 INTER-LIGAND FREE ENERGY PREDICTED BY IDOCK:   -6.31 KCAL/MOL
REMARK 924 INTRA-LIGAND FREE ENERGY PREDICTED BY IDOCK:   -0.36 KCAL/MOL
REMARK 927      BINDING AFFINITY PREDICTED BY RF-SCORE:    0.00 PKD
ROOT
HETATM    1  C   UNL     1      -6.815   6.906  70.612  1.00  0.00    -0.058 C  
HETATM    2  C   UNL     1      -6.217   6.104  69.472  1.00  0.00    -0.033 C  
ENDROOT
BRANCH   2   3
HETATM    3  C   UNL     1      -7.188   6.046  68.315  1.00  0.00    -0.084 C  
HETATM    4  O   UNL     1      -7.994   5.135  68.200  1.00  0.00    -0.087 OA 
HETATM    5  N   UNL     1      -7.140   7.146  67.450  1.00  0.00    -0.082 N  
HETATM    6  H   UNL     1      -6.468   7.882  67.667  1.00  0.00     0.000 HD 
BRANCH   5   7
HETATM    7  S   UNL     1      -8.085   7.353  66.100  1.00  0.00    -0.124 S  
HETATM    8  O   UNL     1      -7.208   7.942  65.103  1.00  0.00    -0.059 OA 
HETATM    9  O   UNL     1      -8.813   6.134  65.812  1.00  0.00    -0.157 OA 
BRANCH   7  10
HETATM   10  C   UNL     1      -9.228   8.610  66.608  1.00  0.00    -0.181 A  
HETATM   11  C   UNL     1      -9.171   9.876  66.026  1.00  0.00    -0.215 A  
HETATM   12  C   UNL     1      -9.913  10.926  66.581  1.00  0.00    -0.250 A  
HETATM   13  C   UNL     1     -10.753  10.712  67.685  1.00  0.00    -0.315 A  
HETATM   14  C   UNL     1     -10.933   9.389  68.122  1.00  0.00    -0.102 A  
HETATM   15  C   UNL     1     -10.149   8.346  67.616  1.00  0.00    -0.268 A  
BRANCH  13  16
HETATM   16  C   UNL     1     -11.313  11.825  68.460  1.00  0.00    -0.328 A  
HETATM   17  C   UNL     1     -11.787  11.762  69.761  1.00  0.00    -0.349 A  
HETATM   18  C   UNL     1     -11.940  10.747  70.825  1.00  0.00    -0.464 C  
HETATM   19  O   UNL     1     -12.231  12.988  70.136  1.00  0.00    -0.321 OA 
HETATM   20  N   UNL     1     -12.098  13.878  69.108  1.00  0.00    -0.356 NA 
HETATM   21  C   UNL     1     -11.575  13.200  68.073  1.00  0.00    -0.334 A  
BRANCH  21  22
HETATM   22  C   UNL     1     -11.350  13.911  66.803  1.00  0.00    -0.347 A  
HETATM   23  C   UNL     1     -12.273  13.773  65.751  1.00  0.00    -0.495 A  
HETATM   24  C   UNL     1     -12.134  14.510  64.571  1.00  0.00    -0.501 A  
HETATM   25  C   UNL     1     -11.080  15.409  64.432  1.00  0.00    -0.149 A  
HETATM   26  C   UNL     1     -10.130  15.523  65.443  1.00  0.00    -0.387 A  
HETATM   27  C   UNL     1     -10.244  14.747  66.601  1.00  0.00    -0.271 A  
ENDBRANCH  21  22
ENDBRANCH  13  16
ENDBRANCH   7  10
ENDBRANCH   5   7
ENDBRANCH   2   3
TORSDOF 5
ENDMDL
MODEL      178
REMARK 921   NORMALIZED FREE ENERGY PREDICTED BY IDOCK:   -4.32 KCAL/MOL
REMARK 922        TOTAL FREE ENERGY PREDICTED BY IDOCK:   -6.66 KCAL/MOL
REMARK 923 INTER-LIGAND FREE ENERGY PREDICTED BY IDOCK:   -5.63 KCAL/MOL
REMARK 924 INTRA-LIGAND FREE ENERGY PREDICTED BY IDOCK:   -1.03 KCAL/MOL
REMARK 927      BINDING AFFINITY PREDICTED BY RF-SCORE:    0.00 PKD
ROOT
HETATM    1  C   UNL     1      -6.232   3.989  65.306  1.00  0.00    -0.027 C  
HETATM    2  C   UNL     1      -6.727   3.876  66.735  1.00  0.00    -0.046 C  
ENDROOT
BRANCH   2   3
HETATM    3  C   UNL     1      -6.657   5.225  67.414  1.00  0.00    -0.053 C  
HETATM    4  O   UNL     1      -5.836   6.067  67.081  1.00  0.00    -0.016 OA 
HETATM    5  N   UNL     1      -7.643   5.450  68.381  1.00  0.00    -0.079 N  
HETATM    6  H   UNL     1      -8.316   4.702  68.545  1.00  0.00     0.000 HD 
BRANCH   5   7
HETATM    7  S   UNL     1      -7.810   6.834  69.285  1.00  0.00    -0.112 S  
HETATM    8  O   UNL     1      -8.893   6.558  70.213  1.00  0.00    -0.148 OA 
HETATM    9  O   UNL     1      -6.516   7.268  69.770  1.00  0.00    -0.034 OA 
BRANCH   7  10
HETATM   10  C   UNL     1      -8.414   8.007  68.101  1.00  0.00    -0.123 A  
HETATM   11  C   UNL     1      -9.655   7.807  67.497  1.00  0.00    -0.184 A  
HETATM   12  C   UNL     1     -10.027   8.602  66.405  1.00  0.00    -0.331 A  
HETATM   13  C   UNL     1      -9.193   9.631  65.942  1.00  0.00    -0.246 A  
HETATM   14  C   UNL     1      -8.044   9.928  66.693  1.00  0.00    -0.117 A  
HETATM   15  C   UNL     1      -7.631   9.101  67.744  1.00  0.00    -0.085 A  
BRANCH  13  16
HETATM   16  C   UNL     1      -9.413  10.282  64.646  1.00  0.00    -0.351 A  
HETATM   17  C   UNL     1      -8.980   9.821  63.412  1.00  0.00    -0.246 A  
HETATM   18  C   UNL     1      -8.228   8.669  62.874  1.00  0.00    -0.184 C  
HETATM   19  O   UNL     1      -9.366  10.694  62.447  1.00  0.00    -0.269 OA 
HETATM   20  N   UNL     1     -10.026  11.754  63.000  1.00  0.00    -0.346 NA 
HETATM   21  C   UNL     1     -10.046  11.551  64.328  1.00  0.00    -0.291 A  
BRANCH  21  22
HETATM   22  C   UNL     1     -10.673  12.566  65.191  1.00  0.00    -0.323 A  
HETATM   23  C   UNL     1     -11.365  12.169  66.348  1.00  0.00    -0.411 A  
HETATM   24  C   UNL     1     -11.887  13.116  67.234  1.00  0.00    -0.420 A  
HETATM   25  C   UNL     1     -11.711  14.474  66.985  1.00  0.00    -0.412 A  
HETATM   26  C   UNL     1     -11.071  14.885  65.819  1.00  0.00    -0.342 A  
HETATM   27  C   UNL     1     -10.594  13.936  64.910  1.00  0.00    -0.436 A  
ENDBRANCH  21  22
ENDBRANCH  13  16
ENDBRANCH   7  10
ENDBRANCH   5   7
ENDBRANCH   2   3
TORSDOF 5
ENDMDL
MODEL      179
REMARK 921   NORMALIZED FREE ENERGY PREDICTED BY IDOCK:   -4.31 KCAL/MOL
REMARK 922        TOTAL FREE ENERGY PREDICTED BY IDOCK:   -6.66 KCAL/MOL
REMARK 923 INTER-LIGAND FREE ENERGY PREDICTED BY IDOCK:   -5.76 KCAL/MOL
REMARK 924 INTRA-LIGAND FREE ENERGY PREDICTED BY IDOCK:   -0.90 KCAL/MOL
REMARK 927      BINDING AFFINITY PREDICTED BY RF-SCORE:    0.00 PKD
ROOT
HETATM    1  C   UNL     1     -14.364   8.963  72.282  1.00  0.00    -0.418 C  
HETATM    2  C   UNL     1     -13.184   9.850  71.933  1.00  0.00    -0.558 C  
ENDROOT
BRANCH   2   3
HETATM    3  C   UNL     1     -11.908   9.041  71.946  1.00  0.00    -0.376 C  
HETATM    4  O   UNL     1     -10.831   9.536  71.643  1.00  0.00    -0.343 OA 
HETATM    5  N   UNL     1     -12.049   7.725  72.402  1.00  0.00    -0.495 N  
HETATM    6  H   UNL     1     -12.982   7.426  72.684  1.00  0.00     0.000 HD 
BRANCH   5   7
HETATM    7  S   UNL     1     -10.825   6.608  72.522  1.00  0.00    -0.250 S  
HETATM    8  O   UNL     1      -9.774   7.269  73.275  1.00  0.00    -0.185 OA 
HETATM    9  O   UNL     1     -11.358   5.335  72.962  1.00  0.00    -0.305 OA 
BRANCH   7  10
HETATM   10  C   UNL     1     -10.262   6.459  70.847  1.00  0.00    -0.189 A  
HETATM   11  C   UNL     1      -8.897   6.506  70.567  1.00  0.00    -0.151 A  
HETATM   12  C   UNL     1      -8.468   6.617  69.238  1.00  0.00    -0.124 A  
HETATM   13  C   UNL     1      -9.389   6.630  68.180  1.00  0.00    -0.114 A  
HETATM   14  C   UNL     1     -10.739   6.386  68.486  1.00  0.00    -0.347 A  
HETATM   15  C   UNL     1     -11.184   6.338  69.812  1.00  0.00    -0.499 A  
BRANCH  13  16
HETATM   16  C   UNL     1      -9.003   7.029  66.822  1.00  0.00    -0.145 A  
HETATM   17  C   UNL     1      -9.274   8.246  66.217  1.00  0.00    -0.203 A  
HETATM   18  C   UNL     1      -9.950   9.515  66.558  1.00  0.00    -0.329 C  
HETATM   19  O   UNL     1      -8.766   8.243  64.958  1.00  0.00    -0.128 OA 
HETATM   20  N   UNL     1      -8.182   7.040  64.683  1.00  0.00    -0.074 NA 
HETATM   21  C   UNL     1      -8.335   6.274  65.776  1.00  0.00    -0.145 A  
BRANCH  21  22
HETATM   22  C   UNL     1      -7.824   4.894  65.751  1.00  0.00    -0.095 A  
HETATM   23  C   UNL     1      -6.769   4.554  64.885  1.00  0.00    -0.045 A  
HETATM   24  C   UNL     1      -6.203   3.275  64.910  1.00  0.00    -0.023 A  
HETATM   25  C   UNL     1      -6.670   2.324  65.811  1.00  0.00    -0.035 A  
HETATM   26  C   UNL     1      -7.745   2.628  66.642  1.00  0.00    -0.075 A  
HETATM   27  C   UNL     1      -8.343   3.890  66.580  1.00  0.00    -0.104 A  
ENDBRANCH  21  22
ENDBRANCH  13  16
ENDBRANCH   7  10
ENDBRANCH   5   7
ENDBRANCH   2   3
TORSDOF 5
ENDMDL
MODEL      180
REMARK 921   NORMALIZED FREE ENERGY PREDICTED BY IDOCK:   -4.30 KCAL/MOL
REMARK 922        TOTAL FREE ENERGY PREDICTED BY IDOCK:   -6.64 KCAL/MOL
REMARK 923 INTER-LIGAND FREE ENERGY PREDICTED BY IDOCK:   -5.88 KCAL/MOL
REMARK 924 INTRA-LIGAND FREE ENERGY PREDICTED BY IDOCK:   -0.76 KCAL/MOL
REMARK 927      BINDING AFFINITY PREDICTED BY RF-SCORE:    0.00 PKD
ROOT
HETATM    1  C   UNL     1      -7.890  15.590  67.864  1.00  0.00    -0.142 C  
HETATM    2  C   UNL     1      -8.562  15.900  69.188  1.00  0.00    -0.252 C  
ENDROOT
BRANCH   2   3
HETATM    3  C   UNL     1     -10.014  15.484  69.141  1.00  0.00    -0.246 C  
HETATM    4  O   UNL     1     -10.904  16.289  68.908  1.00  0.00    -0.276 OA 
HETATM    5  N   UNL     1     -10.239  14.112  69.303  1.00  0.00    -0.431 N  
HETATM    6  H   UNL     1      -9.421  13.517  69.436  1.00  0.00     0.000 HD 
BRANCH   5   7
HETATM    7  S   UNL     1     -11.726  13.371  69.297  1.00  0.00    -0.344 S  
HETATM    8  O   UNL     1     -12.448  13.950  70.416  1.00  0.00    -0.336 OA 
HETATM    9  O   UNL     1     -12.288  13.398  67.962  1.00  0.00    -0.199 OA 
BRANCH   7  10
HETATM   10  C   UNL     1     -11.332  11.696  69.731  1.00  0.00    -0.200 A  
HETATM   11  C   UNL     1     -10.058  11.194  69.469  1.00  0.00     0.105 A  
HETATM   12  C   UNL     1      -9.817   9.820  69.599  1.00  0.00    -0.241 A  
HETATM   13  C   UNL     1     -10.826   8.949  70.038  1.00  0.00    -0.239 A  
HETATM   14  C   UNL     1     -12.034   9.515  70.477  1.00  0.00    -0.197 A  
HETATM   15  C   UNL     1     -12.306  10.875  70.290  1.00  0.00    -0.412 A  
BRANCH  13  16
HETATM   16  C   UNL     1     -10.700   7.492  69.912  1.00  0.00    -0.254 A  
HETATM   17  C   UNL     1     -11.086   6.551  70.855  1.00  0.00    -0.292 A  
HETATM   18  C   UNL     1     -11.701   6.532  72.198  1.00  0.00    -0.353 C  
HETATM   19  O   UNL     1     -10.805   5.308  70.387  1.00  0.00    -0.213 OA 
HETATM   20  N   UNL     1     -10.210   5.384  69.161  1.00  0.00    -0.223 NA 
HETATM   21  C   UNL     1     -10.105   6.688  68.859  1.00  0.00    -0.165 A  
BRANCH  21  22
HETATM   22  C   UNL     1      -9.462   7.072  67.591  1.00  0.00    -0.134 A  
HETATM   23  C   UNL     1     -10.046   8.062  66.781  1.00  0.00    -0.357 A  
HETATM   24  C   UNL     1      -9.408   8.512  65.622  1.00  0.00    -0.122 A  
HETATM   25  C   UNL     1      -8.168   7.993  65.263  1.00  0.00    -0.148 A  
HETATM   26  C   UNL     1      -7.596   6.978  66.027  1.00  0.00    -0.096 A  
HETATM   27  C   UNL     1      -8.261   6.494  67.158  1.00  0.00    -0.113 A  
ENDBRANCH  21  22
ENDBRANCH  13  16
ENDBRANCH   7  10
ENDBRANCH   5   7
ENDBRANCH   2   3
TORSDOF 5
ENDMDL
MODEL      181
REMARK 921   NORMALIZED FREE ENERGY PREDICTED BY IDOCK:   -4.28 KCAL/MOL
REMARK 922        TOTAL FREE ENERGY PREDICTED BY IDOCK:   -6.62 KCAL/MOL
REMARK 923 INTER-LIGAND FREE ENERGY PREDICTED BY IDOCK:   -5.63 KCAL/MOL
REMARK 924 INTRA-LIGAND FREE ENERGY PREDICTED BY IDOCK:   -0.98 KCAL/MOL
REMARK 927      BINDING AFFINITY PREDICTED BY RF-SCORE:    0.00 PKD
ROOT
HETATM    1  C   UNL     1      -7.661   8.760  71.445  1.00  0.00    -0.131 C  
HETATM    2  C   UNL     1      -6.681   7.948  70.619  1.00  0.00    -0.038 C  
ENDROOT
BRANCH   2   3
HETATM    3  C   UNL     1      -6.990   8.108  69.148  1.00  0.00    -0.060 C  
HETATM    4  O   UNL     1      -6.220   8.679  68.390  1.00  0.00    -0.052 OA 
HETATM    5  N   UNL     1      -8.171   7.487  68.722  1.00  0.00    -0.127 N  
HETATM    6  H   UNL     1      -8.714   6.987  69.426  1.00  0.00     0.000 HD 
BRANCH   5   7
HETATM    7  S   UNL     1      -8.761   7.497  67.170  1.00  0.00    -0.123 S  
HETATM    8  O   UNL     1      -7.609   7.256  66.319  1.00  0.00    -0.087 OA 
HETATM    9  O   UNL     1      -9.934   6.650  67.081  1.00  0.00    -0.138 OA 
BRANCH   7  10
HETATM   10  C   UNL     1      -9.244   9.188  66.943  1.00  0.00    -0.148 A  
HETATM   11  C   UNL     1     -10.268   9.727  67.720  1.00  0.00    -0.254 A  
HETATM   12  C   UNL     1     -10.800  10.980  67.388  1.00  0.00    -0.327 A  
HETATM   13  C   UNL     1     -10.282  11.724  66.317  1.00  0.00    -0.255 A  
HETATM   14  C   UNL     1      -9.127  11.238  65.682  1.00  0.00    -0.203 A  
HETATM   15  C   UNL     1      -8.629   9.961  65.962  1.00  0.00    -0.147 A  
BRANCH  13  16
HETATM   16  C   UNL     1     -10.989  12.888  65.769  1.00  0.00    -0.303 A  
HETATM   17  C   UNL     1     -12.060  12.857  64.889  1.00  0.00    -0.432 A  
HETATM   18  C   UNL     1     -12.878  11.843  64.192  1.00  0.00    -0.199 C  
HETATM   19  O   UNL     1     -12.440  14.128  64.603  1.00  0.00    -0.577 OA 
HETATM   20  N   UNL     1     -11.633  15.023  65.244  1.00  0.00    -0.302 NA 
HETATM   21  C   UNL     1     -10.729  14.307  65.933  1.00  0.00    -0.303 A  
BRANCH  21  22
HETATM   22  C   UNL     1      -9.697  15.022  66.703  1.00  0.00    -0.273 A  
HETATM   23  C   UNL     1      -9.369  14.592  68.000  1.00  0.00    -0.201 A  
HETATM   24  C   UNL     1      -8.328  15.193  68.716  1.00  0.00    -0.175 A  
HETATM   25  C   UNL     1      -7.590  16.222  68.138  1.00  0.00    -0.151 A  
HETATM   26  C   UNL     1      -7.932  16.693  66.874  1.00  0.00    -0.255 A  
HETATM   27  C   UNL     1      -9.006  16.124  66.182  1.00  0.00    -0.372 A  
ENDBRANCH  21  22
ENDBRANCH  13  16
ENDBRANCH   7  10
ENDBRANCH   5   7
ENDBRANCH   2   3
TORSDOF 5
ENDMDL
MODEL      182
REMARK 921   NORMALIZED FREE ENERGY PREDICTED BY IDOCK:   -4.27 KCAL/MOL
REMARK 922        TOTAL FREE ENERGY PREDICTED BY IDOCK:   -6.60 KCAL/MOL
REMARK 923 INTER-LIGAND FREE ENERGY PREDICTED BY IDOCK:   -5.49 KCAL/MOL
REMARK 924 INTRA-LIGAND FREE ENERGY PREDICTED BY IDOCK:   -1.11 KCAL/MOL
REMARK 927      BINDING AFFINITY PREDICTED BY RF-SCORE:    0.00 PKD
ROOT
HETATM    1  C   UNL     1      -5.202   4.056  68.817  1.00  0.00    -0.011 C  
HETATM    2  C   UNL     1      -5.858   4.871  67.719  1.00  0.00    -0.022 C  
ENDROOT
BRANCH   2   3
HETATM    3  C   UNL     1      -7.228   5.330  68.164  1.00  0.00    -0.071 C  
HETATM    4  O   UNL     1      -7.387   5.964  69.197  1.00  0.00    -0.079 OA 
HETATM    5  N   UNL     1      -8.266   5.041  67.269  1.00  0.00    -0.107 N  
HETATM    6  H   UNL     1      -8.017   4.557  66.407  1.00  0.00     0.000 HD 
BRANCH   5   7
HETATM    7  S   UNL     1      -9.867   5.422  67.493  1.00  0.00    -0.162 S  
HETATM    8  O   UNL     1     -10.551   4.912  66.318  1.00  0.00    -0.306 OA 
HETATM    9  O   UNL     1     -10.289   5.027  68.822  1.00  0.00    -0.139 OA 
BRANCH   7  10
HETATM   10  C   UNL     1      -9.870   7.192  67.381  1.00  0.00    -0.155 A  
HETATM   11  C   UNL     1      -9.367   7.815  66.240  1.00  0.00    -0.210 A  
HETATM   12  C   UNL     1      -9.160   9.201  66.244  1.00  0.00    -0.222 A  
HETATM   13  C   UNL     1      -9.499   9.978  67.362  1.00  0.00    -0.176 A  
HETATM   14  C   UNL     1     -10.181   9.346  68.415  1.00  0.00    -0.224 A  
HETATM   15  C   UNL     1     -10.334   7.956  68.448  1.00  0.00    -0.235 A  
BRANCH  13  16
HETATM   16  C   UNL     1      -9.038  11.363  67.510  1.00  0.00    -0.157 A  
HETATM   17  C   UNL     1      -8.061  11.813  68.386  1.00  0.00    -0.150 A  
HETATM   18  C   UNL     1      -7.161  11.245  69.410  1.00  0.00    -0.090 C  
HETATM   19  O   UNL     1      -7.913  13.154  68.241  1.00  0.00    -0.136 OA 
HETATM   20  N   UNL     1      -8.789  13.632  67.308  1.00  0.00    -0.214 NA 
HETATM   21  C   UNL     1      -9.502  12.582  66.870  1.00  0.00    -0.219 A  
BRANCH  21  22
HETATM   22  C   UNL     1     -10.558  12.810  65.870  1.00  0.00    -0.295 A  
HETATM   23  C   UNL     1     -11.662  13.620  66.190  1.00  0.00    -0.391 A  
HETATM   24  C   UNL     1     -12.629  13.931  65.229  1.00  0.00    -0.508 A  
HETATM   25  C   UNL     1     -12.498  13.451  63.929  1.00  0.00    -0.313 A  
HETATM   26  C   UNL     1     -11.437  12.608  63.607  1.00  0.00    -0.563 A  
HETATM   27  C   UNL     1     -10.500  12.258  64.583  1.00  0.00    -0.334 A  
ENDBRANCH  21  22
ENDBRANCH  13  16
ENDBRANCH   7  10
ENDBRANCH   5   7
ENDBRANCH   2   3
TORSDOF 5
ENDMDL
MODEL      183
REMARK 921   NORMALIZED FREE ENERGY PREDICTED BY IDOCK:   -4.26 KCAL/MOL
REMARK 922        TOTAL FREE ENERGY PREDICTED BY IDOCK:   -6.59 KCAL/MOL
REMARK 923 INTER-LIGAND FREE ENERGY PREDICTED BY IDOCK:   -5.61 KCAL/MOL
REMARK 924 INTRA-LIGAND FREE ENERGY PREDICTED BY IDOCK:   -0.98 KCAL/MOL
REMARK 927      BINDING AFFINITY PREDICTED BY RF-SCORE:    0.00 PKD
ROOT
HETATM    1  C   UNL     1     -12.781  10.946  70.959  1.00  0.00    -0.505 C  
HETATM    2  C   UNL     1     -11.885  10.239  69.960  1.00  0.00    -0.305 C  
ENDROOT
BRANCH   2   3
HETATM    3  C   UNL     1     -11.256  11.248  69.027  1.00  0.00    -0.258 C  
HETATM    4  O   UNL     1     -10.237  11.852  69.329  1.00  0.00     0.024 OA 
HETATM    5  N   UNL     1     -11.882  11.368  67.780  1.00  0.00    -0.195 N  
HETATM    6  H   UNL     1     -12.694  10.776  67.607  1.00  0.00     0.000 HD 
BRANCH   5   7
HETATM    7  S   UNL     1     -11.415  12.393  66.560  1.00  0.00    -0.380 S  
HETATM    8  O   UNL     1     -12.529  12.417  65.630  1.00  0.00    -0.640 OA 
HETATM    9  O   UNL     1     -10.894  13.624  67.119  1.00  0.00    -0.281 OA 
BRANCH   7  10
HETATM   10  C   UNL     1     -10.094  11.501  65.781  1.00  0.00    -0.237 A  
HETATM   11  C   UNL     1     -10.325  10.827  64.582  1.00  0.00    -0.394 A  
HETATM   12  C   UNL     1      -9.357   9.942  64.089  1.00  0.00    -0.295 A  
HETATM   13  C   UNL     1      -8.136   9.763  64.757  1.00  0.00    -0.146 A  
HETATM   14  C   UNL     1      -7.860  10.601  65.851  1.00  0.00    -0.150 A  
HETATM   15  C   UNL     1      -8.844  11.438  66.388  1.00  0.00    -0.193 A  
BRANCH  13  16
HETATM   16  C   UNL     1      -7.234   8.652  64.435  1.00  0.00    -0.097 A  
HETATM   17  C   UNL     1      -6.064   8.733  63.696  1.00  0.00    -0.077 A  
HETATM   18  C   UNL     1      -5.279   9.771  62.995  1.00  0.00    -0.080 C  
HETATM   19  O   UNL     1      -5.506   7.500  63.604  1.00  0.00    -0.039 OA 
HETATM   20  N   UNL     1      -6.285   6.575  64.238  1.00  0.00    -0.036 NA 
HETATM   21  C   UNL     1      -7.351   7.233  64.725  1.00  0.00    -0.081 A  
BRANCH  21  22
HETATM   22  C   UNL     1      -8.389   6.470  65.437  1.00  0.00    -0.140 A  
HETATM   23  C   UNL     1      -9.064   7.054  66.524  1.00  0.00    -0.183 A  
HETATM   24  C   UNL     1     -10.119   6.388  67.156  1.00  0.00    -0.217 A  
HETATM   25  C   UNL     1     -10.525   5.137  66.702  1.00  0.00    -0.328 A  
HETATM   26  C   UNL     1      -9.837   4.523  65.659  1.00  0.00    -0.227 A  
HETATM   27  C   UNL     1      -8.750   5.169  65.061  1.00  0.00    -0.148 A  
ENDBRANCH  21  22
ENDBRANCH  13  16
ENDBRANCH   7  10
ENDBRANCH   5   7
ENDBRANCH   2   3
TORSDOF 5
ENDMDL
MODEL      184
REMARK 921   NORMALIZED FREE ENERGY PREDICTED BY IDOCK:   -4.25 KCAL/MOL
REMARK 922        TOTAL FREE ENERGY PREDICTED BY IDOCK:   -6.57 KCAL/MOL
REMARK 923 INTER-LIGAND FREE ENERGY PREDICTED BY IDOCK:   -6.07 KCAL/MOL
REMARK 924 INTRA-LIGAND FREE ENERGY PREDICTED BY IDOCK:   -0.50 KCAL/MOL
REMARK 927      BINDING AFFINITY PREDICTED BY RF-SCORE:    0.00 PKD
ROOT
HETATM    1  C   UNL     1     -10.012   5.796  73.574  1.00  0.00    -0.186 C  
HETATM    2  C   UNL     1      -9.625   5.908  72.111  1.00  0.00    -0.164 C  
ENDROOT
BRANCH   2   3
HETATM    3  C   UNL     1      -8.562   6.968  71.938  1.00  0.00    -0.120 C  
HETATM    4  O   UNL     1      -7.913   7.386  72.886  1.00  0.00    -0.094 OA 
HETATM    5  N   UNL     1      -8.335   7.365  70.614  1.00  0.00    -0.126 N  
HETATM    6  H   UNL     1      -8.893   6.913  69.890  1.00  0.00     0.000 HD 
BRANCH   5   7
HETATM    7  S   UNL     1      -7.235   8.508  70.124  1.00  0.00    -0.053 S  
HETATM    8  O   UNL     1      -6.554   8.931  71.336  1.00  0.00    -0.071 OA 
HETATM    9  O   UNL     1      -6.482   8.016  68.989  1.00  0.00    -0.039 OA 
BRANCH   7  10
HETATM   10  C   UNL     1      -8.269   9.851  69.601  1.00  0.00    -0.171 A  
HETATM   11  C   UNL     1      -9.636   9.821  69.874  1.00  0.00    -0.269 A  
HETATM   12  C   UNL     1     -10.482  10.759  69.269  1.00  0.00    -0.243 A  
HETATM   13  C   UNL     1      -9.967  11.761  68.432  1.00  0.00    -0.202 A  
HETATM   14  C   UNL     1      -8.571  11.879  68.336  1.00  0.00    -0.152 A  
HETATM   15  C   UNL     1      -7.723  10.910  68.883  1.00  0.00    -0.135 A  
BRANCH  13  16
HETATM   16  C   UNL     1     -10.835  12.568  67.567  1.00  0.00    -0.264 A  
HETATM   17  C   UNL     1     -11.715  13.557  67.982  1.00  0.00    -0.359 A  
HETATM   18  C   UNL     1     -12.144  14.182  69.249  1.00  0.00    -0.364 C  
HETATM   19  O   UNL     1     -12.348  14.075  66.898  1.00  0.00    -0.418 OA 
HETATM   20  N   UNL     1     -11.941  13.441  65.760  1.00  0.00    -0.383 NA 
HETATM   21  C   UNL     1     -11.050  12.506  66.132  1.00  0.00    -0.298 A  
BRANCH  21  22
HETATM   22  C   UNL     1     -10.463  11.637  65.099  1.00  0.00    -0.329 A  
HETATM   23  C   UNL     1     -10.471  12.044  63.754  1.00  0.00    -0.469 A  
HETATM   24  C   UNL     1      -9.835  11.283  62.768  1.00  0.00    -0.241 A  
HETATM   25  C   UNL     1      -9.168  10.112  63.115  1.00  0.00    -0.316 A  
HETATM   26  C   UNL     1      -9.191   9.668  64.434  1.00  0.00    -0.258 A  
HETATM   27  C   UNL     1      -9.870  10.405  65.409  1.00  0.00    -0.347 A  
ENDBRANCH  21  22
ENDBRANCH  13  16
ENDBRANCH   7  10
ENDBRANCH   5   7
ENDBRANCH   2   3
TORSDOF 5
ENDMDL
MODEL      185
REMARK 921   NORMALIZED FREE ENERGY PREDICTED BY IDOCK:   -4.24 KCAL/MOL
REMARK 922        TOTAL FREE ENERGY PREDICTED BY IDOCK:   -6.57 KCAL/MOL
REMARK 923 INTER-LIGAND FREE ENERGY PREDICTED BY IDOCK:   -5.97 KCAL/MOL
REMARK 924 INTRA-LIGAND FREE ENERGY PREDICTED BY IDOCK:   -0.60 KCAL/MOL
REMARK 927      BINDING AFFINITY PREDICTED BY RF-SCORE:    0.00 PKD
ROOT
HETATM    1  C   UNL     1      -6.051  19.507  70.257  1.00  0.00    -0.264 C  
HETATM    2  C   UNL     1      -6.039  20.439  69.060  1.00  0.00    -0.376 C  
ENDROOT
BRANCH   2   3
HETATM    3  C   UNL     1      -7.057  19.984  68.041  1.00  0.00    -0.287 C  
HETATM    4  O   UNL     1      -7.954  20.721  67.657  1.00  0.00    -0.242 OA 
HETATM    5  N   UNL     1      -6.841  18.700  67.524  1.00  0.00    -0.204 N  
HETATM    6  H   UNL     1      -6.029  18.189  67.871  1.00  0.00     0.000 HD 
BRANCH   5   7
HETATM    7  S   UNL     1      -7.793  17.941  66.396  1.00  0.00    -0.266 S  
HETATM    8  O   UNL     1      -8.488  19.008  65.698  1.00  0.00    -0.339 OA 
HETATM    9  O   UNL     1      -7.012  16.967  65.662  1.00  0.00     0.313 OA 
BRANCH   7  10
HETATM   10  C   UNL     1      -8.990  17.096  67.396  1.00  0.00    -0.220 A  
HETATM   11  C   UNL     1      -8.646  16.673  68.679  1.00  0.00    -0.253 A  
HETATM   12  C   UNL     1      -9.505  15.813  69.377  1.00  0.00    -0.275 A  
HETATM   13  C   UNL     1     -10.731  15.413  68.824  1.00  0.00    -0.241 A  
HETATM   14  C   UNL     1     -11.130  16.011  67.617  1.00  0.00    -0.243 A  
HETATM   15  C   UNL     1     -10.253  16.818  66.884  1.00  0.00    -0.290 A  
BRANCH  13  16
HETATM   16  C   UNL     1     -11.510  14.305  69.389  1.00  0.00    -0.337 A  
HETATM   17  C   UNL     1     -12.541  14.414  70.310  1.00  0.00    -0.323 A  
HETATM   18  C   UNL     1     -13.245  15.484  71.047  1.00  0.00    -0.539 C  
HETATM   19  O   UNL     1     -13.014  13.176  70.601  1.00  0.00    -0.086 OA 
HETATM   20  N   UNL     1     -12.309  12.224  69.921  1.00  0.00    -0.120 NA 
HETATM   21  C   UNL     1     -11.375  12.871  69.204  1.00  0.00    -0.273 A  
BRANCH  21  22
HETATM   22  C   UNL     1     -10.436  12.082  68.389  1.00  0.00    -0.231 A  
HETATM   23  C   UNL     1      -9.451  12.735  67.627  1.00  0.00    -0.190 A  
HETATM   24  C   UNL     1      -8.489  12.007  66.920  1.00  0.00    -0.172 A  
HETATM   25  C   UNL     1      -8.486  10.616  66.978  1.00  0.00    -0.129 A  
HETATM   26  C   UNL     1      -9.483   9.952  67.688  1.00  0.00    -0.167 A  
HETATM   27  C   UNL     1     -10.474  10.681  68.352  1.00  0.00    -0.212 A  
ENDBRANCH  21  22
ENDBRANCH  13  16
ENDBRANCH   7  10
ENDBRANCH   5   7
ENDBRANCH   2   3
TORSDOF 5
ENDMDL
MODEL      186
REMARK 921   NORMALIZED FREE ENERGY PREDICTED BY IDOCK:   -4.20 KCAL/MOL
REMARK 922        TOTAL FREE ENERGY PREDICTED BY IDOCK:   -6.52 KCAL/MOL
REMARK 923 INTER-LIGAND FREE ENERGY PREDICTED BY IDOCK:   -5.25 KCAL/MOL
REMARK 924 INTRA-LIGAND FREE ENERGY PREDICTED BY IDOCK:   -1.27 KCAL/MOL
REMARK 927      BINDING AFFINITY PREDICTED BY RF-SCORE:    0.00 PKD
ROOT
HETATM    1  C   UNL     1      -5.799   8.422  72.450  1.00  0.00    -0.057 C  
HETATM    2  C   UNL     1      -6.741   8.243  73.626  1.00  0.00    -0.145 C  
ENDROOT
BRANCH   2   3
HETATM    3  C   UNL     1      -8.153   8.032  73.128  1.00  0.00    -0.176 C  
HETATM    4  O   UNL     1      -8.597   8.658  72.177  1.00  0.00    -0.278 OA 
HETATM    5  N   UNL     1      -8.865   7.023  73.787  1.00  0.00    -0.153 N  
HETATM    6  H   UNL     1      -8.383   6.521  74.532  1.00  0.00     0.000 HD 
BRANCH   5   7
HETATM    7  S   UNL     1     -10.430   6.573  73.457  1.00  0.00    -0.308 S  
HETATM    8  O   UNL     1     -10.704   5.457  74.344  1.00  0.00    -0.280 OA 
HETATM    9  O   UNL     1     -11.290   7.739  73.451  1.00  0.00    -0.287 OA 
BRANCH   7  10
HETATM   10  C   UNL     1     -10.314   5.924  71.810  1.00  0.00    -0.216 A  
HETATM   11  C   UNL     1      -9.317   5.001  71.498  1.00  0.00    -0.191 A  
HETATM   12  C   UNL     1      -9.083   4.664  70.158  1.00  0.00    -0.154 A  
HETATM   13  C   UNL     1      -9.871   5.204  69.130  1.00  0.00    -0.257 A  
HETATM   14  C   UNL     1     -10.986   5.976  69.497  1.00  0.00    -0.467 A  
HETATM   15  C   UNL     1     -11.189   6.369  70.824  1.00  0.00    -0.386 A  
BRANCH  13  16
HETATM   16  C   UNL     1      -9.478   5.102  67.720  1.00  0.00    -0.150 A  
HETATM   17  C   UNL     1      -9.305   3.930  66.999  1.00  0.00    -0.190 A  
HETATM   18  C   UNL     1      -9.407   2.474  67.231  1.00  0.00    -0.115 C  
HETATM   19  O   UNL     1      -8.934   4.236  65.730  1.00  0.00    -0.121 OA 
HETATM   20  N   UNL     1      -8.823   5.588  65.578  1.00  0.00    -0.154 NA 
HETATM   21  C   UNL     1      -9.115   6.138  66.769  1.00  0.00    -0.133 A  
BRANCH  21  22
HETATM   22  C   UNL     1      -9.042   7.602  66.909  1.00  0.00    -0.171 A  
HETATM   23  C   UNL     1      -8.163   8.172  67.847  1.00  0.00    -0.129 A  
HETATM   24  C   UNL     1      -8.004   9.558  67.934  1.00  0.00    -0.098 A  
HETATM   25  C   UNL     1      -8.709  10.395  67.074  1.00  0.00    -0.132 A  
HETATM   26  C   UNL     1      -9.620   9.851  66.173  1.00  0.00    -0.275 A  
HETATM   27  C   UNL     1      -9.814   8.468  66.123  1.00  0.00    -0.227 A  
ENDBRANCH  21  22
ENDBRANCH  13  16
ENDBRANCH   7  10
ENDBRANCH   5   7
ENDBRANCH   2   3
TORSDOF 5
ENDMDL
MODEL      187
REMARK 921   NORMALIZED FREE ENERGY PREDICTED BY IDOCK:   -4.20 KCAL/MOL
REMARK 922        TOTAL FREE ENERGY PREDICTED BY IDOCK:   -6.51 KCAL/MOL
REMARK 923 INTER-LIGAND FREE ENERGY PREDICTED BY IDOCK:   -5.91 KCAL/MOL
REMARK 924 INTRA-LIGAND FREE ENERGY PREDICTED BY IDOCK:   -0.60 KCAL/MOL
REMARK 927      BINDING AFFINITY PREDICTED BY RF-SCORE:    0.00 PKD
ROOT
HETATM    1  C   UNL     1      -6.160  10.234  63.132  1.00  0.00    -0.145 C  
HETATM    2  C   UNL     1      -7.562  10.351  62.565  1.00  0.00    -0.158 C  
ENDROOT
BRANCH   2   3
HETATM    3  C   UNL     1      -8.580  10.231  63.675  1.00  0.00    -0.195 C  
HETATM    4  O   UNL     1      -9.773  10.402  63.472  1.00  0.00    -0.307 OA 
HETATM    5  N   UNL     1      -8.058   9.836  64.913  1.00  0.00    -0.133 N  
HETATM    6  H   UNL     1      -7.054   9.664  64.963  1.00  0.00     0.000 HD 
BRANCH   5   7
HETATM    7  S   UNL     1      -8.935   9.625  66.307  1.00  0.00    -0.162 S  
HETATM    8  O   UNL     1     -10.206   9.065  65.881  1.00  0.00    -0.165 OA 
HETATM    9  O   UNL     1      -8.129   8.948  67.303  1.00  0.00    -0.103 OA 
BRANCH   7  10
HETATM   10  C   UNL     1      -9.241  11.290  66.836  1.00  0.00    -0.175 A  
HETATM   11  C   UNL     1      -8.345  11.919  67.699  1.00  0.00    -0.152 A  
HETATM   12  C   UNL     1      -8.698  13.137  68.294  1.00  0.00    -0.165 A  
HETATM   13  C   UNL     1      -9.919  13.760  67.994  1.00  0.00    -0.246 A  
HETATM   14  C   UNL     1     -10.707  13.197  66.976  1.00  0.00    -0.270 A  
HETATM   15  C   UNL     1     -10.395  11.949  66.425  1.00  0.00    -0.252 A  
BRANCH  13  16
HETATM   16  C   UNL     1     -10.441  14.869  68.800  1.00  0.00    -0.242 A  
HETATM   17  C   UNL     1     -11.495  14.805  69.698  1.00  0.00    -0.292 A  
HETATM   18  C   UNL     1     -12.442  13.792  70.207  1.00  0.00    -0.357 C  
HETATM   19  O   UNL     1     -11.691  16.031  70.247  1.00  0.00    -0.338 OA 
HETATM   20  N   UNL     1     -10.813  16.935  69.720  1.00  0.00    -0.183 NA 
HETATM   21  C   UNL     1     -10.065  16.272  68.822  1.00  0.00    -0.243 A  
BRANCH  21  22
HETATM   22  C   UNL     1      -9.044  17.016  68.065  1.00  0.00    -0.237 A  
HETATM   23  C   UNL     1      -8.386  16.399  66.986  1.00  0.00    -0.230 A  
HETATM   24  C   UNL     1      -7.482  17.113  66.192  1.00  0.00    -0.295 A  
HETATM   25  C   UNL     1      -7.236  18.457  66.454  1.00  0.00    -0.276 A  
HETATM   26  C   UNL     1      -7.843  19.071  67.547  1.00  0.00    -0.263 A  
HETATM   27  C   UNL     1      -8.706  18.341  68.369  1.00  0.00    -0.325 A  
ENDBRANCH  21  22
ENDBRANCH  13  16
ENDBRANCH   7  10
ENDBRANCH   5   7
ENDBRANCH   2   3
TORSDOF 5
ENDMDL
MODEL      188
REMARK 921   NORMALIZED FREE ENERGY PREDICTED BY IDOCK:   -4.19 KCAL/MOL
REMARK 922        TOTAL FREE ENERGY PREDICTED BY IDOCK:   -6.50 KCAL/MOL
REMARK 923 INTER-LIGAND FREE ENERGY PREDICTED BY IDOCK:   -5.49 KCAL/MOL
REMARK 924 INTRA-LIGAND FREE ENERGY PREDICTED BY IDOCK:   -1.01 KCAL/MOL
REMARK 927      BINDING AFFINITY PREDICTED BY RF-SCORE:    0.00 PKD
ROOT
HETATM    1  C   UNL     1     -10.782   3.693  63.998  1.00  0.00    -0.250 C  
HETATM    2  C   UNL     1      -9.466   2.939  63.966  1.00  0.00    -0.129 C  
ENDROOT
BRANCH   2   3
HETATM    3  C   UNL     1      -8.717   3.152  65.261  1.00  0.00    -0.117 C  
HETATM    4  O   UNL     1      -7.634   3.718  65.289  1.00  0.00    -0.079 OA 
HETATM    5  N   UNL     1      -9.393   2.726  66.410  1.00  0.00    -0.357 N  
HETATM    6  H   UNL     1     -10.318   2.316  66.282  1.00  0.00     0.000 HD 
BRANCH   5   7
HETATM    7  S   UNL     1      -8.817   2.831  67.964  1.00  0.00    -0.152 S  
HETATM    8  O   UNL     1      -9.733   2.041  68.768  1.00  0.00    -0.106 OA 
HETATM    9  O   UNL     1      -7.394   2.558  67.985  1.00  0.00    -0.048 OA 
BRANCH   7  10
HETATM   10  C   UNL     1      -9.090   4.536  68.371  1.00  0.00    -0.124 A  
HETATM   11  C   UNL     1     -10.281   5.156  67.994  1.00  0.00    -0.178 A  
HETATM   12  C   UNL     1     -10.402   6.547  68.110  1.00  0.00    -0.223 A  
HETATM   13  C   UNL     1      -9.362   7.320  68.649  1.00  0.00    -0.138 A  
HETATM   14  C   UNL     1      -8.260   6.642  69.195  1.00  0.00    -0.120 A  
HETATM   15  C   UNL     1      -8.101   5.262  69.026  1.00  0.00    -0.086 A  
BRANCH  13  16
HETATM   16  C   UNL     1      -9.338   8.781  68.522  1.00  0.00    -0.142 A  
HETATM   17  C   UNL     1      -8.474   9.521  67.730  1.00  0.00    -0.119 A  
HETATM   18  C   UNL     1      -7.359   9.272  66.792  1.00  0.00    -0.086 C  
HETATM   19  O   UNL     1      -8.750  10.842  67.879  1.00  0.00    -0.126 OA 
HETATM   20  N   UNL     1      -9.762  11.019  68.778  1.00  0.00    -0.194 NA 
HETATM   21  C   UNL     1     -10.119   9.797  69.207  1.00  0.00    -0.198 A  
BRANCH  21  22
HETATM   22  C   UNL     1     -11.181   9.684  70.221  1.00  0.00    -0.324 A  
HETATM   23  C   UNL     1     -11.136   8.648  71.169  1.00  0.00    -0.324 A  
HETATM   24  C   UNL     1     -12.078   8.574  72.200  1.00  0.00    -0.449 A  
HETATM   25  C   UNL     1     -13.069   9.545  72.308  1.00  0.00    -0.492 A  
HETATM   26  C   UNL     1     -13.159  10.551  71.349  1.00  0.00    -0.509 A  
HETATM   27  C   UNL     1     -12.246  10.593  70.291  1.00  0.00    -0.417 A  
ENDBRANCH  21  22
ENDBRANCH  13  16
ENDBRANCH   7  10
ENDBRANCH   5   7
ENDBRANCH   2   3
TORSDOF 5
ENDMDL
MODEL      189
REMARK 921   NORMALIZED FREE ENERGY PREDICTED BY IDOCK:   -4.19 KCAL/MOL
REMARK 922        TOTAL FREE ENERGY PREDICTED BY IDOCK:   -6.50 KCAL/MOL
REMARK 923 INTER-LIGAND FREE ENERGY PREDICTED BY IDOCK:   -5.79 KCAL/MOL
REMARK 924 INTRA-LIGAND FREE ENERGY PREDICTED BY IDOCK:   -0.71 KCAL/MOL
REMARK 927      BINDING AFFINITY PREDICTED BY RF-SCORE:    0.00 PKD
ROOT
HETATM    1  C   UNL     1     -11.969  14.661  64.257  1.00  0.00    -0.406 C  
HETATM    2  C   UNL     1     -11.115  15.871  64.586  1.00  0.00    -0.368 C  
ENDROOT
BRANCH   2   3
HETATM    3  C   UNL     1     -10.806  15.898  66.065  1.00  0.00    -0.225 C  
HETATM    4  O   UNL     1     -10.398  16.910  66.616  1.00  0.00    -0.306 OA 
HETATM    5  N   UNL     1     -11.099  14.713  66.751  1.00  0.00    -0.328 N  
HETATM    6  H   UNL     1     -11.490  13.944  66.207  1.00  0.00     0.000 HD 
BRANCH   5   7
HETATM    7  S   UNL     1     -10.863  14.453  68.374  1.00  0.00    -0.256 S  
HETATM    8  O   UNL     1      -9.565  15.031  68.672  1.00  0.00    -0.204 OA 
HETATM    9  O   UNL     1     -12.039  14.860  69.117  1.00  0.00    -0.291 OA 
BRANCH   7  10
HETATM   10  C   UNL     1     -10.693  12.691  68.470  1.00  0.00    -0.248 A  
HETATM   11  C   UNL     1     -11.806  11.901  68.754  1.00  0.00    -0.371 A  
HETATM   12  C   UNL     1     -11.631  10.543  69.054  1.00  0.00    -0.278 A  
HETATM   13  C   UNL     1     -10.358   9.954  69.021  1.00  0.00    -0.224 A  
HETATM   14  C   UNL     1      -9.290  10.732  68.543  1.00  0.00    -0.174 A  
HETATM   15  C   UNL     1      -9.442  12.103  68.304  1.00  0.00    -0.204 A  
BRANCH  13  16
HETATM   16  C   UNL     1     -10.102   8.630  69.599  1.00  0.00    -0.201 A  
HETATM   17  C   UNL     1     -10.609   8.146  70.796  1.00  0.00    -0.214 A  
HETATM   18  C   UNL     1     -11.490   8.617  71.884  1.00  0.00    -0.419 C  
HETATM   19  O   UNL     1     -10.146   6.887  71.000  1.00  0.00    -0.193 OA 
HETATM   20  N   UNL     1      -9.313   6.514  69.985  1.00  0.00    -0.157 NA 
HETATM   21  C   UNL     1      -9.242   7.555  69.138  1.00  0.00    -0.144 A  
BRANCH  21  22
HETATM   22  C   UNL     1      -8.376   7.445  67.953  1.00  0.00    -0.119 A  
HETATM   23  C   UNL     1      -6.988   7.287  68.112  1.00  0.00    -0.076 A  
HETATM   24  C   UNL     1      -6.156   7.085  67.006  1.00  0.00    -0.036 A  
HETATM   25  C   UNL     1      -6.700   7.021  65.727  1.00  0.00    -0.052 A  
HETATM   26  C   UNL     1      -8.066   7.223  65.546  1.00  0.00    -0.132 A  
HETATM   27  C   UNL     1      -8.888   7.476  66.649  1.00  0.00    -0.162 A  
ENDBRANCH  21  22
ENDBRANCH  13  16
ENDBRANCH   7  10
ENDBRANCH   5   7
ENDBRANCH   2   3
TORSDOF 5
ENDMDL
MODEL      190
REMARK 921   NORMALIZED FREE ENERGY PREDICTED BY IDOCK:   -4.18 KCAL/MOL
REMARK 922        TOTAL FREE ENERGY PREDICTED BY IDOCK:   -6.49 KCAL/MOL
REMARK 923 INTER-LIGAND FREE ENERGY PREDICTED BY IDOCK:   -6.04 KCAL/MOL
REMARK 924 INTRA-LIGAND FREE ENERGY PREDICTED BY IDOCK:   -0.45 KCAL/MOL
REMARK 927      BINDING AFFINITY PREDICTED BY RF-SCORE:    0.00 PKD
ROOT
HETATM    1  C   UNL     1      -5.523  16.036  70.052  1.00  0.00    -0.153 C  
HETATM    2  C   UNL     1      -5.843  17.513  70.184  1.00  0.00    -0.189 C  
ENDROOT
BRANCH   2   3
HETATM    3  C   UNL     1      -6.649  17.974  68.991  1.00  0.00    -0.251 C  
HETATM    4  O   UNL     1      -6.109  18.369  67.967  1.00  0.00    -0.181 OA 
HETATM    5  N   UNL     1      -8.036  17.838  69.128  1.00  0.00    -0.048 N  
HETATM    6  H   UNL     1      -8.382  17.445  70.003  1.00  0.00     0.000 HD 
BRANCH   5   7
HETATM    7  S   UNL     1      -9.164  18.262  67.986  1.00  0.00    -0.298 S  
HETATM    8  O   UNL     1     -10.409  18.422  68.717  1.00  0.00    -0.349 OA 
HETATM    9  O   UNL     1      -8.653  19.335  67.158  1.00  0.00    -0.277 OA 
BRANCH   7  10
HETATM   10  C   UNL     1      -9.309  16.789  67.009  1.00  0.00    -0.233 A  
HETATM   11  C   UNL     1     -10.247  16.729  65.979  1.00  0.00    -0.361 A  
HETATM   12  C   UNL     1     -10.518  15.501  65.363  1.00  0.00    -0.429 A  
HETATM   13  C   UNL     1      -9.823  14.339  65.731  1.00  0.00    -0.314 A  
HETATM   14  C   UNL     1      -8.754  14.474  66.632  1.00  0.00    -0.162 A  
HETATM   15  C   UNL     1      -8.518  15.681  67.299  1.00  0.00    -0.214 A  
BRANCH  13  16
HETATM   16  C   UNL     1     -10.273  13.004  65.319  1.00  0.00    -0.294 A  
HETATM   17  C   UNL     1     -11.295  12.723  64.426  1.00  0.00    -0.347 A  
HETATM   18  C   UNL     1     -12.261  13.470  63.593  1.00  0.00    -0.438 C  
HETATM   19  O   UNL     1     -11.425  11.378  64.302  1.00  0.00    -0.253 OA 
HETATM   20  N   UNL     1     -10.534  10.737  65.115  1.00  0.00    -0.265 NA 
HETATM   21  C   UNL     1      -9.845  11.689  65.765  1.00  0.00    -0.239 A  
BRANCH  21  22
HETATM   22  C   UNL     1      -8.825  11.282  66.745  1.00  0.00    -0.170 A  
HETATM   23  C   UNL     1      -9.156  11.211  68.110  1.00  0.00    -0.159 A  
HETATM   24  C   UNL     1      -8.235  10.735  69.049  1.00  0.00    -0.139 A  
HETATM   25  C   UNL     1      -6.976  10.308  68.636  1.00  0.00    -0.066 A  
HETATM   26  C   UNL     1      -6.615  10.417  67.296  1.00  0.00    -0.068 A  
HETATM   27  C   UNL     1      -7.520  10.940  66.367  1.00  0.00    -0.145 A  
ENDBRANCH  21  22
ENDBRANCH  13  16
ENDBRANCH   7  10
ENDBRANCH   5   7
ENDBRANCH   2   3
TORSDOF 5
ENDMDL
MODEL      191
REMARK 921   NORMALIZED FREE ENERGY PREDICTED BY IDOCK:   -4.14 KCAL/MOL
REMARK 922        TOTAL FREE ENERGY PREDICTED BY IDOCK:   -6.43 KCAL/MOL
REMARK 923 INTER-LIGAND FREE ENERGY PREDICTED BY IDOCK:   -5.49 KCAL/MOL
REMARK 924 INTRA-LIGAND FREE ENERGY PREDICTED BY IDOCK:   -0.94 KCAL/MOL
REMARK 927      BINDING AFFINITY PREDICTED BY RF-SCORE:    0.00 PKD
ROOT
HETATM    1  C   UNL     1      -7.219  17.750  65.882  1.00  0.00    -0.260 C  
HETATM    2  C   UNL     1      -7.815  16.966  67.036  1.00  0.00    -0.232 C  
ENDROOT
BRANCH   2   3
HETATM    3  C   UNL     1      -9.157  16.398  66.637  1.00  0.00    -0.250 C  
HETATM    4  O   UNL     1     -10.114  17.121  66.399  1.00  0.00    -0.296 OA 
HETATM    5  N   UNL     1      -9.187  15.006  66.487  1.00  0.00    -0.274 N  
HETATM    6  H   UNL     1      -8.318  14.500  66.655  1.00  0.00     0.000 HD 
BRANCH   5   7
HETATM    7  S   UNL     1     -10.518  14.110  66.059  1.00  0.00    -0.314 S  
HETATM    8  O   UNL     1     -11.568  14.519  66.975  1.00  0.00    -0.359 OA 
HETATM    9  O   UNL     1     -10.722  14.178  64.626  1.00  0.00    -0.416 OA 
BRANCH   7  10
HETATM   10  C   UNL     1     -10.042  12.460  66.503  1.00  0.00    -0.232 A  
HETATM   11  C   UNL     1     -10.808  11.378  66.073  1.00  0.00    -0.306 A  
HETATM   12  C   UNL     1     -10.567  10.105  66.607  1.00  0.00    -0.214 A  
HETATM   13  C   UNL     1      -9.531   9.894  67.530  1.00  0.00    -0.173 A  
HETATM   14  C   UNL     1      -8.659  10.964  67.790  1.00  0.00    -0.128 A  
HETATM   15  C   UNL     1      -8.930  12.252  67.313  1.00  0.00    -0.187 A  
BRANCH  13  16
HETATM   16  C   UNL     1      -9.434   8.658  68.315  1.00  0.00    -0.150 A  
HETATM   17  C   UNL     1      -9.619   8.540  69.684  1.00  0.00    -0.170 A  
HETATM   18  C   UNL     1      -9.948   9.418  70.826  1.00  0.00    -0.358 C  
HETATM   19  O   UNL     1      -9.441   7.245  70.049  1.00  0.00    -0.161 OA 
HETATM   20  N   UNL     1      -9.108   6.485  68.965  1.00  0.00    -0.132 NA 
HETATM   21  C   UNL     1      -9.066   7.313  67.908  1.00  0.00    -0.132 A  
BRANCH  21  22
HETATM   22  C   UNL     1      -8.695   6.764  66.593  1.00  0.00    -0.128 A  
HETATM   23  C   UNL     1      -9.073   5.455  66.249  1.00  0.00    -0.144 A  
HETATM   24  C   UNL     1      -8.817   4.944  64.973  1.00  0.00    -0.154 A  
HETATM   25  C   UNL     1      -8.194   5.740  64.016  1.00  0.00    -0.084 A  
HETATM   26  C   UNL     1      -7.770   7.022  64.354  1.00  0.00    -0.113 A  
HETATM   27  C   UNL     1      -7.982   7.512  65.646  1.00  0.00    -0.117 A  
ENDBRANCH  21  22
ENDBRANCH  13  16
ENDBRANCH   7  10
ENDBRANCH   5   7
ENDBRANCH   2   3
TORSDOF 5
ENDMDL
MODEL      192
REMARK 921   NORMALIZED FREE ENERGY PREDICTED BY IDOCK:   -4.09 KCAL/MOL
REMARK 922        TOTAL FREE ENERGY PREDICTED BY IDOCK:   -6.36 KCAL/MOL
REMARK 923 INTER-LIGAND FREE ENERGY PREDICTED BY IDOCK:   -5.14 KCAL/MOL
REMARK 924 INTRA-LIGAND FREE ENERGY PREDICTED BY IDOCK:   -1.23 KCAL/MOL
REMARK 927      BINDING AFFINITY PREDICTED BY RF-SCORE:    0.00 PKD
ROOT
HETATM    1  C   UNL     1      -5.520   8.329  71.224  1.00  0.00    -0.033 C  
HETATM    2  C   UNL     1      -6.746   7.455  71.413  1.00  0.00    -0.050 C  
ENDROOT
BRANCH   2   3
HETATM    3  C   UNL     1      -8.000   8.271  71.199  1.00  0.00    -0.102 C  
HETATM    4  O   UNL     1      -7.959   9.484  71.058  1.00  0.00    -0.321 OA 
HETATM    5  N   UNL     1      -9.179   7.523  71.098  1.00  0.00    -0.147 N  
HETATM    6  H   UNL     1      -9.097   6.509  71.173  1.00  0.00     0.000 HD 
BRANCH   5   7
HETATM    7  S   UNL     1     -10.701   8.147  70.864  1.00  0.00    -0.226 S  
HETATM    8  O   UNL     1     -11.598   7.007  70.931  1.00  0.00    -0.294 OA 
HETATM    9  O   UNL     1     -10.902   9.295  71.724  1.00  0.00    -0.368 OA 
BRANCH   7  10
HETATM   10  C   UNL     1     -10.651   8.683  69.175  1.00  0.00    -0.178 A  
HETATM   11  C   UNL     1     -10.565   7.741  68.150  1.00  0.00    -0.182 A  
HETATM   12  C   UNL     1     -10.298   8.166  66.842  1.00  0.00    -0.401 A  
HETATM   13  C   UNL     1     -10.167   9.529  66.538  1.00  0.00    -0.307 A  
HETATM   14  C   UNL     1     -10.451  10.456  67.555  1.00  0.00    -0.292 A  
HETATM   15  C   UNL     1     -10.655  10.042  68.876  1.00  0.00    -0.239 A  
BRANCH  13  16
HETATM   16  C   UNL     1      -9.611   9.987  65.260  1.00  0.00    -0.355 A  
HETATM   17  C   UNL     1     -10.192  10.901  64.394  1.00  0.00    -0.358 A  
HETATM   18  C   UNL     1     -11.419  11.721  64.325  1.00  0.00    -0.386 C  
HETATM   19  O   UNL     1      -9.387  11.067  63.313  1.00  0.00    -0.252 OA 
HETATM   20  N   UNL     1      -8.287  10.264  63.410  1.00  0.00    -0.164 NA 
HETATM   21  C   UNL     1      -8.406   9.578  64.559  1.00  0.00    -0.164 A  
BRANCH  21  22
HETATM   22  C   UNL     1      -7.364   8.598  64.910  1.00  0.00    -0.090 A  
HETATM   23  C   UNL     1      -6.313   8.972  65.766  1.00  0.00    -0.060 A  
HETATM   24  C   UNL     1      -5.365   8.036  66.191  1.00  0.00    -0.025 A  
HETATM   25  C   UNL     1      -5.463   6.710  65.780  1.00  0.00    -0.021 A  
HETATM   26  C   UNL     1      -6.469   6.333  64.894  1.00  0.00    -0.038 A  
HETATM   27  C   UNL     1      -7.386   7.282  64.431  1.00  0.00    -0.085 A  
ENDBRANCH  21  22
ENDBRANCH  13  16
ENDBRANCH   7  10
ENDBRANCH   5   7
ENDBRANCH   2   3
TORSDOF 5
ENDMDL
MODEL      193
REMARK 921   NORMALIZED FREE ENERGY PREDICTED BY IDOCK:   -4.07 KCAL/MOL
REMARK 922        TOTAL FREE ENERGY PREDICTED BY IDOCK:   -6.34 KCAL/MOL
REMARK 923 INTER-LIGAND FREE ENERGY PREDICTED BY IDOCK:   -5.91 KCAL/MOL
REMARK 924 INTRA-LIGAND FREE ENERGY PREDICTED BY IDOCK:   -0.43 KCAL/MOL
REMARK 927      BINDING AFFINITY PREDICTED BY RF-SCORE:    0.00 PKD
ROOT
HETATM    1  C   UNL     1      -7.506   7.233  63.062  1.00  0.00    -0.096 C  
HETATM    2  C   UNL     1      -6.411   6.830  64.032  1.00  0.00    -0.038 C  
ENDROOT
BRANCH   2   3
HETATM    3  C   UNL     1      -6.930   5.782  64.990  1.00  0.00    -0.059 C  
HETATM    4  O   UNL     1      -6.174   5.041  65.601  1.00  0.00    -0.032 OA 
HETATM    5  N   UNL     1      -8.319   5.788  65.174  1.00  0.00    -0.144 N  
HETATM    6  H   UNL     1      -8.855   6.486  64.658  1.00  0.00     0.000 HD 
BRANCH   5   7
HETATM    7  S   UNL     1      -9.166   4.756  66.162  1.00  0.00    -0.155 S  
HETATM    8  O   UNL     1     -10.386   4.446  65.438  1.00  0.00    -0.252 OA 
HETATM    9  O   UNL     1      -8.297   3.696  66.631  1.00  0.00    -0.101 OA 
BRANCH   7  10
HETATM   10  C   UNL     1      -9.610   5.795  67.528  1.00  0.00    -0.114 A  
HETATM   11  C   UNL     1     -10.850   5.636  68.146  1.00  0.00    -0.161 A  
HETATM   12  C   UNL     1     -11.292   6.596  69.066  1.00  0.00    -0.235 A  
HETATM   13  C   UNL     1     -10.483   7.688  69.415  1.00  0.00    -0.220 A  
HETATM   14  C   UNL     1      -9.168   7.711  68.922  1.00  0.00    -0.139 A  
HETATM   15  C   UNL     1      -8.741   6.795  67.954  1.00  0.00    -0.120 A  
BRANCH  13  16
HETATM   16  C   UNL     1     -11.017   8.845  70.141  1.00  0.00    -0.245 A  
HETATM   17  C   UNL     1     -11.416   8.867  71.469  1.00  0.00    -0.321 A  
HETATM   18  C   UNL     1     -11.492   7.929  72.607  1.00  0.00    -0.454 C  
HETATM   19  O   UNL     1     -11.859  10.111  71.782  1.00  0.00    -0.281 OA 
HETATM   20  N   UNL     1     -11.799  10.929  70.690  1.00  0.00    -0.347 NA 
HETATM   21  C   UNL     1     -11.323  10.187  69.676  1.00  0.00    -0.235 A  
BRANCH  21  22
HETATM   22  C   UNL     1     -11.183  10.810  68.349  1.00  0.00    -0.345 A  
HETATM   23  C   UNL     1     -10.445  10.158  67.345  1.00  0.00    -0.310 A  
HETATM   24  C   UNL     1     -10.376  10.680  66.049  1.00  0.00    -0.290 A  
HETATM   25  C   UNL     1     -11.056  11.853  65.734  1.00  0.00    -0.367 A  
HETATM   26  C   UNL     1     -11.752  12.537  66.728  1.00  0.00    -0.453 A  
HETATM   27  C   UNL     1     -11.777  12.039  68.034  1.00  0.00    -0.398 A  
ENDBRANCH  21  22
ENDBRANCH  13  16
ENDBRANCH   7  10
ENDBRANCH   5   7
ENDBRANCH   2   3
TORSDOF 5
ENDMDL
MODEL      194
REMARK 921   NORMALIZED FREE ENERGY PREDICTED BY IDOCK:   -4.06 KCAL/MOL
REMARK 922        TOTAL FREE ENERGY PREDICTED BY IDOCK:   -6.33 KCAL/MOL
REMARK 923 INTER-LIGAND FREE ENERGY PREDICTED BY IDOCK:   -5.01 KCAL/MOL
REMARK 924 INTRA-LIGAND FREE ENERGY PREDICTED BY IDOCK:   -1.33 KCAL/MOL
REMARK 927      BINDING AFFINITY PREDICTED BY RF-SCORE:    0.00 PKD
ROOT
HETATM    1  C   UNL     1     -11.418  10.071  70.976  1.00  0.00    -0.463 C  
HETATM    2  C   UNL     1     -10.632   8.944  71.621  1.00  0.00    -0.422 C  
ENDROOT
BRANCH   2   3
HETATM    3  C   UNL     1      -9.323   8.745  70.893  1.00  0.00    -0.214 C  
HETATM    4  O   UNL     1      -8.752   7.664  70.886  1.00  0.00    -0.135 OA 
HETATM    5  N   UNL     1      -8.872   9.860  70.175  1.00  0.00    -0.343 N  
HETATM    6  H   UNL     1      -9.454  10.697  70.201  1.00  0.00     0.000 HD 
BRANCH   5   7
HETATM    7  S   UNL     1      -7.472   9.933  69.285  1.00  0.00    -0.108 S  
HETATM    8  O   UNL     1      -6.395   9.837  70.255  1.00  0.00    -0.063 OA 
HETATM    9  O   UNL     1      -7.545   9.011  68.170  1.00  0.00    -0.090 OA 
BRANCH   7  10
HETATM   10  C   UNL     1      -7.483  11.596  68.670  1.00  0.00    -0.117 A  
HETATM   11  C   UNL     1      -6.615  12.542  69.212  1.00  0.00    -0.089 A  
HETATM   12  C   UNL     1      -6.779  13.896  68.890  1.00  0.00    -0.106 A  
HETATM   13  C   UNL     1      -7.773  14.308  67.989  1.00  0.00    -0.141 A  
HETATM   14  C   UNL     1      -8.499  13.312  67.316  1.00  0.00    -0.203 A  
HETATM   15  C   UNL     1      -8.387  11.965  67.678  1.00  0.00    -0.152 A  
BRANCH  13  16
HETATM   16  C   UNL     1      -8.156  15.718  67.852  1.00  0.00    -0.149 A  
HETATM   17  C   UNL     1      -7.392  16.723  67.280  1.00  0.00    -0.175 A  
HETATM   18  C   UNL     1      -6.067  16.866  66.641  1.00  0.00    -0.186 C  
HETATM   19  O   UNL     1      -8.075  17.894  67.341  1.00  0.00    -0.208 OA 
HETATM   20  N   UNL     1      -9.275  17.714  67.968  1.00  0.00    -0.264 NA 
HETATM   21  C   UNL     1      -9.341  16.418  68.316  1.00  0.00    -0.210 A  
BRANCH  21  22
HETATM   22  C   UNL     1     -10.527  15.941  69.047  1.00  0.00    -0.234 A  
HETATM   23  C   UNL     1     -11.639  15.457  68.336  1.00  0.00    -0.368 A  
HETATM   24  C   UNL     1     -12.738  14.910  69.006  1.00  0.00     0.404 A  
HETATM   25  C   UNL     1     -12.735  14.823  70.395  1.00  0.00    -0.368 A  
HETATM   26  C   UNL     1     -11.663  15.341  71.117  1.00  0.00    -0.409 A  
HETATM   27  C   UNL     1     -10.588  15.933  70.447  1.00  0.00    -0.193 A  
ENDBRANCH  21  22
ENDBRANCH  13  16
ENDBRANCH   7  10
ENDBRANCH   5   7
ENDBRANCH   2   3
TORSDOF 5
ENDMDL
MODEL      195
REMARK 921   NORMALIZED FREE ENERGY PREDICTED BY IDOCK:   -4.06 KCAL/MOL
REMARK 922        TOTAL FREE ENERGY PREDICTED BY IDOCK:   -6.32 KCAL/MOL
REMARK 923 INTER-LIGAND FREE ENERGY PREDICTED BY IDOCK:   -5.50 KCAL/MOL
REMARK 924 INTRA-LIGAND FREE ENERGY PREDICTED BY IDOCK:   -0.82 KCAL/MOL
REMARK 927      BINDING AFFINITY PREDICTED BY RF-SCORE:    0.00 PKD
ROOT
HETATM    1  C   UNL     1      -7.358   2.700  69.289  1.00  0.00    -0.044 C  
HETATM    2  C   UNL     1      -6.673   3.778  68.471  1.00  0.00    -0.046 C  
ENDROOT
BRANCH   2   3
HETATM    3  C   UNL     1      -7.557   4.191  67.317  1.00  0.00    -0.077 C  
HETATM    4  O   UNL     1      -8.687   3.743  67.183  1.00  0.00    -0.104 OA 
HETATM    5  N   UNL     1      -7.013   5.171  66.478  1.00  0.00    -0.066 N  
HETATM    6  H   UNL     1      -6.083   5.520  66.711  1.00  0.00     0.000 HD 
BRANCH   5   7
HETATM    7  S   UNL     1      -7.753   5.814  65.138  1.00  0.00    -0.101 S  
HETATM    8  O   UNL     1      -6.686   6.429  64.367  1.00  0.00    -0.033 OA 
HETATM    9  O   UNL     1      -8.625   4.828  64.533  1.00  0.00    -0.134 OA 
BRANCH   7  10
HETATM   10  C   UNL     1      -8.735   7.123  65.820  1.00  0.00    -0.107 A  
HETATM   11  C   UNL     1      -8.292   8.442  65.731  1.00  0.00    -0.150 A  
HETATM   12  C   UNL     1      -8.946   9.442  66.462  1.00  0.00    -0.176 A  
HETATM   13  C   UNL     1     -10.073   9.145  67.242  1.00  0.00    -0.295 A  
HETATM   14  C   UNL     1     -10.606   7.848  67.155  1.00  0.00    -0.383 A  
HETATM   15  C   UNL     1      -9.924   6.829  66.481  1.00  0.00    -0.146 A  
BRANCH  13  16
HETATM   16  C   UNL     1     -10.602  10.092  68.231  1.00  0.00    -0.262 A  
HETATM   17  C   UNL     1     -10.848   9.827  69.570  1.00  0.00    -0.240 A  
HETATM   18  C   UNL     1     -10.728   8.688  70.503  1.00  0.00    -0.252 C  
HETATM   19  O   UNL     1     -11.339  10.944  70.164  1.00  0.00    -0.293 OA 
HETATM   20  N   UNL     1     -11.461  11.954  69.253  1.00  0.00    -0.284 NA 
HETATM   21  C   UNL     1     -11.053  11.464  68.071  1.00  0.00    -0.257 A  
BRANCH  21  22
HETATM   22  C   UNL     1     -11.108  12.335  66.885  1.00  0.00    -0.341 A  
HETATM   23  C   UNL     1     -10.248  13.443  66.791  1.00  0.00    -0.259 A  
HETATM   24  C   UNL     1     -10.213  14.230  65.635  1.00  0.00    -0.366 A  
HETATM   25  C   UNL     1     -11.025  13.910  64.551  1.00  0.00    -0.379 A  
HETATM   26  C   UNL     1     -11.918  12.846  64.645  1.00  0.00    -0.445 A  
HETATM   27  C   UNL     1     -11.986  12.092  65.821  1.00  0.00    -0.267 A  
ENDBRANCH  21  22
ENDBRANCH  13  16
ENDBRANCH   7  10
ENDBRANCH   5   7
ENDBRANCH   2   3
TORSDOF 5
ENDMDL
MODEL      196
REMARK 921   NORMALIZED FREE ENERGY PREDICTED BY IDOCK:   -4.04 KCAL/MOL
REMARK 922        TOTAL FREE ENERGY PREDICTED BY IDOCK:   -6.31 KCAL/MOL
REMARK 923 INTER-LIGAND FREE ENERGY PREDICTED BY IDOCK:   -5.31 KCAL/MOL
REMARK 924 INTRA-LIGAND FREE ENERGY PREDICTED BY IDOCK:   -1.00 KCAL/MOL
REMARK 927      BINDING AFFINITY PREDICTED BY RF-SCORE:    0.00 PKD
ROOT
HETATM    1  C   UNL     1      -6.622  17.171  65.854  1.00  0.00     0.207 C  
HETATM    2  C   UNL     1      -7.669  16.811  66.892  1.00  0.00    -0.254 C  
ENDROOT
BRANCH   2   3
HETATM    3  C   UNL     1      -8.821  16.089  66.233  1.00  0.00    -0.344 C  
HETATM    4  O   UNL     1      -9.634  16.680  65.536  1.00  0.00    -0.502 OA 
HETATM    5  N   UNL     1      -8.832  14.701  66.420  1.00  0.00    -0.477 N  
HETATM    6  H   UNL     1      -8.075  14.299  66.973  1.00  0.00     0.000 HD 
BRANCH   5   7
HETATM    7  S   UNL     1      -9.973  13.655  65.818  1.00  0.00    -0.223 S  
HETATM    8  O   UNL     1     -11.075  13.703  66.762  1.00  0.00    -0.299 OA 
HETATM    9  O   UNL     1     -10.195  13.920  64.412  1.00  0.00    -0.337 OA 
BRANCH   7  10
HETATM   10  C   UNL     1      -9.189  12.074  65.998  1.00  0.00    -0.149 A  
HETATM   11  C   UNL     1      -9.789  10.937  65.457  1.00  0.00    -0.298 A  
HETATM   12  C   UNL     1      -9.295   9.670  65.791  1.00  0.00    -0.286 A  
HETATM   13  C   UNL     1      -8.173   9.528  66.621  1.00  0.00    -0.116 A  
HETATM   14  C   UNL     1      -7.480  10.694  66.989  1.00  0.00    -0.106 A  
HETATM   15  C   UNL     1      -8.002  11.963  66.714  1.00  0.00    -0.087 A  
BRANCH  13  16
HETATM   16  C   UNL     1      -7.808   8.238  67.216  1.00  0.00    -0.105 A  
HETATM   17  C   UNL     1      -6.995   7.271  66.643  1.00  0.00    -0.073 A  
HETATM   18  C   UNL     1      -6.229   7.082  65.394  1.00  0.00    -0.037 C  
HETATM   19  O   UNL     1      -6.894   6.213  67.487  1.00  0.00    -0.059 OA 
HETATM   20  N   UNL     1      -7.645   6.425  68.608  1.00  0.00    -0.091 NA 
HETATM   21  C   UNL     1      -8.233   7.624  68.462  1.00  0.00    -0.125 A  
BRANCH  21  22
HETATM   22  C   UNL     1      -9.140   8.101  69.520  1.00  0.00    -0.151 A  
HETATM   23  C   UNL     1      -9.076   7.535  70.805  1.00  0.00    -0.154 A  
HETATM   24  C   UNL     1      -9.858   8.035  71.851  1.00  0.00    -0.251 A  
HETATM   25  C   UNL     1     -10.703   9.119  71.631  1.00  0.00    -0.441 A  
HETATM   26  C   UNL     1     -10.815   9.661  70.354  1.00  0.00    -0.353 A  
HETATM   27  C   UNL     1     -10.070   9.126  69.299  1.00  0.00    -0.196 A  
ENDBRANCH  21  22
ENDBRANCH  13  16
ENDBRANCH   7  10
ENDBRANCH   5   7
ENDBRANCH   2   3
TORSDOF 5
ENDMDL
MODEL      197
REMARK 921   NORMALIZED FREE ENERGY PREDICTED BY IDOCK:   -4.04 KCAL/MOL
REMARK 922        TOTAL FREE ENERGY PREDICTED BY IDOCK:   -6.30 KCAL/MOL
REMARK 923 INTER-LIGAND FREE ENERGY PREDICTED BY IDOCK:   -5.92 KCAL/MOL
REMARK 924 INTRA-LIGAND FREE ENERGY PREDICTED BY IDOCK:   -0.38 KCAL/MOL
REMARK 927      BINDING AFFINITY PREDICTED BY RF-SCORE:    0.00 PKD
ROOT
HETATM    1  C   UNL     1      -6.043  19.498  70.263  1.00  0.00    -0.264 C  
HETATM    2  C   UNL     1      -6.173  20.388  69.042  1.00  0.00    -0.351 C  
ENDROOT
BRANCH   2   3
HETATM    3  C   UNL     1      -7.175  19.798  68.077  1.00  0.00    -0.286 C  
HETATM    4  O   UNL     1      -8.197  20.395  67.769  1.00  0.00    -0.271 OA 
HETATM    5  N   UNL     1      -6.801  18.571  67.515  1.00  0.00    -0.202 N  
HETATM    6  H   UNL     1      -5.900  18.185  67.797  1.00  0.00     0.000 HD 
BRANCH   5   7
HETATM    7  S   UNL     1      -7.700  17.693  66.430  1.00  0.00    -0.296 S  
HETATM    8  O   UNL     1      -8.494  18.671  65.708  1.00  0.00    -0.446 OA 
HETATM    9  O   UNL     1      -6.846  16.765  65.716  1.00  0.00     0.261 OA 
BRANCH   7  10
HETATM   10  C   UNL     1      -8.804  16.783  67.478  1.00  0.00    -0.200 A  
HETATM   11  C   UNL     1      -8.408  16.441  68.771  1.00  0.00    -0.242 A  
HETATM   12  C   UNL     1      -9.179  15.535  69.512  1.00  0.00    -0.265 A  
HETATM   13  C   UNL     1     -10.371  15.008  68.993  1.00  0.00    -0.243 A  
HETATM   14  C   UNL     1     -10.837  15.523  67.772  1.00  0.00    -0.309 A  
HETATM   15  C   UNL     1     -10.044  16.377  66.996  1.00  0.00    -0.272 A  
BRANCH  13  16
HETATM   16  C   UNL     1     -11.042  13.858  69.609  1.00  0.00    -0.126 A  
HETATM   17  C   UNL     1     -11.223  12.609  69.035  1.00  0.00    -0.269 A  
HETATM   18  C   UNL     1     -10.897  11.928  67.765  1.00  0.00    -0.254 C  
HETATM   19  O   UNL     1     -11.891  11.809  69.904  1.00  0.00    -0.313 OA 
HETATM   20  N   UNL     1     -12.197  12.495  71.045  1.00  0.00    -0.225 NA 
HETATM   21  C   UNL     1     -11.724  13.742  70.887  1.00  0.00     0.099 A  
BRANCH  21  22
HETATM   22  C   UNL     1     -11.943  14.724  71.962  1.00  0.00    -0.372 A  
HETATM   23  C   UNL     1     -11.457  16.036  71.822  1.00  0.00    -0.425 A  
HETATM   24  C   UNL     1     -11.733  17.012  72.784  1.00  0.00     0.385 A  
HETATM   25  C   UNL     1     -12.514  16.696  73.893  1.00  0.00    -0.359 A  
HETATM   26  C   UNL     1     -12.963  15.390  74.072  1.00  0.00    -0.306 A  
HETATM   27  C   UNL     1     -12.642  14.404  73.134  1.00  0.00    -0.368 A  
ENDBRANCH  21  22
ENDBRANCH  13  16
ENDBRANCH   7  10
ENDBRANCH   5   7
ENDBRANCH   2   3
TORSDOF 5
ENDMDL
MODEL      198
REMARK 921   NORMALIZED FREE ENERGY PREDICTED BY IDOCK:   -4.03 KCAL/MOL
REMARK 922        TOTAL FREE ENERGY PREDICTED BY IDOCK:   -6.29 KCAL/MOL
REMARK 923 INTER-LIGAND FREE ENERGY PREDICTED BY IDOCK:   -5.21 KCAL/MOL
REMARK 924 INTRA-LIGAND FREE ENERGY PREDICTED BY IDOCK:   -1.08 KCAL/MOL
REMARK 927      BINDING AFFINITY PREDICTED BY RF-SCORE:    0.00 PKD
ROOT
HETATM    1  C   UNL     1      -8.765   5.977  68.375  1.00  0.00    -0.113 C  
HETATM    2  C   UNL     1      -8.233   5.795  66.966  1.00  0.00    -0.101 C  
ENDROOT
BRANCH   2   3
HETATM    3  C   UNL     1      -7.568   7.069  66.496  1.00  0.00    -0.089 C  
HETATM    4  O   UNL     1      -7.122   7.888  67.286  1.00  0.00    -0.079 OA 
HETATM    5  N   UNL     1      -7.438   7.189  65.107  1.00  0.00    -0.088 N  
HETATM    6  H   UNL     1      -7.794   6.421  64.537  1.00  0.00     0.000 HD 
BRANCH   5   7
HETATM    7  S   UNL     1      -6.754   8.474  64.309  1.00  0.00    -0.070 S  
HETATM    8  O   UNL     1      -5.487   8.712  64.978  1.00  0.00    -0.039 OA 
HETATM    9  O   UNL     1      -6.801   8.251  62.878  1.00  0.00    -0.086 OA 
BRANCH   7  10
HETATM   10  C   UNL     1      -7.834   9.817  64.726  1.00  0.00    -0.134 A  
HETATM   11  C   UNL     1      -7.446  10.746  65.691  1.00  0.00    -0.034 A  
HETATM   12  C   UNL     1      -8.382  11.665  66.182  1.00  0.00     0.036 A  
HETATM   13  C   UNL     1      -9.692  11.699  65.680  1.00  0.00    -0.262 A  
HETATM   14  C   UNL     1      -9.990  10.883  64.577  1.00  0.00    -0.376 A  
HETATM   15  C   UNL     1      -9.084   9.918  64.123  1.00  0.00    -0.294 A  
BRANCH  13  16
HETATM   16  C   UNL     1     -10.761  12.439  66.359  1.00  0.00    -0.277 A  
HETATM   17  C   UNL     1     -11.246  13.690  66.004  1.00  0.00    -0.296 A  
HETATM   18  C   UNL     1     -10.990  14.712  64.969  1.00  0.00    -0.415 C  
HETATM   19  O   UNL     1     -12.227  14.051  66.869  1.00  0.00    -0.436 OA 
HETATM   20  N   UNL     1     -12.401  13.088  67.822  1.00  0.00    -0.084 NA 
HETATM   21  C   UNL     1     -11.511  12.116  67.560  1.00  0.00    -0.340 A  
BRANCH  21  22
HETATM   22  C   UNL     1     -11.450  10.951  68.458  1.00  0.00    -0.380 A  
HETATM   23  C   UNL     1     -11.019   9.708  67.963  1.00  0.00    -0.197 A  
HETATM   24  C   UNL     1     -10.861   8.611  68.815  1.00  0.00    -0.009 A  
HETATM   25  C   UNL     1     -11.114   8.744  70.177  1.00  0.00    -0.214 A  
HETATM   26  C   UNL     1     -11.588   9.954  70.677  1.00  0.00    -0.413 A  
HETATM   27  C   UNL     1     -11.794  11.035  69.814  1.00  0.00    -0.421 A  
ENDBRANCH  21  22
ENDBRANCH  13  16
ENDBRANCH   7  10
ENDBRANCH   5   7
ENDBRANCH   2   3
TORSDOF 5
ENDMDL
MODEL      199
REMARK 921   NORMALIZED FREE ENERGY PREDICTED BY IDOCK:   -4.03 KCAL/MOL
REMARK 922        TOTAL FREE ENERGY PREDICTED BY IDOCK:   -6.28 KCAL/MOL
REMARK 923 INTER-LIGAND FREE ENERGY PREDICTED BY IDOCK:   -5.30 KCAL/MOL
REMARK 924 INTRA-LIGAND FREE ENERGY PREDICTED BY IDOCK:   -0.98 KCAL/MOL
REMARK 927      BINDING AFFINITY PREDICTED BY RF-SCORE:    0.00 PKD
ROOT
HETATM    1  C   UNL     1      -5.580   2.033  70.112  1.00  0.00    -0.017 C  
HETATM    2  C   UNL     1      -7.094   2.059  70.204  1.00  0.00    -0.033 C  
ENDROOT
BRANCH   2   3
HETATM    3  C   UNL     1      -7.525   2.914  71.373  1.00  0.00    -0.040 C  
HETATM    4  O   UNL     1      -6.744   3.661  71.944  1.00  0.00    -0.018 OA 
HETATM    5  N   UNL     1      -8.888   2.838  71.688  1.00  0.00    -0.073 N  
HETATM    6  H   UNL     1      -9.466   2.226  71.113  1.00  0.00     0.000 HD 
BRANCH   5   7
HETATM    7  S   UNL     1      -9.641   3.660  72.919  1.00  0.00    -0.131 S  
HETATM    8  O   UNL     1     -10.925   3.004  73.090  1.00  0.00    -0.164 OA 
HETATM    9  O   UNL     1      -8.736   3.814  74.039  1.00  0.00    -0.089 OA 
BRANCH   7  10
HETATM   10  C   UNL     1      -9.952   5.250  72.197  1.00  0.00    -0.184 A  
HETATM   11  C   UNL     1      -9.676   6.408  72.924  1.00  0.00    -0.164 A  
HETATM   12  C   UNL     1     -10.129   7.646  72.450  1.00  0.00    -0.265 A  
HETATM   13  C   UNL     1     -10.811   7.745  71.228  1.00  0.00    -0.255 A  
HETATM   14  C   UNL     1     -10.899   6.591  70.433  1.00  0.00    -0.326 A  
HETATM   15  C   UNL     1     -10.508   5.340  70.925  1.00  0.00    -0.285 A  
BRANCH  13  16
HETATM   16  C   UNL     1     -11.540   8.959  70.845  1.00  0.00    -0.331 A  
HETATM   17  C   UNL     1     -12.714   9.426  71.418  1.00  0.00    -0.345 A  
HETATM   18  C   UNL     1     -13.645   9.025  72.492  1.00  0.00    -0.492 C  
HETATM   19  O   UNL     1     -13.091  10.571  70.795  1.00  0.00    -0.364 OA 
HETATM   20  N   UNL     1     -12.217  10.879  69.792  1.00  0.00    -0.334 NA 
HETATM   21  C   UNL     1     -11.287   9.910  69.776  1.00  0.00    -0.193 A  
BRANCH  21  22
HETATM   22  C   UNL     1     -10.222   9.967  68.760  1.00  0.00    -0.205 A  
HETATM   23  C   UNL     1     -10.550   9.860  67.398  1.00  0.00    -0.338 A  
HETATM   24  C   UNL     1      -9.571  10.006  66.409  1.00  0.00    -0.248 A  
HETATM   25  C   UNL     1      -8.254  10.277  66.768  1.00  0.00    -0.124 A  
HETATM   26  C   UNL     1      -7.903  10.338  68.114  1.00  0.00    -0.104 A  
HETATM   27  C   UNL     1      -8.874  10.141  69.101  1.00  0.00    -0.179 A  
ENDBRANCH  21  22
ENDBRANCH  13  16
ENDBRANCH   7  10
ENDBRANCH   5   7
ENDBRANCH   2   3
TORSDOF 5
ENDMDL
MODEL      200
REMARK 921   NORMALIZED FREE ENERGY PREDICTED BY IDOCK:   -4.02 KCAL/MOL
REMARK 922        TOTAL FREE ENERGY PREDICTED BY IDOCK:   -6.28 KCAL/MOL
REMARK 923 INTER-LIGAND FREE ENERGY PREDICTED BY IDOCK:   -5.14 KCAL/MOL
REMARK 924 INTRA-LIGAND FREE ENERGY PREDICTED BY IDOCK:   -1.14 KCAL/MOL
REMARK 927      BINDING AFFINITY PREDICTED BY RF-SCORE:    0.00 PKD
ROOT
HETATM    1  C   UNL     1     -11.541  11.810  63.636  1.00  0.00    -0.521 C  
HETATM    2  C   UNL     1     -12.342  12.952  64.232  1.00  0.00    -0.458 C  
ENDROOT
BRANCH   2   3
HETATM    3  C   UNL     1     -12.141  12.999  65.729  1.00  0.00    -0.454 C  
HETATM    4  O   UNL     1     -12.626  13.887  66.414  1.00  0.00    -0.413 OA 
HETATM    5  N   UNL     1     -11.432  11.915  66.262  1.00  0.00    -0.344 N  
HETATM    6  H   UNL     1     -11.118  11.196  65.610  1.00  0.00     0.000 HD 
BRANCH   5   7
HETATM    7  S   UNL     1     -11.061  11.700  67.867  1.00  0.00    -0.269 S  
HETATM    8  O   UNL     1     -10.046  12.696  68.163  1.00  0.00    -0.218 OA 
HETATM    9  O   UNL     1     -12.276  11.630  68.652  1.00  0.00    -0.455 OA 
BRANCH   7  10
HETATM   10  C   UNL     1     -10.266  10.115  67.878  1.00  0.00    -0.180 A  
HETATM   11  C   UNL     1     -10.597   9.180  68.857  1.00  0.00    -0.214 A  
HETATM   12  C   UNL     1      -9.815   8.027  69.004  1.00  0.00    -0.178 A  
HETATM   13  C   UNL     1      -8.734   7.773  68.147  1.00  0.00    -0.126 A  
HETATM   14  C   UNL     1      -8.550   8.637  67.054  1.00  0.00    -0.120 A  
HETATM   15  C   UNL     1      -9.283   9.823  66.937  1.00  0.00    -0.174 A  
BRANCH  13  16
HETATM   16  C   UNL     1      -7.734   6.742  68.446  1.00  0.00    -0.106 A  
HETATM   17  C   UNL     1      -6.851   6.742  69.515  1.00  0.00    -0.054 A  
HETATM   18  C   UNL     1      -6.528   7.602  70.672  1.00  0.00    -0.038 C  
HETATM   19  O   UNL     1      -6.077   5.628  69.456  1.00  0.00    -0.022 OA 
HETATM   20  N   UNL     1      -6.392   4.887  68.353  1.00  0.00    -0.035 NA 
HETATM   21  C   UNL     1      -7.368   5.546  67.707  1.00  0.00    -0.076 A  
BRANCH  21  22
HETATM   22  C   UNL     1      -7.887   4.987  66.448  1.00  0.00    -0.099 A  
HETATM   23  C   UNL     1      -9.271   4.800  66.284  1.00  0.00    -0.141 A  
HETATM   24  C   UNL     1      -9.797   4.360  65.065  1.00  0.00    -0.169 A  
HETATM   25  C   UNL     1      -8.950   4.117  63.988  1.00  0.00    -0.141 A  
HETATM   26  C   UNL     1      -7.573   4.250  64.147  1.00  0.00    -0.071 A  
HETATM   27  C   UNL     1      -7.046   4.641  65.382  1.00  0.00    -0.063 A  
ENDBRANCH  21  22
ENDBRANCH  13  16
ENDBRANCH   7  10
ENDBRANCH   5   7
ENDBRANCH   2   3
TORSDOF 5
ENDMDL
MODEL      201
REMARK 921   NORMALIZED FREE ENERGY PREDICTED BY IDOCK:   -4.01 KCAL/MOL
REMARK 922        TOTAL FREE ENERGY PREDICTED BY IDOCK:   -6.26 KCAL/MOL
REMARK 923 INTER-LIGAND FREE ENERGY PREDICTED BY IDOCK:   -5.42 KCAL/MOL
REMARK 924 INTRA-LIGAND FREE ENERGY PREDICTED BY IDOCK:   -0.84 KCAL/MOL
REMARK 927      BINDING AFFINITY PREDICTED BY RF-SCORE:    0.00 PKD
ROOT
HETATM    1  C   UNL     1      -9.470   2.554  63.066  1.00  0.00    -0.090 C  
HETATM    2  C   UNL     1      -9.483   3.162  64.456  1.00  0.00    -0.147 C  
ENDROOT
BRANCH   2   3
HETATM    3  C   UNL     1      -8.466   4.277  64.541  1.00  0.00    -0.111 C  
HETATM    4  O   UNL     1      -8.085   4.874  63.544  1.00  0.00    -0.088 OA 
HETATM    5  N   UNL     1      -8.067   4.613  65.840  1.00  0.00    -0.102 N  
HETATM    6  H   UNL     1      -8.489   4.090  66.608  1.00  0.00     0.000 HD 
BRANCH   5   7
HETATM    7  S   UNL     1      -6.967   5.792  66.237  1.00  0.00    -0.061 S  
HETATM    8  O   UNL     1      -6.249   5.275  67.389  1.00  0.00    -0.032 OA 
HETATM    9  O   UNL     1      -6.251   6.221  65.053  1.00  0.00    -0.029 OA 
BRANCH   7  10
HETATM   10  C   UNL     1      -7.999   7.117  66.808  1.00  0.00    -0.108 A  
HETATM   11  C   UNL     1      -7.584   7.907  67.879  1.00  0.00    -0.109 A  
HETATM   12  C   UNL     1      -8.489   8.798  68.472  1.00  0.00    -0.130 A  
HETATM   13  C   UNL     1      -9.792   8.943  67.971  1.00  0.00    -0.199 A  
HETATM   14  C   UNL     1     -10.111   8.277  66.776  1.00  0.00    -0.373 A  
HETATM   15  C   UNL     1      -9.238   7.339  66.215  1.00  0.00    -0.175 A  
BRANCH  13  16
HETATM   16  C   UNL     1     -10.839   9.639  68.728  1.00  0.00    -0.199 A  
HETATM   17  C   UNL     1     -11.488  10.804  68.349  1.00  0.00    -0.288 A  
HETATM   18  C   UNL     1     -11.467  11.753  67.217  1.00  0.00    -0.373 C  
HETATM   19  O   UNL     1     -12.386  11.147  69.307  1.00  0.00    -0.381 OA 
HETATM   20  N   UNL     1     -12.342  10.259  70.343  1.00  0.00    -0.264 NA 
HETATM   21  C   UNL     1     -11.397   9.353  70.038  1.00  0.00    -0.141 A  
BRANCH  21  22
HETATM   22  C   UNL     1     -11.107   8.281  71.004  1.00  0.00    -0.284 A  
HETATM   23  C   UNL     1     -10.671   8.606  72.301  1.00  0.00    -0.383 A  
HETATM   24  C   UNL     1     -10.480   7.612  73.266  1.00  0.00    -0.414 A  
HETATM   25  C   UNL     1     -10.738   6.280  72.954  1.00  0.00    -0.274 A  
HETATM   26  C   UNL     1     -11.123   5.935  71.662  1.00  0.00    -0.319 A  
HETATM   27  C   UNL     1     -11.264   6.925  70.685  1.00  0.00    -0.346 A  
ENDBRANCH  21  22
ENDBRANCH  13  16
ENDBRANCH   7  10
ENDBRANCH   5   7
ENDBRANCH   2   3
TORSDOF 5
ENDMDL
MODEL      202
REMARK 921   NORMALIZED FREE ENERGY PREDICTED BY IDOCK:   -3.99 KCAL/MOL
REMARK 922        TOTAL FREE ENERGY PREDICTED BY IDOCK:   -6.24 KCAL/MOL
REMARK 923 INTER-LIGAND FREE ENERGY PREDICTED BY IDOCK:   -5.13 KCAL/MOL
REMARK 924 INTRA-LIGAND FREE ENERGY PREDICTED BY IDOCK:   -1.10 KCAL/MOL
REMARK 927      BINDING AFFINITY PREDICTED BY RF-SCORE:    0.00 PKD
ROOT
HETATM    1  C   UNL     1     -12.142  14.582  64.352  1.00  0.00    -0.492 C  
HETATM    2  C   UNL     1     -10.943  15.237  65.011  1.00  0.00    -0.450 C  
ENDROOT
BRANCH   2   3
HETATM    3  C   UNL     1     -10.913  14.896  66.483  1.00  0.00    -0.327 C  
HETATM    4  O   UNL     1     -11.233  15.711  67.336  1.00  0.00    -0.306 OA 
HETATM    5  N   UNL     1     -10.572  13.570  66.775  1.00  0.00    -0.271 N  
HETATM    6  H   UNL     1     -10.377  12.954  65.985  1.00  0.00     0.000 HD 
BRANCH   5   7
HETATM    7  S   UNL     1     -10.458  12.915  68.296  1.00  0.00    -0.245 S  
HETATM    8  O   UNL     1      -9.301  13.548  68.902  1.00  0.00     0.005 OA 
HETATM    9  O   UNL     1     -11.749  12.957  68.952  1.00  0.00    -0.289 OA 
BRANCH   7  10
HETATM   10  C   UNL     1     -10.025  11.226  67.967  1.00  0.00    -0.179 A  
HETATM   11  C   UNL     1     -10.763  10.490  67.041  1.00  0.00    -0.310 A  
HETATM   12  C   UNL     1     -10.570   9.105  66.948  1.00  0.00    -0.237 A  
HETATM   13  C   UNL     1      -9.608   8.456  67.737  1.00  0.00    -0.185 A  
HETATM   14  C   UNL     1      -8.753   9.255  68.514  1.00  0.00    -0.128 A  
HETATM   15  C   UNL     1      -8.980  10.628  68.662  1.00  0.00    -0.170 A  
BRANCH  13  16
HETATM   16  C   UNL     1      -9.577   6.996  67.874  1.00  0.00    -0.133 A  
HETATM   17  C   UNL     1     -10.306   6.242  68.782  1.00  0.00    -0.205 A  
HETATM   18  C   UNL     1     -11.291   6.473  69.859  1.00  0.00    -0.469 C  
HETATM   19  O   UNL     1     -10.009   4.929  68.614  1.00  0.00    -0.161 OA 
HETATM   20  N   UNL     1      -9.072   4.774  67.633  1.00  0.00    -0.111 NA 
HETATM   21  C   UNL     1      -8.769   6.004  67.187  1.00  0.00    -0.109 A  
BRANCH  21  22
HETATM   22  C   UNL     1      -7.748   6.145  66.135  1.00  0.00    -0.099 A  
HETATM   23  C   UNL     1      -6.460   5.619  66.336  1.00  0.00    -0.044 A  
HETATM   24  C   UNL     1      -5.502   5.654  65.317  1.00  0.00    -0.013 A  
HETATM   25  C   UNL     1      -5.823   6.201  64.078  1.00  0.00    -0.022 A  
HETATM   26  C   UNL     1      -7.078   6.769  63.878  1.00  0.00    -0.059 A  
HETATM   27  C   UNL     1      -8.016   6.778  64.914  1.00  0.00    -0.124 A  
ENDBRANCH  21  22
ENDBRANCH  13  16
ENDBRANCH   7  10
ENDBRANCH   5   7
ENDBRANCH   2   3
TORSDOF 5
ENDMDL
MODEL      203
REMARK 921   NORMALIZED FREE ENERGY PREDICTED BY IDOCK:   -3.99 KCAL/MOL
REMARK 922        TOTAL FREE ENERGY PREDICTED BY IDOCK:   -6.23 KCAL/MOL
REMARK 923 INTER-LIGAND FREE ENERGY PREDICTED BY IDOCK:   -5.50 KCAL/MOL
REMARK 924 INTRA-LIGAND FREE ENERGY PREDICTED BY IDOCK:   -0.74 KCAL/MOL
REMARK 927      BINDING AFFINITY PREDICTED BY RF-SCORE:    0.00 PKD
ROOT
HETATM    1  C   UNL     1      -9.825   2.939  71.767  1.00  0.00    -0.218 C  
HETATM    2  C   UNL     1      -8.754   2.995  70.694  1.00  0.00    -0.131 C  
ENDROOT
BRANCH   2   3
HETATM    3  C   UNL     1      -9.285   3.705  69.471  1.00  0.00    -0.155 C  
HETATM    4  O   UNL     1     -10.389   4.231  69.463  1.00  0.00     0.112 OA 
HETATM    5  N   UNL     1      -8.390   3.777  68.396  1.00  0.00    -0.085 N  
HETATM    6  H   UNL     1      -7.471   3.355  68.525  1.00  0.00     0.000 HD 
BRANCH   5   7
HETATM    7  S   UNL     1      -8.698   4.493  66.930  1.00  0.00    -0.112 S  
HETATM    8  O   UNL     1      -7.414   4.554  66.254  1.00  0.00    -0.080 OA 
HETATM    9  O   UNL     1      -9.835   3.856  66.297  1.00  0.00    -0.191 OA 
BRANCH   7  10
HETATM   10  C   UNL     1      -9.136   6.151  67.385  1.00  0.00    -0.110 A  
HETATM   11  C   UNL     1     -10.176   6.800  66.721  1.00  0.00    -0.273 A  
HETATM   12  C   UNL     1     -10.371   8.173  66.920  1.00  0.00    -0.401 A  
HETATM   13  C   UNL     1      -9.567   8.895  67.815  1.00  0.00    -0.176 A  
HETATM   14  C   UNL     1      -8.660   8.171  68.608  1.00  0.00    -0.127 A  
HETATM   15  C   UNL     1      -8.414   6.814  68.372  1.00  0.00    -0.122 A  
BRANCH  13  16
HETATM   16  C   UNL     1      -9.552  10.361  67.834  1.00  0.00    -0.157 A  
HETATM   17  C   UNL     1      -8.801  11.184  67.008  1.00  0.00    -0.149 A  
HETATM   18  C   UNL     1      -7.827  11.039  65.906  1.00  0.00    -0.034 C  
HETATM   19  O   UNL     1      -9.046  12.481  67.325  1.00  0.00    -0.176 OA 
HETATM   20  N   UNL     1      -9.924  12.559  68.368  1.00  0.00    -0.226 NA 
HETATM   21  C   UNL     1     -10.226  11.297  68.717  1.00  0.00    -0.202 A  
BRANCH  21  22
HETATM   22  C   UNL     1     -11.139  11.075  69.851  1.00  0.00    -0.276 A  
HETATM   23  C   UNL     1     -11.947  12.128  70.315  1.00  0.00    -0.389 A  
HETATM   24  C   UNL     1     -12.890  11.919  71.327  1.00  0.00    -0.391 A  
HETATM   25  C   UNL     1     -13.051  10.650  71.877  1.00  0.00    -0.563 A  
HETATM   26  C   UNL     1     -12.227   9.607  71.463  1.00  0.00    -0.483 A  
HETATM   27  C   UNL     1     -11.250   9.832  70.488  1.00  0.00    -0.381 A  
ENDBRANCH  21  22
ENDBRANCH  13  16
ENDBRANCH   7  10
ENDBRANCH   5   7
ENDBRANCH   2   3
TORSDOF 5
ENDMDL
MODEL      204
REMARK 921   NORMALIZED FREE ENERGY PREDICTED BY IDOCK:   -3.97 KCAL/MOL
REMARK 922        TOTAL FREE ENERGY PREDICTED BY IDOCK:   -6.22 KCAL/MOL
REMARK 923 INTER-LIGAND FREE ENERGY PREDICTED BY IDOCK:   -5.03 KCAL/MOL
REMARK 924 INTRA-LIGAND FREE ENERGY PREDICTED BY IDOCK:   -1.19 KCAL/MOL
REMARK 927      BINDING AFFINITY PREDICTED BY RF-SCORE:    0.00 PKD
ROOT
HETATM    1  C   UNL     1     -11.541  11.810  63.636  1.00  0.00    -0.521 C  
HETATM    2  C   UNL     1     -12.342  12.952  64.232  1.00  0.00    -0.458 C  
ENDROOT
BRANCH   2   3
HETATM    3  C   UNL     1     -12.141  12.999  65.729  1.00  0.00    -0.454 C  
HETATM    4  O   UNL     1     -12.626  13.887  66.414  1.00  0.00    -0.413 OA 
HETATM    5  N   UNL     1     -11.432  11.915  66.262  1.00  0.00    -0.344 N  
HETATM    6  H   UNL     1     -11.118  11.196  65.610  1.00  0.00     0.000 HD 
BRANCH   5   7
HETATM    7  S   UNL     1     -11.061  11.700  67.867  1.00  0.00    -0.269 S  
HETATM    8  O   UNL     1     -10.046  12.696  68.163  1.00  0.00    -0.218 OA 
HETATM    9  O   UNL     1     -12.276  11.630  68.652  1.00  0.00    -0.455 OA 
BRANCH   7  10
HETATM   10  C   UNL     1     -10.266  10.115  67.878  1.00  0.00    -0.180 A  
HETATM   11  C   UNL     1      -9.616   9.657  66.732  1.00  0.00    -0.225 A  
HETATM   12  C   UNL     1      -9.190   8.324  66.666  1.00  0.00    -0.224 A  
HETATM   13  C   UNL     1      -9.361   7.456  67.755  1.00  0.00    -0.144 A  
HETATM   14  C   UNL     1      -9.840   8.003  68.957  1.00  0.00    -0.178 A  
HETATM   15  C   UNL     1     -10.328   9.313  69.013  1.00  0.00    -0.228 A  
BRANCH  13  16
HETATM   16  C   UNL     1      -9.193   6.005  67.623  1.00  0.00    -0.107 A  
HETATM   17  C   UNL     1      -9.978   5.155  66.858  1.00  0.00    -0.201 A  
HETATM   18  C   UNL     1     -11.149   5.252  65.963  1.00  0.00     0.153 C  
HETATM   19  O   UNL     1      -9.522   3.884  66.992  1.00  0.00    -0.178 OA 
HETATM   20  N   UNL     1      -8.463   3.845  67.853  1.00  0.00    -0.093 NA 
HETATM   21  C   UNL     1      -8.258   5.104  68.274  1.00  0.00    -0.093 A  
BRANCH  21  22
HETATM   22  C   UNL     1      -7.185   5.358  69.250  1.00  0.00    -0.065 A  
HETATM   23  C   UNL     1      -6.221   6.348  68.988  1.00  0.00    -0.034 A  
HETATM   24  C   UNL     1      -5.249   6.675  69.939  1.00  0.00    -0.014 A  
HETATM   25  C   UNL     1      -5.236   6.029  71.172  1.00  0.00    -0.017 A  
HETATM   26  C   UNL     1      -6.153   5.013  71.429  1.00  0.00    -0.022 A  
HETATM   27  C   UNL     1      -7.091   4.654  70.458  1.00  0.00    -0.048 A  
ENDBRANCH  21  22
ENDBRANCH  13  16
ENDBRANCH   7  10
ENDBRANCH   5   7
ENDBRANCH   2   3
TORSDOF 5
ENDMDL
MODEL      205
REMARK 921   NORMALIZED FREE ENERGY PREDICTED BY IDOCK:   -3.97 KCAL/MOL
REMARK 922        TOTAL FREE ENERGY PREDICTED BY IDOCK:   -6.22 KCAL/MOL
REMARK 923 INTER-LIGAND FREE ENERGY PREDICTED BY IDOCK:   -5.13 KCAL/MOL
REMARK 924 INTRA-LIGAND FREE ENERGY PREDICTED BY IDOCK:   -1.09 KCAL/MOL
REMARK 927      BINDING AFFINITY PREDICTED BY RF-SCORE:    0.00 PKD
ROOT
HETATM    1  C   UNL     1      -5.664   4.463  67.634  1.00  0.00    -0.022 C  
HETATM    2  C   UNL     1      -5.819   5.880  67.115  1.00  0.00    -0.017 C  
ENDROOT
BRANCH   2   3
HETATM    3  C   UNL     1      -6.860   6.616  67.927  1.00  0.00    -0.077 C  
HETATM    4  O   UNL     1      -6.586   7.138  68.997  1.00  0.00    -0.041 OA 
HETATM    5  N   UNL     1      -8.119   6.716  67.321  1.00  0.00    -0.119 N  
HETATM    6  H   UNL     1      -8.227   6.293  66.399  1.00  0.00     0.000 HD 
BRANCH   5   7
HETATM    7  S   UNL     1      -9.449   7.464  67.976  1.00  0.00    -0.142 S  
HETATM    8  O   UNL     1     -10.512   7.279  67.003  1.00  0.00    -0.278 OA 
HETATM    9  O   UNL     1      -9.627   7.043  69.351  1.00  0.00    -0.155 OA 
BRANCH   7  10
HETATM   10  C   UNL     1      -8.993   9.177  67.943  1.00  0.00    -0.128 A  
HETATM   11  C   UNL     1      -9.444  10.034  68.946  1.00  0.00    -0.172 A  
HETATM   12  C   UNL     1      -9.277  11.417  68.800  1.00  0.00    -0.108 A  
HETATM   13  C   UNL     1      -8.616  11.951  67.683  1.00  0.00    -0.156 A  
HETATM   14  C   UNL     1      -8.007  11.051  66.792  1.00  0.00    -0.152 A  
HETATM   15  C   UNL     1      -8.223   9.672  66.895  1.00  0.00    -0.113 A  
BRANCH  13  16
HETATM   16  C   UNL     1      -8.676  13.380  67.358  1.00  0.00    -0.209 A  
HETATM   17  C   UNL     1      -7.917  14.385  67.938  1.00  0.00    -0.147 A  
HETATM   18  C   UNL     1      -6.869  14.510  68.972  1.00  0.00    -0.109 C  
HETATM   19  O   UNL     1      -8.256  15.578  67.386  1.00  0.00    -0.151 OA 
HETATM   20  N   UNL     1      -9.249  15.411  66.464  1.00  0.00    -0.268 NA 
HETATM   21  C   UNL     1      -9.546  14.101  66.444  1.00  0.00    -0.293 A  
BRANCH  21  22
HETATM   22  C   UNL     1     -10.620  13.631  65.553  1.00  0.00    -0.300 A  
HETATM   23  C   UNL     1     -10.320  12.746  64.503  1.00  0.00    -0.373 A  
HETATM   24  C   UNL     1     -11.334  12.210  63.702  1.00  0.00    -0.545 A  
HETATM   25  C   UNL     1     -12.664  12.538  63.951  1.00  0.00    -0.414 A  
HETATM   26  C   UNL     1     -12.975  13.451  64.956  1.00  0.00    -0.220 A  
HETATM   27  C   UNL     1     -11.955  14.023  65.721  1.00  0.00    -0.417 A  
ENDBRANCH  21  22
ENDBRANCH  13  16
ENDBRANCH   7  10
ENDBRANCH   5   7
ENDBRANCH   2   3
TORSDOF 5
ENDMDL
MODEL      206
REMARK 921   NORMALIZED FREE ENERGY PREDICTED BY IDOCK:   -3.90 KCAL/MOL
REMARK 922        TOTAL FREE ENERGY PREDICTED BY IDOCK:   -6.13 KCAL/MOL
REMARK 923 INTER-LIGAND FREE ENERGY PREDICTED BY IDOCK:   -5.41 KCAL/MOL
REMARK 924 INTRA-LIGAND FREE ENERGY PREDICTED BY IDOCK:   -0.71 KCAL/MOL
REMARK 927      BINDING AFFINITY PREDICTED BY RF-SCORE:    0.00 PKD
ROOT
HETATM    1  C   UNL     1     -10.180   6.242  74.292  1.00  0.00    -0.351 C  
HETATM    2  C   UNL     1      -9.903   6.495  72.822  1.00  0.00    -0.180 C  
ENDROOT
BRANCH   2   3
HETATM    3  C   UNL     1      -8.661   7.342  72.670  1.00  0.00    -0.113 C  
HETATM    4  O   UNL     1      -7.911   7.556  73.611  1.00  0.00    -0.105 OA 
HETATM    5  N   UNL     1      -8.405   7.785  71.366  1.00  0.00    -0.108 N  
HETATM    6  H   UNL     1      -9.064   7.503  70.640  1.00  0.00     0.000 HD 
BRANCH   5   7
HETATM    7  S   UNL     1      -7.120   8.728  70.901  1.00  0.00    -0.085 S  
HETATM    8  O   UNL     1      -6.678   9.399  72.111  1.00  0.00    -0.292 OA 
HETATM    9  O   UNL     1      -6.191   7.946  70.111  1.00  0.00    -0.032 OA 
BRANCH   7  10
HETATM   10  C   UNL     1      -7.883   9.950  69.866  1.00  0.00    -0.173 A  
HETATM   11  C   UNL     1      -9.273  10.010  69.772  1.00  0.00    -0.227 A  
HETATM   12  C   UNL     1      -9.865  10.815  68.791  1.00  0.00    -0.200 A  
HETATM   13  C   UNL     1      -9.081  11.602  67.934  1.00  0.00    -0.171 A  
HETATM   14  C   UNL     1      -7.701  11.666  68.184  1.00  0.00    -0.122 A  
HETATM   15  C   UNL     1      -7.094  10.818  69.118  1.00  0.00    -0.101 A  
BRANCH  13  16
HETATM   16  C   UNL     1      -9.639  12.224  66.727  1.00  0.00    -0.220 A  
HETATM   17  C   UNL     1     -10.013  11.567  65.565  1.00  0.00    -0.242 A  
HETATM   18  C   UNL     1     -10.040  10.184  65.046  1.00  0.00    -0.305 C  
HETATM   19  O   UNL     1     -10.478  12.474  64.668  1.00  0.00    -0.292 OA 
HETATM   20  N   UNL     1     -10.401  13.736  65.183  1.00  0.00    -0.363 NA 
HETATM   21  C   UNL     1      -9.872  13.623  66.413  1.00  0.00    -0.296 A  
BRANCH  21  22
HETATM   22  C   UNL     1      -9.640  14.846  67.200  1.00  0.00    -0.229 A  
HETATM   23  C   UNL     1     -10.731  15.549  67.737  1.00  0.00    -0.297 A  
HETATM   24  C   UNL     1     -10.535  16.658  68.567  1.00  0.00    -0.319 A  
HETATM   25  C   UNL     1      -9.244  17.069  68.884  1.00  0.00    -0.215 A  
HETATM   26  C   UNL     1      -8.151  16.414  68.322  1.00  0.00    -0.171 A  
HETATM   27  C   UNL     1      -8.352  15.337  67.453  1.00  0.00    -0.202 A  
ENDBRANCH  21  22
ENDBRANCH  13  16
ENDBRANCH   7  10
ENDBRANCH   5   7
ENDBRANCH   2   3
TORSDOF 5
ENDMDL
MODEL      207
REMARK 921   NORMALIZED FREE ENERGY PREDICTED BY IDOCK:   -3.81 KCAL/MOL
REMARK 922        TOTAL FREE ENERGY PREDICTED BY IDOCK:   -6.01 KCAL/MOL
REMARK 923 INTER-LIGAND FREE ENERGY PREDICTED BY IDOCK:   -4.89 KCAL/MOL
REMARK 924 INTRA-LIGAND FREE ENERGY PREDICTED BY IDOCK:   -1.12 KCAL/MOL
REMARK 927      BINDING AFFINITY PREDICTED BY RF-SCORE:    0.00 PKD
ROOT
HETATM    1  C   UNL     1     -12.171  15.183  64.319  1.00  0.00    -0.257 C  
HETATM    2  C   UNL     1     -10.946  15.830  64.938  1.00  0.00    -0.443 C  
ENDROOT
BRANCH   2   3
HETATM    3  C   UNL     1     -10.716  15.278  66.326  1.00  0.00    -0.315 C  
HETATM    4  O   UNL     1     -10.826  15.980  67.321  1.00  0.00    -0.313 OA 
HETATM    5  N   UNL     1     -10.451  13.904  66.377  1.00  0.00    -0.280 N  
HETATM    6  H   UNL     1     -10.436  13.398  65.492  1.00  0.00     0.000 HD 
BRANCH   5   7
HETATM    7  S   UNL     1     -10.158  13.029  67.758  1.00  0.00    -0.235 S  
HETATM    8  O   UNL     1      -8.979  13.633  68.353  1.00  0.00    -0.187 OA 
HETATM    9  O   UNL     1     -11.380  12.887  68.524  1.00  0.00    -0.249 OA 
BRANCH   7  10
HETATM   10  C   UNL     1      -9.679  11.443  67.125  1.00  0.00    -0.182 A  
HETATM   11  C   UNL     1      -8.516  10.832  67.593  1.00  0.00    -0.119 A  
HETATM   12  C   UNL     1      -8.018   9.699  66.936  1.00  0.00    -0.105 A  
HETATM   13  C   UNL     1      -8.701   9.139  65.846  1.00  0.00    -0.184 A  
HETATM   14  C   UNL     1      -9.965   9.662  65.527  1.00  0.00    -0.279 A  
HETATM   15  C   UNL     1     -10.439  10.831  66.133  1.00  0.00    -0.278 A  
BRANCH  13  16
HETATM   16  C   UNL     1      -8.074   8.145  64.968  1.00  0.00    -0.155 A  
HETATM   17  C   UNL     1      -7.543   8.382  63.709  1.00  0.00    -0.135 A  
HETATM   18  C   UNL     1      -7.366   9.525  62.790  1.00  0.00    -0.101 C  
HETATM   19  O   UNL     1      -7.059   7.219  63.202  1.00  0.00    -0.056 OA 
HETATM   20  N   UNL     1      -7.276   6.191  64.074  1.00  0.00    -0.057 NA 
HETATM   21  C   UNL     1      -7.913   6.711  65.136  1.00  0.00    -0.124 A  
BRANCH  21  22
HETATM   22  C   UNL     1      -8.308   5.812  66.234  1.00  0.00    -0.115 A  
HETATM   23  C   UNL     1      -9.249   4.794  66.000  1.00  0.00    -0.148 A  
HETATM   24  C   UNL     1      -9.569   3.868  66.999  1.00  0.00    -0.227 A  
HETATM   25  C   UNL     1      -8.943   3.937  68.239  1.00  0.00    -0.162 A  
HETATM   26  C   UNL     1      -8.045   4.968  68.504  1.00  0.00    -0.085 A  
HETATM   27  C   UNL     1      -7.764   5.922  67.521  1.00  0.00    -0.097 A  
ENDBRANCH  21  22
ENDBRANCH  13  16
ENDBRANCH   7  10
ENDBRANCH   5   7
ENDBRANCH   2   3
TORSDOF 5
ENDMDL
MODEL      208
REMARK 921   NORMALIZED FREE ENERGY PREDICTED BY IDOCK:   -3.81 KCAL/MOL
REMARK 922        TOTAL FREE ENERGY PREDICTED BY IDOCK:   -6.00 KCAL/MOL
REMARK 923 INTER-LIGAND FREE ENERGY PREDICTED BY IDOCK:   -4.90 KCAL/MOL
REMARK 924 INTRA-LIGAND FREE ENERGY PREDICTED BY IDOCK:   -1.10 KCAL/MOL
REMARK 927      BINDING AFFINITY PREDICTED BY RF-SCORE:    0.00 PKD
ROOT
HETATM    1  C   UNL     1      -8.691   2.016  65.763  1.00  0.00    -0.119 C  
HETATM    2  C   UNL     1      -9.048   1.819  67.224  1.00  0.00    -0.141 C  
ENDROOT
BRANCH   2   3
HETATM    3  C   UNL     1      -8.546   2.987  68.041  1.00  0.00    -0.094 C  
HETATM    4  O   UNL     1      -7.475   3.525  67.799  1.00  0.00    -0.061 OA 
HETATM    5  N   UNL     1      -9.431   3.442  69.026  1.00  0.00    -0.165 N  
HETATM    6  H   UNL     1     -10.326   2.958  69.109  1.00  0.00     0.000 HD 
BRANCH   5   7
HETATM    7  S   UNL     1      -9.149   4.702  70.070  1.00  0.00    -0.116 S  
HETATM    8  O   UNL     1     -10.297   4.730  70.958  1.00  0.00    -0.199 OA 
HETATM    9  O   UNL     1      -7.806   4.611  70.604  1.00  0.00    -0.060 OA 
BRANCH   7  10
HETATM   10  C   UNL     1      -9.262   6.122  69.013  1.00  0.00    -0.126 A  
HETATM   11  C   UNL     1     -10.414   6.333  68.257  1.00  0.00    -0.277 A  
HETATM   12  C   UNL     1     -10.416   7.317  67.260  1.00  0.00    -0.380 A  
HETATM   13  C   UNL     1      -9.291   8.129  67.045  1.00  0.00    -0.197 A  
HETATM   14  C   UNL     1      -8.223   8.019  67.951  1.00  0.00    -0.129 A  
HETATM   15  C   UNL     1      -8.186   6.998  68.907  1.00  0.00    -0.122 A  
BRANCH  13  16
HETATM   16  C   UNL     1      -9.154   8.959  65.843  1.00  0.00    -0.271 A  
HETATM   17  C   UNL     1      -8.650   8.550  64.618  1.00  0.00    -0.055 A  
HETATM   18  C   UNL     1      -8.104   7.318  64.012  1.00  0.00    -0.021 C  
HETATM   19  O   UNL     1      -8.673   9.596  63.753  1.00  0.00    -0.195 OA 
HETATM   20  N   UNL     1      -9.153  10.715  64.371  1.00  0.00    -0.205 NA 
HETATM   21  C   UNL     1      -9.425  10.372  65.641  1.00  0.00    -0.211 A  
BRANCH  21  22
HETATM   22  C   UNL     1      -9.932  11.404  66.560  1.00  0.00    -0.243 A  
HETATM   23  C   UNL     1      -9.216  12.601  66.732  1.00  0.00    -0.225 A  
HETATM   24  C   UNL     1      -9.723  13.635  67.525  1.00  0.00    -0.227 A  
HETATM   25  C   UNL     1     -10.962  13.495  68.143  1.00  0.00    -0.275 A  
HETATM   26  C   UNL     1     -11.663  12.298  68.023  1.00  0.00    -0.417 A  
HETATM   27  C   UNL     1     -11.130  11.247  67.271  1.00  0.00    -0.367 A  
ENDBRANCH  21  22
ENDBRANCH  13  16
ENDBRANCH   7  10
ENDBRANCH   5   7
ENDBRANCH   2   3
TORSDOF 5
ENDMDL
MODEL      209
REMARK 921   NORMALIZED FREE ENERGY PREDICTED BY IDOCK:   -3.74 KCAL/MOL
REMARK 922        TOTAL FREE ENERGY PREDICTED BY IDOCK:   -5.92 KCAL/MOL
REMARK 923 INTER-LIGAND FREE ENERGY PREDICTED BY IDOCK:   -4.86 KCAL/MOL
REMARK 924 INTRA-LIGAND FREE ENERGY PREDICTED BY IDOCK:   -1.06 KCAL/MOL
REMARK 927      BINDING AFFINITY PREDICTED BY RF-SCORE:    0.00 PKD
ROOT
HETATM    1  C   UNL     1      -9.131   8.334  69.408  1.00  0.00    -0.154 C  
HETATM    2  C   UNL     1      -9.324   9.085  70.712  1.00  0.00    -0.305 C  
ENDROOT
BRANCH   2   3
HETATM    3  C   UNL     1     -10.675   9.762  70.722  1.00  0.00    -0.323 C  
HETATM    4  O   UNL     1     -11.568   9.399  71.474  1.00  0.00    -0.346 OA 
HETATM    5  N   UNL     1     -10.787  10.868  69.871  1.00  0.00    -0.446 N  
HETATM    6  H   UNL     1      -9.963  11.122  69.326  1.00  0.00     0.000 HD 
BRANCH   5   7
HETATM    7  S   UNL     1     -12.147  11.801  69.674  1.00  0.00    -0.219 S  
HETATM    8  O   UNL     1     -12.837  11.238  68.527  1.00  0.00     0.493 OA 
HETATM    9  O   UNL     1     -12.830  11.956  70.942  1.00  0.00    -0.248 OA 
BRANCH   7  10
HETATM   10  C   UNL     1     -11.481  13.367  69.175  1.00  0.00    -0.300 A  
HETATM   11  C   UNL     1     -10.578  13.430  68.114  1.00  0.00    -0.255 A  
HETATM   12  C   UNL     1      -9.883  14.621  67.868  1.00  0.00    -0.217 A  
HETATM   13  C   UNL     1     -10.119  15.768  68.642  1.00  0.00    -0.211 A  
HETATM   14  C   UNL     1     -11.171  15.724  69.572  1.00  0.00    -0.317 A  
HETATM   15  C   UNL     1     -11.825  14.523  69.868  1.00  0.00    -0.373 A  
BRANCH  13  16
HETATM   16  C   UNL     1      -9.220  16.927  68.603  1.00  0.00    -0.265 A  
HETATM   17  C   UNL     1      -9.553  18.210  68.197  1.00  0.00    -0.307 A  
HETATM   18  C   UNL     1     -10.744  18.928  67.698  1.00  0.00    -0.469 C  
HETATM   19  O   UNL     1      -8.460  19.008  68.292  1.00  0.00    -0.306 OA 
HETATM   20  N   UNL     1      -7.382  18.290  68.725  1.00  0.00    -0.288 NA 
HETATM   21  C   UNL     1      -7.800  17.024  68.893  1.00  0.00    -0.224 A  
BRANCH  21  22
HETATM   22  C   UNL     1      -6.826  16.009  69.329  1.00  0.00    -0.201 A  
HETATM   23  C   UNL     1      -6.551  15.845  70.697  1.00  0.00     0.761 A  
HETATM   24  C   UNL     1      -5.704  14.826  71.144  1.00  0.00    -0.058 A  
HETATM   25  C   UNL     1      -5.133  13.945  70.230  1.00  0.00    -0.093 A  
HETATM   26  C   UNL     1      -5.356  14.122  68.867  1.00  0.00    -0.083 A  
HETATM   27  C   UNL     1      -6.163  15.173  68.420  1.00  0.00    -0.108 A  
ENDBRANCH  21  22
ENDBRANCH  13  16
ENDBRANCH   7  10
ENDBRANCH   5   7
ENDBRANCH   2   3
TORSDOF 5
ENDMDL
MODEL      210
REMARK 921   NORMALIZED FREE ENERGY PREDICTED BY IDOCK:   -3.74 KCAL/MOL
REMARK 922        TOTAL FREE ENERGY PREDICTED BY IDOCK:   -5.91 KCAL/MOL
REMARK 923 INTER-LIGAND FREE ENERGY PREDICTED BY IDOCK:   -4.75 KCAL/MOL
REMARK 924 INTRA-LIGAND FREE ENERGY PREDICTED BY IDOCK:   -1.17 KCAL/MOL
REMARK 927      BINDING AFFINITY PREDICTED BY RF-SCORE:    0.00 PKD
ROOT
HETATM    1  C   UNL     1      -9.570  11.182  66.326  1.00  0.00    -0.234 C  
HETATM    2  C   UNL     1      -9.952  12.528  66.912  1.00  0.00    -0.229 C  
ENDROOT
BRANCH   2   3
HETATM    3  C   UNL     1     -11.032  12.350  67.954  1.00  0.00    -0.228 C  
HETATM    4  O   UNL     1     -12.006  13.087  68.001  1.00  0.00    -0.350 OA 
HETATM    5  N   UNL     1     -10.865  11.241  68.793  1.00  0.00    -0.195 N  
HETATM    6  H   UNL     1     -10.045  10.655  68.634  1.00  0.00     0.000 HD 
BRANCH   5   7
HETATM    7  S   UNL     1     -11.888  10.799  70.024  1.00  0.00    -0.372 S  
HETATM    8  O   UNL     1     -11.842  11.895  70.975  1.00  0.00    -0.008 OA 
HETATM    9  O   UNL     1     -13.153  10.348  69.479  1.00  0.00     0.118 OA 
BRANCH   7  10
HETATM   10  C   UNL     1     -11.046   9.423  70.761  1.00  0.00    -0.300 A  
HETATM   11  C   UNL     1     -11.549   8.845  71.925  1.00  0.00    -0.442 A  
HETATM   12  C   UNL     1     -10.770   7.917  72.628  1.00  0.00    -0.411 A  
HETATM   13  C   UNL     1      -9.511   7.521  72.150  1.00  0.00    -0.185 A  
HETATM   14  C   UNL     1      -9.123   7.975  70.879  1.00  0.00    -0.161 A  
HETATM   15  C   UNL     1      -9.863   8.950  70.201  1.00  0.00    -0.199 A  
BRANCH  13  16
HETATM   16  C   UNL     1      -8.560   6.785  72.990  1.00  0.00    -0.131 A  
HETATM   17  C   UNL     1      -7.732   7.328  73.960  1.00  0.00    -0.112 A  
HETATM   18  C   UNL     1      -7.440   8.658  74.535  1.00  0.00    -0.170 C  
HETATM   19  O   UNL     1      -6.991   6.339  74.521  1.00  0.00    -0.089 OA 
HETATM   20  N   UNL     1      -7.274   5.139  73.934  1.00  0.00    -0.082 NA 
HETATM   21  C   UNL     1      -8.195   5.379  72.986  1.00  0.00    -0.112 A  
BRANCH  21  22
HETATM   22  C   UNL     1      -8.669   4.256  72.159  1.00  0.00    -0.120 A  
HETATM   23  C   UNL     1      -9.237   3.126  72.772  1.00  0.00    -0.126 A  
HETATM   24  C   UNL     1      -9.780   2.089  72.007  1.00  0.00    -0.199 A  
HETATM   25  C   UNL     1      -9.779   2.174  70.618  1.00  0.00    -0.080 A  
HETATM   26  C   UNL     1      -9.177   3.263  69.993  1.00  0.00    -0.221 A  
HETATM   27  C   UNL     1      -8.590   4.274  70.760  1.00  0.00    -0.112 A  
ENDBRANCH  21  22
ENDBRANCH  13  16
ENDBRANCH   7  10
ENDBRANCH   5   7
ENDBRANCH   2   3
TORSDOF 5
ENDMDL
MODEL      211
REMARK 921   NORMALIZED FREE ENERGY PREDICTED BY IDOCK:   -3.72 KCAL/MOL
REMARK 922        TOTAL FREE ENERGY PREDICTED BY IDOCK:   -5.88 KCAL/MOL
REMARK 923 INTER-LIGAND FREE ENERGY PREDICTED BY IDOCK:   -5.28 KCAL/MOL
REMARK 924 INTRA-LIGAND FREE ENERGY PREDICTED BY IDOCK:   -0.60 KCAL/MOL
REMARK 927      BINDING AFFINITY PREDICTED BY RF-SCORE:    0.00 PKD
ROOT
HETATM    1  C   UNL     1     -12.245  15.063  64.542  1.00  0.00    -0.344 C  
HETATM    2  C   UNL     1     -11.337  14.459  65.596  1.00  0.00    -0.330 C  
ENDROOT
BRANCH   2   3
HETATM    3  C   UNL     1     -10.950  13.053  65.200  1.00  0.00    -0.295 C  
HETATM    4  O   UNL     1     -11.655  12.377  64.466  1.00  0.00    -0.321 OA 
HETATM    5  N   UNL     1      -9.700  12.631  65.671  1.00  0.00    -0.419 N  
HETATM    6  H   UNL     1      -9.164  13.294  66.230  1.00  0.00     0.000 HD 
BRANCH   5   7
HETATM    7  S   UNL     1      -9.018  11.142  65.395  1.00  0.00    -0.088 S  
HETATM    8  O   UNL     1      -9.867  10.507  64.403  1.00  0.00    -0.296 OA 
HETATM    9  O   UNL     1      -7.595  11.285  65.165  1.00  0.00     0.404 OA 
BRANCH   7  10
HETATM   10  C   UNL     1      -9.279  10.299  66.934  1.00  0.00    -0.150 A  
HETATM   11  C   UNL     1      -8.272   9.490  67.460  1.00  0.00    -0.121 A  
HETATM   12  C   UNL     1      -8.557   8.652  68.546  1.00  0.00    -0.135 A  
HETATM   13  C   UNL     1      -9.827   8.651  69.144  1.00  0.00    -0.185 A  
HETATM   14  C   UNL     1     -10.753   9.616  68.713  1.00  0.00    -0.234 A  
HETATM   15  C   UNL     1     -10.500  10.411  67.590  1.00  0.00    -0.277 A  
BRANCH  13  16
HETATM   16  C   UNL     1     -10.241   7.599  70.079  1.00  0.00    -0.213 A  
HETATM   17  C   UNL     1     -10.453   7.749  71.441  1.00  0.00    -0.208 A  
HETATM   18  C   UNL     1     -10.385   8.827  72.450  1.00  0.00    -0.224 C  
HETATM   19  O   UNL     1     -10.820   6.555  71.971  1.00  0.00    -0.221 OA 
HETATM   20  N   UNL     1     -10.834   5.589  71.006  1.00  0.00    -0.215 NA 
HETATM   21  C   UNL     1     -10.461   6.180  69.859  1.00  0.00    -0.233 A  
BRANCH  21  22
HETATM   22  C   UNL     1     -10.355   5.359  68.641  1.00  0.00    -0.229 A  
HETATM   23  C   UNL     1     -10.743   5.895  67.400  1.00  0.00    -0.370 A  
HETATM   24  C   UNL     1     -10.563   5.171  66.217  1.00  0.00    -0.325 A  
HETATM   25  C   UNL     1      -9.978   3.909  66.255  1.00  0.00    -0.058 A  
HETATM   26  C   UNL     1      -9.632   3.343  67.479  1.00  0.00    -0.152 A  
HETATM   27  C   UNL     1      -9.860   4.048  68.665  1.00  0.00    -0.046 A  
ENDBRANCH  21  22
ENDBRANCH  13  16
ENDBRANCH   7  10
ENDBRANCH   5   7
ENDBRANCH   2   3
TORSDOF 5
ENDMDL
MODEL      212
REMARK 921   NORMALIZED FREE ENERGY PREDICTED BY IDOCK:   -3.71 KCAL/MOL
REMARK 922        TOTAL FREE ENERGY PREDICTED BY IDOCK:   -5.87 KCAL/MOL
REMARK 923 INTER-LIGAND FREE ENERGY PREDICTED BY IDOCK:   -5.11 KCAL/MOL
REMARK 924 INTRA-LIGAND FREE ENERGY PREDICTED BY IDOCK:   -0.77 KCAL/MOL
REMARK 927      BINDING AFFINITY PREDICTED BY RF-SCORE:    0.00 PKD
ROOT
HETATM    1  C   UNL     1     -11.915  13.876  65.749  1.00  0.00    -0.419 C  
HETATM    2  C   UNL     1     -10.551  13.803  65.090  1.00  0.00    -0.385 C  
ENDROOT
BRANCH   2   3
HETATM    3  C   UNL     1      -9.466  13.858  66.140  1.00  0.00    -0.171 C  
HETATM    4  O   UNL     1      -9.246  14.875  66.782  1.00  0.00    -0.229 OA 
HETATM    5  N   UNL     1      -8.802  12.646  66.367  1.00  0.00    -0.425 N  
HETATM    6  H   UNL     1      -9.100  11.841  65.817  1.00  0.00     0.000 HD 
BRANCH   5   7
HETATM    7  S   UNL     1      -7.571  12.409  67.456  1.00  0.00    -0.166 S  
HETATM    8  O   UNL     1      -6.363  12.310  66.656  1.00  0.00    -0.089 OA 
HETATM    9  O   UNL     1      -7.666  13.377  68.530  1.00  0.00    -0.131 OA 
BRANCH   7  10
HETATM   10  C   UNL     1      -7.917  10.791  68.095  1.00  0.00    -0.114 A  
HETATM   11  C   UNL     1      -7.028   9.745  67.852  1.00  0.00    -0.078 A  
HETATM   12  C   UNL     1      -7.408   8.431  68.157  1.00  0.00    -0.096 A  
HETATM   13  C   UNL     1      -8.650   8.158  68.751  1.00  0.00    -0.127 A  
HETATM   14  C   UNL     1      -9.434   9.250  69.158  1.00  0.00    -0.157 A  
HETATM   15  C   UNL     1      -9.094  10.559  68.800  1.00  0.00    -0.166 A  
BRANCH  13  16
HETATM   16  C   UNL     1      -9.193   6.797  68.818  1.00  0.00    -0.130 A  
HETATM   17  C   UNL     1      -9.470   5.970  67.739  1.00  0.00    -0.112 A  
HETATM   18  C   UNL     1      -9.378   6.022  66.265  1.00  0.00    -0.165 C  
HETATM   19  O   UNL     1      -9.966   4.792  68.194  1.00  0.00    -0.145 OA 
HETATM   20  N   UNL     1     -10.062   4.809  69.556  1.00  0.00    -0.220 NA 
HETATM   21  C   UNL     1      -9.631   6.015  69.961  1.00  0.00    -0.163 A  
BRANCH  21  22
HETATM   22  C   UNL     1      -9.654   6.329  71.399  1.00  0.00    -0.170 A  
HETATM   23  C   UNL     1     -10.756   7.006  71.950  1.00  0.00    -0.244 A  
HETATM   24  C   UNL     1     -10.847   7.232  73.327  1.00  0.00    -0.404 A  
HETATM   25  C   UNL     1      -9.846   6.769  74.176  1.00  0.00    -0.352 A  
HETATM   26  C   UNL     1      -8.724   6.140  73.643  1.00  0.00    -0.124 A  
HETATM   27  C   UNL     1      -8.612   5.960  72.261  1.00  0.00    -0.124 A  
ENDBRANCH  21  22
ENDBRANCH  13  16
ENDBRANCH   7  10
ENDBRANCH   5   7
ENDBRANCH   2   3
TORSDOF 5
ENDMDL
MODEL      213
REMARK 921   NORMALIZED FREE ENERGY PREDICTED BY IDOCK:   -3.62 KCAL/MOL
REMARK 922        TOTAL FREE ENERGY PREDICTED BY IDOCK:   -5.76 KCAL/MOL
REMARK 923 INTER-LIGAND FREE ENERGY PREDICTED BY IDOCK:   -4.50 KCAL/MOL
REMARK 924 INTRA-LIGAND FREE ENERGY PREDICTED BY IDOCK:   -1.27 KCAL/MOL
REMARK 927      BINDING AFFINITY PREDICTED BY RF-SCORE:    0.00 PKD
ROOT
HETATM    1  C   UNL     1      -6.498   8.098  71.574  1.00  0.00    -0.044 C  
HETATM    2  C   UNL     1      -7.651   8.658  72.385  1.00  0.00    -0.029 C  
ENDROOT
BRANCH   2   3
HETATM    3  C   UNL     1      -8.966   8.203  71.795  1.00  0.00    -0.163 C  
HETATM    4  O   UNL     1      -9.628   8.930  71.070  1.00  0.00    -0.208 OA 
HETATM    5  N   UNL     1      -9.312   6.876  72.080  1.00  0.00    -0.141 N  
HETATM    6  H   UNL     1      -8.661   6.336  72.649  1.00  0.00     0.000 HD 
BRANCH   5   7
HETATM    7  S   UNL     1     -10.693   6.109  71.568  1.00  0.00    -0.261 S  
HETATM    8  O   UNL     1     -10.722   4.848  72.288  1.00  0.00    -0.207 OA 
HETATM    9  O   UNL     1     -11.819   7.019  71.631  1.00  0.00    -0.279 OA 
BRANCH   7  10
HETATM   10  C   UNL     1     -10.334   5.741  69.871  1.00  0.00    -0.262 A  
HETATM   11  C   UNL     1      -9.221   4.965  69.550  1.00  0.00    -0.171 A  
HETATM   12  C   UNL     1      -8.809   4.866  68.215  1.00  0.00    -0.114 A  
HETATM   13  C   UNL     1      -9.531   5.494  67.188  1.00  0.00    -0.122 A  
HETATM   14  C   UNL     1     -10.751   6.103  67.525  1.00  0.00    -0.393 A  
HETATM   15  C   UNL     1     -11.136   6.263  68.861  1.00  0.00    -0.434 A  
BRANCH  13  16
HETATM   16  C   UNL     1      -8.979   5.651  65.838  1.00  0.00    -0.160 A  
HETATM   17  C   UNL     1      -8.771   4.638  64.915  1.00  0.00    -0.145 A  
HETATM   18  C   UNL     1      -8.961   3.175  64.830  1.00  0.00    -0.130 C  
HETATM   19  O   UNL     1      -8.240   5.166  63.783  1.00  0.00    -0.115 OA 
HETATM   20  N   UNL     1      -8.054   6.511  63.925  1.00  0.00    -0.074 NA 
HETATM   21  C   UNL     1      -8.462   6.830  65.165  1.00  0.00    -0.028 A  
BRANCH  21  22
HETATM   22  C   UNL     1      -8.345   8.229  65.611  1.00  0.00    -0.154 A  
HETATM   23  C   UNL     1      -9.504   8.977  65.880  1.00  0.00    -0.317 A  
HETATM   24  C   UNL     1      -9.419  10.274  66.395  1.00  0.00    -0.218 A  
HETATM   25  C   UNL     1      -8.174  10.836  66.665  1.00  0.00    -0.140 A  
HETATM   26  C   UNL     1      -7.015  10.128  66.360  1.00  0.00    -0.105 A  
HETATM   27  C   UNL     1      -7.103   8.851  65.798  1.00  0.00    -0.084 A  
ENDBRANCH  21  22
ENDBRANCH  13  16
ENDBRANCH   7  10
ENDBRANCH   5   7
ENDBRANCH   2   3
TORSDOF 5
ENDMDL
MODEL      214
REMARK 921   NORMALIZED FREE ENERGY PREDICTED BY IDOCK:   -3.60 KCAL/MOL
REMARK 922        TOTAL FREE ENERGY PREDICTED BY IDOCK:   -5.73 KCAL/MOL
REMARK 923 INTER-LIGAND FREE ENERGY PREDICTED BY IDOCK:   -5.08 KCAL/MOL
REMARK 924 INTRA-LIGAND FREE ENERGY PREDICTED BY IDOCK:   -0.65 KCAL/MOL
REMARK 927      BINDING AFFINITY PREDICTED BY RF-SCORE:    0.00 PKD
ROOT
HETATM    1  C   UNL     1     -11.725  15.828  69.221  1.00  0.00    -0.384 C  
HETATM    2  C   UNL     1     -12.123  14.394  69.517  1.00  0.00    -0.366 C  
ENDROOT
BRANCH   2   3
HETATM    3  C   UNL     1     -11.388  13.453  68.590  1.00  0.00    -0.286 C  
HETATM    4  O   UNL     1     -11.924  12.986  67.595  1.00  0.00    -0.353 OA 
HETATM    5  N   UNL     1     -10.045  13.231  68.918  1.00  0.00    -0.430 N  
HETATM    6  H   UNL     1      -9.679  13.714  69.738  1.00  0.00     0.000 HD 
BRANCH   5   7
HETATM    7  S   UNL     1      -8.998  12.248  68.084  1.00  0.00    -0.185 S  
HETATM    8  O   UNL     1      -9.496  12.225  66.720  1.00  0.00    -0.209 OA 
HETATM    9  O   UNL     1      -7.629  12.633  68.363  1.00  0.00    -0.122 OA 
BRANCH   7  10
HETATM   10  C   UNL     1      -9.311  10.651  68.789  1.00  0.00    -0.180 A  
HETATM   11  C   UNL     1      -8.355  10.058  69.614  1.00  0.00    -0.188 A  
HETATM   12  C   UNL     1      -8.500   8.714  69.983  1.00  0.00    -0.130 A  
HETATM   13  C   UNL     1      -9.619   7.970  69.577  1.00  0.00    -0.164 A  
HETATM   14  C   UNL     1     -10.652   8.653  68.914  1.00  0.00    -0.166 A  
HETATM   15  C   UNL     1     -10.488   9.975  68.486  1.00  0.00    -0.229 A  
BRANCH  13  16
HETATM   16  C   UNL     1      -9.662   6.509  69.699  1.00  0.00    -0.167 A  
HETATM   17  C   UNL     1     -10.241   5.789  70.733  1.00  0.00    -0.219 A  
HETATM   18  C   UNL     1     -10.968   6.065  71.989  1.00  0.00    -0.313 C  
HETATM   19  O   UNL     1     -10.077   4.462  70.502  1.00  0.00    -0.213 OA 
HETATM   20  N   UNL     1      -9.372   4.263  69.349  1.00  0.00    -0.149 NA 
HETATM   21  C   UNL     1      -9.081   5.478  68.856  1.00  0.00    -0.118 A  
BRANCH  21  22
HETATM   22  C   UNL     1      -8.289   5.570  67.618  1.00  0.00    -0.100 A  
HETATM   23  C   UNL     1      -7.560   4.454  67.171  1.00  0.00    -0.085 A  
HETATM   24  C   UNL     1      -6.877   4.484  65.951  1.00  0.00    -0.058 A  
HETATM   25  C   UNL     1      -6.926   5.623  65.153  1.00  0.00    -0.063 A  
HETATM   26  C   UNL     1      -7.602   6.754  65.603  1.00  0.00    -0.090 A  
HETATM   27  C   UNL     1      -8.242   6.738  66.846  1.00  0.00    -0.113 A  
ENDBRANCH  21  22
ENDBRANCH  13  16
ENDBRANCH   7  10
ENDBRANCH   5   7
ENDBRANCH   2   3
TORSDOF 5
ENDMDL
MODEL      215
REMARK 921   NORMALIZED FREE ENERGY PREDICTED BY IDOCK:   -3.59 KCAL/MOL
REMARK 922        TOTAL FREE ENERGY PREDICTED BY IDOCK:   -5.72 KCAL/MOL
REMARK 923 INTER-LIGAND FREE ENERGY PREDICTED BY IDOCK:   -4.56 KCAL/MOL
REMARK 924 INTRA-LIGAND FREE ENERGY PREDICTED BY IDOCK:   -1.16 KCAL/MOL
REMARK 927      BINDING AFFINITY PREDICTED BY RF-SCORE:    0.00 PKD
ROOT
HETATM    1  C   UNL     1     -11.831  12.283  63.615  1.00  0.00    -0.610 C  
HETATM    2  C   UNL     1     -12.731  13.095  64.527  1.00  0.00    -0.270 C  
ENDROOT
BRANCH   2   3
HETATM    3  C   UNL     1     -12.145  13.145  65.919  1.00  0.00    -0.444 C  
HETATM    4  O   UNL     1     -12.436  14.035  66.705  1.00  0.00    -0.391 OA 
HETATM    5  N   UNL     1     -11.319  12.064  66.251  1.00  0.00    -0.347 N  
HETATM    6  H   UNL     1     -11.185  11.344  65.541  1.00  0.00     0.000 HD 
BRANCH   5   7
HETATM    7  S   UNL     1     -10.541  11.854  67.703  1.00  0.00    -0.218 S  
HETATM    8  O   UNL     1      -9.425  12.783  67.679  1.00  0.00    -0.179 OA 
HETATM    9  O   UNL     1     -11.500  11.882  68.788  1.00  0.00    -0.239 OA 
BRANCH   7  10
HETATM   10  C   UNL     1      -9.871  10.218  67.558  1.00  0.00    -0.173 A  
HETATM   11  C   UNL     1     -10.647   9.117  67.916  1.00  0.00    -0.272 A  
HETATM   12  C   UNL     1     -10.050   7.854  68.018  1.00  0.00    -0.235 A  
HETATM   13  C   UNL     1      -8.692   7.671  67.715  1.00  0.00    -0.127 A  
HETATM   14  C   UNL     1      -7.990   8.761  67.173  1.00  0.00    -0.096 A  
HETATM   15  C   UNL     1      -8.560  10.039  67.128  1.00  0.00    -0.128 A  
BRANCH  13  16
HETATM   16  C   UNL     1      -7.975   6.445  68.082  1.00  0.00    -0.109 A  
HETATM   17  C   UNL     1      -8.013   5.238  67.399  1.00  0.00    -0.100 A  
HETATM   18  C   UNL     1      -8.659   4.679  66.194  1.00  0.00    -0.114 C  
HETATM   19  O   UNL     1      -7.229   4.336  68.042  1.00  0.00    -0.062 OA 
HETATM   20  N   UNL     1      -6.683   4.892  69.164  1.00  0.00    -0.047 NA 
HETATM   21  C   UNL     1      -7.137   6.154  69.232  1.00  0.00    -0.066 A  
BRANCH  21  22
HETATM   22  C   UNL     1      -6.732   6.992  70.373  1.00  0.00    -0.053 A  
HETATM   23  C   UNL     1      -7.062   6.599  71.682  1.00  0.00    -0.080 A  
HETATM   24  C   UNL     1      -6.608   7.325  72.788  1.00  0.00    -0.063 A  
HETATM   25  C   UNL     1      -5.802   8.444  72.602  1.00  0.00    -0.067 A  
HETATM   26  C   UNL     1      -5.505   8.876  71.312  1.00  0.00    -0.040 A  
HETATM   27  C   UNL     1      -6.003   8.177  70.208  1.00  0.00    -0.028 A  
ENDBRANCH  21  22
ENDBRANCH  13  16
ENDBRANCH   7  10
ENDBRANCH   5   7
ENDBRANCH   2   3
TORSDOF 5
ENDMDL
MODEL      216
REMARK 921   NORMALIZED FREE ENERGY PREDICTED BY IDOCK:   -3.58 KCAL/MOL
REMARK 922        TOTAL FREE ENERGY PREDICTED BY IDOCK:   -5.71 KCAL/MOL
REMARK 923 INTER-LIGAND FREE ENERGY PREDICTED BY IDOCK:   -4.78 KCAL/MOL
REMARK 924 INTRA-LIGAND FREE ENERGY PREDICTED BY IDOCK:   -0.93 KCAL/MOL
REMARK 927      BINDING AFFINITY PREDICTED BY RF-SCORE:    0.00 PKD
ROOT
HETATM    1  C   UNL     1      -5.914   5.424  62.393  1.00  0.00    -0.014 C  
HETATM    2  C   UNL     1      -5.235   5.146  63.720  1.00  0.00    -0.010 C  
ENDROOT
BRANCH   2   3
HETATM    3  C   UNL     1      -6.225   4.543  64.690  1.00  0.00    -0.030 C  
HETATM    4  O   UNL     1      -5.863   4.026  65.737  1.00  0.00    -0.021 OA 
HETATM    5  N   UNL     1      -7.570   4.696  64.332  1.00  0.00    -0.071 N  
HETATM    6  H   UNL     1      -7.767   5.194  63.464  1.00  0.00     0.000 HD 
BRANCH   5   7
HETATM    7  S   UNL     1      -8.870   4.137  65.200  1.00  0.00    -0.137 S  
HETATM    8  O   UNL     1      -9.848   3.727  64.208  1.00  0.00    -0.162 OA 
HETATM    9  O   UNL     1      -8.423   3.210  66.221  1.00  0.00    -0.098 OA 
BRANCH   7  10
HETATM   10  C   UNL     1      -9.487   5.607  65.977  1.00  0.00    -0.110 A  
HETATM   11  C   UNL     1      -8.699   6.757  66.008  1.00  0.00    -0.155 A  
HETATM   12  C   UNL     1      -9.086   7.838  66.811  1.00  0.00    -0.185 A  
HETATM   13  C   UNL     1     -10.282   7.800  67.545  1.00  0.00    -0.301 A  
HETATM   14  C   UNL     1     -11.142   6.709  67.338  1.00  0.00    -0.398 A  
HETATM   15  C   UNL     1     -10.736   5.599  66.590  1.00  0.00    -0.339 A  
BRANCH  13  16
HETATM   16  C   UNL     1     -10.572   8.775  68.603  1.00  0.00    -0.174 A  
HETATM   17  C   UNL     1     -10.922  10.104  68.419  1.00  0.00    -0.244 A  
HETATM   18  C   UNL     1     -11.143  11.035  67.293  1.00  0.00    -0.359 C  
HETATM   19  O   UNL     1     -11.105  10.690  69.629  1.00  0.00    -0.245 OA 
HETATM   20  N   UNL     1     -10.857   9.798  70.633  1.00  0.00    -0.308 NA 
HETATM   21  C   UNL     1     -10.504   8.642  70.047  1.00  0.00    -0.223 A  
BRANCH  21  22
HETATM   22  C   UNL     1     -10.144   7.497  70.900  1.00  0.00    -0.192 A  
HETATM   23  C   UNL     1     -11.111   6.525  71.213  1.00  0.00    -0.321 A  
HETATM   24  C   UNL     1     -10.771   5.381  71.941  1.00  0.00    -0.275 A  
HETATM   25  C   UNL     1      -9.456   5.182  72.352  1.00  0.00    -0.166 A  
HETATM   26  C   UNL     1      -8.496   6.156  72.093  1.00  0.00    -0.116 A  
HETATM   27  C   UNL     1      -8.850   7.323  71.410  1.00  0.00    -0.130 A  
ENDBRANCH  21  22
ENDBRANCH  13  16
ENDBRANCH   7  10
ENDBRANCH   5   7
ENDBRANCH   2   3
TORSDOF 5
ENDMDL
MODEL      217
REMARK 921   NORMALIZED FREE ENERGY PREDICTED BY IDOCK:   -3.54 KCAL/MOL
REMARK 922        TOTAL FREE ENERGY PREDICTED BY IDOCK:   -5.66 KCAL/MOL
REMARK 923 INTER-LIGAND FREE ENERGY PREDICTED BY IDOCK:   -5.00 KCAL/MOL
REMARK 924 INTRA-LIGAND FREE ENERGY PREDICTED BY IDOCK:   -0.66 KCAL/MOL
REMARK 927      BINDING AFFINITY PREDICTED BY RF-SCORE:    0.00 PKD
ROOT
HETATM    1  C   UNL     1      -6.223   6.334  62.722  1.00  0.00    -0.030 C  
HETATM    2  C   UNL     1      -5.481   6.477  64.038  1.00  0.00    -0.026 C  
ENDROOT
BRANCH   2   3
HETATM    3  C   UNL     1      -6.100   5.575  65.080  1.00  0.00    -0.026 C  
HETATM    4  O   UNL     1      -5.441   5.114  66.001  1.00  0.00    -0.012 OA 
HETATM    5  N   UNL     1      -7.481   5.382  64.948  1.00  0.00    -0.068 N  
HETATM    6  H   UNL     1      -7.947   5.858  64.176  1.00  0.00     0.000 HD 
BRANCH   5   7
HETATM    7  S   UNL     1      -8.423   4.444  65.943  1.00  0.00    -0.114 S  
HETATM    8  O   UNL     1      -9.554   4.036  65.128  1.00  0.00    -0.158 OA 
HETATM    9  O   UNL     1      -7.604   3.456  66.615  1.00  0.00    -0.075 OA 
BRANCH   7  10
HETATM   10  C   UNL     1      -9.023   5.613  67.134  1.00  0.00    -0.112 A  
HETATM   11  C   UNL     1      -8.128   6.253  67.990  1.00  0.00    -0.115 A  
HETATM   12  C   UNL     1      -8.617   6.996  69.072  1.00  0.00    -0.129 A  
HETATM   13  C   UNL     1      -9.997   7.149  69.278  1.00  0.00    -0.168 A  
HETATM   14  C   UNL     1     -10.864   6.656  68.289  1.00  0.00    -0.322 A  
HETATM   15  C   UNL     1     -10.389   5.858  67.241  1.00  0.00    -0.279 A  
BRANCH  13  16
HETATM   16  C   UNL     1     -10.538   7.668  70.539  1.00  0.00    -0.229 A  
HETATM   17  C   UNL     1     -10.911   8.979  70.793  1.00  0.00    -0.258 A  
HETATM   18  C   UNL     1     -10.950  10.268  70.073  1.00  0.00    -0.371 C  
HETATM   19  O   UNL     1     -11.359   9.077  72.071  1.00  0.00    -0.364 OA 
HETATM   20  N   UNL     1     -11.271   7.868  72.701  1.00  0.00    -0.373 NA 
HETATM   21  C   UNL     1     -10.752   7.004  71.813  1.00  0.00    -0.216 A  
BRANCH  21  22
HETATM   22  C   UNL     1     -10.511   5.614  72.235  1.00  0.00    -0.260 A  
HETATM   23  C   UNL     1      -9.768   4.751  71.411  1.00  0.00    -0.240 A  
HETATM   24  C   UNL     1      -9.444   3.457  71.832  1.00  0.00    -0.208 A  
HETATM   25  C   UNL     1      -9.844   3.012  73.088  1.00  0.00    -0.173 A  
HETATM   26  C   UNL     1     -10.622   3.836  73.897  1.00  0.00    -0.292 A  
HETATM   27  C   UNL     1     -10.987   5.111  73.454  1.00  0.00    -0.381 A  
ENDBRANCH  21  22
ENDBRANCH  13  16
ENDBRANCH   7  10
ENDBRANCH   5   7
ENDBRANCH   2   3
TORSDOF 5
ENDMDL
MODEL      218
REMARK 921   NORMALIZED FREE ENERGY PREDICTED BY IDOCK:   -3.48 KCAL/MOL
REMARK 922        TOTAL FREE ENERGY PREDICTED BY IDOCK:   -5.58 KCAL/MOL
REMARK 923 INTER-LIGAND FREE ENERGY PREDICTED BY IDOCK:   -4.47 KCAL/MOL
REMARK 924 INTRA-LIGAND FREE ENERGY PREDICTED BY IDOCK:   -1.11 KCAL/MOL
REMARK 927      BINDING AFFINITY PREDICTED BY RF-SCORE:    0.00 PKD
ROOT
HETATM    1  C   UNL     1      -8.900   1.530  64.066  1.00  0.00    -0.086 C  
HETATM    2  C   UNL     1      -8.985   2.303  65.368  1.00  0.00    -0.126 C  
ENDROOT
BRANCH   2   3
HETATM    3  C   UNL     1      -9.079   3.784  65.084  1.00  0.00    -0.142 C  
HETATM    4  O   UNL     1      -9.544   4.208  64.036  1.00  0.00    -0.155 OA 
HETATM    5  N   UNL     1      -8.670   4.613  66.136  1.00  0.00    -0.114 N  
HETATM    6  H   UNL     1      -8.350   4.158  66.991  1.00  0.00     0.000 HD 
BRANCH   5   7
HETATM    7  S   UNL     1      -8.661   6.273  66.109  1.00  0.00    -0.147 S  
HETATM    8  O   UNL     1      -7.549   6.638  65.249  1.00  0.00    -0.077 OA 
HETATM    9  O   UNL     1      -9.995   6.771  65.841  1.00  0.00     0.250 OA 
BRANCH   7  10
HETATM   10  C   UNL     1      -8.205   6.692  67.771  1.00  0.00    -0.119 A  
HETATM   11  C   UNL     1      -8.051   5.684  68.722  1.00  0.00    -0.100 A  
HETATM   12  C   UNL     1      -7.917   6.025  70.075  1.00  0.00    -0.109 A  
HETATM   13  C   UNL     1      -7.884   7.368  70.481  1.00  0.00    -0.097 A  
HETATM   14  C   UNL     1      -7.846   8.353  69.480  1.00  0.00    -0.102 A  
HETATM   15  C   UNL     1      -8.044   8.025  68.134  1.00  0.00    -0.129 A  
BRANCH  13  16
HETATM   16  C   UNL     1      -8.033   7.754  71.888  1.00  0.00    -0.116 A  
HETATM   17  C   UNL     1      -7.109   7.538  72.900  1.00  0.00    -0.072 A  
HETATM   18  C   UNL     1      -5.770   6.933  73.052  1.00  0.00    -0.042 C  
HETATM   19  O   UNL     1      -7.601   8.028  74.067  1.00  0.00    -0.149 OA 
HETATM   20  N   UNL     1      -8.851   8.544  73.878  1.00  0.00    -0.089 NA 
HETATM   21  C   UNL     1      -9.152   8.368  72.580  1.00  0.00    -0.241 A  
BRANCH  21  22
HETATM   22  C   UNL     1     -10.471   8.807  72.094  1.00  0.00    -0.384 A  
HETATM   23  C   UNL     1     -11.640   8.274  72.665  1.00  0.00    -0.419 A  
HETATM   24  C   UNL     1     -12.903   8.744  72.288  1.00  0.00    -0.465 A  
HETATM   25  C   UNL     1     -13.014   9.763  71.348  1.00  0.00    -0.490 A  
HETATM   26  C   UNL     1     -11.870  10.269  70.737  1.00  0.00    -0.459 A  
HETATM   27  C   UNL     1     -10.612   9.763  71.079  1.00  0.00    -0.295 A  
ENDBRANCH  21  22
ENDBRANCH  13  16
ENDBRANCH   7  10
ENDBRANCH   5   7
ENDBRANCH   2   3
TORSDOF 5
ENDMDL
MODEL      219
REMARK 921   NORMALIZED FREE ENERGY PREDICTED BY IDOCK:   -3.44 KCAL/MOL
REMARK 922        TOTAL FREE ENERGY PREDICTED BY IDOCK:   -5.53 KCAL/MOL
REMARK 923 INTER-LIGAND FREE ENERGY PREDICTED BY IDOCK:   -4.91 KCAL/MOL
REMARK 924 INTRA-LIGAND FREE ENERGY PREDICTED BY IDOCK:   -0.63 KCAL/MOL
REMARK 927      BINDING AFFINITY PREDICTED BY RF-SCORE:    0.00 PKD
ROOT
HETATM    1  C   UNL     1      -5.240  15.386  71.935  1.00  0.00     0.031 C  
HETATM    2  C   UNL     1      -5.156  16.440  70.846  1.00  0.00    -0.188 C  
ENDROOT
BRANCH   2   3
HETATM    3  C   UNL     1      -6.288  16.257  69.862  1.00  0.00    -0.131 C  
HETATM    4  O   UNL     1      -7.355  15.762  70.197  1.00  0.00     0.130 OA 
HETATM    5  N   UNL     1      -6.044  16.766  68.581  1.00  0.00    -0.142 N  
HETATM    6  H   UNL     1      -5.140  17.211  68.420  1.00  0.00     0.000 HD 
BRANCH   5   7
HETATM    7  S   UNL     1      -7.100  16.706  67.300  1.00  0.00    -0.195 S  
HETATM    8  O   UNL     1      -8.175  17.619  67.646  1.00  0.00    -0.219 OA 
HETATM    9  O   UNL     1      -6.376  16.857  66.054  1.00  0.00    -0.101 OA 
BRANCH   7  10
HETATM   10  C   UNL     1      -7.750  15.059  67.403  1.00  0.00    -0.200 A  
HETATM   11  C   UNL     1      -6.879  13.974  67.494  1.00  0.00    -0.150 A  
HETATM   12  C   UNL     1      -7.378  12.674  67.346  1.00  0.00    -0.140 A  
HETATM   13  C   UNL     1      -8.749  12.443  67.158  1.00  0.00    -0.195 A  
HETATM   14  C   UNL     1      -9.617  13.543  67.266  1.00  0.00    -0.235 A  
HETATM   15  C   UNL     1      -9.124  14.849  67.349  1.00  0.00    -0.196 A  
BRANCH  13  16
HETATM   16  C   UNL     1      -9.262  11.141  66.719  1.00  0.00    -0.183 A  
HETATM   17  C   UNL     1      -9.011  10.530  65.500  1.00  0.00    -0.183 A  
HETATM   18  C   UNL     1      -8.249  10.815  64.266  1.00  0.00     0.110 C  
HETATM   19  O   UNL     1      -9.661   9.340  65.453  1.00  0.00    -0.251 OA 
HETATM   20  N   UNL     1     -10.375   9.141  66.600  1.00  0.00    -0.247 NA 
HETATM   21  C   UNL     1     -10.179  10.223  67.372  1.00  0.00    -0.218 A  
BRANCH  21  22
HETATM   22  C   UNL     1     -10.863  10.298  68.674  1.00  0.00    -0.272 A  
HETATM   23  C   UNL     1     -10.394   9.532  69.756  1.00  0.00    -0.251 A  
HETATM   24  C   UNL     1     -10.966   9.657  71.026  1.00  0.00    -0.431 A  
HETATM   25  C   UNL     1     -12.004  10.560  71.237  1.00  0.00    -0.386 A  
HETATM   26  C   UNL     1     -12.513  11.290  70.166  1.00  0.00    -0.297 A  
HETATM   27  C   UNL     1     -11.973  11.126  68.887  1.00  0.00    -0.367 A  
ENDBRANCH  21  22
ENDBRANCH  13  16
ENDBRANCH   7  10
ENDBRANCH   5   7
ENDBRANCH   2   3
TORSDOF 5
ENDMDL
MODEL      220
REMARK 921   NORMALIZED FREE ENERGY PREDICTED BY IDOCK:   -3.33 KCAL/MOL
REMARK 922        TOTAL FREE ENERGY PREDICTED BY IDOCK:   -5.38 KCAL/MOL
REMARK 923 INTER-LIGAND FREE ENERGY PREDICTED BY IDOCK:   -4.76 KCAL/MOL
REMARK 924 INTRA-LIGAND FREE ENERGY PREDICTED BY IDOCK:   -0.62 KCAL/MOL
REMARK 927      BINDING AFFINITY PREDICTED BY RF-SCORE:    0.00 PKD
ROOT
HETATM    1  C   UNL     1      -7.965  15.206  68.828  1.00  0.00    -0.162 C  
HETATM    2  C   UNL     1      -8.512  14.939  67.439  1.00  0.00    -0.212 C  
ENDROOT
BRANCH   2   3
HETATM    3  C   UNL     1      -9.630  13.925  67.511  1.00  0.00    -0.229 C  
HETATM    4  O   UNL     1     -10.393  13.878  68.466  1.00  0.00    -0.236 OA 
HETATM    5  N   UNL     1      -9.766  13.114  66.378  1.00  0.00    -0.267 N  
HETATM    6  H   UNL     1      -9.112  13.272  65.610  1.00  0.00     0.000 HD 
BRANCH   5   7
HETATM    7  S   UNL     1     -10.899  11.917  66.176  1.00  0.00    -0.303 S  
HETATM    8  O   UNL     1     -11.995  12.272  67.061  1.00  0.00    -0.576 OA 
HETATM    9  O   UNL     1     -11.136  11.691  64.765  1.00  0.00    -0.304 OA 
BRANCH   7  10
HETATM   10  C   UNL     1     -10.098  10.495  66.870  1.00  0.00    -0.216 A  
HETATM   11  C   UNL     1     -10.782   9.282  66.946  1.00  0.00    -0.164 A  
HETATM   12  C   UNL     1     -10.239   8.229  67.693  1.00  0.00    -0.294 A  
HETATM   13  C   UNL     1      -8.993   8.359  68.324  1.00  0.00    -0.139 A  
HETATM   14  C   UNL     1      -8.247   9.521  68.066  1.00  0.00    -0.114 A  
HETATM   15  C   UNL     1      -8.806  10.602  67.376  1.00  0.00    -0.132 A  
BRANCH  13  16
HETATM   16  C   UNL     1      -8.533   7.400  69.335  1.00  0.00    -0.133 A  
HETATM   17  C   UNL     1      -8.280   7.674  70.671  1.00  0.00    -0.113 A  
HETATM   18  C   UNL     1      -8.334   8.836  71.581  1.00  0.00    -0.190 C  
HETATM   19  O   UNL     1      -7.865   6.540  71.290  1.00  0.00    -0.100 OA 
HETATM   20  N   UNL     1      -7.801   5.506  70.399  1.00  0.00    -0.098 NA 
HETATM   21  C   UNL     1      -8.169   5.999  69.205  1.00  0.00    -0.111 A  
BRANCH  21  22
HETATM   22  C   UNL     1      -8.161   5.104  68.036  1.00  0.00    -0.098 A  
HETATM   23  C   UNL     1      -6.941   4.613  67.539  1.00  0.00    -0.061 A  
HETATM   24  C   UNL     1      -6.912   3.687  66.492  1.00  0.00    -0.058 A  
HETATM   25  C   UNL     1      -8.102   3.225  65.937  1.00  0.00    -0.093 A  
HETATM   26  C   UNL     1      -9.317   3.736  66.384  1.00  0.00    -0.197 A  
HETATM   27  C   UNL     1      -9.341   4.700  67.397  1.00  0.00    -0.162 A  
ENDBRANCH  21  22
ENDBRANCH  13  16
ENDBRANCH   7  10
ENDBRANCH   5   7
ENDBRANCH   2   3
TORSDOF 5
ENDMDL
MODEL      221
REMARK 921   NORMALIZED FREE ENERGY PREDICTED BY IDOCK:   -3.29 KCAL/MOL
REMARK 922        TOTAL FREE ENERGY PREDICTED BY IDOCK:   -5.34 KCAL/MOL
REMARK 923 INTER-LIGAND FREE ENERGY PREDICTED BY IDOCK:   -4.40 KCAL/MOL
REMARK 924 INTRA-LIGAND FREE ENERGY PREDICTED BY IDOCK:   -0.94 KCAL/MOL
REMARK 927      BINDING AFFINITY PREDICTED BY RF-SCORE:    0.00 PKD
ROOT
HETATM    1  C   UNL     1      -7.529  16.505  68.569  1.00  0.00    -0.193 C  
HETATM    2  C   UNL     1      -8.783  16.713  69.396  1.00  0.00     0.124 C  
ENDROOT
BRANCH   2   3
HETATM    3  C   UNL     1      -9.992  16.225  68.633  1.00  0.00    -0.233 C  
HETATM    4  O   UNL     1     -10.774  17.003  68.106  1.00  0.00    -0.358 OA 
HETATM    5  N   UNL     1     -10.092  14.833  68.514  1.00  0.00    -0.224 N  
HETATM    6  H   UNL     1      -9.355  14.274  68.943  1.00  0.00     0.000 HD 
BRANCH   5   7
HETATM    7  S   UNL     1     -11.310  14.016  67.735  1.00  0.00    -0.321 S  
HETATM    8  O   UNL     1     -12.509  14.280  68.511  1.00  0.00    -0.118 OA 
HETATM    9  O   UNL     1     -11.272  14.306  66.316  1.00  0.00    -0.324 OA 
BRANCH   7  10
HETATM   10  C   UNL     1     -10.874  12.317  67.996  1.00  0.00    -0.220 A  
HETATM   11  C   UNL     1      -9.531  11.940  68.010  1.00  0.00    -0.197 A  
HETATM   12  C   UNL     1      -9.195  10.581  67.988  1.00  0.00    -0.143 A  
HETATM   13  C   UNL     1     -10.189   9.591  68.003  1.00  0.00    -0.244 A  
HETATM   14  C   UNL     1     -11.520  10.003  68.184  1.00  0.00     0.055 A  
HETATM   15  C   UNL     1     -11.870  11.357  68.142  1.00  0.00    -0.288 A  
BRANCH  13  16
HETATM   16  C   UNL     1      -9.890   8.188  67.694  1.00  0.00    -0.216 A  
HETATM   17  C   UNL     1     -10.014   7.113  68.561  1.00  0.00    -0.159 A  
HETATM   18  C   UNL     1     -10.429   6.873  69.958  1.00  0.00    -0.231 C  
HETATM   19  O   UNL     1      -9.639   5.976  67.920  1.00  0.00    -0.115 OA 
HETATM   20  N   UNL     1      -9.234   6.258  66.647  1.00  0.00    -0.142 NA 
HETATM   21  C   UNL     1      -9.345   7.587  66.489  1.00  0.00    -0.181 A  
BRANCH  21  22
HETATM   22  C   UNL     1      -8.940   8.183  65.204  1.00  0.00     0.113 A  
HETATM   23  C   UNL     1      -8.056   7.491  64.359  1.00  0.00    -0.074 A  
HETATM   24  C   UNL     1      -7.731   7.990  63.094  1.00  0.00    -0.139 A  
HETATM   25  C   UNL     1      -8.298   9.181  62.649  1.00  0.00    -0.192 A  
HETATM   26  C   UNL     1      -9.137   9.904  63.491  1.00  0.00    -0.289 A  
HETATM   27  C   UNL     1      -9.421   9.428  64.775  1.00  0.00    -0.088 A  
ENDBRANCH  21  22
ENDBRANCH  13  16
ENDBRANCH   7  10
ENDBRANCH   5   7
ENDBRANCH   2   3
TORSDOF 5
ENDMDL
MODEL      222
REMARK 921   NORMALIZED FREE ENERGY PREDICTED BY IDOCK:   -3.24 KCAL/MOL
REMARK 922        TOTAL FREE ENERGY PREDICTED BY IDOCK:   -5.27 KCAL/MOL
REMARK 923 INTER-LIGAND FREE ENERGY PREDICTED BY IDOCK:   -4.87 KCAL/MOL
REMARK 924 INTRA-LIGAND FREE ENERGY PREDICTED BY IDOCK:   -0.40 KCAL/MOL
REMARK 927      BINDING AFFINITY PREDICTED BY RF-SCORE:    0.00 PKD
ROOT
HETATM    1  C   UNL     1      -7.434   6.098  67.958  1.00  0.00    -0.089 C  
HETATM    2  C   UNL     1      -7.234   7.367  68.765  1.00  0.00    -0.090 C  
ENDROOT
BRANCH   2   3
HETATM    3  C   UNL     1      -7.235   8.568  67.848  1.00  0.00    -0.088 C  
HETATM    4  O   UNL     1      -6.274   9.320  67.776  1.00  0.00    -0.053 OA 
HETATM    5  N   UNL     1      -8.375   8.696  67.045  1.00  0.00    -0.106 N  
HETATM    6  H   UNL     1      -9.096   7.981  67.142  1.00  0.00     0.000 HD 
BRANCH   5   7
HETATM    7  S   UNL     1      -8.652   9.912  65.949  1.00  0.00    -0.142 S  
HETATM    8  O   UNL     1      -7.393  10.092  65.248  1.00  0.00    -0.125 OA 
HETATM    9  O   UNL     1      -9.873   9.650  65.216  1.00  0.00    -0.310 OA 
BRANCH   7  10
HETATM   10  C   UNL     1      -8.887  11.331  66.987  1.00  0.00    -0.153 A  
HETATM   11  C   UNL     1      -9.870  11.312  67.976  1.00  0.00    -0.186 A  
HETATM   12  C   UNL     1     -10.208  12.500  68.637  1.00  0.00    -0.166 A  
HETATM   13  C   UNL     1      -9.536  13.699  68.355  1.00  0.00    -0.203 A  
HETATM   14  C   UNL     1      -8.425  13.641  67.497  1.00  0.00    -0.190 A  
HETATM   15  C   UNL     1      -8.121  12.475  66.785  1.00  0.00     0.043 A  
BRANCH  13  16
HETATM   16  C   UNL     1     -10.048  14.997  68.809  1.00  0.00    -0.231 A  
HETATM   17  C   UNL     1     -11.241  15.220  69.479  1.00  0.00    -0.281 A  
HETATM   18  C   UNL     1     -12.380  14.426  69.983  1.00  0.00    -0.391 C  
HETATM   19  O   UNL     1     -11.375  16.548  69.726  1.00  0.00    -0.239 OA 
HETATM   20  N   UNL     1     -10.314  17.238  69.212  1.00  0.00    -0.298 NA 
HETATM   21  C   UNL     1      -9.510  16.335  68.626  1.00  0.00    -0.228 A  
BRANCH  21  22
HETATM   22  C   UNL     1      -8.289  16.806  67.951  1.00  0.00    -0.196 A  
HETATM   23  C   UNL     1      -8.356  17.260  66.622  1.00  0.00    -0.291 A  
HETATM   24  C   UNL     1      -7.232  17.801  65.990  1.00  0.00    -0.322 A  
HETATM   25  C   UNL     1      -6.029  17.912  66.682  1.00  0.00    -0.195 A  
HETATM   26  C   UNL     1      -5.933  17.423  67.983  1.00  0.00    -0.148 A  
HETATM   27  C   UNL     1      -7.045  16.836  68.594  1.00  0.00    -0.195 A  
ENDBRANCH  21  22
ENDBRANCH  13  16
ENDBRANCH   7  10
ENDBRANCH   5   7
ENDBRANCH   2   3
TORSDOF 5
ENDMDL
MODEL      223
REMARK 921   NORMALIZED FREE ENERGY PREDICTED BY IDOCK:   -3.21 KCAL/MOL
REMARK 922        TOTAL FREE ENERGY PREDICTED BY IDOCK:   -5.23 KCAL/MOL
REMARK 923 INTER-LIGAND FREE ENERGY PREDICTED BY IDOCK:   -4.23 KCAL/MOL
REMARK 924 INTRA-LIGAND FREE ENERGY PREDICTED BY IDOCK:   -1.00 KCAL/MOL
REMARK 927      BINDING AFFINITY PREDICTED BY RF-SCORE:    0.00 PKD
ROOT
HETATM    1  C   UNL     1     -11.027  13.103  64.264  1.00  0.00    -0.428 C  
HETATM    2  C   UNL     1     -10.972  12.826  65.754  1.00  0.00    -0.306 C  
ENDROOT
BRANCH   2   3
HETATM    3  C   UNL     1      -9.692  12.100  66.097  1.00  0.00    -0.240 C  
HETATM    4  O   UNL     1      -9.331  11.949  67.255  1.00  0.00    -0.172 OA 
HETATM    5  N   UNL     1      -9.011  11.555  65.001  1.00  0.00    -0.406 N  
HETATM    6  H   UNL     1      -9.428  11.689  64.080  1.00  0.00     0.000 HD 
BRANCH   5   7
HETATM    7  S   UNL     1      -7.584  10.709  65.074  1.00  0.00     0.145 S  
HETATM    8  O   UNL     1      -7.303  10.309  63.707  1.00  0.00    -0.134 OA 
HETATM    9  O   UNL     1      -6.606  11.454  65.840  1.00  0.00     0.092 OA 
BRANCH   7  10
HETATM   10  C   UNL     1      -8.038   9.248  65.971  1.00  0.00    -0.110 A  
HETATM   11  C   UNL     1      -7.116   8.642  66.823  1.00  0.00    -0.078 A  
HETATM   12  C   UNL     1      -7.391   7.374  67.351  1.00  0.00    -0.102 A  
HETATM   13  C   UNL     1      -8.604   6.725  67.075  1.00  0.00    -0.114 A  
HETATM   14  C   UNL     1      -9.586   7.445  66.374  1.00  0.00    -0.181 A  
HETATM   15  C   UNL     1      -9.297   8.684  65.790  1.00  0.00    -0.227 A  
BRANCH  13  16
HETATM   16  C   UNL     1      -8.805   5.301  67.366  1.00  0.00    -0.105 A  
HETATM   17  C   UNL     1      -8.816   4.268  66.441  1.00  0.00    -0.116 A  
HETATM   18  C   UNL     1      -8.661   4.102  64.981  1.00  0.00    -0.117 C  
HETATM   19  O   UNL     1      -9.036   3.094  67.084  1.00  0.00    -0.133 OA 
HETATM   20  N   UNL     1      -9.205   3.307  68.423  1.00  0.00    -0.162 NA 
HETATM   21  C   UNL     1      -9.101   4.632  68.621  1.00  0.00    -0.117 A  
BRANCH  21  22
HETATM   22  C   UNL     1      -9.276   5.159  69.985  1.00  0.00    -0.180 A  
HETATM   23  C   UNL     1     -10.468   5.818  70.332  1.00  0.00    -0.342 A  
HETATM   24  C   UNL     1     -10.699   6.244  71.644  1.00  0.00    -0.284 A  
HETATM   25  C   UNL     1      -9.748   6.002  72.632  1.00  0.00    -0.166 A  
HETATM   26  C   UNL     1      -8.541   5.394  72.295  1.00  0.00    -0.126 A  
HETATM   27  C   UNL     1      -8.293   5.016  70.973  1.00  0.00    -0.118 A  
ENDBRANCH  21  22
ENDBRANCH  13  16
ENDBRANCH   7  10
ENDBRANCH   5   7
ENDBRANCH   2   3
TORSDOF 5
ENDMDL
MODEL      224
REMARK 921   NORMALIZED FREE ENERGY PREDICTED BY IDOCK:   -3.16 KCAL/MOL
REMARK 922        TOTAL FREE ENERGY PREDICTED BY IDOCK:   -5.17 KCAL/MOL
REMARK 923 INTER-LIGAND FREE ENERGY PREDICTED BY IDOCK:   -4.89 KCAL/MOL
REMARK 924 INTRA-LIGAND FREE ENERGY PREDICTED BY IDOCK:   -0.28 KCAL/MOL
REMARK 927      BINDING AFFINITY PREDICTED BY RF-SCORE:    0.00 PKD
ROOT
HETATM    1  C   UNL     1     -13.885  15.086  72.427  1.00  0.00    -0.596 C  
HETATM    2  C   UNL     1     -13.375  14.988  71.001  1.00  0.00    -0.477 C  
ENDROOT
BRANCH   2   3
HETATM    3  C   UNL     1     -12.511  13.758  70.845  1.00  0.00    -0.377 C  
HETATM    4  O   UNL     1     -11.291  13.832  70.806  1.00  0.00     0.144 OA 
HETATM    5  N   UNL     1     -13.210  12.545  70.831  1.00  0.00     0.164 N  
HETATM    6  H   UNL     1     -14.224  12.590  70.927  1.00  0.00     0.000 HD 
BRANCH   5   7
HETATM    7  S   UNL     1     -12.527  11.039  70.672  1.00  0.00    -0.370 S  
HETATM    8  O   UNL     1     -11.568  10.935  71.758  1.00  0.00     0.661 OA 
HETATM    9  O   UNL     1     -13.563  10.041  70.504  1.00  0.00    -0.104 OA 
BRANCH   7  10
HETATM   10  C   UNL     1     -11.605  11.183  69.163  1.00  0.00    -0.324 A  
HETATM   11  C   UNL     1     -12.144  11.883  68.085  1.00  0.00    -0.035 A  
HETATM   12  C   UNL     1     -11.524  11.805  66.831  1.00  0.00    -0.364 A  
HETATM   13  C   UNL     1     -10.340  11.073  66.655  1.00  0.00    -0.288 A  
HETATM   14  C   UNL     1      -9.723  10.544  67.801  1.00  0.00    -0.180 A  
HETATM   15  C   UNL     1     -10.365  10.562  69.044  1.00  0.00    -0.232 A  
BRANCH  13  16
HETATM   16  C   UNL     1      -9.829  10.735  65.322  1.00  0.00    -0.329 A  
HETATM   17  C   UNL     1     -10.045  11.452  64.155  1.00  0.00    -0.309 A  
HETATM   18  C   UNL     1     -10.755  12.679  63.737  1.00  0.00    -0.454 C  
HETATM   19  O   UNL     1      -9.422  10.828  63.124  1.00  0.00    -0.267 OA 
HETATM   20  N   UNL     1      -8.811   9.686  63.557  1.00  0.00    -0.232 NA 
HETATM   21  C   UNL     1      -9.063   9.586  64.873  1.00  0.00    -0.223 A  
BRANCH  21  22
HETATM   22  C   UNL     1      -8.547   8.417  65.606  1.00  0.00    -0.197 A  
HETATM   23  C   UNL     1      -9.440   7.561  66.274  1.00  0.00    -0.161 A  
HETATM   24  C   UNL     1      -8.986   6.393  66.896  1.00  0.00    -0.126 A  
HETATM   25  C   UNL     1      -7.637   6.056  66.845  1.00  0.00    -0.096 A  
HETATM   26  C   UNL     1      -6.732   6.916  66.229  1.00  0.00    -0.052 A  
HETATM   27  C   UNL     1      -7.181   8.108  65.652  1.00  0.00    -0.071 A  
ENDBRANCH  21  22
ENDBRANCH  13  16
ENDBRANCH   7  10
ENDBRANCH   5   7
ENDBRANCH   2   3
TORSDOF 5
ENDMDL
MODEL      225
REMARK 921   NORMALIZED FREE ENERGY PREDICTED BY IDOCK:   -3.04 KCAL/MOL
REMARK 922        TOTAL FREE ENERGY PREDICTED BY IDOCK:   -5.01 KCAL/MOL
REMARK 923 INTER-LIGAND FREE ENERGY PREDICTED BY IDOCK:   -4.60 KCAL/MOL
REMARK 924 INTRA-LIGAND FREE ENERGY PREDICTED BY IDOCK:   -0.41 KCAL/MOL
REMARK 927      BINDING AFFINITY PREDICTED BY RF-SCORE:    0.00 PKD
ROOT
HETATM    1  C   UNL     1     -10.923   4.241  64.455  1.00  0.00    -0.008 C  
HETATM    2  C   UNL     1      -9.720   3.364  64.163  1.00  0.00    -0.164 C  
ENDROOT
BRANCH   2   3
HETATM    3  C   UNL     1      -8.911   3.162  65.424  1.00  0.00    -0.142 C  
HETATM    4  O   UNL     1      -7.759   3.560  65.517  1.00  0.00    -0.080 OA 
HETATM    5  N   UNL     1      -9.607   2.563  66.481  1.00  0.00    -0.374 N  
HETATM    6  H   UNL     1     -10.584   2.319  66.318  1.00  0.00     0.000 HD 
BRANCH   5   7
HETATM    7  S   UNL     1      -8.977   2.217  67.978  1.00  0.00    -0.167 S  
HETATM    8  O   UNL     1     -10.025   1.498  68.680  1.00  0.00    -0.024 OA 
HETATM    9  O   UNL     1      -7.655   1.641  67.838  1.00  0.00    -0.053 OA 
BRANCH   7  10
HETATM   10  C   UNL     1      -8.840   3.819  68.727  1.00  0.00    -0.110 A  
HETATM   11  C   UNL     1      -8.077   4.810  68.111  1.00  0.00    -0.085 A  
HETATM   12  C   UNL     1      -7.784   5.989  68.808  1.00  0.00    -0.095 A  
HETATM   13  C   UNL     1      -8.289   6.210  70.098  1.00  0.00    -0.128 A  
HETATM   14  C   UNL     1      -9.210   5.279  70.608  1.00  0.00    -0.187 A  
HETATM   15  C   UNL     1      -9.458   4.070  69.949  1.00  0.00    -0.265 A  
BRANCH  13  16
HETATM   16  C   UNL     1      -7.777   7.284  70.957  1.00  0.00    -0.089 A  
HETATM   17  C   UNL     1      -6.539   7.314  71.581  1.00  0.00    -0.047 A  
HETATM   18  C   UNL     1      -5.340   6.457  71.682  1.00  0.00    -0.027 C  
HETATM   19  O   UNL     1      -6.426   8.463  72.295  1.00  0.00    -0.069 OA 
HETATM   20  N   UNL     1      -7.571   9.201  72.195  1.00  0.00    -0.246 NA 
HETATM   21  C   UNL     1      -8.416   8.503  71.419  1.00  0.00    -0.172 A  
BRANCH  21  22
HETATM   22  C   UNL     1      -9.759   9.052  71.164  1.00  0.00    -0.369 A  
HETATM   23  C   UNL     1     -10.004   9.782  69.988  1.00  0.00    -0.299 A  
HETATM   24  C   UNL     1     -11.292  10.231  69.676  1.00  0.00    -0.315 A  
HETATM   25  C   UNL     1     -12.355   9.943  70.526  1.00  0.00    -0.229 A  
HETATM   26  C   UNL     1     -12.122   9.262  71.718  1.00  0.00    -0.457 A  
HETATM   27  C   UNL     1     -10.826   8.858  72.052  1.00  0.00    -0.404 A  
ENDBRANCH  21  22
ENDBRANCH  13  16
ENDBRANCH   7  10
ENDBRANCH   5   7
ENDBRANCH   2   3
TORSDOF 5
ENDMDL
MODEL      226
REMARK 921   NORMALIZED FREE ENERGY PREDICTED BY IDOCK:   -3.02 KCAL/MOL
REMARK 922        TOTAL FREE ENERGY PREDICTED BY IDOCK:   -4.99 KCAL/MOL
REMARK 923 INTER-LIGAND FREE ENERGY PREDICTED BY IDOCK:   -4.18 KCAL/MOL
REMARK 924 INTRA-LIGAND FREE ENERGY PREDICTED BY IDOCK:   -0.81 KCAL/MOL
REMARK 927      BINDING AFFINITY PREDICTED BY RF-SCORE:    0.00 PKD
ROOT
HETATM    1  C   UNL     1      -6.910   5.474  66.052  1.00  0.00    -0.058 C  
HETATM    2  C   UNL     1      -8.081   6.417  66.250  1.00  0.00    -0.114 C  
ENDROOT
BRANCH   2   3
HETATM    3  C   UNL     1      -8.979   5.902  67.351  1.00  0.00    -0.108 C  
HETATM    4  O   UNL     1      -9.630   4.876  67.220  1.00  0.00    -0.137 OA 
HETATM    5  N   UNL     1      -8.938   6.642  68.539  1.00  0.00    -0.121 N  
HETATM    6  H   UNL     1      -8.318   7.451  68.564  1.00  0.00     0.000 HD 
BRANCH   5   7
HETATM    7  S   UNL     1      -9.815   6.313  69.911  1.00  0.00    -0.170 S  
HETATM    8  O   UNL     1     -10.905   5.459  69.476  1.00  0.00    -0.269 OA 
HETATM    9  O   UNL     1      -8.928   5.891  70.977  1.00  0.00    -0.140 OA 
BRANCH   7  10
HETATM   10  C   UNL     1     -10.511   7.892  70.321  1.00  0.00    -0.225 A  
HETATM   11  C   UNL     1     -11.874   8.118  70.135  1.00  0.00     0.309 A  
HETATM   12  C   UNL     1     -12.379   9.421  70.240  1.00  0.00     0.250 A  
HETATM   13  C   UNL     1     -11.542  10.494  70.582  1.00  0.00    -0.445 A  
HETATM   14  C   UNL     1     -10.219  10.200  70.951  1.00  0.00     0.392 A  
HETATM   15  C   UNL     1      -9.690   8.914  70.787  1.00  0.00    -0.281 A  
BRANCH  13  16
HETATM   16  C   UNL     1     -11.967  11.889  70.422  1.00  0.00    -0.400 A  
HETATM   17  C   UNL     1     -12.811  12.591  71.269  1.00  0.00    -0.241 A  
HETATM   18  C   UNL     1     -13.563  12.348  72.517  1.00  0.00    -0.076 C  
HETATM   19  O   UNL     1     -12.979  13.850  70.791  1.00  0.00    -0.283 OA 
HETATM   20  N   UNL     1     -12.292  14.012  69.622  1.00  0.00    -0.316 NA 
HETATM   21  C   UNL     1     -11.695  12.838  69.356  1.00  0.00    -0.319 A  
BRANCH  21  22
HETATM   22  C   UNL     1     -10.903  12.710  68.121  1.00  0.00    -0.250 A  
HETATM   23  C   UNL     1      -9.576  13.172  68.091  1.00  0.00    -0.227 A  
HETATM   24  C   UNL     1      -8.772  12.977  66.963  1.00  0.00    -0.195 A  
HETATM   25  C   UNL     1      -9.277  12.301  65.856  1.00  0.00    -0.031 A  
HETATM   26  C   UNL     1     -10.604  11.879  65.851  1.00  0.00    -0.306 A  
HETATM   27  C   UNL     1     -11.421  12.121  66.960  1.00  0.00    -0.415 A  
ENDBRANCH  21  22
ENDBRANCH  13  16
ENDBRANCH   7  10
ENDBRANCH   5   7
ENDBRANCH   2   3
TORSDOF 5
ENDMDL
MODEL      227
REMARK 921   NORMALIZED FREE ENERGY PREDICTED BY IDOCK:   -2.93 KCAL/MOL
REMARK 922        TOTAL FREE ENERGY PREDICTED BY IDOCK:   -4.87 KCAL/MOL
REMARK 923 INTER-LIGAND FREE ENERGY PREDICTED BY IDOCK:   -3.83 KCAL/MOL
REMARK 924 INTRA-LIGAND FREE ENERGY PREDICTED BY IDOCK:   -1.04 KCAL/MOL
REMARK 927      BINDING AFFINITY PREDICTED BY RF-SCORE:    0.00 PKD
ROOT
HETATM    1  C   UNL     1      -9.659   2.463  62.392  1.00  0.00    -0.089 C  
HETATM    2  C   UNL     1      -9.821   3.277  63.662  1.00  0.00    -0.149 C  
ENDROOT
BRANCH   2   3
HETATM    3  C   UNL     1      -8.871   4.452  63.647  1.00  0.00    -0.139 C  
HETATM    4  O   UNL     1      -8.338   4.832  62.614  1.00  0.00    -0.087 OA 
HETATM    5  N   UNL     1      -8.721   5.105  64.876  1.00  0.00    -0.154 N  
HETATM    6  H   UNL     1      -9.255   4.742  65.666  1.00  0.00     0.000 HD 
BRANCH   5   7
HETATM    7  S   UNL     1      -7.746   6.419  65.158  1.00  0.00    -0.106 S  
HETATM    8  O   UNL     1      -6.403   5.981  64.824  1.00  0.00    -0.032 OA 
HETATM    9  O   UNL     1      -8.313   7.599  64.536  1.00  0.00    -0.092 OA 
BRANCH   7  10
HETATM   10  C   UNL     1      -7.823   6.595  66.922  1.00  0.00    -0.108 A  
HETATM   11  C   UNL     1      -8.983   7.086  67.520  1.00  0.00    -0.117 A  
HETATM   12  C   UNL     1      -8.965   7.438  68.876  1.00  0.00    -0.130 A  
HETATM   13  C   UNL     1      -7.812   7.255  69.654  1.00  0.00    -0.118 A  
HETATM   14  C   UNL     1      -6.728   6.580  69.068  1.00  0.00    -0.053 A  
HETATM   15  C   UNL     1      -6.713   6.284  67.701  1.00  0.00    -0.061 A  
BRANCH  13  16
HETATM   16  C   UNL     1      -7.667   7.867  70.979  1.00  0.00    -0.084 A  
HETATM   17  C   UNL     1      -6.791   8.887  71.320  1.00  0.00    -0.090 A  
HETATM   18  C   UNL     1      -5.763   9.716  70.659  1.00  0.00    -0.061 C  
HETATM   19  O   UNL     1      -6.940   9.184  72.636  1.00  0.00    -0.307 OA 
HETATM   20  N   UNL     1      -7.876   8.369  73.206  1.00  0.00    -0.345 NA 
HETATM   21  C   UNL     1      -8.313   7.543  72.240  1.00  0.00    -0.103 A  
BRANCH  21  22
HETATM   22  C   UNL     1      -9.316   6.521  72.581  1.00  0.00    -0.145 A  
HETATM   23  C   UNL     1      -8.929   5.369  73.287  1.00  0.00    -0.120 A  
HETATM   24  C   UNL     1      -9.877   4.430  73.706  1.00  0.00    -0.167 A  
HETATM   25  C   UNL     1     -11.227   4.638  73.442  1.00  0.00    -0.423 A  
HETATM   26  C   UNL     1     -11.623   5.749  72.702  1.00  0.00    -0.304 A  
HETATM   27  C   UNL     1     -10.668   6.660  72.241  1.00  0.00    -0.250 A  
ENDBRANCH  21  22
ENDBRANCH  13  16
ENDBRANCH   7  10
ENDBRANCH   5   7
ENDBRANCH   2   3
TORSDOF 5
ENDMDL
MODEL      228
REMARK 921   NORMALIZED FREE ENERGY PREDICTED BY IDOCK:   -2.83 KCAL/MOL
REMARK 922        TOTAL FREE ENERGY PREDICTED BY IDOCK:   -4.74 KCAL/MOL
REMARK 923 INTER-LIGAND FREE ENERGY PREDICTED BY IDOCK:   -5.58 KCAL/MOL
REMARK 924 INTRA-LIGAND FREE ENERGY PREDICTED BY IDOCK:    0.84 KCAL/MOL
REMARK 927      BINDING AFFINITY PREDICTED BY RF-SCORE:    0.00 PKD
ROOT
HETATM    1  C   UNL     1      -9.925   6.262  70.283  1.00  0.00    -0.210 C  
HETATM    2  C   UNL     1     -10.245   6.926  71.609  1.00  0.00    -0.205 C  
ENDROOT
BRANCH   2   3
HETATM    3  C   UNL     1     -10.890   8.272  71.370  1.00  0.00    -0.239 C  
HETATM    4  O   UNL     1     -10.231   9.250  71.048  1.00  0.00    -0.271 OA 
HETATM    5  N   UNL     1     -12.286   8.282  71.468  1.00  0.00    -0.299 N  
HETATM    6  H   UNL     1     -12.745   7.398  71.687  1.00  0.00     0.000 HD 
BRANCH   5   7
HETATM    7  S   UNL     1     -13.259   9.611  71.258  1.00  0.00    -0.310 S  
HETATM    8  O   UNL     1     -14.375   9.148  70.452  1.00  0.00     0.535 OA 
HETATM    9  O   UNL     1     -13.490  10.263  72.532  1.00  0.00    -0.195 OA 
BRANCH   7  10
HETATM   10  C   UNL     1     -12.268  10.667  70.234  1.00  0.00    -0.334 A  
HETATM   11  C   UNL     1     -11.929  11.944  70.677  1.00  0.00    -0.289 A  
HETATM   12  C   UNL     1     -11.346  12.853  69.785  1.00  0.00    -0.107 A  
HETATM   13  C   UNL     1     -11.051  12.481  68.465  1.00  0.00    -0.297 A  
HETATM   14  C   UNL     1     -11.227  11.133  68.111  1.00  0.00    -0.356 A  
HETATM   15  C   UNL     1     -11.867  10.235  68.973  1.00  0.00     0.005 A  
BRANCH  13  16
HETATM   16  C   UNL     1     -10.714  13.473  67.437  1.00  0.00    -0.269 A  
HETATM   17  C   UNL     1     -10.967  14.835  67.499  1.00  0.00    -0.304 A  
HETATM   18  C   UNL     1     -11.578  15.796  68.439  1.00  0.00    -0.343 C  
HETATM   19  O   UNL     1     -10.518  15.425  66.361  1.00  0.00    -0.287 OA 
HETATM   20  N   UNL     1      -9.994  14.490  65.514  1.00  0.00    -0.353 NA 
HETATM   21  C   UNL     1     -10.124  13.299  66.121  1.00  0.00    -0.293 A  
BRANCH  21  22
HETATM   22  C   UNL     1      -9.667  12.091  65.415  1.00  0.00    -0.203 A  
HETATM   23  C   UNL     1     -10.397  11.605  64.316  1.00  0.00    -0.371 A  
HETATM   24  C   UNL     1      -9.934  10.516  63.569  1.00  0.00    -0.278 A  
HETATM   25  C   UNL     1      -8.726   9.909  63.900  1.00  0.00    -0.230 A  
HETATM   26  C   UNL     1      -8.014  10.346  65.014  1.00  0.00    -0.126 A  
HETATM   27  C   UNL     1      -8.505  11.402  65.788  1.00  0.00     0.051 A  
ENDBRANCH  21  22
ENDBRANCH  13  16
ENDBRANCH   7  10
ENDBRANCH   5   7
ENDBRANCH   2   3
TORSDOF 5
ENDMDL
MODEL      229
REMARK 921   NORMALIZED FREE ENERGY PREDICTED BY IDOCK:   -2.76 KCAL/MOL
REMARK 922        TOTAL FREE ENERGY PREDICTED BY IDOCK:   -4.64 KCAL/MOL
REMARK 923 INTER-LIGAND FREE ENERGY PREDICTED BY IDOCK:   -3.43 KCAL/MOL
REMARK 924 INTRA-LIGAND FREE ENERGY PREDICTED BY IDOCK:   -1.22 KCAL/MOL
REMARK 927      BINDING AFFINITY PREDICTED BY RF-SCORE:    0.00 PKD
ROOT
HETATM    1  C   UNL     1     -10.757   4.887  65.741  1.00  0.00    -0.194 C  
HETATM    2  C   UNL     1      -9.437   4.391  65.181  1.00  0.00    -0.171 C  
ENDROOT
BRANCH   2   3
HETATM    3  C   UNL     1      -8.561   3.880  66.301  1.00  0.00    -0.112 C  
HETATM    4  O   UNL     1      -7.345   4.005  66.272  1.00  0.00    -0.076 OA 
HETATM    5  N   UNL     1      -9.253   3.335  67.390  1.00  0.00    -0.185 N  
HETATM    6  H   UNL     1     -10.272   3.330  67.340  1.00  0.00     0.000 HD 
BRANCH   5   7
HETATM    7  S   UNL     1      -8.556   2.698  68.756  1.00  0.00    -0.084 S  
HETATM    8  O   UNL     1      -9.648   2.095  69.499  1.00  0.00    -0.081 OA 
HETATM    9  O   UNL     1      -7.388   1.920  68.399  1.00  0.00    -0.043 OA 
BRANCH   7  10
HETATM   10  C   UNL     1      -8.044   4.144  69.647  1.00  0.00    -0.055 A  
HETATM   11  C   UNL     1      -8.989   4.906  70.333  1.00  0.00    -0.151 A  
HETATM   12  C   UNL     1      -8.627   6.161  70.841  1.00  0.00    -0.132 A  
HETATM   13  C   UNL     1      -7.314   6.640  70.716  1.00  0.00    -0.079 A  
HETATM   14  C   UNL     1      -6.346   5.765  70.193  1.00  0.00    -0.027 A  
HETATM   15  C   UNL     1      -6.710   4.539  69.625  1.00  0.00    -0.041 A  
BRANCH  13  16
HETATM   16  C   UNL     1      -6.974   8.043  70.974  1.00  0.00    -0.049 A  
HETATM   17  C   UNL     1      -6.090   8.509  71.936  1.00  0.00    -0.060 A  
HETATM   18  C   UNL     1      -5.212   7.947  72.983  1.00  0.00    -0.040 C  
HETATM   19  O   UNL     1      -6.041   9.864  71.879  1.00  0.00    -0.300 OA 
HETATM   20  N   UNL     1      -6.893  10.333  70.920  1.00  0.00    -0.301 NA 
HETATM   21  C   UNL     1      -7.493   9.261  70.376  1.00  0.00    -0.121 A  
BRANCH  21  22
HETATM   22  C   UNL     1      -8.501   9.472  69.323  1.00  0.00    -0.139 A  
HETATM   23  C   UNL     1      -9.868   9.382  69.636  1.00  0.00    -0.205 A  
HETATM   24  C   UNL     1     -10.845   9.671  68.678  1.00  0.00    -0.203 A  
HETATM   25  C   UNL     1     -10.470  10.071  67.399  1.00  0.00    -0.316 A  
HETATM   26  C   UNL     1      -9.121  10.119  67.058  1.00  0.00    -0.155 A  
HETATM   27  C   UNL     1      -8.147   9.781  68.003  1.00  0.00    -0.105 A  
ENDBRANCH  21  22
ENDBRANCH  13  16
ENDBRANCH   7  10
ENDBRANCH   5   7
ENDBRANCH   2   3
TORSDOF 5
ENDMDL
MODEL      230
REMARK 921   NORMALIZED FREE ENERGY PREDICTED BY IDOCK:   -2.71 KCAL/MOL
REMARK 922        TOTAL FREE ENERGY PREDICTED BY IDOCK:   -4.59 KCAL/MOL
REMARK 923 INTER-LIGAND FREE ENERGY PREDICTED BY IDOCK:   -3.51 KCAL/MOL
REMARK 924 INTRA-LIGAND FREE ENERGY PREDICTED BY IDOCK:   -1.08 KCAL/MOL
REMARK 927      BINDING AFFINITY PREDICTED BY RF-SCORE:    0.00 PKD
ROOT
HETATM    1  C   UNL     1      -9.576   2.513  62.566  1.00  0.00    -0.089 C  
HETATM    2  C   UNL     1      -9.762   3.228  63.891  1.00  0.00    -0.150 C  
ENDROOT
BRANCH   2   3
HETATM    3  C   UNL     1      -8.781   4.372  64.003  1.00  0.00    -0.136 C  
HETATM    4  O   UNL     1      -8.104   4.731  63.050  1.00  0.00    -0.078 OA 
HETATM    5  N   UNL     1      -8.774   5.024  65.242  1.00  0.00    -0.145 N  
HETATM    6  H   UNL     1      -9.419   4.681  65.953  1.00  0.00     0.000 HD 
BRANCH   5   7
HETATM    7  S   UNL     1      -7.803   6.308  65.652  1.00  0.00    -0.104 S  
HETATM    8  O   UNL     1      -6.442   5.816  65.528  1.00  0.00    -0.040 OA 
HETATM    9  O   UNL     1      -8.226   7.496  64.939  1.00  0.00    -0.132 OA 
BRANCH   7  10
HETATM   10  C   UNL     1      -8.136   6.516  67.382  1.00  0.00    -0.121 A  
HETATM   11  C   UNL     1      -7.938   5.450  68.259  1.00  0.00    -0.088 A  
HETATM   12  C   UNL     1      -8.412   5.541  69.574  1.00  0.00    -0.105 A  
HETATM   13  C   UNL     1      -9.038   6.708  70.037  1.00  0.00    -0.151 A  
HETATM   14  C   UNL     1      -9.046   7.827  69.187  1.00  0.00    -0.145 A  
HETATM   15  C   UNL     1      -8.634   7.726  67.854  1.00  0.00    -0.122 A  
BRANCH  13  16
HETATM   16  C   UNL     1      -9.791   6.736  71.296  1.00  0.00    -0.186 A  
HETATM   17  C   UNL     1     -11.172   6.760  71.424  1.00  0.00    -0.268 A  
HETATM   18  C   UNL     1     -12.356   6.768  70.541  1.00  0.00    -0.160 C  
HETATM   19  O   UNL     1     -11.498   6.788  72.742  1.00  0.00    -0.228 OA 
HETATM   20  N   UNL     1     -10.371   6.814  73.512  1.00  0.00    -0.284 NA 
HETATM   21  C   UNL     1      -9.324   6.813  72.669  1.00  0.00    -0.139 A  
BRANCH  21  22
HETATM   22  C   UNL     1      -7.964   6.871  73.229  1.00  0.00    -0.107 A  
HETATM   23  C   UNL     1      -7.422   8.107  73.624  1.00  0.00    -0.202 A  
HETATM   24  C   UNL     1      -6.172   8.178  74.247  1.00  0.00    -0.124 A  
HETATM   25  C   UNL     1      -5.452   7.014  74.498  1.00  0.00    -0.059 A  
HETATM   26  C   UNL     1      -5.951   5.787  74.070  1.00  0.00    -0.061 A  
HETATM   27  C   UNL     1      -7.178   5.724  73.403  1.00  0.00    -0.087 A  
ENDBRANCH  21  22
ENDBRANCH  13  16
ENDBRANCH   7  10
ENDBRANCH   5   7
ENDBRANCH   2   3
TORSDOF 5
ENDMDL
MODEL      231
REMARK 921   NORMALIZED FREE ENERGY PREDICTED BY IDOCK:   -2.71 KCAL/MOL
REMARK 922        TOTAL FREE ENERGY PREDICTED BY IDOCK:   -4.58 KCAL/MOL
REMARK 923 INTER-LIGAND FREE ENERGY PREDICTED BY IDOCK:   -3.78 KCAL/MOL
REMARK 924 INTRA-LIGAND FREE ENERGY PREDICTED BY IDOCK:   -0.80 KCAL/MOL
REMARK 927      BINDING AFFINITY PREDICTED BY RF-SCORE:    0.00 PKD
ROOT
HETATM    1  C   UNL     1      -7.543  16.380  68.493  1.00  0.00    -0.188 C  
HETATM    2  C   UNL     1      -8.927  16.242  69.100  1.00  0.00    -0.219 C  
ENDROOT
BRANCH   2   3
HETATM    3  C   UNL     1      -9.733  15.228  68.322  1.00  0.00    -0.210 C  
HETATM    4  O   UNL     1     -10.503  15.566  67.435  1.00  0.00    -0.269 OA 
HETATM    5  N   UNL     1      -9.468  13.891  68.644  1.00  0.00    -0.348 N  
HETATM    6  H   UNL     1      -8.765  13.715  69.362  1.00  0.00     0.000 HD 
BRANCH   5   7
HETATM    7  S   UNL     1     -10.200  12.569  67.956  1.00  0.00    -0.230 S  
HETATM    8  O   UNL     1     -11.616  12.724  68.237  1.00  0.00    -0.290 OA 
HETATM    9  O   UNL     1      -9.733  12.396  66.596  1.00  0.00    -0.214 OA 
BRANCH   7  10
HETATM   10  C   UNL     1      -9.606  11.228  68.953  1.00  0.00    -0.105 A  
HETATM   11  C   UNL     1      -8.296  11.244  69.429  1.00  0.00     0.305 A  
HETATM   12  C   UNL     1      -7.760  10.091  70.017  1.00  0.00    -0.181 A  
HETATM   13  C   UNL     1      -8.538   8.936  70.182  1.00  0.00    -0.161 A  
HETATM   14  C   UNL     1      -9.906   9.019  69.869  1.00  0.00    -0.194 A  
HETATM   15  C   UNL     1     -10.434  10.142  69.223  1.00  0.00    -0.246 A  
BRANCH  13  16
HETATM   16  C   UNL     1      -7.939   7.641  70.523  1.00  0.00    -0.100 A  
HETATM   17  C   UNL     1      -7.412   7.280  71.754  1.00  0.00    -0.084 A  
HETATM   18  C   UNL     1      -7.223   7.889  73.087  1.00  0.00    -0.121 C  
HETATM   19  O   UNL     1      -6.944   6.008  71.685  1.00  0.00    -0.072 OA 
HETATM   20  N   UNL     1      -7.113   5.506  70.427  1.00  0.00    -0.060 NA 
HETATM   21  C   UNL     1      -7.684   6.476  69.694  1.00  0.00    -0.103 A  
BRANCH  21  22
HETATM   22  C   UNL     1      -7.955   6.221  68.269  1.00  0.00    -0.108 A  
HETATM   23  C   UNL     1      -7.254   5.207  67.594  1.00  0.00    -0.067 A  
HETATM   24  C   UNL     1      -7.560   4.880  66.269  1.00  0.00    -0.087 A  
HETATM   25  C   UNL     1      -8.583   5.551  65.605  1.00  0.00    -0.148 A  
HETATM   26  C   UNL     1      -9.255   6.591  66.242  1.00  0.00    -0.160 A  
HETATM   27  C   UNL     1      -8.912   6.949  67.550  1.00  0.00    -0.116 A  
ENDBRANCH  21  22
ENDBRANCH  13  16
ENDBRANCH   7  10
ENDBRANCH   5   7
ENDBRANCH   2   3
TORSDOF 5
ENDMDL
MODEL      232
REMARK 921   NORMALIZED FREE ENERGY PREDICTED BY IDOCK:   -2.66 KCAL/MOL
REMARK 922        TOTAL FREE ENERGY PREDICTED BY IDOCK:   -4.52 KCAL/MOL
REMARK 923 INTER-LIGAND FREE ENERGY PREDICTED BY IDOCK:   -3.33 KCAL/MOL
REMARK 924 INTRA-LIGAND FREE ENERGY PREDICTED BY IDOCK:   -1.19 KCAL/MOL
REMARK 927      BINDING AFFINITY PREDICTED BY RF-SCORE:    0.00 PKD
ROOT
HETATM    1  C   UNL     1      -9.292   1.735  64.399  1.00  0.00    -0.132 C  
HETATM    2  C   UNL     1      -9.022   2.460  65.704  1.00  0.00    -0.121 C  
ENDROOT
BRANCH   2   3
HETATM    3  C   UNL     1      -9.448   3.905  65.590  1.00  0.00    -0.176 C  
HETATM    4  O   UNL     1      -9.973   4.341  64.575  1.00  0.00    -0.166 OA 
HETATM    5  N   UNL     1      -9.268   4.666  66.751  1.00  0.00    -0.120 N  
HETATM    6  H   UNL     1      -8.873   4.192  67.564  1.00  0.00     0.000 HD 
BRANCH   5   7
HETATM    7  S   UNL     1      -9.642   6.276  66.919  1.00  0.00    -0.152 S  
HETATM    8  O   UNL     1      -8.872   6.958  65.895  1.00  0.00    -0.155 OA 
HETATM    9  O   UNL     1     -11.079   6.445  66.996  1.00  0.00    -0.384 OA 
BRANCH   7  10
HETATM   10  C   UNL     1      -8.921   6.687  68.486  1.00  0.00    -0.120 A  
HETATM   11  C   UNL     1      -7.542   6.585  68.663  1.00  0.00    -0.097 A  
HETATM   12  C   UNL     1      -7.001   6.687  69.951  1.00  0.00    -0.063 A  
HETATM   13  C   UNL     1      -7.822   6.942  71.060  1.00  0.00    -0.097 A  
HETATM   14  C   UNL     1      -9.175   7.231  70.820  1.00  0.00    -0.156 A  
HETATM   15  C   UNL     1      -9.736   7.068  69.548  1.00  0.00    -0.160 A  
BRANCH  13  16
HETATM   16  C   UNL     1      -7.339   6.772  72.435  1.00  0.00    -0.087 A  
HETATM   17  C   UNL     1      -6.493   7.632  73.120  1.00  0.00    -0.064 A  
HETATM   18  C   UNL     1      -5.786   8.905  72.870  1.00  0.00    -0.074 C  
HETATM   19  O   UNL     1      -6.265   7.139  74.364  1.00  0.00    -0.077 OA 
HETATM   20  N   UNL     1      -6.912   5.948  74.531  1.00  0.00    -0.083 NA 
HETATM   21  C   UNL     1      -7.546   5.684  73.376  1.00  0.00    -0.095 A  
BRANCH  21  22
HETATM   22  C   UNL     1      -8.308   4.430  73.256  1.00  0.00    -0.095 A  
HETATM   23  C   UNL     1      -7.638   3.196  73.319  1.00  0.00    -0.056 A  
HETATM   24  C   UNL     1      -8.348   1.991  73.305  1.00  0.00    -0.061 A  
HETATM   25  C   UNL     1      -9.738   2.003  73.244  1.00  0.00    -0.124 A  
HETATM   26  C   UNL     1     -10.415   3.214  73.132  1.00  0.00    -0.255 A  
HETATM   27  C   UNL     1      -9.700   4.415  73.096  1.00  0.00    -0.162 A  
ENDBRANCH  21  22
ENDBRANCH  13  16
ENDBRANCH   7  10
ENDBRANCH   5   7
ENDBRANCH   2   3
TORSDOF 5
ENDMDL
MODEL      233
REMARK 921   NORMALIZED FREE ENERGY PREDICTED BY IDOCK:   -2.51 KCAL/MOL
REMARK 922        TOTAL FREE ENERGY PREDICTED BY IDOCK:   -4.32 KCAL/MOL
REMARK 923 INTER-LIGAND FREE ENERGY PREDICTED BY IDOCK:   -3.39 KCAL/MOL
REMARK 924 INTRA-LIGAND FREE ENERGY PREDICTED BY IDOCK:   -0.93 KCAL/MOL
REMARK 927      BINDING AFFINITY PREDICTED BY RF-SCORE:    0.00 PKD
ROOT
HETATM    1  C   UNL     1      -9.445   1.529  64.981  1.00  0.00     0.008 C  
HETATM    2  C   UNL     1      -9.125   2.451  66.142  1.00  0.00    -0.079 C  
ENDROOT
BRANCH   2   3
HETATM    3  C   UNL     1      -9.484   3.874  65.785  1.00  0.00    -0.178 C  
HETATM    4  O   UNL     1      -9.968   4.161  64.700  1.00  0.00    -0.182 OA 
HETATM    5  N   UNL     1      -9.294   4.806  66.813  1.00  0.00    -0.134 N  
HETATM    6  H   UNL     1      -8.937   4.454  67.702  1.00  0.00     0.000 HD 
BRANCH   5   7
HETATM    7  S   UNL     1      -9.600   6.435  66.709  1.00  0.00    -0.157 S  
HETATM    8  O   UNL     1      -8.977   6.865  65.470  1.00  0.00    -0.031 OA 
HETATM    9  O   UNL     1     -11.005   6.691  66.955  1.00  0.00    -0.376 OA 
BRANCH   7  10
HETATM   10  C   UNL     1      -8.642   7.102  68.044  1.00  0.00    -0.128 A  
HETATM   11  C   UNL     1      -9.281   7.564  69.194  1.00  0.00    -0.144 A  
HETATM   12  C   UNL     1      -8.554   8.293  70.143  1.00  0.00    -0.128 A  
HETATM   13  C   UNL     1      -7.179   8.522  69.979  1.00  0.00    -0.051 A  
HETATM   14  C   UNL     1      -6.532   7.878  68.912  1.00  0.00    -0.048 A  
HETATM   15  C   UNL     1      -7.259   7.203  67.925  1.00  0.00    -0.091 A  
BRANCH  13  16
HETATM   16  C   UNL     1      -6.456   9.508  70.790  1.00  0.00    -0.097 A  
HETATM   17  C   UNL     1      -5.890   9.288  72.037  1.00  0.00    -0.029 A  
HETATM   18  C   UNL     1      -5.748   8.173  72.996  1.00  0.00    -0.053 C  
HETATM   19  O   UNL     1      -5.315  10.436  72.476  1.00  0.00    -0.312 OA 
HETATM   20  N   UNL     1      -5.503  11.440  71.570  1.00  0.00    -0.358 NA 
HETATM   21  C   UNL     1      -6.214  10.921  70.556  1.00  0.00    -0.072 A  
BRANCH  21  22
HETATM   22  C   UNL     1      -6.596  11.798  69.437  1.00  0.00    -0.113 A  
HETATM   23  C   UNL     1      -7.816  11.590  68.769  1.00  0.00    -0.117 A  
HETATM   24  C   UNL     1      -8.246  12.466  67.768  1.00  0.00    -0.163 A  
HETATM   25  C   UNL     1      -7.473  13.572  67.430  1.00  0.00    -0.136 A  
HETATM   26  C   UNL     1      -6.240  13.767  68.047  1.00  0.00    -0.141 A  
HETATM   27  C   UNL     1      -5.788  12.862  69.012  1.00  0.00    -0.079 A  
ENDBRANCH  21  22
ENDBRANCH  13  16
ENDBRANCH   7  10
ENDBRANCH   5   7
ENDBRANCH   2   3
TORSDOF 5
ENDMDL
MODEL      234
REMARK 921   NORMALIZED FREE ENERGY PREDICTED BY IDOCK:   -2.49 KCAL/MOL
REMARK 922        TOTAL FREE ENERGY PREDICTED BY IDOCK:   -4.30 KCAL/MOL
REMARK 923 INTER-LIGAND FREE ENERGY PREDICTED BY IDOCK:   -3.56 KCAL/MOL
REMARK 924 INTRA-LIGAND FREE ENERGY PREDICTED BY IDOCK:   -0.74 KCAL/MOL
REMARK 927      BINDING AFFINITY PREDICTED BY RF-SCORE:    0.00 PKD
ROOT
HETATM    1  C   UNL     1      -5.235  14.323  72.127  1.00  0.00    -0.208 C  
HETATM    2  C   UNL     1      -5.352  15.669  71.437  1.00  0.00     0.051 C  
ENDROOT
BRANCH   2   3
HETATM    3  C   UNL     1      -6.269  15.558  70.241  1.00  0.00    -0.049 C  
HETATM    4  O   UNL     1      -7.422  15.165  70.351  1.00  0.00     0.193 OA 
HETATM    5  N   UNL     1      -5.722  16.011  69.034  1.00  0.00    -0.112 N  
HETATM    6  H   UNL     1      -4.769  16.373  69.061  1.00  0.00     0.000 HD 
BRANCH   5   7
HETATM    7  S   UNL     1      -6.494  16.009  67.564  1.00  0.00    -0.187 S  
HETATM    8  O   UNL     1      -7.587  16.955  67.701  1.00  0.00    -0.158 OA 
HETATM    9  O   UNL     1      -5.525  16.152  66.496  1.00  0.00    -0.095 OA 
BRANCH   7  10
HETATM   10  C   UNL     1      -7.204  14.385  67.494  1.00  0.00    -0.180 A  
HETATM   11  C   UNL     1      -6.378  13.264  67.555  1.00  0.00    -0.130 A  
HETATM   12  C   UNL     1      -6.909  11.999  67.274  1.00  0.00    -0.150 A  
HETATM   13  C   UNL     1      -8.272  11.836  66.981  1.00  0.00    -0.172 A  
HETATM   14  C   UNL     1      -9.108  12.957  67.119  1.00  0.00    -0.220 A  
HETATM   15  C   UNL     1      -8.578  14.233  67.336  1.00  0.00    -0.223 A  
BRANCH  13  16
HETATM   16  C   UNL     1      -8.798  10.592  66.408  1.00  0.00    -0.164 A  
HETATM   17  C   UNL     1      -9.376  10.446  65.156  1.00  0.00    -0.222 A  
HETATM   18  C   UNL     1      -9.694  11.295  63.989  1.00  0.00    -0.301 C  
HETATM   19  O   UNL     1      -9.747   9.152  64.982  1.00  0.00    -0.015 OA 
HETATM   20  N   UNL     1      -9.461   8.420  66.100  1.00  0.00    -0.213 NA 
HETATM   21  C   UNL     1      -8.915   9.266  66.989  1.00  0.00    -0.126 A  
BRANCH  21  22
HETATM   22  C   UNL     1      -8.535   8.751  68.315  1.00  0.00    -0.130 A  
HETATM   23  C   UNL     1      -8.727   9.547  69.457  1.00  0.00    -0.178 A  
HETATM   24  C   UNL     1      -8.463   9.046  70.736  1.00  0.00    -0.238 A  
HETATM   25  C   UNL     1      -8.020   7.737  70.893  1.00  0.00    -0.097 A  
HETATM   26  C   UNL     1      -7.777   6.950  69.770  1.00  0.00    -0.113 A  
HETATM   27  C   UNL     1      -7.994   7.470  68.491  1.00  0.00    -0.123 A  
ENDBRANCH  21  22
ENDBRANCH  13  16
ENDBRANCH   7  10
ENDBRANCH   5   7
ENDBRANCH   2   3
TORSDOF 5
ENDMDL
MODEL      235
REMARK 921   NORMALIZED FREE ENERGY PREDICTED BY IDOCK:   -2.46 KCAL/MOL
REMARK 922        TOTAL FREE ENERGY PREDICTED BY IDOCK:   -4.27 KCAL/MOL
REMARK 923 INTER-LIGAND FREE ENERGY PREDICTED BY IDOCK:   -3.47 KCAL/MOL
REMARK 924 INTRA-LIGAND FREE ENERGY PREDICTED BY IDOCK:   -0.79 KCAL/MOL
REMARK 927      BINDING AFFINITY PREDICTED BY RF-SCORE:    0.00 PKD
ROOT
HETATM    1  C   UNL     1      -7.652  16.457  68.703  1.00  0.00    -0.197 C  
HETATM    2  C   UNL     1      -9.161  16.407  68.849  1.00  0.00    -0.256 C  
ENDROOT
BRANCH   2   3
HETATM    3  C   UNL     1      -9.747  15.454  67.833  1.00  0.00    -0.207 C  
HETATM    4  O   UNL     1     -10.075  15.829  66.717  1.00  0.00    -0.257 OA 
HETATM    5  N   UNL     1      -9.805  14.117  68.245  1.00  0.00    -0.229 N  
HETATM    6  H   UNL     1      -9.453  13.900  69.177  1.00  0.00     0.000 HD 
BRANCH   5   7
HETATM    7  S   UNL     1     -10.399  12.855  67.343  1.00  0.00    -0.235 S  
HETATM    8  O   UNL     1     -11.802  13.161  67.129  1.00  0.00    -0.357 OA 
HETATM    9  O   UNL     1      -9.522  12.592  66.221  1.00  0.00    -0.243 OA 
BRANCH   7  10
HETATM   10  C   UNL     1     -10.322  11.492  68.476  1.00  0.00    -0.210 A  
HETATM   11  C   UNL     1      -9.155  10.735  68.571  1.00  0.00    -0.170 A  
HETATM   12  C   UNL     1      -9.168   9.532  69.289  1.00  0.00    -0.169 A  
HETATM   13  C   UNL     1     -10.325   9.103  69.957  1.00  0.00    -0.231 A  
HETATM   14  C   UNL     1     -11.419   9.983  70.001  1.00  0.00    -0.310 A  
HETATM   15  C   UNL     1     -11.437  11.154  69.235  1.00  0.00    -0.363 A  
BRANCH  13  16
HETATM   16  C   UNL     1     -10.461   7.734  70.468  1.00  0.00    -0.217 A  
HETATM   17  C   UNL     1     -11.617   6.968  70.460  1.00  0.00    -0.319 A  
HETATM   18  C   UNL     1     -13.021   7.103  70.021  1.00  0.00     1.499 C  
HETATM   19  O   UNL     1     -11.356   5.760  71.023  1.00  0.00    -0.214 OA 
HETATM   20  N   UNL     1     -10.058   5.699  71.441  1.00  0.00    -0.193 NA 
HETATM   21  C   UNL     1      -9.499   6.885  71.148  1.00  0.00    -0.166 A  
BRANCH  21  22
HETATM   22  C   UNL     1      -8.093   7.117  71.521  1.00  0.00    -0.103 A  
HETATM   23  C   UNL     1      -7.070   6.847  70.595  1.00  0.00    -0.068 A  
HETATM   24  C   UNL     1      -5.736   7.148  70.890  1.00  0.00    -0.027 A  
HETATM   25  C   UNL     1      -5.408   7.739  72.106  1.00  0.00    -0.036 A  
HETATM   26  C   UNL     1      -6.402   7.968  73.054  1.00  0.00    -0.078 A  
HETATM   27  C   UNL     1      -7.727   7.619  72.777  1.00  0.00    -0.118 A  
ENDBRANCH  21  22
ENDBRANCH  13  16
ENDBRANCH   7  10
ENDBRANCH   5   7
ENDBRANCH   2   3
TORSDOF 5
ENDMDL
MODEL      236
REMARK 921   NORMALIZED FREE ENERGY PREDICTED BY IDOCK:   -2.35 KCAL/MOL
REMARK 922        TOTAL FREE ENERGY PREDICTED BY IDOCK:   -4.12 KCAL/MOL
REMARK 923 INTER-LIGAND FREE ENERGY PREDICTED BY IDOCK:   -3.38 KCAL/MOL
REMARK 924 INTRA-LIGAND FREE ENERGY PREDICTED BY IDOCK:   -0.74 KCAL/MOL
REMARK 927      BINDING AFFINITY PREDICTED BY RF-SCORE:    0.00 PKD
ROOT
HETATM    1  C   UNL     1     -10.604   4.056  64.268  1.00  0.00    -0.204 C  
HETATM    2  C   UNL     1      -9.486   4.139  63.246  1.00  0.00    -0.141 C  
ENDROOT
BRANCH   2   3
HETATM    3  C   UNL     1      -8.397   5.060  63.745  1.00  0.00    -0.132 C  
HETATM    4  O   UNL     1      -8.367   6.243  63.440  1.00  0.00    -0.032 OA 
HETATM    5  N   UNL     1      -7.489   4.471  64.635  1.00  0.00    -0.071 N  
HETATM    6  H   UNL     1      -7.636   3.489  64.869  1.00  0.00     0.000 HD 
BRANCH   5   7
HETATM    7  S   UNL     1      -6.195   5.236  65.341  1.00  0.00    -0.035 S  
HETATM    8  O   UNL     1      -5.311   4.171  65.778  1.00  0.00    -0.009 OA 
HETATM    9  O   UNL     1      -5.708   6.289  64.473  1.00  0.00    -0.021 OA 
BRANCH   7  10
HETATM   10  C   UNL     1      -6.910   5.961  66.793  1.00  0.00    -0.059 A  
HETATM   11  C   UNL     1      -7.761   5.204  67.598  1.00  0.00    -0.088 A  
HETATM   12  C   UNL     1      -8.499   5.836  68.607  1.00  0.00    -0.107 A  
HETATM   13  C   UNL     1      -8.358   7.210  68.853  1.00  0.00    -0.126 A  
HETATM   14  C   UNL     1      -7.353   7.899  68.154  1.00  0.00    -0.099 A  
HETATM   15  C   UNL     1      -6.657   7.294  67.102  1.00  0.00    -0.063 A  
BRANCH  13  16
HETATM   16  C   UNL     1      -9.309   7.948  69.692  1.00  0.00    -0.153 A  
HETATM   17  C   UNL     1     -10.196   8.923  69.262  1.00  0.00    -0.209 A  
HETATM   18  C   UNL     1     -10.569   9.586  67.996  1.00  0.00    -0.282 C  
HETATM   19  O   UNL     1     -10.906   9.382  70.324  1.00  0.00    -0.228 OA 
HETATM   20  N   UNL     1     -10.501   8.762  71.472  1.00  0.00    -0.274 NA 
HETATM   21  C   UNL     1      -9.518   7.913  71.129  1.00  0.00    -0.158 A  
BRANCH  21  22
HETATM   22  C   UNL     1      -8.863   7.124  72.186  1.00  0.00    -0.140 A  
HETATM   23  C   UNL     1      -8.673   7.685  73.461  1.00  0.00    -0.267 A  
HETATM   24  C   UNL     1      -8.141   6.925  74.509  1.00  0.00    -0.159 A  
HETATM   25  C   UNL     1      -7.806   5.591  74.301  1.00  0.00    -0.098 A  
HETATM   26  C   UNL     1      -7.942   5.034  73.032  1.00  0.00    -0.101 A  
HETATM   27  C   UNL     1      -8.427   5.809  71.975  1.00  0.00    -0.126 A  
ENDBRANCH  21  22
ENDBRANCH  13  16
ENDBRANCH   7  10
ENDBRANCH   5   7
ENDBRANCH   2   3
TORSDOF 5
ENDMDL
MODEL      237
REMARK 921   NORMALIZED FREE ENERGY PREDICTED BY IDOCK:   -2.33 KCAL/MOL
REMARK 922        TOTAL FREE ENERGY PREDICTED BY IDOCK:   -4.09 KCAL/MOL
REMARK 923 INTER-LIGAND FREE ENERGY PREDICTED BY IDOCK:   -4.19 KCAL/MOL
REMARK 924 INTRA-LIGAND FREE ENERGY PREDICTED BY IDOCK:    0.10 KCAL/MOL
REMARK 927      BINDING AFFINITY PREDICTED BY RF-SCORE:    0.00 PKD
ROOT
HETATM    1  C   UNL     1     -13.448  14.297  72.904  1.00  0.00    -0.491 C  
HETATM    2  C   UNL     1     -13.775  13.608  71.592  1.00  0.00    -0.324 C  
ENDROOT
BRANCH   2   3
HETATM    3  C   UNL     1     -13.025  12.299  71.496  1.00  0.00    -0.289 C  
HETATM    4  O   UNL     1     -11.822  12.264  71.282  1.00  0.00     0.392 OA 
HETATM    5  N   UNL     1     -13.796  11.158  71.747  1.00  0.00     0.288 N  
HETATM    6  H   UNL     1     -14.781  11.300  71.972  1.00  0.00     0.000 HD 
BRANCH   5   7
HETATM    7  S   UNL     1     -13.244   9.592  71.711  1.00  0.00    -0.450 S  
HETATM    8  O   UNL     1     -12.753   9.326  73.051  1.00  0.00    -0.063 OA 
HETATM    9  O   UNL     1     -14.238   8.730  71.105  1.00  0.00    -0.251 OA 
BRANCH   7  10
HETATM   10  C   UNL     1     -11.833   9.698  70.641  1.00  0.00    -0.256 A  
HETATM   11  C   UNL     1     -10.548   9.646  71.181  1.00  0.00    -0.327 A  
HETATM   12  C   UNL     1      -9.446   9.956  70.374  1.00  0.00    -0.088 A  
HETATM   13  C   UNL     1      -9.611  10.267  69.016  1.00  0.00    -0.210 A  
HETATM   14  C   UNL     1     -10.894  10.120  68.462  1.00  0.00    -0.278 A  
HETATM   15  C   UNL     1     -12.008   9.875  69.273  1.00  0.00     0.340 A  
BRANCH  13  16
HETATM   16  C   UNL     1      -8.533  10.868  68.223  1.00  0.00    -0.134 A  
HETATM   17  C   UNL     1      -7.327  10.268  67.891  1.00  0.00    -0.087 A  
HETATM   18  C   UNL     1      -6.646   8.977  68.116  1.00  0.00    -0.060 C  
HETATM   19  O   UNL     1      -6.584  11.134  67.156  1.00  0.00    -0.081 OA 
HETATM   20  N   UNL     1      -7.244  12.320  67.005  1.00  0.00    -0.090 NA 
HETATM   21  C   UNL     1      -8.410  12.202  67.662  1.00  0.00    -0.163 A  
BRANCH  21  22
HETATM   22  C   UNL     1      -9.323  13.357  67.697  1.00  0.00    -0.217 A  
HETATM   23  C   UNL     1     -10.615  13.244  67.156  1.00  0.00    -0.259 A  
HETATM   24  C   UNL     1     -11.533  14.294  67.261  1.00  0.00    -0.371 A  
HETATM   25  C   UNL     1     -11.179  15.465  67.923  1.00  0.00    -0.329 A  
HETATM   26  C   UNL     1      -9.887  15.613  68.423  1.00  0.00    -0.206 A  
HETATM   27  C   UNL     1      -8.956  14.582  68.272  1.00  0.00    -0.184 A  
ENDBRANCH  21  22
ENDBRANCH  13  16
ENDBRANCH   7  10
ENDBRANCH   5   7
ENDBRANCH   2   3
TORSDOF 5
ENDMDL
MODEL      238
REMARK 921   NORMALIZED FREE ENERGY PREDICTED BY IDOCK:   -2.30 KCAL/MOL
REMARK 922        TOTAL FREE ENERGY PREDICTED BY IDOCK:   -4.05 KCAL/MOL
REMARK 923 INTER-LIGAND FREE ENERGY PREDICTED BY IDOCK:   -3.60 KCAL/MOL
REMARK 924 INTRA-LIGAND FREE ENERGY PREDICTED BY IDOCK:   -0.45 KCAL/MOL
REMARK 927      BINDING AFFINITY PREDICTED BY RF-SCORE:    0.00 PKD
ROOT
HETATM    1  C   UNL     1      -7.311   9.189  72.234  1.00  0.00     0.430 C  
HETATM    2  C   UNL     1      -6.300   8.699  71.214  1.00  0.00    -0.053 C  
ENDROOT
BRANCH   2   3
HETATM    3  C   UNL     1      -6.708   9.144  69.829  1.00  0.00    -0.050 C  
HETATM    4  O   UNL     1      -6.104  10.025  69.235  1.00  0.00    -0.040 OA 
HETATM    5  N   UNL     1      -7.764   8.418  69.264  1.00  0.00    -0.096 N  
HETATM    6  H   UNL     1      -8.163   7.663  69.821  1.00  0.00     0.000 HD 
BRANCH   5   7
HETATM    7  S   UNL     1      -8.422   8.683  67.762  1.00  0.00    -0.125 S  
HETATM    8  O   UNL     1      -7.300   9.025  66.905  1.00  0.00    -0.085 OA 
HETATM    9  O   UNL     1      -9.312   7.595  67.412  1.00  0.00    -0.136 OA 
BRANCH   7  10
HETATM   10  C   UNL     1      -9.373  10.161  68.004  1.00  0.00    -0.141 A  
HETATM   11  C   UNL     1     -10.730  10.173  67.684  1.00  0.00    -0.339 A  
HETATM   12  C   UNL     1     -11.423  11.390  67.658  1.00  0.00    -0.348 A  
HETATM   13  C   UNL     1     -10.785  12.591  68.000  1.00  0.00    -0.242 A  
HETATM   14  C   UNL     1      -9.475  12.516  68.504  1.00  0.00    -0.100 A  
HETATM   15  C   UNL     1      -8.755  11.317  68.472  1.00  0.00    -0.156 A  
BRANCH  13  16
HETATM   16  C   UNL     1     -11.388  13.897  67.712  1.00  0.00    -0.335 A  
HETATM   17  C   UNL     1     -11.471  14.505  66.469  1.00  0.00    -0.362 A  
HETATM   18  C   UNL     1     -11.079  14.211  65.075  1.00  0.00    -0.372 C  
HETATM   19  O   UNL     1     -12.088  15.707  66.598  1.00  0.00     0.522 OA 
HETATM   20  N   UNL     1     -12.399  15.945  67.907  1.00  0.00     0.792 NA 
HETATM   21  C   UNL     1     -11.963  14.885  68.608  1.00  0.00    -0.241 A  
BRANCH  21  22
HETATM   22  C   UNL     1     -12.138  14.884  70.071  1.00  0.00    -0.387 A  
HETATM   23  C   UNL     1     -11.076  15.279  70.902  1.00  0.00    -0.343 A  
HETATM   24  C   UNL     1     -11.245  15.378  72.287  1.00  0.00    -0.270 A  
HETATM   25  C   UNL     1     -12.483  15.099  72.859  1.00  0.00    -0.507 A  
HETATM   26  C   UNL     1     -13.532  14.660  72.056  1.00  0.00    -0.476 A  
HETATM   27  C   UNL     1     -13.345  14.513  70.678  1.00  0.00    -0.142 A  
ENDBRANCH  21  22
ENDBRANCH  13  16
ENDBRANCH   7  10
ENDBRANCH   5   7
ENDBRANCH   2   3
TORSDOF 5
ENDMDL
MODEL      239
REMARK 921   NORMALIZED FREE ENERGY PREDICTED BY IDOCK:   -1.81 KCAL/MOL
REMARK 922        TOTAL FREE ENERGY PREDICTED BY IDOCK:   -3.42 KCAL/MOL
REMARK 923 INTER-LIGAND FREE ENERGY PREDICTED BY IDOCK:   -2.86 KCAL/MOL
REMARK 924 INTRA-LIGAND FREE ENERGY PREDICTED BY IDOCK:   -0.57 KCAL/MOL
REMARK 927      BINDING AFFINITY PREDICTED BY RF-SCORE:    0.00 PKD
ROOT
HETATM    1  C   UNL     1     -13.990  10.324  70.102  1.00  0.00     1.689 C  
HETATM    2  C   UNL     1     -13.867   9.831  71.532  1.00  0.00    -0.163 C  
ENDROOT
BRANCH   2   3
HETATM    3  C   UNL     1     -12.866   8.702  71.604  1.00  0.00    -0.345 C  
HETATM    4  O   UNL     1     -13.219   7.532  71.616  1.00  0.00    -0.348 OA 
HETATM    5  N   UNL     1     -11.524   9.101  71.576  1.00  0.00    -0.339 N  
HETATM    6  H   UNL     1     -11.336  10.101  71.509  1.00  0.00     0.000 HD 
BRANCH   5   7
HETATM    7  S   UNL     1     -10.212   8.084  71.643  1.00  0.00    -0.214 S  
HETATM    8  O   UNL     1      -9.217   8.791  72.429  1.00  0.00    -0.361 OA 
HETATM    9  O   UNL     1     -10.638   6.751  72.019  1.00  0.00    -0.210 OA 
BRANCH   7  10
HETATM   10  C   UNL     1      -9.644   8.064  69.963  1.00  0.00    -0.171 A  
HETATM   11  C   UNL     1      -8.375   8.552  69.655  1.00  0.00    -0.121 A  
HETATM   12  C   UNL     1      -8.016   8.746  68.315  1.00  0.00    -0.106 A  
HETATM   13  C   UNL     1      -8.897   8.409  67.276  1.00  0.00    -0.137 A  
HETATM   14  C   UNL     1     -10.085   7.742  67.616  1.00  0.00    -0.254 A  
HETATM   15  C   UNL     1     -10.480   7.602  68.952  1.00  0.00    -0.211 A  
BRANCH  13  16
HETATM   16  C   UNL     1      -8.675   8.859  65.897  1.00  0.00    -0.197 A  
HETATM   17  C   UNL     1      -8.833  10.152  65.421  1.00  0.00    -0.173 A  
HETATM   18  C   UNL     1      -9.223  11.475  65.949  1.00  0.00    -0.223 C  
HETATM   19  O   UNL     1      -8.544  10.179  64.095  1.00  0.00    -0.163 OA 
HETATM   20  N   UNL     1      -8.223   8.928  63.651  1.00  0.00    -0.169 NA 
HETATM   21  C   UNL     1      -8.322   8.104  64.708  1.00  0.00    -0.104 A  
BRANCH  21  22
HETATM   22  C   UNL     1      -8.060   6.668  64.512  1.00  0.00    -0.073 A  
HETATM   23  C   UNL     1      -7.947   5.819  65.627  1.00  0.00    -0.116 A  
HETATM   24  C   UNL     1      -7.794   4.438  65.468  1.00  0.00    -0.094 A  
HETATM   25  C   UNL     1      -7.769   3.883  64.191  1.00  0.00    -0.083 A  
HETATM   26  C   UNL     1      -7.830   4.714  63.075  1.00  0.00    -0.070 A  
HETATM   27  C   UNL     1      -7.932   6.099  63.238  1.00  0.00    -0.102 A  
ENDBRANCH  21  22
ENDBRANCH  13  16
ENDBRANCH   7  10
ENDBRANCH   5   7
ENDBRANCH   2   3
TORSDOF 5
ENDMDL
MODEL      240
REMARK 921   NORMALIZED FREE ENERGY PREDICTED BY IDOCK:   -1.50 KCAL/MOL
REMARK 922        TOTAL FREE ENERGY PREDICTED BY IDOCK:   -3.03 KCAL/MOL
REMARK 923 INTER-LIGAND FREE ENERGY PREDICTED BY IDOCK:   -2.23 KCAL/MOL
REMARK 924 INTRA-LIGAND FREE ENERGY PREDICTED BY IDOCK:   -0.79 KCAL/MOL
REMARK 927      BINDING AFFINITY PREDICTED BY RF-SCORE:    0.00 PKD
ROOT
HETATM    1  C   UNL     1     -14.003  10.330  70.094  1.00  0.00     1.689 C  
HETATM    2  C   UNL     1     -13.857   9.791  71.505  1.00  0.00    -0.163 C  
ENDROOT
BRANCH   2   3
HETATM    3  C   UNL     1     -12.864   8.653  71.523  1.00  0.00    -0.319 C  
HETATM    4  O   UNL     1     -13.226   7.485  71.510  1.00  0.00    -0.353 OA 
HETATM    5  N   UNL     1     -11.520   9.043  71.475  1.00  0.00    -0.310 N  
HETATM    6  H   UNL     1     -11.325  10.043  71.431  1.00  0.00     0.000 HD 
BRANCH   5   7
HETATM    7  S   UNL     1     -10.216   8.014  71.484  1.00  0.00    -0.202 S  
HETATM    8  O   UNL     1      -9.459   8.362  72.673  1.00  0.00    -0.269 OA 
HETATM    9  O   UNL     1     -10.657   6.652  71.262  1.00  0.00    -0.217 OA 
BRANCH   7  10
HETATM   10  C   UNL     1      -9.276   8.558  70.081  1.00  0.00    -0.156 A  
HETATM   11  C   UNL     1      -8.004   8.034  69.853  1.00  0.00    -0.111 A  
HETATM   12  C   UNL     1      -7.178   8.623  68.887  1.00  0.00    -0.077 A  
HETATM   13  C   UNL     1      -7.629   9.701  68.110  1.00  0.00    -0.082 A  
HETATM   14  C   UNL     1      -8.978  10.075  68.232  1.00  0.00    -0.119 A  
HETATM   15  C   UNL     1      -9.791   9.537  69.236  1.00  0.00    -0.184 A  
BRANCH  13  16
HETATM   16  C   UNL     1      -6.710  10.515  67.307  1.00  0.00    -0.077 A  
HETATM   17  C   UNL     1      -6.139  11.721  67.684  1.00  0.00    -0.072 A  
HETATM   18  C   UNL     1      -6.155  12.624  68.853  1.00  0.00    -0.079 C  
HETATM   19  O   UNL     1      -5.352  12.178  66.677  1.00  0.00    -0.332 OA 
HETATM   20  N   UNL     1      -5.398  11.325  65.612  1.00  0.00    -0.241 NA 
HETATM   21  C   UNL     1      -6.232  10.327  65.948  1.00  0.00    -0.105 A  
BRANCH  21  22
HETATM   22  C   UNL     1      -6.501   9.266  64.963  1.00  0.00    -0.070 A  
HETATM   23  C   UNL     1      -5.862   8.020  65.084  1.00  0.00    -0.044 A  
HETATM   24  C   UNL     1      -6.171   6.966  64.219  1.00  0.00    -0.036 A  
HETATM   25  C   UNL     1      -7.136   7.137  63.230  1.00  0.00    -0.065 A  
HETATM   26  C   UNL     1      -7.743   8.378  63.065  1.00  0.00    -0.132 A  
HETATM   27  C   UNL     1      -7.395   9.445  63.899  1.00  0.00    -0.105 A  
ENDBRANCH  21  22
ENDBRANCH  13  16
ENDBRANCH   7  10
ENDBRANCH   5   7
ENDBRANCH   2   3
TORSDOF 5
ENDMDL
MODEL      241
REMARK 921   NORMALIZED FREE ENERGY PREDICTED BY IDOCK:   -0.87 KCAL/MOL
REMARK 922        TOTAL FREE ENERGY PREDICTED BY IDOCK:   -2.20 KCAL/MOL
REMARK 923 INTER-LIGAND FREE ENERGY PREDICTED BY IDOCK:   -3.07 KCAL/MOL
REMARK 924 INTRA-LIGAND FREE ENERGY PREDICTED BY IDOCK:    0.87 KCAL/MOL
REMARK 927      BINDING AFFINITY PREDICTED BY RF-SCORE:    0.00 PKD
ROOT
HETATM    1  C   UNL     1      -5.210  13.802  72.653  1.00  0.00    -0.169 C  
HETATM    2  C   UNL     1      -6.014  15.049  72.339  1.00  0.00     0.777 C  
ENDROOT
BRANCH   2   3
HETATM    3  C   UNL     1      -6.368  15.079  70.870  1.00  0.00     0.237 C  
HETATM    4  O   UNL     1      -6.928  14.138  70.326  1.00  0.00     0.080 OA 
HETATM    5  N   UNL     1      -6.077  16.284  70.218  1.00  0.00    -0.088 N  
HETATM    6  H   UNL     1      -5.660  17.028  70.777  1.00  0.00     0.000 HD 
BRANCH   5   7
HETATM    7  S   UNL     1      -6.353  16.603  68.612  1.00  0.00    -0.154 S  
HETATM    8  O   UNL     1      -7.045  17.879  68.587  1.00  0.00    -0.246 OA 
HETATM    9  O   UNL     1      -5.136  16.410  67.852  1.00  0.00    -0.103 OA 
BRANCH   7  10
HETATM   10  C   UNL     1      -7.529  15.354  68.159  1.00  0.00    -0.115 A  
HETATM   11  C   UNL     1      -7.104  14.220  67.469  1.00  0.00    -0.189 A  
HETATM   12  C   UNL     1      -8.054  13.352  66.916  1.00  0.00     0.097 A  
HETATM   13  C   UNL     1      -9.428  13.579  67.089  1.00  0.00    -0.244 A  
HETATM   14  C   UNL     1      -9.815  14.620  67.950  1.00  0.00    -0.217 A  
HETATM   15  C   UNL     1      -8.878  15.529  68.454  1.00  0.00    -0.183 A  
BRANCH  13  16
HETATM   16  C   UNL     1     -10.437  12.868  66.296  1.00  0.00    -0.282 A  
HETATM   17  C   UNL     1     -11.421  13.448  65.511  1.00  0.00    -0.305 A  
HETATM   18  C   UNL     1     -11.869  14.806  65.139  1.00  0.00    -0.313 C  
HETATM   19  O   UNL     1     -12.169  12.472  64.936  1.00  0.00    -0.441 OA 
HETATM   20  N   UNL     1     -11.735  11.241  65.338  1.00  0.00     0.124 NA 
HETATM   21  C   UNL     1     -10.710  11.446  66.182  1.00  0.00    -0.267 A  
BRANCH  21  22
HETATM   22  C   UNL     1     -10.060  10.280  66.803  1.00  0.00    -0.272 A  
HETATM   23  C   UNL     1     -10.299   8.992  66.294  1.00  0.00    -0.130 A  
HETATM   24  C   UNL     1      -9.622   7.879  66.804  1.00  0.00    -0.278 A  
HETATM   25  C   UNL     1      -8.684   8.041  67.819  1.00  0.00    -0.127 A  
HETATM   26  C   UNL     1      -8.470   9.302  68.368  1.00  0.00    -0.120 A  
HETATM   27  C   UNL     1      -9.185  10.404  67.891  1.00  0.00    -0.143 A  
ENDBRANCH  21  22
ENDBRANCH  13  16
ENDBRANCH   7  10
ENDBRANCH   5   7
ENDBRANCH   2   3
TORSDOF 5
ENDMDL
MODEL      242
REMARK 921   NORMALIZED FREE ENERGY PREDICTED BY IDOCK:   -0.82 KCAL/MOL
REMARK 922        TOTAL FREE ENERGY PREDICTED BY IDOCK:   -2.14 KCAL/MOL
REMARK 923 INTER-LIGAND FREE ENERGY PREDICTED BY IDOCK:   -1.82 KCAL/MOL
REMARK 924 INTRA-LIGAND FREE ENERGY PREDICTED BY IDOCK:   -0.33 KCAL/MOL
REMARK 927      BINDING AFFINITY PREDICTED BY RF-SCORE:    0.00 PKD
ROOT
HETATM    1  C   UNL     1     -12.042  15.483  64.038  1.00  0.00     0.058 C  
HETATM    2  C   UNL     1     -11.621  16.940  64.090  1.00  0.00     1.311 C  
ENDROOT
BRANCH   2   3
HETATM    3  C   UNL     1     -10.679  17.164  65.250  1.00  0.00    -0.056 C  
HETATM    4  O   UNL     1     -10.778  18.143  65.976  1.00  0.00    -0.336 OA 
HETATM    5  N   UNL     1      -9.755  16.135  65.467  1.00  0.00    -0.189 N  
HETATM    6  H   UNL     1      -9.793  15.333  64.838  1.00  0.00     0.000 HD 
BRANCH   5   7
HETATM    7  S   UNL     1      -8.602  16.108  66.663  1.00  0.00    -0.306 S  
HETATM    8  O   UNL     1      -7.475  15.391  66.094  1.00  0.00     0.686 OA 
HETATM    9  O   UNL     1      -8.429  17.437  67.213  1.00  0.00    -0.202 OA 
BRANCH   7  10
HETATM   10  C   UNL     1      -9.334  15.059  67.891  1.00  0.00    -0.183 A  
HETATM   11  C   UNL     1      -9.276  13.674  67.743  1.00  0.00    -0.214 A  
HETATM   12  C   UNL     1     -10.043  12.857  68.584  1.00  0.00    -0.136 A  
HETATM   13  C   UNL     1     -10.829  13.409  69.607  1.00  0.00     0.189 A  
HETATM   14  C   UNL     1     -10.710  14.788  69.850  1.00  0.00    -0.139 A  
HETATM   15  C   UNL     1      -9.999  15.619  68.977  1.00  0.00    -0.233 A  
BRANCH  13  16
HETATM   16  C   UNL     1     -11.850  12.623  70.308  1.00  0.00    -0.295 A  
HETATM   17  C   UNL     1     -12.332  11.380  69.929  1.00  0.00    -0.214 A  
HETATM   18  C   UNL     1     -12.110  10.401  68.844  1.00  0.00     0.223 C  
HETATM   19  O   UNL     1     -13.273  10.973  70.819  1.00  0.00    -0.153 OA 
HETATM   20  N   UNL     1     -13.463  11.926  71.779  1.00  0.00    -0.215 NA 
HETATM   21  C   UNL     1     -12.641  12.946  71.483  1.00  0.00    -0.167 A  
BRANCH  21  22
HETATM   22  C   UNL     1     -12.659  14.142  72.342  1.00  0.00    -0.286 A  
HETATM   23  C   UNL     1     -13.685  15.092  72.198  1.00  0.00    -0.583 A  
HETATM   24  C   UNL     1     -13.779  16.186  73.064  1.00  0.00    -0.313 A  
HETATM   25  C   UNL     1     -12.859  16.338  74.097  1.00  0.00    -0.382 A  
HETATM   26  C   UNL     1     -11.808  15.433  74.224  1.00  0.00    -0.170 A  
HETATM   27  C   UNL     1     -11.687  14.368  73.326  1.00  0.00     0.488 A  
ENDBRANCH  21  22
ENDBRANCH  13  16
ENDBRANCH   7  10
ENDBRANCH   5   7
ENDBRANCH   2   3
TORSDOF 5
ENDMDL
MODEL      243
REMARK 921   NORMALIZED FREE ENERGY PREDICTED BY IDOCK:   -0.37 KCAL/MOL
REMARK 922        TOTAL FREE ENERGY PREDICTED BY IDOCK:   -1.56 KCAL/MOL
REMARK 923 INTER-LIGAND FREE ENERGY PREDICTED BY IDOCK:   -3.34 KCAL/MOL
REMARK 924 INTRA-LIGAND FREE ENERGY PREDICTED BY IDOCK:    1.78 KCAL/MOL
REMARK 927      BINDING AFFINITY PREDICTED BY RF-SCORE:    0.00 PKD
ROOT
HETATM    1  C   UNL     1      -5.185  13.598  72.820  1.00  0.00    -0.120 C  
HETATM    2  C   UNL     1      -6.018  14.549  71.980  1.00  0.00     0.222 C  
ENDROOT
BRANCH   2   3
HETATM    3  C   UNL     1      -6.308  13.929  70.633  1.00  0.00     0.024 C  
HETATM    4  O   UNL     1      -6.659  12.763  70.526  1.00  0.00     0.182 OA 
HETATM    5  N   UNL     1      -6.221  14.810  69.548  1.00  0.00    -0.110 N  
HETATM    6  H   UNL     1      -5.976  15.779  69.752  1.00  0.00     0.000 HD 
BRANCH   5   7
HETATM    7  S   UNL     1      -6.485  14.411  67.958  1.00  0.00    -0.165 S  
HETATM    8  O   UNL     1      -7.631  15.202  67.547  1.00  0.00    -0.157 OA 
HETATM    9  O   UNL     1      -5.241  14.477  67.218  1.00  0.00    -0.282 OA 
BRANCH   7  10
HETATM   10  C   UNL     1      -7.016  12.722  68.058  1.00  0.00    -0.107 A  
HETATM   11  C   UNL     1      -6.102  11.727  68.404  1.00  0.00    -0.049 A  
HETATM   12  C   UNL     1      -6.461  10.380  68.263  1.00  0.00    -0.059 A  
HETATM   13  C   UNL     1      -7.744  10.017  67.827  1.00  0.00    -0.090 A  
HETATM   14  C   UNL     1      -8.697  11.038  67.675  1.00  0.00    -0.128 A  
HETATM   15  C   UNL     1      -8.331  12.387  67.751  1.00  0.00    -0.164 A  
BRANCH  13  16
HETATM   16  C   UNL     1      -8.057   8.649  67.398  1.00  0.00    -0.102 A  
HETATM   17  C   UNL     1      -7.492   7.977  66.325  1.00  0.00    -0.082 A  
HETATM   18  C   UNL     1      -6.485   8.236  65.275  1.00  0.00    -0.052 C  
HETATM   19  O   UNL     1      -8.037   6.737  66.236  1.00  0.00    -0.104 OA 
HETATM   20  N   UNL     1      -8.983   6.561  67.206  1.00  0.00    -0.114 NA 
HETATM   21  C   UNL     1      -9.040   7.707  67.905  1.00  0.00    -0.134 A  
BRANCH  21  22
HETATM   22  C   UNL     1     -10.011   7.817  69.007  1.00  0.00    -0.182 A  
HETATM   23  C   UNL     1     -10.917   6.770  69.247  1.00  0.00    -0.303 A  
HETATM   24  C   UNL     1     -11.784   6.806  70.344  1.00  0.00    -0.418 A  
HETATM   25  C   UNL     1     -11.746   7.882  71.226  1.00  0.00    -0.313 A  
HETATM   26  C   UNL     1     -10.888   8.950  70.976  1.00  0.00    -0.326 A  
HETATM   27  C   UNL     1     -10.059   8.934  69.851  1.00  0.00    -0.204 A  
ENDBRANCH  21  22
ENDBRANCH  13  16
ENDBRANCH   7  10
ENDBRANCH   5   7
ENDBRANCH   2   3
TORSDOF 5
ENDMDL
MODEL      244
REMARK 921   NORMALIZED FREE ENERGY PREDICTED BY IDOCK:    0.41 KCAL/MOL
REMARK 922        TOTAL FREE ENERGY PREDICTED BY IDOCK:   -0.55 KCAL/MOL
REMARK 923 INTER-LIGAND FREE ENERGY PREDICTED BY IDOCK:   -0.44 KCAL/MOL
REMARK 924 INTRA-LIGAND FREE ENERGY PREDICTED BY IDOCK:   -0.11 KCAL/MOL
REMARK 927      BINDING AFFINITY PREDICTED BY RF-SCORE:    0.00 PKD
ROOT
HETATM    1  C   UNL     1      -9.834   9.345  64.685  1.00  0.00     0.459 C  
HETATM    2  C   UNL     1     -10.192  10.638  63.978  1.00  0.00    -0.334 C  
ENDROOT
BRANCH   2   3
HETATM    3  C   UNL     1     -10.378  11.746  64.989  1.00  0.00    -0.281 C  
HETATM    4  O   UNL     1     -10.555  11.508  66.175  1.00  0.00    -0.250 OA 
HETATM    5  N   UNL     1     -10.252  13.042  64.474  1.00  0.00    -0.547 N  
HETATM    6  H   UNL     1     -10.048  13.131  63.478  1.00  0.00     0.000 HD 
BRANCH   5   7
HETATM    7  S   UNL     1     -10.407  14.447  65.346  1.00  0.00    -0.400 S  
HETATM    8  O   UNL     1      -9.700  15.456  64.578  1.00  0.00     0.248 OA 
HETATM    9  O   UNL     1     -11.791  14.645  65.725  1.00  0.00    -0.346 OA 
BRANCH   7  10
HETATM   10  C   UNL     1      -9.445  14.116  66.799  1.00  0.00    -0.279 A  
HETATM   11  C   UNL     1      -9.927  14.496  68.051  1.00  0.00    -0.222 A  
HETATM   12  C   UNL     1      -9.077  14.443  69.163  1.00  0.00     0.088 A  
HETATM   13  C   UNL     1      -7.763  13.964  69.046  1.00  0.00     0.026 A  
HETATM   14  C   UNL     1      -7.377  13.410  67.814  1.00  0.00    -0.158 A  
HETATM   15  C   UNL     1      -8.194  13.517  66.684  1.00  0.00     0.348 A  
BRANCH  13  16
HETATM   16  C   UNL     1      -6.770  14.160  70.108  1.00  0.00     0.038 A  
HETATM   17  C   UNL     1      -6.351  15.377  70.624  1.00  0.00     0.221 A  
HETATM   18  C   UNL     1      -6.633  16.813  70.416  1.00  0.00     0.880 C  
HETATM   19  O   UNL     1      -5.419  15.159  71.586  1.00  0.00    -0.027 OA 
HETATM   20  N   UNL     1      -5.172  13.822  71.715  1.00  0.00    -0.182 NA 
HETATM   21  C   UNL     1      -5.949  13.194  70.817  1.00  0.00    -0.017 A  
BRANCH  21  22
HETATM   22  C   UNL     1      -5.865  11.728  70.709  1.00  0.00    -0.004 A  
HETATM   23  C   UNL     1      -5.651  10.953  71.862  1.00  0.00     0.465 A  
HETATM   24  C   UNL     1      -5.662   9.556  71.802  1.00  0.00    -0.035 A  
HETATM   25  C   UNL     1      -5.904   8.913  70.592  1.00  0.00    -0.033 A  
HETATM   26  C   UNL     1      -6.070   9.664  69.431  1.00  0.00    -0.036 A  
HETATM   27  C   UNL     1      -6.008  11.060  69.486  1.00  0.00    -0.064 A  
ENDBRANCH  21  22
ENDBRANCH  13  16
ENDBRANCH   7  10
ENDBRANCH   5   7
ENDBRANCH   2   3
TORSDOF 5
ENDMDL
MODEL      245
REMARK 921   NORMALIZED FREE ENERGY PREDICTED BY IDOCK:    1.46 KCAL/MOL
REMARK 922        TOTAL FREE ENERGY PREDICTED BY IDOCK:    0.81 KCAL/MOL
REMARK 923 INTER-LIGAND FREE ENERGY PREDICTED BY IDOCK:    0.86 KCAL/MOL
REMARK 924 INTRA-LIGAND FREE ENERGY PREDICTED BY IDOCK:   -0.05 KCAL/MOL
REMARK 927      BINDING AFFINITY PREDICTED BY RF-SCORE:    0.00 PKD
ROOT
HETATM    1  C   UNL     1      -6.971   9.974  72.437  1.00  0.00     2.208 C  
HETATM    2  C   UNL     1      -5.744   9.719  71.582  1.00  0.00     0.004 C  
ENDROOT
BRANCH   2   3
HETATM    3  C   UNL     1      -5.806  10.558  70.327  1.00  0.00    -0.089 C  
HETATM    4  O   UNL     1      -5.185  11.606  70.224  1.00  0.00    -0.076 OA 
HETATM    5  N   UNL     1      -6.556  10.002  69.283  1.00  0.00    -0.048 N  
HETATM    6  H   UNL     1      -6.989   9.094  69.451  1.00  0.00     0.000 HD 
BRANCH   5   7
HETATM    7  S   UNL     1      -6.800  10.696  67.794  1.00  0.00    -0.073 S  
HETATM    8  O   UNL     1      -5.496  11.177  67.375  1.00  0.00    -0.041 OA 
HETATM    9  O   UNL     1      -7.562   9.800  66.948  1.00  0.00    -0.094 OA 
BRANCH   7  10
HETATM   10  C   UNL     1      -7.790  12.117  68.179  1.00  0.00    -0.147 A  
HETATM   11  C   UNL     1      -8.840  12.480  67.337  1.00  0.00    -0.187 A  
HETATM   12  C   UNL     1      -9.471  13.718  67.513  1.00  0.00    -0.220 A  
HETATM   13  C   UNL     1      -9.095  14.578  68.557  1.00  0.00    -0.190 A  
HETATM   14  C   UNL     1      -8.170  14.097  69.499  1.00  0.00     0.510 A  
HETATM   15  C   UNL     1      -7.490  12.892  69.296  1.00  0.00     0.312 A  
BRANCH  13  16
HETATM   16  C   UNL     1      -9.525  15.980  68.598  1.00  0.00    -0.224 A  
HETATM   17  C   UNL     1      -9.081  16.998  67.768  1.00  0.00    -0.228 A  
HETATM   18  C   UNL     1      -8.139  17.164  66.642  1.00  0.00    -0.292 C  
HETATM   19  O   UNL     1      -9.699  18.157  68.111  1.00  0.00    -0.296 OA 
HETATM   20  N   UNL     1     -10.531  17.956  69.175  1.00  0.00    -0.164 NA 
HETATM   21  C   UNL     1     -10.427  16.660  69.511  1.00  0.00    -0.281 A  
BRANCH  21  22
HETATM   22  C   UNL     1     -11.199  16.162  70.662  1.00  0.00    -0.371 A  
HETATM   23  C   UNL     1     -10.533  15.780  71.839  1.00  0.00     1.520 A  
HETATM   24  C   UNL     1     -11.248  15.395  72.978  1.00  0.00     0.318 A  
HETATM   25  C   UNL     1     -12.639  15.403  72.962  1.00  0.00    -0.545 A  
HETATM   26  C   UNL     1     -13.315  15.732  71.790  1.00  0.00    -0.450 A  
HETATM   27  C   UNL     1     -12.597  16.067  70.638  1.00  0.00    -0.000 A  
ENDBRANCH  21  22
ENDBRANCH  13  16
ENDBRANCH   7  10
ENDBRANCH   5   7
ENDBRANCH   2   3
TORSDOF 5
ENDMDL
MODEL      246
REMARK 921   NORMALIZED FREE ENERGY PREDICTED BY IDOCK:    1.94 KCAL/MOL
REMARK 922        TOTAL FREE ENERGY PREDICTED BY IDOCK:    1.42 KCAL/MOL
REMARK 923 INTER-LIGAND FREE ENERGY PREDICTED BY IDOCK:    0.47 KCAL/MOL
REMARK 924 INTRA-LIGAND FREE ENERGY PREDICTED BY IDOCK:    0.96 KCAL/MOL
REMARK 927      BINDING AFFINITY PREDICTED BY RF-SCORE:    0.00 PKD
ROOT
HETATM    1  C   UNL     1      -8.387   9.053  73.232  1.00  0.00     0.946 C  
HETATM    2  C   UNL     1      -9.566   8.181  72.844  1.00  0.00    -0.345 C  
ENDROOT
BRANCH   2   3
HETATM    3  C   UNL     1      -9.798   8.260  71.353  1.00  0.00    -0.184 C  
HETATM    4  O   UNL     1     -10.329   7.347  70.738  1.00  0.00    -0.202 OA 
HETATM    5  N   UNL     1      -9.433   9.477  70.763  1.00  0.00    -0.280 N  
HETATM    6  H   UNL     1      -9.050  10.196  71.376  1.00  0.00     0.000 HD 
BRANCH   5   7
HETATM    7  S   UNL     1      -9.572   9.848  69.150  1.00  0.00    -0.211 S  
HETATM    8  O   UNL     1      -8.310   9.447  68.554  1.00  0.00    -0.116 OA 
HETATM    9  O   UNL     1     -10.826   9.342  68.632  1.00  0.00    -0.179 OA 
BRANCH   7  10
HETATM   10  C   UNL     1      -9.615  11.621  69.156  1.00  0.00     0.242 A  
HETATM   11  C   UNL     1     -10.577  12.288  69.913  1.00  0.00     0.958 A  
HETATM   12  C   UNL     1     -10.757  13.667  69.742  1.00  0.00     0.340 A  
HETATM   13  C   UNL     1      -9.948  14.396  68.856  1.00  0.00    -0.183 A  
HETATM   14  C   UNL     1      -8.866  13.728  68.259  1.00  0.00    -0.185 A  
HETATM   15  C   UNL     1      -8.719  12.341  68.373  1.00  0.00    -0.139 A  
BRANCH  13  16
HETATM   16  C   UNL     1     -10.289  15.761  68.442  1.00  0.00    -0.233 A  
HETATM   17  C   UNL     1     -11.535  16.362  68.544  1.00  0.00    -0.209 A  
HETATM   18  C   UNL     1     -12.886  16.010  69.027  1.00  0.00     1.443 C  
HETATM   19  O   UNL     1     -11.464  17.625  68.052  1.00  0.00     0.242 OA 
HETATM   20  N   UNL     1     -10.206  17.887  67.590  1.00  0.00    -0.348 NA 
HETATM   21  C   UNL     1      -9.481  16.773  67.783  1.00  0.00    -0.228 A  
BRANCH  21  22
HETATM   22  C   UNL     1      -8.076  16.757  67.342  1.00  0.00    -0.190 A  
HETATM   23  C   UNL     1      -7.474  17.940  66.882  1.00  0.00    -0.227 A  
HETATM   24  C   UNL     1      -6.116  17.974  66.548  1.00  0.00    -0.214 A  
HETATM   25  C   UNL     1      -5.337  16.829  66.685  1.00  0.00    -0.011 A  
HETATM   26  C   UNL     1      -5.928  15.635  67.093  1.00  0.00     0.218 A  
HETATM   27  C   UNL     1      -7.296  15.593  67.378  1.00  0.00    -0.235 A  
ENDBRANCH  21  22
ENDBRANCH  13  16
ENDBRANCH   7  10
ENDBRANCH   5   7
ENDBRANCH   2   3
TORSDOF 5
ENDMDL
MODEL      247
REMARK 921   NORMALIZED FREE ENERGY PREDICTED BY IDOCK:    2.84 KCAL/MOL
REMARK 922        TOTAL FREE ENERGY PREDICTED BY IDOCK:    2.59 KCAL/MOL
REMARK 923 INTER-LIGAND FREE ENERGY PREDICTED BY IDOCK:    3.42 KCAL/MOL
REMARK 924 INTRA-LIGAND FREE ENERGY PREDICTED BY IDOCK:   -0.84 KCAL/MOL
REMARK 927      BINDING AFFINITY PREDICTED BY RF-SCORE:    0.00 PKD
ROOT
HETATM    1  C   UNL     1     -10.380   6.735  74.256  1.00  0.00    -0.234 C  
HETATM    2  C   UNL     1     -10.155   6.808  72.757  1.00  0.00    -0.197 C  
ENDROOT
BRANCH   2   3
HETATM    3  C   UNL     1      -9.197   7.932  72.434  1.00  0.00    -0.181 C  
HETATM    4  O   UNL     1      -8.718   8.638  73.309  1.00  0.00    -0.352 OA 
HETATM    5  N   UNL     1      -8.851   8.040  71.081  1.00  0.00    -0.135 N  
HETATM    6  H   UNL     1      -9.263   7.364  70.438  1.00  0.00     0.000 HD 
BRANCH   5   7
HETATM    7  S   UNL     1      -7.824   9.175  70.436  1.00  0.00    -0.150 S  
HETATM    8  O   UNL     1      -8.035  10.376  71.224  1.00  0.00     1.423 OA 
HETATM    9  O   UNL     1      -6.497   8.615  70.286  1.00  0.00    -0.037 OA 
BRANCH   7  10
HETATM   10  C   UNL     1      -8.520   9.466  68.830  1.00  0.00    -0.122 A  
HETATM   11  C   UNL     1      -9.706   8.832  68.463  1.00  0.00    -0.173 A  
HETATM   12  C   UNL     1     -10.131   8.881  67.129  1.00  0.00    -0.316 A  
HETATM   13  C   UNL     1      -9.408   9.602  66.167  1.00  0.00    -0.248 A  
HETATM   14  C   UNL     1      -8.330  10.386  66.611  1.00  0.00    -0.127 A  
HETATM   15  C   UNL     1      -7.860  10.292  67.926  1.00  0.00    -0.101 A  
BRANCH  13  16
HETATM   16  C   UNL     1      -9.657   9.441  64.730  1.00  0.00     0.024 A  
HETATM   17  C   UNL     1      -9.093   8.482  63.902  1.00  0.00     0.806 A  
HETATM   18  C   UNL     1      -8.144   7.355  64.016  1.00  0.00    -0.031 C  
HETATM   19  O   UNL     1      -9.558   8.653  62.638  1.00  0.00     1.183 OA 
HETATM   20  N   UNL     1     -10.402   9.725  62.581  1.00  0.00     1.633 NA 
HETATM   21  C   UNL     1     -10.460  10.240  63.821  1.00  0.00     0.733 A  
BRANCH  21  22
HETATM   22  C   UNL     1     -11.282  11.440  64.051  1.00  0.00    -0.350 A  
HETATM   23  C   UNL     1     -12.656  11.415  63.753  1.00  0.00     0.287 A  
HETATM   24  C   UNL     1     -13.476  12.508  64.051  1.00  0.00     0.738 A  
HETATM   25  C   UNL     1     -12.939  13.635  64.666  1.00  0.00     0.075 A  
HETATM   26  C   UNL     1     -11.572  13.696  64.923  1.00  0.00    -0.360 A  
HETATM   27  C   UNL     1     -10.745  12.622  64.578  1.00  0.00    -0.368 A  
ENDBRANCH  21  22
ENDBRANCH  13  16
ENDBRANCH   7  10
ENDBRANCH   5   7
ENDBRANCH   2   3
TORSDOF 5
ENDMDL
MODEL      248
REMARK 921   NORMALIZED FREE ENERGY PREDICTED BY IDOCK:    2.90 KCAL/MOL
REMARK 922        TOTAL FREE ENERGY PREDICTED BY IDOCK:    2.67 KCAL/MOL
REMARK 923 INTER-LIGAND FREE ENERGY PREDICTED BY IDOCK:    2.15 KCAL/MOL
REMARK 924 INTRA-LIGAND FREE ENERGY PREDICTED BY IDOCK:    0.51 KCAL/MOL
REMARK 927      BINDING AFFINITY PREDICTED BY RF-SCORE:    0.00 PKD
ROOT
HETATM    1  C   UNL     1     -12.721  17.308  68.056  1.00  0.00     4.421 C  
HETATM    2  C   UNL     1     -11.510  16.407  67.901  1.00  0.00     0.010 C  
ENDROOT
BRANCH   2   3
HETATM    3  C   UNL     1     -11.862  15.213  67.044  1.00  0.00    -0.014 C  
HETATM    4  O   UNL     1     -12.171  14.138  67.538  1.00  0.00    -0.370 OA 
HETATM    5  N   UNL     1     -11.881  15.461  65.666  1.00  0.00     0.143 N  
HETATM    6  H   UNL     1     -11.662  16.409  65.360  1.00  0.00     0.000 HD 
BRANCH   5   7
HETATM    7  S   UNL     1     -12.230  14.343  64.488  1.00  0.00    -0.421 S  
HETATM    8  O   UNL     1     -13.617  13.973  64.709  1.00  0.00     0.293 OA 
HETATM    9  O   UNL     1     -11.794  14.832  63.196  1.00  0.00     0.636 OA 
BRANCH   7  10
HETATM   10  C   UNL     1     -11.231  12.954  64.955  1.00  0.00    -0.293 A  
HETATM   11  C   UNL     1     -11.598  12.172  66.049  1.00  0.00    -0.420 A  
HETATM   12  C   UNL     1     -10.698  11.224  66.554  1.00  0.00    -0.323 A  
HETATM   13  C   UNL     1      -9.453  11.014  65.943  1.00  0.00    -0.244 A  
HETATM   14  C   UNL     1      -9.198  11.680  64.733  1.00  0.00     0.094 A  
HETATM   15  C   UNL     1     -10.060  12.674  64.257  1.00  0.00    -0.292 A  
BRANCH  13  16
HETATM   16  C   UNL     1      -8.387  10.251  66.602  1.00  0.00    -0.125 A  
HETATM   17  C   UNL     1      -7.680  10.636  67.731  1.00  0.00    -0.100 A  
HETATM   18  C   UNL     1      -7.643  11.779  68.665  1.00  0.00    -0.125 C  
HETATM   19  O   UNL     1      -6.771   9.675  68.039  1.00  0.00    -0.061 OA 
HETATM   20  N   UNL     1      -6.823   8.660  67.128  1.00  0.00    -0.066 NA 
HETATM   21  C   UNL     1      -7.767   8.990  66.231  1.00  0.00    -0.095 A  
BRANCH  21  22
HETATM   22  C   UNL     1      -8.019   8.081  65.100  1.00  0.00    -0.127 A  
HETATM   23  C   UNL     1      -8.003   8.578  63.786  1.00  0.00    -0.161 A  
HETATM   24  C   UNL     1      -8.145   7.720  62.690  1.00  0.00    -0.124 A  
HETATM   25  C   UNL     1      -8.287   6.350  62.893  1.00  0.00     0.068 A  
HETATM   26  C   UNL     1      -8.354   5.846  64.189  1.00  0.00    -0.017 A  
HETATM   27  C   UNL     1      -8.263   6.713  65.283  1.00  0.00    -0.133 A  
ENDBRANCH  21  22
ENDBRANCH  13  16
ENDBRANCH   7  10
ENDBRANCH   5   7
ENDBRANCH   2   3
TORSDOF 5
ENDMDL
MODEL      249
REMARK 921   NORMALIZED FREE ENERGY PREDICTED BY IDOCK:    3.01 KCAL/MOL
REMARK 922        TOTAL FREE ENERGY PREDICTED BY IDOCK:    2.81 KCAL/MOL
REMARK 923 INTER-LIGAND FREE ENERGY PREDICTED BY IDOCK:    3.49 KCAL/MOL
REMARK 924 INTRA-LIGAND FREE ENERGY PREDICTED BY IDOCK:   -0.68 KCAL/MOL
REMARK 927      BINDING AFFINITY PREDICTED BY RF-SCORE:    0.00 PKD
ROOT
HETATM    1  C   UNL     1     -14.273  10.490  69.913  1.00  0.00     3.594 C  
HETATM    2  C   UNL     1     -14.093   9.989  71.334  1.00  0.00     0.331 C  
ENDROOT
BRANCH   2   3
HETATM    3  C   UNL     1     -13.070   8.878  71.365  1.00  0.00    -0.269 C  
HETATM    4  O   UNL     1     -13.400   7.706  71.476  1.00  0.00    -0.346 OA 
HETATM    5  N   UNL     1     -11.745   9.291  71.177  1.00  0.00    -0.302 N  
HETATM    6  H   UNL     1     -11.583  10.288  71.037  1.00  0.00     0.000 HD 
BRANCH   5   7
HETATM    7  S   UNL     1     -10.416   8.295  71.164  1.00  0.00    -0.217 S  
HETATM    8  O   UNL     1      -9.527   8.826  72.181  1.00  0.00    -0.301 OA 
HETATM    9  O   UNL     1     -10.836   6.908  71.203  1.00  0.00    -0.233 OA 
BRANCH   7  10
HETATM   10  C   UNL     1      -9.682   8.639  69.586  1.00  0.00    -0.179 A  
HETATM   11  C   UNL     1      -9.978   7.827  68.492  1.00  0.00    -0.193 A  
HETATM   12  C   UNL     1      -9.231   7.956  67.314  1.00  0.00    -0.167 A  
HETATM   13  C   UNL     1      -8.224   8.926  67.201  1.00  0.00    -0.103 A  
HETATM   14  C   UNL     1      -8.086   9.851  68.249  1.00  0.00    -0.104 A  
HETATM   15  C   UNL     1      -8.781   9.690  69.453  1.00  0.00    -0.173 A  
BRANCH  13  16
HETATM   16  C   UNL     1      -7.245   8.901  66.109  1.00  0.00    -0.090 A  
HETATM   17  C   UNL     1      -5.978   8.337  66.155  1.00  0.00    -0.041 A  
HETATM   18  C   UNL     1      -5.134   7.616  67.130  1.00  0.00    -0.026 C  
HETATM   19  O   UNL     1      -5.364   8.517  64.958  1.00  0.00    -0.035 OA 
HETATM   20  N   UNL     1      -6.172   9.216  64.108  1.00  0.00    -0.075 NA 
HETATM   21  C   UNL     1      -7.302   9.488  64.781  1.00  0.00    -0.112 A  
BRANCH  21  22
HETATM   22  C   UNL     1      -8.354  10.272  64.112  1.00  0.00    -0.161 A  
HETATM   23  C   UNL     1      -9.435   9.613  63.500  1.00  0.00     0.143 A  
HETATM   24  C   UNL     1     -10.494  10.335  62.941  1.00  0.00     1.066 A  
HETATM   25  C   UNL     1     -10.497  11.725  63.001  1.00  0.00    -0.223 A  
HETATM   26  C   UNL     1      -9.412  12.396  63.560  1.00  0.00     0.527 A  
HETATM   27  C   UNL     1      -8.331  11.672  64.073  1.00  0.00     1.184 A  
ENDBRANCH  21  22
ENDBRANCH  13  16
ENDBRANCH   7  10
ENDBRANCH   5   7
ENDBRANCH   2   3
TORSDOF 5
ENDMDL
MODEL      250
REMARK 921   NORMALIZED FREE ENERGY PREDICTED BY IDOCK:    3.14 KCAL/MOL
REMARK 922        TOTAL FREE ENERGY PREDICTED BY IDOCK:    2.97 KCAL/MOL
REMARK 923 INTER-LIGAND FREE ENERGY PREDICTED BY IDOCK:    2.69 KCAL/MOL
REMARK 924 INTRA-LIGAND FREE ENERGY PREDICTED BY IDOCK:    0.28 KCAL/MOL
REMARK 927      BINDING AFFINITY PREDICTED BY RF-SCORE:    0.00 PKD
ROOT
HETATM    1  C   UNL     1      -7.078  10.106  72.454  1.00  0.00     2.901 C  
HETATM    2  C   UNL     1      -6.011   9.735  71.441  1.00  0.00     0.005 C  
ENDROOT
BRANCH   2   3
HETATM    3  C   UNL     1      -6.273  10.445  70.133  1.00  0.00    -0.108 C  
HETATM    4  O   UNL     1      -5.608  11.409  69.782  1.00  0.00    -0.060 OA 
HETATM    5  N   UNL     1      -7.270   9.867  69.337  1.00  0.00    -0.073 N  
HETATM    6  H   UNL     1      -7.727   9.029  69.697  1.00  0.00     0.000 HD 
BRANCH   5   7
HETATM    7  S   UNL     1      -7.770  10.429  67.856  1.00  0.00    -0.089 S  
HETATM    8  O   UNL     1      -6.553  10.616  67.085  1.00  0.00    -0.070 OA 
HETATM    9  O   UNL     1      -8.844   9.600  67.349  1.00  0.00    -0.128 OA 
BRANCH   7  10
HETATM   10  C   UNL     1      -8.406  12.039  68.241  1.00  0.00    -0.163 A  
HETATM   11  C   UNL     1      -7.904  12.739  69.336  1.00  0.00     0.734 A  
HETATM   12  C   UNL     1      -8.557  13.899  69.773  1.00  0.00     1.370 A  
HETATM   13  C   UNL     1      -9.679  14.396  69.093  1.00  0.00    -0.011 A  
HETATM   14  C   UNL     1     -10.038  13.776  67.884  1.00  0.00    -0.246 A  
HETATM   15  C   UNL     1      -9.434  12.582  67.476  1.00  0.00    -0.185 A  
BRANCH  13  16
HETATM   16  C   UNL     1     -10.547  15.424  69.678  1.00  0.00    -0.285 A  
HETATM   17  C   UNL     1     -11.457  15.240  70.708  1.00  0.00    -0.325 A  
HETATM   18  C   UNL     1     -11.926  14.139  71.574  1.00  0.00    -0.138 C  
HETATM   19  O   UNL     1     -12.079  16.418  70.971  1.00  0.00    -0.160 OA 
HETATM   20  N   UNL     1     -11.635  17.392  70.123  1.00  0.00     1.764 NA 
HETATM   21  C   UNL     1     -10.731  16.817  69.311  1.00  0.00    -0.324 A  
BRANCH  21  22
HETATM   22  C   UNL     1     -10.103  17.635  68.260  1.00  0.00    -0.362 A  
HETATM   23  C   UNL     1     -10.259  17.279  66.909  1.00  0.00    -0.322 A  
HETATM   24  C   UNL     1      -9.754  18.090  65.888  1.00  0.00     0.004 A  
HETATM   25  C   UNL     1      -9.101  19.278  66.201  1.00  0.00    -0.277 A  
HETATM   26  C   UNL     1      -8.895  19.623  67.535  1.00  0.00    -0.371 A  
HETATM   27  C   UNL     1      -9.357  18.784  68.554  1.00  0.00    -0.390 A  
ENDBRANCH  21  22
ENDBRANCH  13  16
ENDBRANCH   7  10
ENDBRANCH   5   7
ENDBRANCH   2   3
TORSDOF 5
ENDMDL
MODEL      251
REMARK 921   NORMALIZED FREE ENERGY PREDICTED BY IDOCK:    3.91 KCAL/MOL
REMARK 922        TOTAL FREE ENERGY PREDICTED BY IDOCK:    3.97 KCAL/MOL
REMARK 923 INTER-LIGAND FREE ENERGY PREDICTED BY IDOCK:    4.71 KCAL/MOL
REMARK 924 INTRA-LIGAND FREE ENERGY PREDICTED BY IDOCK:   -0.74 KCAL/MOL
REMARK 927      BINDING AFFINITY PREDICTED BY RF-SCORE:    0.00 PKD
ROOT
HETATM    1  C   UNL     1     -10.353  14.763  73.092  1.00  0.00     4.290 C  
HETATM    2  C   UNL     1     -11.082  15.988  72.572  1.00  0.00     0.694 C  
ENDROOT
BRANCH   2   3
HETATM    3  C   UNL     1     -12.052  15.587  71.485  1.00  0.00    -0.393 C  
HETATM    4  O   UNL     1     -13.242  15.857  71.556  1.00  0.00    -0.448 OA 
HETATM    5  N   UNL     1     -11.469  14.964  70.374  1.00  0.00    -0.267 N  
HETATM    6  H   UNL     1     -10.457  14.836  70.389  1.00  0.00     0.000 HD 
BRANCH   5   7
HETATM    7  S   UNL     1     -12.285  14.418  69.035  1.00  0.00    -0.114 S  
HETATM    8  O   UNL     1     -13.694  14.554  69.360  1.00  0.00     2.245 OA 
HETATM    9  O   UNL     1     -11.741  15.030  67.840  1.00  0.00    -0.338 OA 
BRANCH   7  10
HETATM   10  C   UNL     1     -11.909  12.684  69.026  1.00  0.00    -0.294 A  
HETATM   11  C   UNL     1     -11.202  12.123  70.088  1.00  0.00     0.287 A  
HETATM   12  C   UNL     1     -10.710  10.816  69.976  1.00  0.00    -0.140 A  
HETATM   13  C   UNL     1     -10.963  10.044  68.832  1.00  0.00    -0.244 A  
HETATM   14  C   UNL     1     -11.841  10.571  67.869  1.00  0.00     0.459 A  
HETATM   15  C   UNL     1     -12.283  11.897  67.941  1.00  0.00     0.295 A  
BRANCH  13  16
HETATM   16  C   UNL     1     -10.236   8.800  68.560  1.00  0.00    -0.220 A  
HETATM   17  C   UNL     1     -10.297   7.634  69.309  1.00  0.00    -0.217 A  
HETATM   18  C   UNL     1     -10.987   7.142  70.519  1.00  0.00    -0.287 C  
HETATM   19  O   UNL     1      -9.481   6.702  68.754  1.00  0.00    -0.131 OA 
HETATM   20  N   UNL     1      -8.843   7.217  67.661  1.00  0.00    -0.120 NA 
HETATM   21  C   UNL     1      -9.254   8.490  67.535  1.00  0.00    -0.133 A  
BRANCH  21  22
HETATM   22  C   UNL     1      -8.697   9.309  66.446  1.00  0.00    -0.148 A  
HETATM   23  C   UNL     1      -9.372   9.391  65.216  1.00  0.00    -0.303 A  
HETATM   24  C   UNL     1      -8.915  10.236  64.200  1.00  0.00    -0.263 A  
HETATM   25  C   UNL     1      -7.786  11.024  64.404  1.00  0.00     0.542 A  
HETATM   26  C   UNL     1      -7.078  10.920  65.598  1.00  0.00     0.062 A  
HETATM   27  C   UNL     1      -7.508  10.037  66.593  1.00  0.00    -0.104 A  
ENDBRANCH  21  22
ENDBRANCH  13  16
ENDBRANCH   7  10
ENDBRANCH   5   7
ENDBRANCH   2   3
TORSDOF 5
ENDMDL
MODEL      252
REMARK 921   NORMALIZED FREE ENERGY PREDICTED BY IDOCK:    4.27 KCAL/MOL
REMARK 922        TOTAL FREE ENERGY PREDICTED BY IDOCK:    4.44 KCAL/MOL
REMARK 923 INTER-LIGAND FREE ENERGY PREDICTED BY IDOCK:    5.03 KCAL/MOL
REMARK 924 INTRA-LIGAND FREE ENERGY PREDICTED BY IDOCK:   -0.60 KCAL/MOL
REMARK 927      BINDING AFFINITY PREDICTED BY RF-SCORE:    0.00 PKD
ROOT
HETATM    1  C   UNL     1      -9.725  10.123  63.532  1.00  0.00    -0.145 C  
HETATM    2  C   UNL     1     -10.778  11.067  62.985  1.00  0.00     0.150 C  
ENDROOT
BRANCH   2   3
HETATM    3  C   UNL     1     -11.434  11.821  64.118  1.00  0.00    -0.327 C  
HETATM    4  O   UNL     1     -12.646  11.970  64.172  1.00  0.00    -0.395 OA 
HETATM    5  N   UNL     1     -10.560  12.255  65.123  1.00  0.00    -0.276 N  
HETATM    6  H   UNL     1      -9.572  12.029  65.010  1.00  0.00     0.000 HD 
BRANCH   5   7
HETATM    7  S   UNL     1     -10.996  13.104  66.481  1.00  0.00    -0.290 S  
HETATM    8  O   UNL     1     -12.437  13.256  66.394  1.00  0.00    -0.329 OA 
HETATM    9  O   UNL     1     -10.386  12.510  67.654  1.00  0.00    -0.213 OA 
BRANCH   7  10
HETATM   10  C   UNL     1     -10.277  14.700  66.195  1.00  0.00    -0.301 A  
HETATM   11  C   UNL     1      -8.966  14.797  65.731  1.00  0.00     0.448 A  
HETATM   12  C   UNL     1      -8.327  16.044  65.722  1.00  0.00     0.643 A  
HETATM   13  C   UNL     1      -9.003  17.205  66.125  1.00  0.00    -0.217 A  
HETATM   14  C   UNL     1     -10.377  17.099  66.400  1.00  0.00    -0.307 A  
HETATM   15  C   UNL     1     -11.007  15.852  66.474  1.00  0.00    -0.121 A  
BRANCH  13  16
HETATM   16  C   UNL     1      -8.293  18.459  66.400  1.00  0.00    -0.272 A  
HETATM   17  C   UNL     1      -8.288  19.591  65.599  1.00  0.00     0.229 A  
HETATM   18  C   UNL     1      -8.879  20.031  64.318  1.00  0.00     4.709 C  
HETATM   19  O   UNL     1      -7.514  20.545  66.177  1.00  0.00    -0.193 OA 
HETATM   20  N   UNL     1      -6.967  20.077  67.337  1.00  0.00    -0.229 NA 
HETATM   21  C   UNL     1      -7.393  18.811  67.485  1.00  0.00    -0.223 A  
BRANCH  21  22
HETATM   22  C   UNL     1      -6.927  18.038  68.648  1.00  0.00    -0.261 A  
HETATM   23  C   UNL     1      -5.586  18.131  69.058  1.00  0.00    -0.194 A  
HETATM   24  C   UNL     1      -5.141  17.483  70.215  1.00  0.00    -0.221 A  
HETATM   25  C   UNL     1      -6.034  16.747  70.988  1.00  0.00     0.833 A  
HETATM   26  C   UNL     1      -7.355  16.605  70.571  1.00  0.00     2.365 A  
HETATM   27  C   UNL     1      -7.784  17.212  69.387  1.00  0.00     0.169 A  
ENDBRANCH  21  22
ENDBRANCH  13  16
ENDBRANCH   7  10
ENDBRANCH   5   7
ENDBRANCH   2   3
TORSDOF 5
ENDMDL
MODEL      253
REMARK 921   NORMALIZED FREE ENERGY PREDICTED BY IDOCK:    6.06 KCAL/MOL
REMARK 922        TOTAL FREE ENERGY PREDICTED BY IDOCK:    6.75 KCAL/MOL
REMARK 923 INTER-LIGAND FREE ENERGY PREDICTED BY IDOCK:    4.54 KCAL/MOL
REMARK 924 INTRA-LIGAND FREE ENERGY PREDICTED BY IDOCK:    2.21 KCAL/MOL
REMARK 927      BINDING AFFINITY PREDICTED BY RF-SCORE:    0.00 PKD
ROOT
HETATM    1  C   UNL     1     -11.439   9.041  71.943  1.00  0.00    -0.440 C  
HETATM    2  C   UNL     1     -10.991   7.813  71.173  1.00  0.00    -0.259 C  
ENDROOT
BRANCH   2   3
HETATM    3  C   UNL     1     -10.580   8.204  69.772  1.00  0.00    -0.231 C  
HETATM    4  O   UNL     1     -10.580   9.370  69.406  1.00  0.00    -0.213 OA 
HETATM    5  N   UNL     1     -10.132   7.145  68.972  1.00  0.00    -0.178 N  
HETATM    6  H   UNL     1     -10.118   6.216  69.393  1.00  0.00     0.000 HD 
BRANCH   5   7
HETATM    7  S   UNL     1      -9.620   7.275  67.398  1.00  0.00    -0.150 S  
HETATM    8  O   UNL     1      -8.293   6.686  67.375  1.00  0.00    -0.120 OA 
HETATM    9  O   UNL     1     -10.653   6.799  66.500  1.00  0.00    -0.157 OA 
BRANCH   7  10
HETATM   10  C   UNL     1      -9.427   9.026  67.189  1.00  0.00    -0.152 A  
HETATM   11  C   UNL     1      -8.173   9.610  67.359  1.00  0.00    -0.114 A  
HETATM   12  C   UNL     1      -8.063  11.005  67.420  1.00  0.00    -0.122 A  
HETATM   13  C   UNL     1      -9.190  11.826  67.261  1.00  0.00    -0.173 A  
HETATM   14  C   UNL     1     -10.400  11.211  66.899  1.00  0.00    -0.272 A  
HETATM   15  C   UNL     1     -10.534   9.818  66.899  1.00  0.00    -0.281 A  
BRANCH  13  16
HETATM   16  C   UNL     1      -9.163  13.253  67.600  1.00  0.00    -0.209 A  
HETATM   17  C   UNL     1      -8.177  13.904  68.326  1.00  0.00    -0.158 A  
HETATM   18  C   UNL     1      -6.903  13.568  68.994  1.00  0.00    -0.107 C  
HETATM   19  O   UNL     1      -8.501  15.217  68.442  1.00  0.00    -0.148 OA 
HETATM   20  N   UNL     1      -9.700  15.468  67.837  1.00  0.00    -0.211 NA 
HETATM   21  C   UNL     1     -10.139  14.298  67.345  1.00  0.00    -0.247 A  
BRANCH  21  22
HETATM   22  C   UNL     1     -11.443  14.262  66.661  1.00  0.00    -0.374 A  
HETATM   23  C   UNL     1     -12.419  13.334  67.063  1.00  0.00    -0.000 A  
HETATM   24  C   UNL     1     -13.697  13.343  66.495  1.00  0.00     5.038 A  
HETATM   25  C   UNL     1     -14.023  14.290  65.529  1.00  0.00     2.908 A  
HETATM   26  C   UNL     1     -13.053  15.185  65.083  1.00  0.00     0.945 A  
HETATM   27  C   UNL     1     -11.762  15.141  65.617  1.00  0.00    -0.036 A  
ENDBRANCH  21  22
ENDBRANCH  13  16
ENDBRANCH   7  10
ENDBRANCH   5   7
ENDBRANCH   2   3
TORSDOF 5
ENDMDL
MODEL      254
REMARK 921   NORMALIZED FREE ENERGY PREDICTED BY IDOCK:    6.62 KCAL/MOL
REMARK 922        TOTAL FREE ENERGY PREDICTED BY IDOCK:    7.47 KCAL/MOL
REMARK 923 INTER-LIGAND FREE ENERGY PREDICTED BY IDOCK:    8.33 KCAL/MOL
REMARK 924 INTRA-LIGAND FREE ENERGY PREDICTED BY IDOCK:   -0.86 KCAL/MOL
REMARK 927      BINDING AFFINITY PREDICTED BY RF-SCORE:    0.00 PKD
ROOT
HETATM    1  C   UNL     1      -7.490  13.105  69.596  1.00  0.00     0.732 C  
HETATM    2  C   UNL     1      -8.574  13.058  68.536  1.00  0.00    -0.049 C  
ENDROOT
BRANCH   2   3
HETATM    3  C   UNL     1      -8.172  12.112  67.429  1.00  0.00    -0.175 C  
HETATM    4  O   UNL     1      -7.416  12.458  66.533  1.00  0.00     0.210 OA 
HETATM    5  N   UNL     1      -8.666  10.808  67.559  1.00  0.00    -0.125 N  
HETATM    6  H   UNL     1      -9.244  10.607  68.375  1.00  0.00     0.000 HD 
BRANCH   5   7
HETATM    7  S   UNL     1      -8.392   9.561  66.497  1.00  0.00    -0.119 S  
HETATM    8  O   UNL     1      -9.403   9.705  65.465  1.00  0.00    -0.210 OA 
HETATM    9  O   UNL     1      -6.986   9.507  66.150  1.00  0.00    -0.088 OA 
BRANCH   7  10
HETATM   10  C   UNL     1      -8.812   8.129  67.454  1.00  0.00    -0.127 A  
HETATM   11  C   UNL     1      -7.803   7.361  68.034  1.00  0.00    -0.118 A  
HETATM   12  C   UNL     1      -8.116   6.115  68.592  1.00  0.00    -0.108 A  
HETATM   13  C   UNL     1      -9.440   5.650  68.623  1.00  0.00    -0.152 A  
HETATM   14  C   UNL     1     -10.452   6.532  68.207  1.00  0.00    -0.263 A  
HETATM   15  C   UNL     1     -10.144   7.749  67.590  1.00  0.00    -0.254 A  
BRANCH  13  16
HETATM   16  C   UNL     1      -9.763   4.253  68.932  1.00  0.00    -0.195 A  
HETATM   17  C   UNL     1     -10.734   3.812  69.817  1.00  0.00     2.567 A  
HETATM   18  C   UNL     1     -11.743   4.402  70.722  1.00  0.00     4.972 C  
HETATM   19  O   UNL     1     -10.734   2.455  69.843  1.00  0.00     2.295 OA 
HETATM   20  N   UNL     1      -9.764   1.963  69.018  1.00  0.00    -0.007 NA 
HETATM   21  C   UNL     1      -9.141   3.022  68.476  1.00  0.00    -0.158 A  
BRANCH  21  22
HETATM   22  C   UNL     1      -8.014   2.787  67.558  1.00  0.00    -0.068 A  
HETATM   23  C   UNL     1      -6.946   1.963  67.957  1.00  0.00    -0.039 A  
HETATM   24  C   UNL     1      -5.912   1.647  67.070  1.00  0.00    -0.019 A  
HETATM   25  C   UNL     1      -5.937   2.135  65.768  1.00  0.00    -0.022 A  
HETATM   26  C   UNL     1      -6.961   2.992  65.370  1.00  0.00    -0.053 A  
HETATM   27  C   UNL     1      -7.967   3.347  66.274  1.00  0.00    -0.091 A  
ENDBRANCH  21  22
ENDBRANCH  13  16
ENDBRANCH   7  10
ENDBRANCH   5   7
ENDBRANCH   2   3
TORSDOF 5
ENDMDL
MODEL      255
REMARK 921   NORMALIZED FREE ENERGY PREDICTED BY IDOCK:    6.67 KCAL/MOL
REMARK 922        TOTAL FREE ENERGY PREDICTED BY IDOCK:    7.54 KCAL/MOL
REMARK 923 INTER-LIGAND FREE ENERGY PREDICTED BY IDOCK:    4.48 KCAL/MOL
REMARK 924 INTRA-LIGAND FREE ENERGY PREDICTED BY IDOCK:    3.06 KCAL/MOL
REMARK 927      BINDING AFFINITY PREDICTED BY RF-SCORE:    0.00 PKD
ROOT
HETATM    1  C   UNL     1     -10.716   8.515  71.076  1.00  0.00    -0.278 C  
HETATM    2  C   UNL     1     -10.461   7.020  71.015  1.00  0.00    -0.231 C  
ENDROOT
BRANCH   2   3
HETATM    3  C   UNL     1     -10.339   6.575  69.576  1.00  0.00    -0.200 C  
HETATM    4  O   UNL     1     -10.239   7.381  68.662  1.00  0.00    -0.181 OA 
HETATM    5  N   UNL     1     -10.272   5.189  69.392  1.00  0.00    -0.233 N  
HETATM    6  H   UNL     1     -10.308   4.605  70.227  1.00  0.00     0.000 HD 
BRANCH   5   7
HETATM    7  S   UNL     1     -10.138   4.415  67.928  1.00  0.00     0.151 S  
HETATM    8  O   UNL     1      -9.083   3.434  68.107  1.00  0.00    -0.125 OA 
HETATM    9  O   UNL     1     -11.448   4.012  67.459  1.00  0.00     4.681 OA 
BRANCH   7  10
HETATM   10  C   UNL     1      -9.504   5.687  66.867  1.00  0.00    -0.135 A  
HETATM   11  C   UNL     1      -8.190   5.615  66.407  1.00  0.00    -0.107 A  
HETATM   12  C   UNL     1      -7.622   6.722  65.764  1.00  0.00    -0.088 A  
HETATM   13  C   UNL     1      -8.372   7.884  65.529  1.00  0.00    -0.152 A  
HETATM   14  C   UNL     1      -9.744   7.849  65.831  1.00  0.00     0.177 A  
HETATM   15  C   UNL     1     -10.304   6.775  66.531  1.00  0.00    -0.116 A  
BRANCH  13  16
HETATM   16  C   UNL     1      -7.740   9.145  65.125  1.00  0.00    -0.104 A  
HETATM   17  C   UNL     1      -6.390   9.451  65.213  1.00  0.00    -0.067 A  
HETATM   18  C   UNL     1      -5.145   8.798  65.666  1.00  0.00    -0.030 C  
HETATM   19  O   UNL     1      -6.186  10.711  64.751  1.00  0.00    -0.079 OA 
HETATM   20  N   UNL     1      -7.370  11.280  64.378  1.00  0.00     1.079 NA 
HETATM   21  C   UNL     1      -8.330  10.372  64.619  1.00  0.00    -0.155 A  
BRANCH  21  22
HETATM   22  C   UNL     1      -9.730  10.732  64.339  1.00  0.00    -0.356 A  
HETATM   23  C   UNL     1     -10.707  10.574  65.338  1.00  0.00    -0.038 A  
HETATM   24  C   UNL     1     -12.024  10.996  65.130  1.00  0.00     1.441 A  
HETATM   25  C   UNL     1     -12.380  11.598  63.926  1.00  0.00    -0.246 A  
HETATM   26  C   UNL     1     -11.438  11.718  62.908  1.00  0.00     0.259 A  
HETATM   27  C   UNL     1     -10.135  11.249  63.101  1.00  0.00    -0.385 A  
ENDBRANCH  21  22
ENDBRANCH  13  16
ENDBRANCH   7  10
ENDBRANCH   5   7
ENDBRANCH   2   3
TORSDOF 5
ENDMDL
MODEL      256
REMARK 921   NORMALIZED FREE ENERGY PREDICTED BY IDOCK:   13.80 KCAL/MOL
REMARK 922        TOTAL FREE ENERGY PREDICTED BY IDOCK:   16.75 KCAL/MOL
REMARK 923 INTER-LIGAND FREE ENERGY PREDICTED BY IDOCK:   16.98 KCAL/MOL
REMARK 924 INTRA-LIGAND FREE ENERGY PREDICTED BY IDOCK:   -0.22 KCAL/MOL
REMARK 927      BINDING AFFINITY PREDICTED BY RF-SCORE:    0.00 PKD
ROOT
HETATM    1  C   UNL     1      -9.609  14.886  72.117  1.00  0.00     4.861 C  
HETATM    2  C   UNL     1      -8.339  14.255  72.655  1.00  0.00     8.675 C  
ENDROOT
BRANCH   2   3
HETATM    3  C   UNL     1      -7.213  14.436  71.664  1.00  0.00     2.831 C  
HETATM    4  O   UNL     1      -6.152  14.952  71.985  1.00  0.00     0.420 OA 
HETATM    5  N   UNL     1      -7.454  13.899  70.393  1.00  0.00     0.563 N  
HETATM    6  H   UNL     1      -8.352  13.438  70.245  1.00  0.00     0.000 HD 
BRANCH   5   7
HETATM    7  S   UNL     1      -6.403  13.949  69.108  1.00  0.00    -0.112 S  
HETATM    8  O   UNL     1      -6.478  15.308  68.603  1.00  0.00    -0.091 OA 
HETATM    9  O   UNL     1      -5.130  13.372  69.487  1.00  0.00    -0.082 OA 
BRANCH   7  10
HETATM   10  C   UNL     1      -7.189  12.897  67.916  1.00  0.00    -0.125 A  
HETATM   11  C   UNL     1      -8.562  12.665  67.994  1.00  0.00    -0.189 A  
HETATM   12  C   UNL     1      -9.140  11.665  67.201  1.00  0.00    -0.171 A  
HETATM   13  C   UNL     1      -8.366  10.928  66.292  1.00  0.00    -0.164 A  
HETATM   14  C   UNL     1      -7.031  11.320  66.101  1.00  0.00     0.067 A  
HETATM   15  C   UNL     1      -6.430  12.272  66.932  1.00  0.00     0.065 A  
BRANCH  13  16
HETATM   16  C   UNL     1      -8.869   9.700  65.665  1.00  0.00    -0.189 A  
HETATM   17  C   UNL     1      -8.769   9.364  64.324  1.00  0.00    -0.197 A  
HETATM   18  C   UNL     1      -8.215   9.948  63.085  1.00  0.00    -0.155 C  
HETATM   19  O   UNL     1      -9.355   8.157  64.120  1.00  0.00     1.137 OA 
HETATM   20  N   UNL     1      -9.878   7.677  65.287  1.00  0.00     1.394 NA 
HETATM   21  C   UNL     1      -9.628   8.599  66.232  1.00  0.00    -0.252 A  
BRANCH  21  22
HETATM   22  C   UNL     1     -10.114   8.359  67.601  1.00  0.00    -0.268 A  
HETATM   23  C   UNL     1     -10.488   9.445  68.411  1.00  0.00    -0.256 A  
HETATM   24  C   UNL     1     -11.043   9.240  69.679  1.00  0.00    -0.134 A  
HETATM   25  C   UNL     1     -11.246   7.945  70.148  1.00  0.00    -0.157 A  
HETATM   26  C   UNL     1     -10.837   6.859  69.379  1.00  0.00    -0.283 A  
HETATM   27  C   UNL     1     -10.237   7.068  68.134  1.00  0.00    -0.211 A  
ENDBRANCH  21  22
ENDBRANCH  13  16
ENDBRANCH   7  10
ENDBRANCH   5   7
ENDBRANCH   2   3
TORSDOF 5
ENDMDL
MODEL      257
REMARK 921   NORMALIZED FREE ENERGY PREDICTED BY IDOCK:   21.50 KCAL/MOL
REMARK 922        TOTAL FREE ENERGY PREDICTED BY IDOCK:   26.70 KCAL/MOL
REMARK 923 INTER-LIGAND FREE ENERGY PREDICTED BY IDOCK:   25.84 KCAL/MOL
REMARK 924 INTRA-LIGAND FREE ENERGY PREDICTED BY IDOCK:    0.86 KCAL/MOL
REMARK 927      BINDING AFFINITY PREDICTED BY RF-SCORE:    0.00 PKD
ROOT
HETATM    1  C   UNL     1      -9.642  14.890  72.968  1.00  0.00     7.092 C  
HETATM    2  C   UNL     1      -8.679  14.940  71.797  1.00  0.00     5.079 C  
ENDROOT
BRANCH   2   3
HETATM    3  C   UNL     1      -9.021  13.856  70.801  1.00  0.00     4.955 C  
HETATM    4  O   UNL     1      -8.227  13.501  69.942  1.00  0.00     1.344 OA 
HETATM    5  N   UNL     1     -10.268  13.249  70.995  1.00  0.00     4.639 N  
HETATM    6  H   UNL     1     -10.831  13.580  71.778  1.00  0.00     0.000 HD 
BRANCH   5   7
HETATM    7  S   UNL     1     -10.906  12.034  70.060  1.00  0.00     1.012 S  
HETATM    8  O   UNL     1      -9.904  10.983  70.057  1.00  0.00     0.468 OA 
HETATM    9  O   UNL     1     -12.267  11.755  70.471  1.00  0.00    -0.358 OA 
BRANCH   7  10
HETATM   10  C   UNL     1     -10.922  12.754  68.439  1.00  0.00    -0.254 A  
HETATM   11  C   UNL     1      -9.943  13.679  68.081  1.00  0.00    -0.246 A  
HETATM   12  C   UNL     1     -10.085  14.412  66.895  1.00  0.00    -0.259 A  
HETATM   13  C   UNL     1     -11.172  14.192  66.036  1.00  0.00    -0.319 A  
HETATM   14  C   UNL     1     -12.032  13.120  66.331  1.00  0.00    -0.462 A  
HETATM   15  C   UNL     1     -11.936  12.427  67.543  1.00  0.00    -0.253 A  
BRANCH  13  16
HETATM   16  C   UNL     1     -11.503  15.123  64.952  1.00  0.00    -0.374 A  
HETATM   17  C   UNL     1     -12.226  14.825  63.807  1.00  0.00     0.204 A  
HETATM   18  C   UNL     1     -12.901  13.655  63.210  1.00  0.00     0.791 C  
HETATM   19  O   UNL     1     -12.321  15.938  63.036  1.00  0.00     1.362 OA 
HETATM   20  N   UNL     1     -11.654  16.979  63.615  1.00  0.00     0.767 NA 
HETATM   21  C   UNL     1     -11.124  16.512  64.758  1.00  0.00    -0.186 A  
BRANCH  21  22
HETATM   22  C   UNL     1     -10.312  17.421  65.585  1.00  0.00    -0.161 A  
HETATM   23  C   UNL     1     -10.885  18.048  66.705  1.00  0.00    -0.012 A  
HETATM   24  C   UNL     1     -10.111  18.839  67.560  1.00  0.00    -0.408 A  
HETATM   25  C   UNL     1      -8.750  19.001  67.318  1.00  0.00    -0.298 A  
HETATM   26  C   UNL     1      -8.176  18.427  66.187  1.00  0.00    -0.181 A  
HETATM   27  C   UNL     1      -8.963  17.678  65.306  1.00  0.00     1.896 A  
ENDBRANCH  21  22
ENDBRANCH  13  16
ENDBRANCH   7  10
ENDBRANCH   5   7
ENDBRANCH   2   3
TORSDOF 5
ENDMDL
MODEL      258
REMARK 921   NORMALIZED FREE ENERGY PREDICTED BY IDOCK:   24.59 KCAL/MOL
REMARK 922        TOTAL FREE ENERGY PREDICTED BY IDOCK:   30.70 KCAL/MOL
REMARK 923 INTER-LIGAND FREE ENERGY PREDICTED BY IDOCK:   27.60 KCAL/MOL
REMARK 924 INTRA-LIGAND FREE ENERGY PREDICTED BY IDOCK:    3.10 KCAL/MOL
REMARK 927      BINDING AFFINITY PREDICTED BY RF-SCORE:    0.00 PKD
ROOT
HETATM    1  C   UNL     1     -10.515  15.785  73.818  1.00  0.00     5.509 C  
HETATM    2  C   UNL     1      -9.673  15.258  72.672  1.00  0.00     5.786 C  
ENDROOT
BRANCH   2   3
HETATM    3  C   UNL     1     -10.522  14.405  71.757  1.00  0.00     3.097 C  
HETATM    4  O   UNL     1     -10.021  13.630  70.956  1.00  0.00     4.284 OA 
HETATM    5  N   UNL     1     -11.903  14.519  71.959  1.00  0.00    -0.297 N  
HETATM    6  H   UNL     1     -12.216  15.154  72.694  1.00  0.00     0.000 HD 
BRANCH   5   7
HETATM    7  S   UNL     1     -13.073  13.707  71.105  1.00  0.00    -0.182 S  
HETATM    8  O   UNL     1     -12.854  12.301  71.393  1.00  0.00    -0.375 OA 
HETATM    9  O   UNL     1     -14.367  14.315  71.338  1.00  0.00    -0.324 OA 
BRANCH   7  10
HETATM   10  C   UNL     1     -12.593  13.984  69.420  1.00  0.00     0.120 A  
HETATM   11  C   UNL     1     -11.248  13.906  69.061  1.00  0.00    -0.312 A  
HETATM   12  C   UNL     1     -10.846  14.344  67.792  1.00  0.00    -0.263 A  
HETATM   13  C   UNL     1     -11.783  14.812  66.859  1.00  0.00    -0.316 A  
HETATM   14  C   UNL     1     -13.145  14.694  67.184  1.00  0.00     2.345 A  
HETATM   15  C   UNL     1     -13.552  14.319  68.470  1.00  0.00     5.397 A  
BRANCH  13  16
HETATM   16  C   UNL     1     -11.376  15.536  65.650  1.00  0.00    -0.063 A  
HETATM   17  C   UNL     1     -12.158  15.761  64.527  1.00  0.00     0.022 A  
HETATM   18  C   UNL     1     -13.527  15.454  64.063  1.00  0.00     2.665 C  
HETATM   19  O   UNL     1     -11.438  16.459  63.612  1.00  0.00    -0.858 OA 
HETATM   20  N   UNL     1     -10.173  16.687  64.075  1.00  0.00     2.421 NA 
HETATM   21  C   UNL     1     -10.095  16.117  65.289  1.00  0.00    -0.070 A  
BRANCH  21  22
HETATM   22  C   UNL     1      -8.818  16.179  66.019  1.00  0.00    -0.313 A  
HETATM   23  C   UNL     1      -8.504  15.188  66.966  1.00  0.00    -0.259 A  
HETATM   24  C   UNL     1      -7.259  15.171  67.603  1.00  0.00    -0.208 A  
HETATM   25  C   UNL     1      -6.303  16.133  67.291  1.00  0.00    -0.204 A  
HETATM   26  C   UNL     1      -6.615  17.150  66.392  1.00  0.00    -0.251 A  
HETATM   27  C   UNL     1      -7.878  17.194  65.794  1.00  0.00     0.250 A  
ENDBRANCH  21  22
ENDBRANCH  13  16
ENDBRANCH   7  10
ENDBRANCH   5   7
ENDBRANCH   2   3
TORSDOF 5
ENDMDL
MODEL      259
REMARK 921   NORMALIZED FREE ENERGY PREDICTED BY IDOCK:   27.87 KCAL/MOL
REMARK 922        TOTAL FREE ENERGY PREDICTED BY IDOCK:   34.94 KCAL/MOL
REMARK 923 INTER-LIGAND FREE ENERGY PREDICTED BY IDOCK:   32.91 KCAL/MOL
REMARK 924 INTRA-LIGAND FREE ENERGY PREDICTED BY IDOCK:    2.03 KCAL/MOL
REMARK 927      BINDING AFFINITY PREDICTED BY RF-SCORE:    0.00 PKD
ROOT
HETATM    1  C   UNL     1     -10.272  15.898  74.088  1.00  0.00     8.643 C  
HETATM    2  C   UNL     1      -9.619  15.814  72.721  1.00  0.00     7.916 C  
ENDROOT
BRANCH   2   3
HETATM    3  C   UNL     1     -10.628  15.355  71.694  1.00  0.00     0.619 C  
HETATM    4  O   UNL     1     -10.306  14.645  70.753  1.00  0.00     0.447 OA 
HETATM    5  N   UNL     1     -11.949  15.739  71.953  1.00  0.00    -0.418 N  
HETATM    6  H   UNL     1     -12.120  16.285  72.798  1.00  0.00     0.000 HD 
BRANCH   5   7
HETATM    7  S   UNL     1     -13.263  15.381  71.001  1.00  0.00    -0.446 S  
HETATM    8  O   UNL     1     -13.480  13.954  71.167  1.00  0.00    -0.252 OA 
HETATM    9  O   UNL     1     -14.332  16.324  71.258  1.00  0.00     0.792 OA 
BRANCH   7  10
HETATM   10  C   UNL     1     -12.641  15.635  69.360  1.00  0.00     0.209 A  
HETATM   11  C   UNL     1     -13.069  14.810  68.321  1.00  0.00     2.457 A  
HETATM   12  C   UNL     1     -12.413  14.861  67.084  1.00  0.00     0.543 A  
HETATM   13  C   UNL     1     -11.366  15.767  66.858  1.00  0.00     0.050 A  
HETATM   14  C   UNL     1     -11.093  16.713  67.861  1.00  0.00    -0.212 A  
HETATM   15  C   UNL     1     -11.696  16.628  69.120  1.00  0.00     0.314 A  
BRANCH  13  16
HETATM   16  C   UNL     1     -10.481  15.653  65.694  1.00  0.00    -0.402 A  
HETATM   17  C   UNL     1      -9.532  16.580  65.291  1.00  0.00     0.795 A  
HETATM   18  C   UNL     1      -9.023  17.893  65.738  1.00  0.00     0.350 C  
HETATM   19  O   UNL     1      -8.915  16.132  64.168  1.00  0.00     4.948 OA 
HETATM   20  N   UNL     1      -9.445  14.934  63.780  1.00  0.00     5.172 NA 
HETATM   21  C   UNL     1     -10.412  14.632  64.663  1.00  0.00    -0.175 A  
BRANCH  21  22
HETATM   22  C   UNL     1     -11.186  13.394  64.469  1.00  0.00    -0.393 A  
HETATM   23  C   UNL     1     -12.410  13.223  65.138  1.00  0.00    -0.516 A  
HETATM   24  C   UNL     1     -13.209  12.101  64.899  1.00  0.00     1.107 A  
HETATM   25  C   UNL     1     -12.805  11.142  63.975  1.00  0.00     1.700 A  
HETATM   26  C   UNL     1     -11.573  11.271  63.339  1.00  0.00     0.153 A  
HETATM   27  C   UNL     1     -10.753  12.369  63.618  1.00  0.00    -0.497 A  
ENDBRANCH  21  22
ENDBRANCH  13  16
ENDBRANCH   7  10
ENDBRANCH   5   7
ENDBRANCH   2   3
TORSDOF 5
ENDMDL
MODEL      260
REMARK 921   NORMALIZED FREE ENERGY PREDICTED BY IDOCK:   29.01 KCAL/MOL
REMARK 922        TOTAL FREE ENERGY PREDICTED BY IDOCK:   36.41 KCAL/MOL
REMARK 923 INTER-LIGAND FREE ENERGY PREDICTED BY IDOCK:   36.51 KCAL/MOL
REMARK 924 INTRA-LIGAND FREE ENERGY PREDICTED BY IDOCK:   -0.10 KCAL/MOL
REMARK 927      BINDING AFFINITY PREDICTED BY RF-SCORE:    0.00 PKD
ROOT
HETATM    1  C   UNL     1      -9.311  14.584  72.794  1.00  0.00     8.009 C  
HETATM    2  C   UNL     1      -8.624  13.548  73.664  1.00  0.00    12.839 C  
ENDROOT
BRANCH   2   3
HETATM    3  C   UNL     1      -7.310  13.140  73.040  1.00  0.00     9.049 C  
HETATM    4  O   UNL     1      -6.248  13.291  73.626  1.00  0.00     0.617 OA 
HETATM    5  N   UNL     1      -7.419  12.512  71.793  1.00  0.00     8.004 N  
HETATM    6  H   UNL     1      -8.358  12.383  71.416  1.00  0.00     0.000 HD 
BRANCH   5   7
HETATM    7  S   UNL     1      -6.149  11.960  70.876  1.00  0.00     0.735 S  
HETATM    8  O   UNL     1      -5.610  13.136  70.217  1.00  0.00    -0.115 OA 
HETATM    9  O   UNL     1      -5.294  11.107  71.676  1.00  0.00    -0.317 OA 
BRANCH   7  10
HETATM   10  C   UNL     1      -6.956  10.981  69.636  1.00  0.00    -0.110 A  
HETATM   11  C   UNL     1      -8.276  10.574  69.824  1.00  0.00     0.050 A  
HETATM   12  C   UNL     1      -8.834   9.620  68.964  1.00  0.00    -0.147 A  
HETATM   13  C   UNL     1      -8.102   9.106  67.883  1.00  0.00    -0.105 A  
HETATM   14  C   UNL     1      -6.849   9.680  67.611  1.00  0.00    -0.082 A  
HETATM   15  C   UNL     1      -6.257  10.584  68.500  1.00  0.00    -0.046 A  
BRANCH  13  16
HETATM   16  C   UNL     1      -8.541   7.916  67.147  1.00  0.00    -0.128 A  
HETATM   17  C   UNL     1      -8.578   7.772  65.768  1.00  0.00    -0.143 A  
HETATM   18  C   UNL     1      -8.255   8.578  64.572  1.00  0.00    -0.158 C  
HETATM   19  O   UNL     1      -9.048   6.537  65.459  1.00  0.00    -0.007 OA 
HETATM   20  N   UNL     1      -9.361   5.848  66.596  1.00  0.00    -0.141 NA 
HETATM   21  C   UNL     1      -9.095   6.663  67.630  1.00  0.00    -0.112 A  
BRANCH  21  22
HETATM   22  C   UNL     1      -9.372   6.187  68.996  1.00  0.00    -0.133 A  
HETATM   23  C   UNL     1      -9.623   4.823  69.224  1.00  0.00    -0.243 A  
HETATM   24  C   UNL     1      -9.795   4.330  70.522  1.00  0.00    -0.269 A  
HETATM   25  C   UNL     1      -9.701   5.191  71.611  1.00  0.00    -0.217 A  
HETATM   26  C   UNL     1      -9.500   6.553  71.401  1.00  0.00    -0.164 A  
HETATM   27  C   UNL     1      -9.380   7.050  70.099  1.00  0.00    -0.162 A  
ENDBRANCH  21  22
ENDBRANCH  13  16
ENDBRANCH   7  10
ENDBRANCH   5   7
ENDBRANCH   2   3
TORSDOF 5
ENDMDL
MODEL      261
REMARK 921   NORMALIZED FREE ENERGY PREDICTED BY IDOCK:   33.09 KCAL/MOL
REMARK 922        TOTAL FREE ENERGY PREDICTED BY IDOCK:   41.68 KCAL/MOL
REMARK 923 INTER-LIGAND FREE ENERGY PREDICTED BY IDOCK:   42.48 KCAL/MOL
REMARK 924 INTRA-LIGAND FREE ENERGY PREDICTED BY IDOCK:   -0.80 KCAL/MOL
REMARK 927      BINDING AFFINITY PREDICTED BY RF-SCORE:    0.00 PKD
ROOT
HETATM    1  C   UNL     1     -11.675  15.135  63.453  1.00  0.00     1.611 C  
HETATM    2  C   UNL     1     -11.630  16.648  63.362  1.00  0.00     4.049 C  
ENDROOT
BRANCH   2   3
HETATM    3  C   UNL     1     -10.596  17.193  64.321  1.00  0.00     2.689 C  
HETATM    4  O   UNL     1     -10.660  18.335  64.751  1.00  0.00     0.103 OA 
HETATM    5  N   UNL     1      -9.626  16.269  64.728  1.00  0.00     1.469 N  
HETATM    6  H   UNL     1      -9.695  15.323  64.353  1.00  0.00     0.000 HD 
BRANCH   5   7
HETATM    7  S   UNL     1      -8.371  16.583  65.770  1.00  0.00     0.746 S  
HETATM    8  O   UNL     1      -7.397  15.535  65.526  1.00  0.00     3.183 OA 
HETATM    9  O   UNL     1      -7.992  17.978  65.682  1.00  0.00    -0.514 OA 
BRANCH   7  10
HETATM   10  C   UNL     1      -9.094  16.274  67.360  1.00  0.00    -0.195 A  
HETATM   11  C   UNL     1      -8.944  15.024  67.959  1.00  0.00    -0.173 A  
HETATM   12  C   UNL     1      -9.699  14.708  69.096  1.00  0.00    -0.108 A  
HETATM   13  C   UNL     1     -10.564  15.650  69.673  1.00  0.00    -0.284 A  
HETATM   14  C   UNL     1     -10.543  16.957  69.160  1.00  0.00    -0.330 A  
HETATM   15  C   UNL     1      -9.844  17.264  67.988  1.00  0.00    -0.284 A  
BRANCH  13  16
HETATM   16  C   UNL     1     -11.568  15.268  70.673  1.00  0.00    -0.355 A  
HETATM   17  C   UNL     1     -12.517  14.266  70.541  1.00  0.00    -0.361 A  
HETATM   18  C   UNL     1     -12.925  13.267  69.532  1.00  0.00     1.063 C  
HETATM   19  O   UNL     1     -13.272  14.213  71.668  1.00  0.00    -0.319 OA 
HETATM   20  N   UNL     1     -12.876  15.176  72.553  1.00  0.00    -0.332 NA 
HETATM   21  C   UNL     1     -11.870  15.849  71.970  1.00  0.00    -0.515 A  
BRANCH  21  22
HETATM   22  C   UNL     1     -11.263  16.980  72.692  1.00  0.00     1.303 A  
HETATM   23  C   UNL     1     -12.079  17.866  73.417  1.00  0.00     2.097 A  
HETATM   24  C   UNL     1     -11.521  18.891  74.188  1.00  0.00     3.376 A  
HETATM   25  C   UNL     1     -10.138  19.034  74.259  1.00  0.00     4.600 A  
HETATM   26  C   UNL     1      -9.317  18.196  73.509  1.00  0.00    10.481 A  
HETATM   27  C   UNL     1      -9.880  17.205  72.699  1.00  0.00     9.477 A  
ENDBRANCH  21  22
ENDBRANCH  13  16
ENDBRANCH   7  10
ENDBRANCH   5   7
ENDBRANCH   2   3
TORSDOF 5
ENDMDL
MODEL      262
REMARK 921   NORMALIZED FREE ENERGY PREDICTED BY IDOCK:   49.31 KCAL/MOL
REMARK 922        TOTAL FREE ENERGY PREDICTED BY IDOCK:   62.64 KCAL/MOL
REMARK 923 INTER-LIGAND FREE ENERGY PREDICTED BY IDOCK:   62.66 KCAL/MOL
REMARK 924 INTRA-LIGAND FREE ENERGY PREDICTED BY IDOCK:   -0.02 KCAL/MOL
REMARK 927      BINDING AFFINITY PREDICTED BY RF-SCORE:    0.00 PKD
ROOT
HETATM    1  C   UNL     1      -9.324  11.609  74.219  1.00  0.00    20.504 C  
HETATM    2  C   UNL     1      -9.809  11.725  72.786  1.00  0.00    20.654 C  
ENDROOT
BRANCH   2   3
HETATM    3  C   UNL     1      -8.692  11.368  71.833  1.00  0.00    14.099 C  
HETATM    4  O   UNL     1      -8.786  10.426  71.059  1.00  0.00     1.125 OA 
HETATM    5  N   UNL     1      -7.596  12.240  71.855  1.00  0.00     9.663 N  
HETATM    6  H   UNL     1      -7.642  13.030  72.499  1.00  0.00     0.000 HD 
BRANCH   5   7
HETATM    7  S   UNL     1      -6.230  12.098  70.922  1.00  0.00     1.098 S  
HETATM    8  O   UNL     1      -5.176  12.746  71.682  1.00  0.00    -0.286 OA 
HETATM    9  O   UNL     1      -6.078  10.730  70.471  1.00  0.00    -0.139 OA 
BRANCH   7  10
HETATM   10  C   UNL     1      -6.594  13.135  69.530  1.00  0.00    -0.034 A  
HETATM   11  C   UNL     1      -5.825  14.274  69.294  1.00  0.00    -0.088 A  
HETATM   12  C   UNL     1      -6.249  15.208  68.340  1.00  0.00    -0.108 A  
HETATM   13  C   UNL     1      -7.409  14.989  67.581  1.00  0.00    -0.209 A  
HETATM   14  C   UNL     1      -8.048  13.745  67.708  1.00  0.00    -0.176 A  
HETATM   15  C   UNL     1      -7.671  12.835  68.702  1.00  0.00    -0.064 A  
BRANCH  13  16
HETATM   16  C   UNL     1      -8.031  16.059  66.793  1.00  0.00    -0.302 A  
HETATM   17  C   UNL     1      -7.631  17.386  66.751  1.00  0.00    -0.228 A  
HETATM   18  C   UNL     1      -6.583  18.235  67.354  1.00  0.00    -0.200 C  
HETATM   19  O   UNL     1      -8.452  18.075  65.918  1.00  0.00    -0.509 OA 
HETATM   20  N   UNL     1      -9.419  17.253  65.415  1.00  0.00    -0.004 NA 
HETATM   21  C   UNL     1      -9.212  16.037  65.946  1.00  0.00    -0.286 A  
BRANCH  21  22
HETATM   22  C   UNL     1     -10.138  14.945  65.601  1.00  0.00    -0.387 A  
HETATM   23  C   UNL     1     -11.514  15.089  65.853  1.00  0.00    -0.224 A  
HETATM   24  C   UNL     1     -12.425  14.109  65.448  1.00  0.00    -0.488 A  
HETATM   25  C   UNL     1     -11.977  12.979  64.771  1.00  0.00    -0.443 A  
HETATM   26  C   UNL     1     -10.614  12.797  64.556  1.00  0.00    -0.383 A  
HETATM   27  C   UNL     1      -9.700  13.754  65.007  1.00  0.00     0.078 A  
ENDBRANCH  21  22
ENDBRANCH  13  16
ENDBRANCH   7  10
ENDBRANCH   5   7
ENDBRANCH   2   3
TORSDOF 5
ENDMDL
MODEL      263
REMARK 921   NORMALIZED FREE ENERGY PREDICTED BY IDOCK:   56.75 KCAL/MOL
REMARK 922        TOTAL FREE ENERGY PREDICTED BY IDOCK:   72.26 KCAL/MOL
REMARK 923 INTER-LIGAND FREE ENERGY PREDICTED BY IDOCK:   69.62 KCAL/MOL
REMARK 924 INTRA-LIGAND FREE ENERGY PREDICTED BY IDOCK:    2.64 KCAL/MOL
REMARK 927      BINDING AFFINITY PREDICTED BY RF-SCORE:    0.00 PKD
ROOT
HETATM    1  C   UNL     1      -9.354  11.642  74.260  1.00  0.00    20.504 C  
HETATM    2  C   UNL     1      -9.938  11.923  72.888  1.00  0.00    21.199 C  
ENDROOT
BRANCH   2   3
HETATM    3  C   UNL     1      -8.884  11.714  71.826  1.00  0.00    15.058 C  
HETATM    4  O   UNL     1      -9.028  10.892  70.932  1.00  0.00     2.472 OA 
HETATM    5  N   UNL     1      -7.786  12.580  71.905  1.00  0.00    11.349 N  
HETATM    6  H   UNL     1      -7.789  13.269  72.658  1.00  0.00     0.000 HD 
BRANCH   5   7
HETATM    7  S   UNL     1      -6.481  12.581  70.879  1.00  0.00     1.818 S  
HETATM    8  O   UNL     1      -6.681  13.723  70.003  1.00  0.00    -0.016 OA 
HETATM    9  O   UNL     1      -5.254  12.439  71.636  1.00  0.00    -0.321 OA 
BRANCH   7  10
HETATM   10  C   UNL     1      -6.741  11.119  69.909  1.00  0.00    -0.097 A  
HETATM   11  C   UNL     1      -6.932  11.225  68.532  1.00  0.00    -0.078 A  
HETATM   12  C   UNL     1      -7.361  10.106  67.806  1.00  0.00    -0.088 A  
HETATM   13  C   UNL     1      -7.552   8.866  68.436  1.00  0.00    -0.091 A  
HETATM   14  C   UNL     1      -7.164   8.750  69.781  1.00  0.00    -0.051 A  
HETATM   15  C   UNL     1      -6.797   9.874  70.529  1.00  0.00    -0.122 A  
BRANCH  13  16
HETATM   16  C   UNL     1      -8.264   7.766  67.778  1.00  0.00    -0.126 A  
HETATM   17  C   UNL     1      -8.506   6.509  68.314  1.00  0.00    -0.116 A  
HETATM   18  C   UNL     1      -8.230   5.780  69.569  1.00  0.00    -0.108 C  
HETATM   19  O   UNL     1      -9.185   5.760  67.408  1.00  0.00    -0.111 OA 
HETATM   20  N   UNL     1      -9.385   6.468  66.257  1.00  0.00    -0.143 NA 
HETATM   21  C   UNL     1      -8.815   7.671  66.437  1.00  0.00    -0.156 A  
BRANCH  21  22
HETATM   22  C   UNL     1      -8.848   8.643  65.331  1.00  0.00    -0.198 A  
HETATM   23  C   UNL     1      -8.506   8.234  64.031  1.00  0.00     0.042 A  
HETATM   24  C   UNL     1      -8.621   9.111  62.947  1.00  0.00    -0.203 A  
HETATM   25  C   UNL     1      -9.096  10.404  63.146  1.00  0.00    -0.274 A  
HETATM   26  C   UNL     1      -9.394  10.841  64.434  1.00  0.00    -0.279 A  
HETATM   27  C   UNL     1      -9.230   9.978  65.522  1.00  0.00    -0.247 A  
ENDBRANCH  21  22
ENDBRANCH  13  16
ENDBRANCH   7  10
ENDBRANCH   5   7
ENDBRANCH   2   3
TORSDOF 5
ENDMDL
