MODEL        1
REMARK 921   NORMALIZED FREE ENERGY PREDICTED BY IDOCK:   -4.49 KCAL/MOL
REMARK 922        TOTAL FREE ENERGY PREDICTED BY IDOCK:   -5.99 KCAL/MOL
REMARK 923 INTER-LIGAND FREE ENERGY PREDICTED BY IDOCK:   -5.54 KCAL/MOL
REMARK 924 INTRA-LIGAND FREE ENERGY PREDICTED BY IDOCK:   -0.45 KCAL/MOL
REMARK 927      BINDING AFFINITY PREDICTED BY RF-SCORE:    0.00 PKD
ROOT
HETATM    1  C   UNL     1     -12.109  14.182  67.050  1.00  0.00    -0.414 C  
HETATM    2  N   UNL     1     -12.110  14.023  68.510  1.00  0.00    -0.342 NA 
ENDROOT
BRANCH   2   3
HETATM    3  C   UNL     1     -11.772  15.300  69.178  1.00  0.00    -0.335 C  
BRANCH   3   4
HETATM    4  C   UNL     1     -12.351  15.472  70.568  1.00  0.00    -0.461 A  
HETATM    5  C   UNL     1     -13.678  15.097  70.831  1.00  0.00    -0.352 A  
HETATM    6  C   UNL     1     -11.588  16.026  71.607  1.00  0.00    -0.538 A  
HETATM    7  C   UNL     1     -14.220  15.244  72.109  1.00  0.00    -0.667 A  
HETATM    8  C   UNL     1     -12.133  16.170  72.886  1.00  0.00    -0.643 A  
HETATM    9  C   UNL     1     -13.445  15.775  73.137  1.00  0.00    -0.652 A  
ENDBRANCH   3   4
ENDBRANCH   2   3
BRANCH   2  10
HETATM   10  C   UNL     1     -11.121  13.009  68.927  1.00  0.00    -0.262 C  
BRANCH  10  11
HETATM   11  C   UNL     1     -11.684  11.933  69.761  1.00  0.00    -0.403 C  
HETATM   12  C   UNL     1     -12.160  11.094  70.478  1.00  0.00    -0.474 C  
ENDBRANCH  10  11
ENDBRANCH   2  10
TORSDOF 4
ENDMDL
MODEL        2
REMARK 921   NORMALIZED FREE ENERGY PREDICTED BY IDOCK:   -4.36 KCAL/MOL
REMARK 922        TOTAL FREE ENERGY PREDICTED BY IDOCK:   -5.84 KCAL/MOL
REMARK 923 INTER-LIGAND FREE ENERGY PREDICTED BY IDOCK:   -5.50 KCAL/MOL
REMARK 924 INTRA-LIGAND FREE ENERGY PREDICTED BY IDOCK:   -0.33 KCAL/MOL
REMARK 927      BINDING AFFINITY PREDICTED BY RF-SCORE:    0.00 PKD
ROOT
HETATM    1  C   UNL     1     -11.523  15.704  69.457  1.00  0.00    -0.344 C  
HETATM    2  N   UNL     1     -11.702  15.139  70.801  1.00  0.00    -0.299 NA 
ENDROOT
BRANCH   2   3
HETATM    3  C   UNL     1     -12.910  14.284  70.854  1.00  0.00    -0.347 C  
BRANCH   3   4
HETATM    4  C   UNL     1     -12.641  12.792  70.883  1.00  0.00    -0.342 A  
HETATM    5  C   UNL     1     -13.178  11.998  71.909  1.00  0.00    -0.469 A  
HETATM    6  C   UNL     1     -11.840  12.182  69.907  1.00  0.00    -0.392 A  
HETATM    7  C   UNL     1     -12.943  10.622  71.942  1.00  0.00    -0.542 A  
HETATM    8  C   UNL     1     -11.609  10.804  69.941  1.00  0.00    -0.410 A  
HETATM    9  C   UNL     1     -12.164  10.025  70.954  1.00  0.00    -0.441 A  
ENDBRANCH   3   4
ENDBRANCH   2   3
BRANCH   2  10
HETATM   10  C   UNL     1     -11.854  16.213  71.804  1.00  0.00    -0.506 C  
BRANCH  10  11
HETATM   11  C   UNL     1     -12.161  15.723  73.160  1.00  0.00    -0.605 C  
HETATM   12  C   UNL     1     -12.378  15.363  74.286  1.00  0.00    -0.807 C  
ENDBRANCH  10  11
ENDBRANCH   2  10
TORSDOF 4
ENDMDL
MODEL        3
REMARK 921   NORMALIZED FREE ENERGY PREDICTED BY IDOCK:   -4.30 KCAL/MOL
REMARK 922        TOTAL FREE ENERGY PREDICTED BY IDOCK:   -5.75 KCAL/MOL
REMARK 923 INTER-LIGAND FREE ENERGY PREDICTED BY IDOCK:   -5.54 KCAL/MOL
REMARK 924 INTRA-LIGAND FREE ENERGY PREDICTED BY IDOCK:   -0.21 KCAL/MOL
REMARK 927      BINDING AFFINITY PREDICTED BY RF-SCORE:    0.00 PKD
ROOT
HETATM    1  C   UNL     1     -13.594  13.003  72.291  1.00  0.00    -0.547 C  
HETATM    2  N   UNL     1     -13.519  14.133  71.357  1.00  0.00    -0.338 NA 
ENDROOT
BRANCH   2   3
HETATM    3  C   UNL     1     -12.153  14.264  70.801  1.00  0.00    -0.348 C  
BRANCH   3   4
HETATM    4  C   UNL     1     -11.992  13.792  69.369  1.00  0.00    -0.397 A  
HETATM    5  C   UNL     1     -11.833  12.426  69.091  1.00  0.00    -0.352 A  
HETATM    6  C   UNL     1     -11.978  14.704  68.304  1.00  0.00    -0.282 A  
HETATM    7  C   UNL     1     -11.692  11.978  67.776  1.00  0.00    -0.379 A  
HETATM    8  C   UNL     1     -11.839  14.253  66.988  1.00  0.00    -0.455 A  
HETATM    9  C   UNL     1     -11.701  12.892  66.725  1.00  0.00    -0.445 A  
ENDBRANCH   3   4
ENDBRANCH   2   3
BRANCH   2  10
HETATM   10  C   UNL     1     -13.863  15.398  72.036  1.00  0.00    -0.522 C  
BRANCH  10  11
HETATM   11  C   UNL     1     -13.090  15.643  73.267  1.00  0.00    -0.675 C  
HETATM   12  C   UNL     1     -12.413  15.840  74.240  1.00  0.00    -0.800 C  
ENDBRANCH  10  11
ENDBRANCH   2  10
TORSDOF 4
ENDMDL
MODEL        4
REMARK 921   NORMALIZED FREE ENERGY PREDICTED BY IDOCK:   -4.22 KCAL/MOL
REMARK 922        TOTAL FREE ENERGY PREDICTED BY IDOCK:   -5.66 KCAL/MOL
REMARK 923 INTER-LIGAND FREE ENERGY PREDICTED BY IDOCK:   -5.47 KCAL/MOL
REMARK 924 INTRA-LIGAND FREE ENERGY PREDICTED BY IDOCK:   -0.19 KCAL/MOL
REMARK 927      BINDING AFFINITY PREDICTED BY RF-SCORE:    0.00 PKD
ROOT
HETATM    1  C   UNL     1     -11.297  15.585  67.988  1.00  0.00    -0.330 C  
HETATM    2  N   UNL     1     -12.023  14.391  68.441  1.00  0.00    -0.321 NA 
ENDROOT
BRANCH   2   3
HETATM    3  C   UNL     1     -11.553  13.967  69.779  1.00  0.00    -0.281 C  
BRANCH   3   4
HETATM    4  C   UNL     1     -12.222  14.666  70.946  1.00  0.00    -0.391 A  
HETATM    5  C   UNL     1     -13.614  14.593  71.109  1.00  0.00    -0.404 A  
HETATM    6  C   UNL     1     -11.473  15.412  71.869  1.00  0.00    -0.513 A  
HETATM    7  C   UNL     1     -14.240  15.226  72.184  1.00  0.00    -0.667 A  
HETATM    8  C   UNL     1     -12.103  16.043  72.945  1.00  0.00    -0.626 A  
HETATM    9  C   UNL     1     -13.483  15.946  73.105  1.00  0.00    -0.650 A  
ENDBRANCH   3   4
ENDBRANCH   2   3
BRANCH   2  10
HETATM   10  C   UNL     1     -11.818  13.268  67.504  1.00  0.00    -0.358 C  
BRANCH  10  11
HETATM   11  C   UNL     1     -12.183  13.580  66.110  1.00  0.00    -0.484 C  
HETATM   12  C   UNL     1     -12.508  13.879  64.993  1.00  0.00    -0.447 C  
ENDBRANCH  10  11
ENDBRANCH   2  10
TORSDOF 4
ENDMDL
MODEL        5
REMARK 921   NORMALIZED FREE ENERGY PREDICTED BY IDOCK:   -4.18 KCAL/MOL
REMARK 922        TOTAL FREE ENERGY PREDICTED BY IDOCK:   -5.60 KCAL/MOL
REMARK 923 INTER-LIGAND FREE ENERGY PREDICTED BY IDOCK:   -5.34 KCAL/MOL
REMARK 924 INTRA-LIGAND FREE ENERGY PREDICTED BY IDOCK:   -0.26 KCAL/MOL
REMARK 927      BINDING AFFINITY PREDICTED BY RF-SCORE:    0.00 PKD
ROOT
HETATM    1  C   UNL     1      -9.094  15.278  69.162  1.00  0.00    -0.236 C  
HETATM    2  N   UNL     1     -10.178  16.263  69.275  1.00  0.00    -0.253 NA 
ENDROOT
BRANCH   2   3
HETATM    3  C   UNL     1     -11.493  15.589  69.355  1.00  0.00    -0.337 C  
BRANCH   3   4
HETATM    4  C   UNL     1     -12.169  15.657  70.711  1.00  0.00    -0.463 A  
HETATM    5  C   UNL     1     -11.466  16.139  71.826  1.00  0.00    -0.386 A  
HETATM    6  C   UNL     1     -13.492  15.225  70.883  1.00  0.00    -0.441 A  
HETATM    7  C   UNL     1     -12.080  16.214  73.078  1.00  0.00    -0.636 A  
HETATM    8  C   UNL     1     -14.105  15.303  72.136  1.00  0.00    -0.658 A  
HETATM    9  C   UNL     1     -13.402  15.801  73.231  1.00  0.00    -0.649 A  
ENDBRANCH   3   4
ENDBRANCH   2   3
BRANCH   2  10
HETATM   10  C   UNL     1     -10.192  17.161  68.103  1.00  0.00    -0.332 C  
BRANCH  10  11
HETATM   11  C   UNL     1     -10.133  18.593  68.448  1.00  0.00    -0.426 C  
HETATM   12  C   UNL     1     -10.140  19.763  68.720  1.00  0.00    -0.523 C  
ENDBRANCH  10  11
ENDBRANCH   2  10
TORSDOF 4
ENDMDL
MODEL        6
REMARK 921   NORMALIZED FREE ENERGY PREDICTED BY IDOCK:   -4.16 KCAL/MOL
REMARK 922        TOTAL FREE ENERGY PREDICTED BY IDOCK:   -5.58 KCAL/MOL
REMARK 923 INTER-LIGAND FREE ENERGY PREDICTED BY IDOCK:   -5.32 KCAL/MOL
REMARK 924 INTRA-LIGAND FREE ENERGY PREDICTED BY IDOCK:   -0.26 KCAL/MOL
REMARK 927      BINDING AFFINITY PREDICTED BY RF-SCORE:    0.00 PKD
ROOT
HETATM    1  C   UNL     1     -10.618  17.367  68.089  1.00  0.00    -0.376 C  
HETATM    2  N   UNL     1     -11.131  16.091  68.605  1.00  0.00    -0.329 NA 
ENDROOT
BRANCH   2   3
HETATM    3  C   UNL     1     -10.727  15.895  70.016  1.00  0.00    -0.339 C  
BRANCH   3   4
HETATM    4  C   UNL     1     -11.870  15.684  70.989  1.00  0.00    -0.442 A  
HETATM    5  C   UNL     1     -11.790  16.195  72.294  1.00  0.00    -0.631 A  
HETATM    6  C   UNL     1     -13.014  14.961  70.617  1.00  0.00    -0.389 A  
HETATM    7  C   UNL     1     -12.839  16.013  73.196  1.00  0.00    -0.620 A  
HETATM    8  C   UNL     1     -14.064  14.783  71.522  1.00  0.00    -0.566 A  
HETATM    9  C   UNL     1     -13.979  15.312  72.807  1.00  0.00    -0.471 A  
ENDBRANCH   3   4
ENDBRANCH   2   3
BRANCH   2  10
HETATM   10  C   UNL     1     -10.606  14.959  67.815  1.00  0.00    -0.262 C  
BRANCH  10  11
HETATM   11  C   UNL     1     -11.528  14.485  66.766  1.00  0.00    -0.376 C  
HETATM   12  C   UNL     1     -12.307  14.070  65.951  1.00  0.00    -0.515 C  
ENDBRANCH  10  11
ENDBRANCH   2  10
TORSDOF 4
ENDMDL
MODEL        7
REMARK 921   NORMALIZED FREE ENERGY PREDICTED BY IDOCK:   -4.10 KCAL/MOL
REMARK 922        TOTAL FREE ENERGY PREDICTED BY IDOCK:   -5.51 KCAL/MOL
REMARK 923 INTER-LIGAND FREE ENERGY PREDICTED BY IDOCK:   -5.20 KCAL/MOL
REMARK 924 INTRA-LIGAND FREE ENERGY PREDICTED BY IDOCK:   -0.32 KCAL/MOL
REMARK 927      BINDING AFFINITY PREDICTED BY RF-SCORE:    0.00 PKD
ROOT
HETATM    1  C   UNL     1      -9.457  13.950  68.222  1.00  0.00    -0.217 C  
HETATM    2  N   UNL     1     -10.622  14.715  68.685  1.00  0.00    -0.244 NA 
ENDROOT
BRANCH   2   3
HETATM    3  C   UNL     1     -11.568  13.840  69.414  1.00  0.00    -0.310 C  
BRANCH   3   4
HETATM    4  C   UNL     1     -12.070  14.394  70.733  1.00  0.00    -0.408 A  
HETATM    5  C   UNL     1     -11.474  15.536  71.291  1.00  0.00    -0.462 A  
HETATM    6  C   UNL     1     -13.116  13.771  71.429  1.00  0.00    -0.413 A  
HETATM    7  C   UNL     1     -11.933  16.060  72.501  1.00  0.00    -0.649 A  
HETATM    8  C   UNL     1     -13.574  14.298  72.639  1.00  0.00    -0.601 A  
HETATM    9  C   UNL     1     -12.987  15.444  73.171  1.00  0.00    -0.628 A  
ENDBRANCH   3   4
ENDBRANCH   2   3
BRANCH   2  10
HETATM   10  C   UNL     1     -11.339  15.317  67.543  1.00  0.00    -0.297 C  
BRANCH  10  11
HETATM   11  C   UNL     1     -11.927  14.330  66.619  1.00  0.00    -0.454 C  
HETATM   12  C   UNL     1     -12.406  13.565  65.827  1.00  0.00    -0.516 C  
ENDBRANCH  10  11
ENDBRANCH   2  10
TORSDOF 4
ENDMDL
MODEL        8
REMARK 921   NORMALIZED FREE ENERGY PREDICTED BY IDOCK:   -4.09 KCAL/MOL
REMARK 922        TOTAL FREE ENERGY PREDICTED BY IDOCK:   -5.50 KCAL/MOL
REMARK 923 INTER-LIGAND FREE ENERGY PREDICTED BY IDOCK:   -5.11 KCAL/MOL
REMARK 924 INTRA-LIGAND FREE ENERGY PREDICTED BY IDOCK:   -0.38 KCAL/MOL
REMARK 927      BINDING AFFINITY PREDICTED BY RF-SCORE:    0.00 PKD
ROOT
HETATM    1  C   UNL     1     -10.001  13.928  68.353  1.00  0.00    -0.233 C  
HETATM    2  N   UNL     1     -10.720  15.097  68.875  1.00  0.00    -0.232 NA 
ENDROOT
BRANCH   2   3
HETATM    3  C   UNL     1     -12.103  14.734  69.259  1.00  0.00    -0.261 C  
BRANCH   3   4
HETATM    4  C   UNL     1     -12.507  15.139  70.664  1.00  0.00    -0.442 A  
HETATM    5  C   UNL     1     -13.864  15.177  71.024  1.00  0.00    -0.423 A  
HETATM    6  C   UNL     1     -11.546  15.501  71.618  1.00  0.00    -0.502 A  
HETATM    7  C   UNL     1     -14.248  15.541  72.316  1.00  0.00    -0.617 A  
HETATM    8  C   UNL     1     -11.933  15.862  72.911  1.00  0.00    -0.609 A  
HETATM    9  C   UNL     1     -13.281  15.877  73.261  1.00  0.00    -0.698 A  
ENDBRANCH   3   4
ENDBRANCH   2   3
BRANCH   2  10
HETATM   10  C   UNL     1     -10.791  16.165  67.857  1.00  0.00    -0.332 C  
BRANCH  10  11
HETATM   11  C   UNL     1     -10.424  17.499  68.365  1.00  0.00    -0.372 C  
HETATM   12  C   UNL     1     -10.072  18.574  68.770  1.00  0.00    -0.394 C  
ENDBRANCH  10  11
ENDBRANCH   2  10
TORSDOF 4
ENDMDL
MODEL        9
REMARK 921   NORMALIZED FREE ENERGY PREDICTED BY IDOCK:   -4.06 KCAL/MOL
REMARK 922        TOTAL FREE ENERGY PREDICTED BY IDOCK:   -5.46 KCAL/MOL
REMARK 923 INTER-LIGAND FREE ENERGY PREDICTED BY IDOCK:   -5.30 KCAL/MOL
REMARK 924 INTRA-LIGAND FREE ENERGY PREDICTED BY IDOCK:   -0.17 KCAL/MOL
REMARK 927      BINDING AFFINITY PREDICTED BY RF-SCORE:    0.00 PKD
ROOT
HETATM    1  C   UNL     1     -11.371  14.954  67.009  1.00  0.00    -0.342 C  
HETATM    2  N   UNL     1     -11.932  13.886  67.847  1.00  0.00    -0.376 NA 
ENDROOT
BRANCH   2   3
HETATM    3  C   UNL     1     -11.251  13.839  69.161  1.00  0.00    -0.262 C  
BRANCH   3   4
HETATM    4  C   UNL     1     -12.138  14.130  70.356  1.00  0.00    -0.417 A  
HETATM    5  C   UNL     1     -12.674  13.074  71.110  1.00  0.00    -0.372 A  
HETATM    6  C   UNL     1     -12.457  15.447  70.717  1.00  0.00    -0.476 A  
HETATM    7  C   UNL     1     -13.487  13.330  72.216  1.00  0.00    -0.679 A  
HETATM    8  C   UNL     1     -13.269  15.700  71.827  1.00  0.00    -0.548 A  
HETATM    9  C   UNL     1     -13.778  14.643  72.578  1.00  0.00    -0.572 A  
ENDBRANCH   3   4
ENDBRANCH   2   3
BRANCH   2  10
HETATM   10  C   UNL     1     -11.768  12.571  67.196  1.00  0.00    -0.355 C  
BRANCH  10  11
HETATM   11  C   UNL     1     -12.170  12.553  65.778  1.00  0.00    -0.361 C  
HETATM   12  C   UNL     1     -12.462  12.496  64.614  1.00  0.00    -0.539 C  
ENDBRANCH  10  11
ENDBRANCH   2  10
TORSDOF 4
ENDMDL
MODEL       10
REMARK 921   NORMALIZED FREE ENERGY PREDICTED BY IDOCK:   -4.02 KCAL/MOL
REMARK 922        TOTAL FREE ENERGY PREDICTED BY IDOCK:   -5.42 KCAL/MOL
REMARK 923 INTER-LIGAND FREE ENERGY PREDICTED BY IDOCK:   -5.20 KCAL/MOL
REMARK 924 INTRA-LIGAND FREE ENERGY PREDICTED BY IDOCK:   -0.22 KCAL/MOL
REMARK 927      BINDING AFFINITY PREDICTED BY RF-SCORE:    0.00 PKD
ROOT
HETATM    1  C   UNL     1     -12.036  14.246  68.703  1.00  0.00    -0.313 C  
HETATM    2  N   UNL     1     -11.789  15.622  69.153  1.00  0.00    -0.377 NA 
ENDROOT
BRANCH   2   3
HETATM    3  C   UNL     1     -10.422  16.057  68.788  1.00  0.00    -0.248 C  
BRANCH   3   4
HETATM    4  C   UNL     1     -10.345  17.369  68.031  1.00  0.00    -0.362 A  
HETATM    5  C   UNL     1     -10.117  18.569  68.722  1.00  0.00    -0.394 A  
HETATM    6  C   UNL     1     -10.520  17.414  66.640  1.00  0.00    -0.253 A  
HETATM    7  C   UNL     1     -10.037  19.782  68.035  1.00  0.00    -0.571 A  
HETATM    8  C   UNL     1     -10.437  18.629  65.955  1.00  0.00    -0.456 A  
HETATM    9  C   UNL     1     -10.191  19.810  66.651  1.00  0.00    -0.595 A  
ENDBRANCH   3   4
ENDBRANCH   2   3
BRANCH   2  10
HETATM   10  C   UNL     1     -11.929  15.726  70.620  1.00  0.00    -0.393 C  
BRANCH  10  11
HETATM   11  C   UNL     1     -13.279  15.400  71.115  1.00  0.00    -0.583 C  
HETATM   12  C   UNL     1     -14.361  15.084  71.529  1.00  0.00    -0.651 C  
ENDBRANCH  10  11
ENDBRANCH   2  10
TORSDOF 4
ENDMDL
MODEL       11
REMARK 921   NORMALIZED FREE ENERGY PREDICTED BY IDOCK:   -4.01 KCAL/MOL
REMARK 922        TOTAL FREE ENERGY PREDICTED BY IDOCK:   -5.40 KCAL/MOL
REMARK 923 INTER-LIGAND FREE ENERGY PREDICTED BY IDOCK:   -5.23 KCAL/MOL
REMARK 924 INTRA-LIGAND FREE ENERGY PREDICTED BY IDOCK:   -0.16 KCAL/MOL
REMARK 927      BINDING AFFINITY PREDICTED BY RF-SCORE:    0.00 PKD
ROOT
HETATM    1  C   UNL     1     -13.541   9.070  71.767  1.00  0.00    -0.413 C  
HETATM    2  N   UNL     1     -12.423  10.022  71.759  1.00  0.00    -0.400 NA 
ENDROOT
BRANCH   2   3
HETATM    3  C   UNL     1     -12.552  10.974  70.633  1.00  0.00    -0.338 C  
BRANCH   3   4
HETATM    4  C   UNL     1     -12.760  12.421  71.035  1.00  0.00    -0.315 A  
HETATM    5  C   UNL     1     -13.513  12.735  72.177  1.00  0.00    -0.591 A  
HETATM    6  C   UNL     1     -12.228  13.469  70.269  1.00  0.00    -0.417 A  
HETATM    7  C   UNL     1     -13.706  14.063  72.561  1.00  0.00    -0.651 A  
HETATM    8  C   UNL     1     -12.420  14.797  70.657  1.00  0.00    -0.407 A  
HETATM    9  C   UNL     1     -13.154  15.094  71.804  1.00  0.00    -0.464 A  
ENDBRANCH   3   4
ENDBRANCH   2   3
BRANCH   2  10
HETATM   10  C   UNL     1     -11.135   9.314  71.618  1.00  0.00    -0.368 C  
BRANCH  10  11
HETATM   11  C   UNL     1     -10.958   8.200  72.568  1.00  0.00    -0.439 C  
HETATM   12  C   UNL     1     -10.776   7.272  73.308  1.00  0.00    -0.428 C  
ENDBRANCH  10  11
ENDBRANCH   2  10
TORSDOF 4
ENDMDL
MODEL       12
REMARK 921   NORMALIZED FREE ENERGY PREDICTED BY IDOCK:   -3.98 KCAL/MOL
REMARK 922        TOTAL FREE ENERGY PREDICTED BY IDOCK:   -5.37 KCAL/MOL
REMARK 923 INTER-LIGAND FREE ENERGY PREDICTED BY IDOCK:   -5.10 KCAL/MOL
REMARK 924 INTRA-LIGAND FREE ENERGY PREDICTED BY IDOCK:   -0.27 KCAL/MOL
REMARK 927      BINDING AFFINITY PREDICTED BY RF-SCORE:    0.00 PKD
ROOT
HETATM    1  C   UNL     1     -14.323   8.574  71.857  1.00  0.00    -0.448 C  
HETATM    2  N   UNL     1     -13.038   9.261  72.047  1.00  0.00    -0.400 NA 
ENDROOT
BRANCH   2   3
HETATM    3  C   UNL     1     -12.694  10.069  70.856  1.00  0.00    -0.325 C  
BRANCH   3   4
HETATM    4  C   UNL     1     -12.724  11.570  71.067  1.00  0.00    -0.426 A  
HETATM    5  C   UNL     1     -12.052  12.422  70.176  1.00  0.00    -0.366 A  
HETATM    6  C   UNL     1     -13.398  12.135  72.160  1.00  0.00    -0.438 A  
HETATM    7  C   UNL     1     -12.078  13.806  70.356  1.00  0.00    -0.421 A  
HETATM    8  C   UNL     1     -13.424  13.521  72.336  1.00  0.00    -0.685 A  
HETATM    9  C   UNL     1     -12.770  14.355  71.433  1.00  0.00    -0.413 A  
ENDBRANCH   3   4
ENDBRANCH   2   3
BRANCH   2  10
HETATM   10  C   UNL     1     -11.952   8.285  72.271  1.00  0.00    -0.386 C  
BRANCH  10  11
HETATM   11  C   UNL     1     -11.738   7.362  71.142  1.00  0.00    -0.322 C  
HETATM   12  C   UNL     1     -11.577   6.568  70.255  1.00  0.00    -0.473 C  
ENDBRANCH  10  11
ENDBRANCH   2  10
TORSDOF 4
ENDMDL
MODEL       13
REMARK 921   NORMALIZED FREE ENERGY PREDICTED BY IDOCK:   -3.96 KCAL/MOL
REMARK 922        TOTAL FREE ENERGY PREDICTED BY IDOCK:   -5.34 KCAL/MOL
REMARK 923 INTER-LIGAND FREE ENERGY PREDICTED BY IDOCK:   -5.03 KCAL/MOL
REMARK 924 INTRA-LIGAND FREE ENERGY PREDICTED BY IDOCK:   -0.32 KCAL/MOL
REMARK 927      BINDING AFFINITY PREDICTED BY RF-SCORE:    0.00 PKD
ROOT
HETATM    1  C   UNL     1     -10.248  14.134  65.791  1.00  0.00    -0.332 C  
HETATM    2  N   UNL     1     -11.426  13.717  66.563  1.00  0.00    -0.334 NA 
ENDROOT
BRANCH   2   3
HETATM    3  C   UNL     1     -11.196  12.401  67.200  1.00  0.00    -0.298 C  
BRANCH   3   4
HETATM    4  C   UNL     1     -11.708  12.276  68.622  1.00  0.00    -0.377 A  
HETATM    5  C   UNL     1     -11.854  13.421  69.422  1.00  0.00    -0.390 A  
HETATM    6  C   UNL     1     -12.024  11.025  69.171  1.00  0.00    -0.394 A  
HETATM    7  C   UNL     1     -12.331  13.319  70.730  1.00  0.00    -0.425 A  
HETATM    8  C   UNL     1     -12.504  10.927  70.479  1.00  0.00    -0.438 A  
HETATM    9  C   UNL     1     -12.662  12.072  71.256  1.00  0.00    -0.382 A  
ENDBRANCH   3   4
ENDBRANCH   2   3
BRANCH   2  10
HETATM   10  C   UNL     1     -12.611  13.605  65.689  1.00  0.00    -0.484 C  
BRANCH  10  11
HETATM   11  C   UNL     1     -12.427  12.689  64.549  1.00  0.00    -0.525 C  
HETATM   12  C   UNL     1     -12.316  11.971  63.592  1.00  0.00    -0.648 C  
ENDBRANCH  10  11
ENDBRANCH   2  10
TORSDOF 4
ENDMDL
MODEL       14
REMARK 921   NORMALIZED FREE ENERGY PREDICTED BY IDOCK:   -3.95 KCAL/MOL
REMARK 922        TOTAL FREE ENERGY PREDICTED BY IDOCK:   -5.32 KCAL/MOL
REMARK 923 INTER-LIGAND FREE ENERGY PREDICTED BY IDOCK:   -5.11 KCAL/MOL
REMARK 924 INTRA-LIGAND FREE ENERGY PREDICTED BY IDOCK:   -0.21 KCAL/MOL
REMARK 927      BINDING AFFINITY PREDICTED BY RF-SCORE:    0.00 PKD
ROOT
HETATM    1  C   UNL     1      -9.574  13.999  66.645  1.00  0.00    -0.289 C  
HETATM    2  N   UNL     1     -10.676  14.969  66.708  1.00  0.00    -0.303 NA 
ENDROOT
BRANCH   2   3
HETATM    3  C   UNL     1     -10.528  15.854  67.886  1.00  0.00    -0.288 C  
BRANCH   3   4
HETATM    4  C   UNL     1     -10.433  17.334  67.570  1.00  0.00    -0.356 A  
HETATM    5  C   UNL     1     -10.276  18.268  68.606  1.00  0.00    -0.377 A  
HETATM    6  C   UNL     1     -10.519  17.800  66.250  1.00  0.00    -0.307 A  
HETATM    7  C   UNL     1     -10.181  19.632  68.327  1.00  0.00    -0.567 A  
HETATM    8  C   UNL     1     -10.421  19.166  65.973  1.00  0.00    -0.546 A  
HETATM    9  C   UNL     1     -10.246  20.080  67.010  1.00  0.00    -0.587 A  
ENDBRANCH   3   4
ENDBRANCH   2   3
BRANCH   2  10
HETATM   10  C   UNL     1     -11.976  14.277  66.813  1.00  0.00    -0.436 C  
BRANCH  10  11
HETATM   11  C   UNL     1     -12.231  13.317  65.723  1.00  0.00    -0.510 C  
HETATM   12  C   UNL     1     -12.386  12.545  64.816  1.00  0.00    -0.544 C  
ENDBRANCH  10  11
ENDBRANCH   2  10
TORSDOF 4
ENDMDL
MODEL       15
REMARK 921   NORMALIZED FREE ENERGY PREDICTED BY IDOCK:   -3.92 KCAL/MOL
REMARK 922        TOTAL FREE ENERGY PREDICTED BY IDOCK:   -5.28 KCAL/MOL
REMARK 923 INTER-LIGAND FREE ENERGY PREDICTED BY IDOCK:   -4.82 KCAL/MOL
REMARK 924 INTRA-LIGAND FREE ENERGY PREDICTED BY IDOCK:   -0.46 KCAL/MOL
REMARK 927      BINDING AFFINITY PREDICTED BY RF-SCORE:    0.00 PKD
ROOT
HETATM    1  C   UNL     1     -11.175  14.416  65.818  1.00  0.00    -0.326 C  
HETATM    2  N   UNL     1     -11.281  15.164  67.078  1.00  0.00    -0.331 NA 
ENDROOT
BRANCH   2   3
HETATM    3  C   UNL     1     -10.013  15.866  67.379  1.00  0.00    -0.239 C  
BRANCH   3   4
HETATM    4  C   UNL     1     -10.095  17.379  67.357  1.00  0.00    -0.321 A  
HETATM    5  C   UNL     1      -9.982  18.109  68.551  1.00  0.00    -0.408 A  
HETATM    6  C   UNL     1     -10.306  18.076  66.158  1.00  0.00    -0.368 A  
HETATM    7  C   UNL     1     -10.049  19.504  68.543  1.00  0.00    -0.543 A  
HETATM    8  C   UNL     1     -10.370  19.472  66.153  1.00  0.00    -0.614 A  
HETATM    9  C   UNL     1     -10.237  20.185  67.342  1.00  0.00    -0.534 A  
ENDBRANCH   3   4
ENDBRANCH   2   3
BRANCH   2  10
HETATM   10  C   UNL     1     -11.583  14.254  68.201  1.00  0.00    -0.332 C  
BRANCH  10  11
HETATM   11  C   UNL     1     -11.905  14.949  69.461  1.00  0.00    -0.360 C  
HETATM   12  C   UNL     1     -12.173  15.563  70.459  1.00  0.00    -0.444 C  
ENDBRANCH  10  11
ENDBRANCH   2  10
TORSDOF 4
ENDMDL
MODEL       16
REMARK 921   NORMALIZED FREE ENERGY PREDICTED BY IDOCK:   -3.91 KCAL/MOL
REMARK 922        TOTAL FREE ENERGY PREDICTED BY IDOCK:   -5.28 KCAL/MOL
REMARK 923 INTER-LIGAND FREE ENERGY PREDICTED BY IDOCK:   -5.00 KCAL/MOL
REMARK 924 INTRA-LIGAND FREE ENERGY PREDICTED BY IDOCK:   -0.28 KCAL/MOL
REMARK 927      BINDING AFFINITY PREDICTED BY RF-SCORE:    0.00 PKD
ROOT
HETATM    1  C   UNL     1     -10.063  13.801  65.839  1.00  0.00    -0.313 C  
HETATM    2  N   UNL     1     -11.312  13.592  66.582  1.00  0.00    -0.313 NA 
ENDROOT
BRANCH   2   3
HETATM    3  C   UNL     1     -11.335  12.247  67.201  1.00  0.00    -0.335 C  
BRANCH   3   4
HETATM    4  C   UNL     1     -11.770  12.214  68.653  1.00  0.00    -0.382 A  
HETATM    5  C   UNL     1     -11.997  10.986  69.293  1.00  0.00    -0.410 A  
HETATM    6  C   UNL     1     -11.974  13.399  69.375  1.00  0.00    -0.369 A  
HETATM    7  C   UNL     1     -12.392  10.942  70.632  1.00  0.00    -0.470 A  
HETATM    8  C   UNL     1     -12.367  13.353  70.715  1.00  0.00    -0.433 A  
HETATM    9  C   UNL     1     -12.570  12.127  71.344  1.00  0.00    -0.314 A  
ENDBRANCH   3   4
ENDBRANCH   2   3
BRANCH   2  10
HETATM   10  C   UNL     1     -12.480  13.706  65.686  1.00  0.00    -0.496 C  
BRANCH  10  11
HETATM   11  C   UNL     1     -12.397  12.854  64.486  1.00  0.00    -0.483 C  
HETATM   12  C   UNL     1     -12.382  12.171  63.498  1.00  0.00    -0.682 C  
ENDBRANCH  10  11
ENDBRANCH   2  10
TORSDOF 4
ENDMDL
MODEL       17
REMARK 921   NORMALIZED FREE ENERGY PREDICTED BY IDOCK:   -3.91 KCAL/MOL
REMARK 922        TOTAL FREE ENERGY PREDICTED BY IDOCK:   -5.28 KCAL/MOL
REMARK 923 INTER-LIGAND FREE ENERGY PREDICTED BY IDOCK:   -5.01 KCAL/MOL
REMARK 924 INTRA-LIGAND FREE ENERGY PREDICTED BY IDOCK:   -0.27 KCAL/MOL
REMARK 927      BINDING AFFINITY PREDICTED BY RF-SCORE:    0.00 PKD
ROOT
HETATM    1  C   UNL     1     -12.147  14.132  67.053  1.00  0.00    -0.414 C  
HETATM    2  N   UNL     1     -12.097  13.917  68.505  1.00  0.00    -0.351 NA 
ENDROOT
BRANCH   2   3
HETATM    3  C   UNL     1     -11.627  15.136  69.200  1.00  0.00    -0.323 C  
BRANCH   3   4
HETATM    4  C   UNL     1     -12.232  15.368  70.571  1.00  0.00    -0.436 A  
HETATM    5  C   UNL     1     -11.505  16.056  71.556  1.00  0.00    -0.459 A  
HETATM    6  C   UNL     1     -13.511  14.887  70.889  1.00  0.00    -0.356 A  
HETATM    7  C   UNL     1     -12.055  16.281  72.819  1.00  0.00    -0.637 A  
HETATM    8  C   UNL     1     -14.059  15.117  72.153  1.00  0.00    -0.654 A  
HETATM    9  C   UNL     1     -13.334  15.817  73.115  1.00  0.00    -0.685 A  
ENDBRANCH   3   4
ENDBRANCH   2   3
BRANCH   2  10
HETATM   10  C   UNL     1     -11.174  12.813  68.837  1.00  0.00    -0.283 C  
BRANCH  10  11
HETATM   11  C   UNL     1      -9.867  12.904  68.162  1.00  0.00    -0.227 C  
HETATM   12  C   UNL     1      -8.811  12.928  67.589  1.00  0.00    -0.187 C  
ENDBRANCH  10  11
ENDBRANCH   2  10
TORSDOF 4
ENDMDL
MODEL       18
REMARK 921   NORMALIZED FREE ENERGY PREDICTED BY IDOCK:   -3.86 KCAL/MOL
REMARK 922        TOTAL FREE ENERGY PREDICTED BY IDOCK:   -5.22 KCAL/MOL
REMARK 923 INTER-LIGAND FREE ENERGY PREDICTED BY IDOCK:   -4.78 KCAL/MOL
REMARK 924 INTRA-LIGAND FREE ENERGY PREDICTED BY IDOCK:   -0.44 KCAL/MOL
REMARK 927      BINDING AFFINITY PREDICTED BY RF-SCORE:    0.00 PKD
ROOT
HETATM    1  C   UNL     1     -12.139  13.357  66.537  1.00  0.00    -0.388 C  
HETATM    2  N   UNL     1     -11.900  12.375  67.602  1.00  0.00    -0.465 NA 
ENDROOT
BRANCH   2   3
HETATM    3  C   UNL     1     -11.219  13.006  68.755  1.00  0.00    -0.282 C  
BRANCH   3   4
HETATM    4  C   UNL     1     -12.088  13.219  69.978  1.00  0.00    -0.385 A  
HETATM    5  C   UNL     1     -12.393  12.141  70.824  1.00  0.00    -0.391 A  
HETATM    6  C   UNL     1     -12.619  14.482  70.278  1.00  0.00    -0.378 A  
HETATM    7  C   UNL     1     -13.186  12.326  71.958  1.00  0.00    -0.508 A  
HETATM    8  C   UNL     1     -13.411  14.666  71.415  1.00  0.00    -0.462 A  
HETATM    9  C   UNL     1     -13.690  13.591  72.256  1.00  0.00    -0.700 A  
ENDBRANCH   3   4
ENDBRANCH   2   3
BRANCH   2  10
HETATM   10  C   UNL     1     -11.052  11.269  67.114  1.00  0.00    -0.301 C  
BRANCH  10  11
HETATM   11  C   UNL     1     -10.780  10.234  68.128  1.00  0.00    -0.287 C  
HETATM   12  C   UNL     1     -10.613   9.377  68.953  1.00  0.00    -0.231 C  
ENDBRANCH  10  11
ENDBRANCH   2  10
TORSDOF 4
ENDMDL
MODEL       19
REMARK 921   NORMALIZED FREE ENERGY PREDICTED BY IDOCK:   -3.86 KCAL/MOL
REMARK 922        TOTAL FREE ENERGY PREDICTED BY IDOCK:   -5.21 KCAL/MOL
REMARK 923 INTER-LIGAND FREE ENERGY PREDICTED BY IDOCK:   -5.00 KCAL/MOL
REMARK 924 INTRA-LIGAND FREE ENERGY PREDICTED BY IDOCK:   -0.21 KCAL/MOL
REMARK 927      BINDING AFFINITY PREDICTED BY RF-SCORE:    0.00 PKD
ROOT
HETATM    1  C   UNL     1     -12.203  15.015  70.600  1.00  0.00    -0.326 C  
HETATM    2  N   UNL     1     -12.437  13.821  71.424  1.00  0.00    -0.345 NA 
ENDROOT
BRANCH   2   3
HETATM    3  C   UNL     1     -13.033  12.734  70.615  1.00  0.00     0.173 C  
BRANCH   3   4
HETATM    4  C   UNL     1     -12.549  11.339  70.956  1.00  0.00    -0.495 A  
HETATM    5  C   UNL     1     -11.359  10.848  70.395  1.00  0.00    -0.289 A  
HETATM    6  C   UNL     1     -13.282  10.508  71.816  1.00  0.00    -0.522 A  
HETATM    7  C   UNL     1     -10.900   9.567  70.707  1.00  0.00    -0.386 A  
HETATM    8  C   UNL     1     -12.818   9.227  72.128  1.00  0.00    -0.485 A  
HETATM    9  C   UNL     1     -11.626   8.760  71.579  1.00  0.00    -0.374 A  
ENDBRANCH   3   4
ENDBRANCH   2   3
BRANCH   2  10
HETATM   10  C   UNL     1     -13.359  14.126  72.536  1.00  0.00    -0.518 C  
BRANCH  10  11
HETATM   11  C   UNL     1     -12.852  15.149  73.468  1.00  0.00    -0.657 C  
HETATM   12  C   UNL     1     -12.439  15.945  74.268  1.00  0.00    -0.773 C  
ENDBRANCH  10  11
ENDBRANCH   2  10
TORSDOF 4
ENDMDL
MODEL       20
REMARK 921   NORMALIZED FREE ENERGY PREDICTED BY IDOCK:   -3.84 KCAL/MOL
REMARK 922        TOTAL FREE ENERGY PREDICTED BY IDOCK:   -5.19 KCAL/MOL
REMARK 923 INTER-LIGAND FREE ENERGY PREDICTED BY IDOCK:   -4.98 KCAL/MOL
REMARK 924 INTRA-LIGAND FREE ENERGY PREDICTED BY IDOCK:   -0.22 KCAL/MOL
REMARK 927      BINDING AFFINITY PREDICTED BY RF-SCORE:    0.00 PKD
ROOT
HETATM    1  C   UNL     1      -9.416  14.653  66.571  1.00  0.00    -0.297 C  
HETATM    2  N   UNL     1     -10.708  15.351  66.586  1.00  0.00    -0.308 NA 
ENDROOT
BRANCH   2   3
HETATM    3  C   UNL     1     -10.853  16.162  67.816  1.00  0.00    -0.318 C  
BRANCH   3   4
HETATM    4  C   UNL     1     -10.493  17.627  67.666  1.00  0.00    -0.372 A  
HETATM    5  C   UNL     1     -10.472  18.222  66.394  1.00  0.00    -0.387 A  
HETATM    6  C   UNL     1     -10.156  18.408  68.781  1.00  0.00    -0.393 A  
HETATM    7  C   UNL     1     -10.149  19.572  66.244  1.00  0.00    -0.560 A  
HETATM    8  C   UNL     1      -9.835  19.760  68.628  1.00  0.00    -0.491 A  
HETATM    9  C   UNL     1      -9.837  20.342  67.362  1.00  0.00    -0.586 A  
ENDBRANCH   3   4
ENDBRANCH   2   3
BRANCH   2  10
HETATM   10  C   UNL     1     -11.825  14.385  66.538  1.00  0.00    -0.390 C  
BRANCH  10  11
HETATM   11  C   UNL     1     -12.070  13.824  65.197  1.00  0.00    -0.416 C  
HETATM   12  C   UNL     1     -12.230  13.400  64.084  1.00  0.00    -0.457 C  
ENDBRANCH  10  11
ENDBRANCH   2  10
TORSDOF 4
ENDMDL
MODEL       21
REMARK 921   NORMALIZED FREE ENERGY PREDICTED BY IDOCK:   -3.84 KCAL/MOL
REMARK 922        TOTAL FREE ENERGY PREDICTED BY IDOCK:   -5.19 KCAL/MOL
REMARK 923 INTER-LIGAND FREE ENERGY PREDICTED BY IDOCK:   -4.82 KCAL/MOL
REMARK 924 INTRA-LIGAND FREE ENERGY PREDICTED BY IDOCK:   -0.37 KCAL/MOL
REMARK 927      BINDING AFFINITY PREDICTED BY RF-SCORE:    0.00 PKD
ROOT
HETATM    1  C   UNL     1     -10.049  10.616  69.433  1.00  0.00    -0.174 C  
HETATM    2  N   UNL     1     -11.063  11.662  69.251  1.00  0.00    -0.244 NA 
ENDROOT
BRANCH   2   3
HETATM    3  C   UNL     1     -12.060  11.623  70.345  1.00  0.00    -0.373 C  
BRANCH   3   4
HETATM    4  C   UNL     1     -12.433  12.973  70.924  1.00  0.00    -0.396 A  
HETATM    5  C   UNL     1     -13.382  13.061  71.955  1.00  0.00    -0.588 A  
HETATM    6  C   UNL     1     -11.860  14.156  70.432  1.00  0.00    -0.367 A  
HETATM    7  C   UNL     1     -13.728  14.298  72.501  1.00  0.00    -0.608 A  
HETATM    8  C   UNL     1     -12.207  15.392  70.983  1.00  0.00    -0.431 A  
HETATM    9  C   UNL     1     -13.136  15.463  72.019  1.00  0.00    -0.501 A  
ENDBRANCH   3   4
ENDBRANCH   2   3
BRANCH   2  10
HETATM   10  C   UNL     1     -11.777  11.481  67.971  1.00  0.00    -0.273 C  
BRANCH  10  11
HETATM   11  C   UNL     1     -11.853  12.704  67.151  1.00  0.00    -0.399 C  
HETATM   12  C   UNL     1     -11.964  13.684  66.465  1.00  0.00    -0.465 C  
ENDBRANCH  10  11
ENDBRANCH   2  10
TORSDOF 4
ENDMDL
MODEL       22
REMARK 921   NORMALIZED FREE ENERGY PREDICTED BY IDOCK:   -3.84 KCAL/MOL
REMARK 922        TOTAL FREE ENERGY PREDICTED BY IDOCK:   -5.19 KCAL/MOL
REMARK 923 INTER-LIGAND FREE ENERGY PREDICTED BY IDOCK:   -4.94 KCAL/MOL
REMARK 924 INTRA-LIGAND FREE ENERGY PREDICTED BY IDOCK:   -0.24 KCAL/MOL
REMARK 927      BINDING AFFINITY PREDICTED BY RF-SCORE:    0.00 PKD
ROOT
HETATM    1  C   UNL     1     -10.115  14.456  65.295  1.00  0.00    -0.356 C  
HETATM    2  N   UNL     1     -11.154  15.164  66.054  1.00  0.00    -0.334 NA 
ENDROOT
BRANCH   2   3
HETATM    3  C   UNL     1     -10.600  15.720  67.309  1.00  0.00    -0.313 C  
BRANCH   3   4
HETATM    4  C   UNL     1     -10.462  17.230  67.337  1.00  0.00    -0.338 A  
HETATM    5  C   UNL     1     -10.534  17.967  66.144  1.00  0.00    -0.336 A  
HETATM    6  C   UNL     1     -10.239  17.915  68.540  1.00  0.00    -0.393 A  
HETATM    7  C   UNL     1     -10.415  19.358  66.158  1.00  0.00    -0.600 A  
HETATM    8  C   UNL     1     -10.123  19.307  68.552  1.00  0.00    -0.513 A  
HETATM    9  C   UNL     1     -10.216  20.028  67.363  1.00  0.00    -0.546 A  
ENDBRANCH   3   4
ENDBRANCH   2   3
BRANCH   2  10
HETATM   10  C   UNL     1     -12.260  14.250  66.405  1.00  0.00    -0.401 C  
BRANCH  10  11
HETATM   11  C   UNL     1     -11.845  13.102  67.232  1.00  0.00    -0.420 C  
HETATM   12  C   UNL     1     -11.535  12.133  67.871  1.00  0.00    -0.392 C  
ENDBRANCH  10  11
ENDBRANCH   2  10
TORSDOF 4
ENDMDL
MODEL       23
REMARK 921   NORMALIZED FREE ENERGY PREDICTED BY IDOCK:   -3.82 KCAL/MOL
REMARK 922        TOTAL FREE ENERGY PREDICTED BY IDOCK:   -5.17 KCAL/MOL
REMARK 923 INTER-LIGAND FREE ENERGY PREDICTED BY IDOCK:   -4.72 KCAL/MOL
REMARK 924 INTRA-LIGAND FREE ENERGY PREDICTED BY IDOCK:   -0.45 KCAL/MOL
REMARK 927      BINDING AFFINITY PREDICTED BY RF-SCORE:    0.00 PKD
ROOT
HETATM    1  C   UNL     1     -12.727  15.794  73.333  1.00  0.00    -0.551 C  
HETATM    2  N   UNL     1     -12.685  14.785  72.266  1.00  0.00    -0.319 NA 
ENDROOT
BRANCH   2   3
HETATM    3  C   UNL     1     -12.988  15.398  70.953  1.00  0.00    -0.478 C  
BRANCH   3   4
HETATM    4  C   UNL     1     -11.968  15.123  69.865  1.00  0.00    -0.372 A  
HETATM    5  C   UNL     1     -10.830  15.936  69.743  1.00  0.00    -0.328 A  
HETATM    6  C   UNL     1     -12.149  14.074  68.952  1.00  0.00    -0.351 A  
HETATM    7  C   UNL     1      -9.881  15.688  68.749  1.00  0.00    -0.213 A  
HETATM    8  C   UNL     1     -11.196  13.827  67.960  1.00  0.00    -0.293 A  
HETATM    9  C   UNL     1     -10.062  14.630  67.862  1.00  0.00    -0.225 A  
ENDBRANCH   3   4
ENDBRANCH   2   3
BRANCH   2  10
HETATM   10  C   UNL     1     -13.675  13.718  72.516  1.00  0.00    -0.561 C  
BRANCH  10  11
HETATM   11  C   UNL     1     -13.256  12.390  72.031  1.00  0.00    -0.514 C  
HETATM   12  C   UNL     1     -12.878  11.334  71.603  1.00  0.00    -0.510 C  
ENDBRANCH  10  11
ENDBRANCH   2  10
TORSDOF 4
ENDMDL
MODEL       24
REMARK 921   NORMALIZED FREE ENERGY PREDICTED BY IDOCK:   -3.80 KCAL/MOL
REMARK 922        TOTAL FREE ENERGY PREDICTED BY IDOCK:   -5.15 KCAL/MOL
REMARK 923 INTER-LIGAND FREE ENERGY PREDICTED BY IDOCK:   -4.68 KCAL/MOL
REMARK 924 INTRA-LIGAND FREE ENERGY PREDICTED BY IDOCK:   -0.46 KCAL/MOL
REMARK 927      BINDING AFFINITY PREDICTED BY RF-SCORE:    0.00 PKD
ROOT
HETATM    1  C   UNL     1     -10.547  13.445  68.567  1.00  0.00    -0.253 C  
HETATM    2  N   UNL     1     -11.431  13.027  69.663  1.00  0.00    -0.224 NA 
ENDROOT
BRANCH   2   3
HETATM    3  C   UNL     1     -12.151  11.783  69.310  1.00  0.00    -0.229 C  
BRANCH   3   4
HETATM    4  C   UNL     1     -12.033  10.661  70.323  1.00  0.00    -0.425 A  
HETATM    5  C   UNL     1     -10.811   9.992  70.495  1.00  0.00    -0.380 A  
HETATM    6  C   UNL     1     -13.137  10.256  71.088  1.00  0.00    -0.481 A  
HETATM    7  C   UNL     1     -10.688   8.962  71.429  1.00  0.00    -0.382 A  
HETATM    8  C   UNL     1     -13.010   9.226  72.024  1.00  0.00    -0.504 A  
HETATM    9  C   UNL     1     -11.786   8.584  72.198  1.00  0.00    -0.448 A  
ENDBRANCH   3   4
ENDBRANCH   2   3
BRANCH   2  10
HETATM   10  C   UNL     1     -12.433  14.071  69.956  1.00  0.00    -0.281 C  
BRANCH  10  11
HETATM   11  C   UNL     1     -13.056  13.944  71.286  1.00  0.00    -0.385 C  
HETATM   12  C   UNL     1     -13.568  13.786  72.361  1.00  0.00    -0.690 C  
ENDBRANCH  10  11
ENDBRANCH   2  10
TORSDOF 4
ENDMDL
MODEL       25
REMARK 921   NORMALIZED FREE ENERGY PREDICTED BY IDOCK:   -3.79 KCAL/MOL
REMARK 922        TOTAL FREE ENERGY PREDICTED BY IDOCK:   -5.13 KCAL/MOL
REMARK 923 INTER-LIGAND FREE ENERGY PREDICTED BY IDOCK:   -4.67 KCAL/MOL
REMARK 924 INTRA-LIGAND FREE ENERGY PREDICTED BY IDOCK:   -0.46 KCAL/MOL
REMARK 927      BINDING AFFINITY PREDICTED BY RF-SCORE:    0.00 PKD
ROOT
HETATM    1  C   UNL     1     -11.245  15.585  68.171  1.00  0.00    -0.343 C  
HETATM    2  N   UNL     1     -11.423  14.131  68.073  1.00  0.00    -0.294 NA 
ENDROOT
BRANCH   2   3
HETATM    3  C   UNL     1     -12.376  13.791  66.992  1.00  0.00    -0.247 C  
BRANCH   3   4
HETATM    4  C   UNL     1     -11.798  12.963  65.861  1.00  0.00    -0.476 A  
HETATM    5  C   UNL     1     -12.512  12.810  64.662  1.00  0.00    -0.525 A  
HETATM    6  C   UNL     1     -10.559  12.319  65.995  1.00  0.00    -0.287 A  
HETATM    7  C   UNL     1     -11.988  12.055  63.612  1.00  0.00    -0.612 A  
HETATM    8  C   UNL     1     -10.035  11.567  64.941  1.00  0.00    -0.303 A  
HETATM    9  C   UNL     1     -10.746  11.439  63.749  1.00  0.00    -0.470 A  
ENDBRANCH   3   4
ENDBRANCH   2   3
BRANCH   2  10
HETATM   10  C   UNL     1     -11.948  13.581  69.339  1.00  0.00    -0.330 C  
BRANCH  10  11
HETATM   11  C   UNL     1     -11.800  12.120  69.461  1.00  0.00    -0.386 C  
HETATM   12  C   UNL     1     -11.734  10.923  69.549  1.00  0.00    -0.400 C  
ENDBRANCH  10  11
ENDBRANCH   2  10
TORSDOF 4
ENDMDL
MODEL       26
REMARK 921   NORMALIZED FREE ENERGY PREDICTED BY IDOCK:   -3.78 KCAL/MOL
REMARK 922        TOTAL FREE ENERGY PREDICTED BY IDOCK:   -5.12 KCAL/MOL
REMARK 923 INTER-LIGAND FREE ENERGY PREDICTED BY IDOCK:   -4.89 KCAL/MOL
REMARK 924 INTRA-LIGAND FREE ENERGY PREDICTED BY IDOCK:   -0.23 KCAL/MOL
REMARK 927      BINDING AFFINITY PREDICTED BY RF-SCORE:    0.00 PKD
ROOT
HETATM    1  C   UNL     1     -11.351  15.831  69.370  1.00  0.00    -0.348 C  
HETATM    2  N   UNL     1     -10.981  16.481  68.106  1.00  0.00    -0.351 NA 
ENDROOT
BRANCH   2   3
HETATM    3  C   UNL     1     -10.137  15.586  67.283  1.00  0.00    -0.250 C  
BRANCH   3   4
HETATM    4  C   UNL     1     -10.898  14.625  66.391  1.00  0.00    -0.315 A  
HETATM    5  C   UNL     1     -11.120  13.302  66.806  1.00  0.00    -0.313 A  
HETATM    6  C   UNL     1     -11.374  15.026  65.134  1.00  0.00    -0.372 A  
HETATM    7  C   UNL     1     -11.825  12.410  65.997  1.00  0.00    -0.459 A  
HETATM    8  C   UNL     1     -12.081  14.131  64.327  1.00  0.00    -0.471 A  
HETATM    9  C   UNL     1     -12.311  12.827  64.760  1.00  0.00    -0.540 A  
ENDBRANCH   3   4
ENDBRANCH   2   3
BRANCH   2  10
HETATM   10  C   UNL     1     -10.224  17.723  68.359  1.00  0.00    -0.384 C  
BRANCH  10  11
HETATM   11  C   UNL     1     -10.487  18.792  67.378  1.00  0.00    -0.490 C  
HETATM   12  C   UNL     1     -10.660  19.693  66.602  1.00  0.00    -0.599 C  
ENDBRANCH  10  11
ENDBRANCH   2  10
TORSDOF 4
ENDMDL
MODEL       27
REMARK 921   NORMALIZED FREE ENERGY PREDICTED BY IDOCK:   -3.78 KCAL/MOL
REMARK 922        TOTAL FREE ENERGY PREDICTED BY IDOCK:   -5.12 KCAL/MOL
REMARK 923 INTER-LIGAND FREE ENERGY PREDICTED BY IDOCK:   -5.09 KCAL/MOL
REMARK 924 INTRA-LIGAND FREE ENERGY PREDICTED BY IDOCK:   -0.03 KCAL/MOL
REMARK 927      BINDING AFFINITY PREDICTED BY RF-SCORE:    0.00 PKD
ROOT
HETATM    1  C   UNL     1     -12.726  13.273  71.284  1.00  0.00    -0.323 C  
HETATM    2  N   UNL     1     -13.253  14.546  70.774  1.00  0.00    -0.328 NA 
ENDROOT
BRANCH   2   3
HETATM    3  C   UNL     1     -12.150  15.447  70.373  1.00  0.00    -0.372 C  
BRANCH   3   4
HETATM    4  C   UNL     1     -11.704  15.315  68.930  1.00  0.00    -0.362 A  
HETATM    5  C   UNL     1     -10.972  16.346  68.320  1.00  0.00    -0.355 A  
HETATM    6  C   UNL     1     -12.029  14.180  68.173  1.00  0.00    -0.367 A  
HETATM    7  C   UNL     1     -10.550  16.232  66.994  1.00  0.00    -0.284 A  
HETATM    8  C   UNL     1     -11.603  14.068  66.846  1.00  0.00    -0.407 A  
HETATM    9  C   UNL     1     -10.860  15.090  66.260  1.00  0.00    -0.333 A  
ENDBRANCH   3   4
ENDBRANCH   2   3
BRANCH   2  10
HETATM   10  C   UNL     1     -14.055  15.231  71.808  1.00  0.00    -0.555 C  
BRANCH  10  11
HETATM   11  C   UNL     1     -13.304  15.539  73.039  1.00  0.00    -0.650 C  
HETATM   12  C   UNL     1     -12.659  15.821  74.012  1.00  0.00    -0.758 C  
ENDBRANCH  10  11
ENDBRANCH   2  10
TORSDOF 4
ENDMDL
MODEL       28
REMARK 921   NORMALIZED FREE ENERGY PREDICTED BY IDOCK:   -3.78 KCAL/MOL
REMARK 922        TOTAL FREE ENERGY PREDICTED BY IDOCK:   -5.11 KCAL/MOL
REMARK 923 INTER-LIGAND FREE ENERGY PREDICTED BY IDOCK:   -4.95 KCAL/MOL
REMARK 924 INTRA-LIGAND FREE ENERGY PREDICTED BY IDOCK:   -0.16 KCAL/MOL
REMARK 927      BINDING AFFINITY PREDICTED BY RF-SCORE:    0.00 PKD
ROOT
HETATM    1  C   UNL     1     -10.581   8.851  71.949  1.00  0.00    -0.349 C  
HETATM    2  N   UNL     1     -11.772   8.830  71.089  1.00  0.00    -0.284 NA 
ENDROOT
BRANCH   2   3
HETATM    3  C   UNL     1     -12.825   9.719  71.630  1.00  0.00    -0.421 C  
BRANCH   3   4
HETATM    4  C   UNL     1     -12.694  11.180  71.247  1.00  0.00    -0.531 A  
HETATM    5  C   UNL     1     -11.985  11.545  70.091  1.00  0.00    -0.452 A  
HETATM    6  C   UNL     1     -13.254  12.190  72.042  1.00  0.00    -0.496 A  
HETATM    7  C   UNL     1     -11.863  12.887  69.724  1.00  0.00    -0.380 A  
HETATM    8  C   UNL     1     -13.132  13.532  71.671  1.00  0.00    -0.459 A  
HETATM    9  C   UNL     1     -12.443  13.879  70.512  1.00  0.00    -0.422 A  
ENDBRANCH   3   4
ENDBRANCH   2   3
BRANCH   2  10
HETATM   10  C   UNL     1     -12.325   7.465  70.995  1.00  0.00    -0.268 C  
BRANCH  10  11
HETATM   11  C   UNL     1     -11.494   6.538  70.205  1.00  0.00    -0.474 C  
HETATM   12  C   UNL     1     -10.826   5.743  69.600  1.00  0.00    -0.418 C  
ENDBRANCH  10  11
ENDBRANCH   2  10
TORSDOF 4
ENDMDL
MODEL       29
REMARK 921   NORMALIZED FREE ENERGY PREDICTED BY IDOCK:   -3.76 KCAL/MOL
REMARK 922        TOTAL FREE ENERGY PREDICTED BY IDOCK:   -5.09 KCAL/MOL
REMARK 923 INTER-LIGAND FREE ENERGY PREDICTED BY IDOCK:   -4.85 KCAL/MOL
REMARK 924 INTRA-LIGAND FREE ENERGY PREDICTED BY IDOCK:   -0.24 KCAL/MOL
REMARK 927      BINDING AFFINITY PREDICTED BY RF-SCORE:    0.00 PKD
ROOT
HETATM    1  C   UNL     1      -9.921  13.734  66.008  1.00  0.00    -0.306 C  
HETATM    2  N   UNL     1     -11.179  14.476  66.170  1.00  0.00    -0.334 NA 
ENDROOT
BRANCH   2   3
HETATM    3  C   UNL     1     -12.042  13.829  67.184  1.00  0.00    -0.378 C  
BRANCH   3   4
HETATM    4  C   UNL     1     -11.910  14.382  68.589  1.00  0.00    -0.366 A  
HETATM    5  C   UNL     1     -11.384  15.668  68.794  1.00  0.00    -0.351 A  
HETATM    6  C   UNL     1     -12.285  13.621  69.706  1.00  0.00    -0.350 A  
HETATM    7  C   UNL     1     -11.263  16.191  70.083  1.00  0.00    -0.374 A  
HETATM    8  C   UNL     1     -12.166  14.148  70.994  1.00  0.00    -0.432 A  
HETATM    9  C   UNL     1     -11.661  15.433  71.182  1.00  0.00    -0.425 A  
ENDBRANCH   3   4
ENDBRANCH   2   3
BRANCH   2  10
HETATM   10  C   UNL     1     -11.924  14.527  64.896  1.00  0.00    -0.422 C  
BRANCH  10  11
HETATM   11  C   UNL     1     -12.155  13.205  64.287  1.00  0.00    -0.477 C  
HETATM   12  C   UNL     1     -12.399  12.139  63.789  1.00  0.00    -0.635 C  
ENDBRANCH  10  11
ENDBRANCH   2  10
TORSDOF 4
ENDMDL
MODEL       30
REMARK 921   NORMALIZED FREE ENERGY PREDICTED BY IDOCK:   -3.73 KCAL/MOL
REMARK 922        TOTAL FREE ENERGY PREDICTED BY IDOCK:   -5.05 KCAL/MOL
REMARK 923 INTER-LIGAND FREE ENERGY PREDICTED BY IDOCK:   -4.66 KCAL/MOL
REMARK 924 INTRA-LIGAND FREE ENERGY PREDICTED BY IDOCK:   -0.39 KCAL/MOL
REMARK 927      BINDING AFFINITY PREDICTED BY RF-SCORE:    0.00 PKD
ROOT
HETATM    1  C   UNL     1     -10.852  15.952  67.756  1.00  0.00    -0.324 C  
HETATM    2  N   UNL     1     -11.026  14.495  67.809  1.00  0.00    -0.268 NA 
ENDROOT
BRANCH   2   3
HETATM    3  C   UNL     1     -12.145  14.069  66.938  1.00  0.00    -0.430 C  
BRANCH   3   4
HETATM    4  C   UNL     1     -11.748  13.205  65.758  1.00  0.00    -0.415 A  
HETATM    5  C   UNL     1     -10.605  12.392  65.830  1.00  0.00    -0.289 A  
HETATM    6  C   UNL     1     -12.494  13.214  64.570  1.00  0.00    -0.406 A  
HETATM    7  C   UNL     1     -10.234  11.587  64.752  1.00  0.00    -0.331 A  
HETATM    8  C   UNL     1     -12.121  12.405  63.493  1.00  0.00    -0.651 A  
HETATM    9  C   UNL     1     -10.996  11.589  63.586  1.00  0.00    -0.482 A  
ENDBRANCH   3   4
ENDBRANCH   2   3
BRANCH   2  10
HETATM   10  C   UNL     1     -11.320  14.053  69.187  1.00  0.00    -0.281 C  
BRANCH  10  11
HETATM   11  C   UNL     1     -11.677  12.626  69.292  1.00  0.00    -0.379 C  
HETATM   12  C   UNL     1     -11.914  11.453  69.388  1.00  0.00    -0.407 C  
ENDBRANCH  10  11
ENDBRANCH   2  10
TORSDOF 4
ENDMDL
MODEL       31
REMARK 921   NORMALIZED FREE ENERGY PREDICTED BY IDOCK:   -3.72 KCAL/MOL
REMARK 922        TOTAL FREE ENERGY PREDICTED BY IDOCK:   -5.04 KCAL/MOL
REMARK 923 INTER-LIGAND FREE ENERGY PREDICTED BY IDOCK:   -4.59 KCAL/MOL
REMARK 924 INTRA-LIGAND FREE ENERGY PREDICTED BY IDOCK:   -0.45 KCAL/MOL
REMARK 927      BINDING AFFINITY PREDICTED BY RF-SCORE:    0.00 PKD
ROOT
HETATM    1  C   UNL     1     -10.388   6.956  73.616  1.00  0.00    -0.365 C  
HETATM    2  N   UNL     1     -10.807   7.181  72.226  1.00  0.00    -0.223 NA 
ENDROOT
BRANCH   2   3
HETATM    3  C   UNL     1     -12.143   7.815  72.178  1.00  0.00    -0.304 C  
BRANCH   3   4
HETATM    4  C   UNL     1     -12.165   9.229  71.631  1.00  0.00    -0.445 A  
HETATM    5  C   UNL     1     -11.198   9.640  70.700  1.00  0.00    -0.385 A  
HETATM    6  C   UNL     1     -13.129  10.155  72.056  1.00  0.00    -0.538 A  
HETATM    7  C   UNL     1     -11.211  10.938  70.184  1.00  0.00    -0.317 A  
HETATM    8  C   UNL     1     -13.142  11.452  71.536  1.00  0.00    -0.438 A  
HETATM    9  C   UNL     1     -12.188  11.841  70.598  1.00  0.00    -0.443 A  
ENDBRANCH   3   4
ENDBRANCH   2   3
BRANCH   2  10
HETATM   10  C   UNL     1     -10.876   5.904  71.487  1.00  0.00    -0.266 C  
BRANCH  10  11
HETATM   11  C   UNL     1     -10.976   6.066  70.025  1.00  0.00    -0.450 C  
HETATM   12  C   UNL     1     -11.110   6.216  68.841  1.00  0.00    -0.417 C  
ENDBRANCH  10  11
ENDBRANCH   2  10
TORSDOF 4
ENDMDL
MODEL       32
REMARK 921   NORMALIZED FREE ENERGY PREDICTED BY IDOCK:   -3.72 KCAL/MOL
REMARK 922        TOTAL FREE ENERGY PREDICTED BY IDOCK:   -5.04 KCAL/MOL
REMARK 923 INTER-LIGAND FREE ENERGY PREDICTED BY IDOCK:   -4.60 KCAL/MOL
REMARK 924 INTRA-LIGAND FREE ENERGY PREDICTED BY IDOCK:   -0.44 KCAL/MOL
REMARK 927      BINDING AFFINITY PREDICTED BY RF-SCORE:    0.00 PKD
ROOT
HETATM    1  C   UNL     1     -12.180  14.338  69.300  1.00  0.00    -0.252 C  
HETATM    2  N   UNL     1     -11.799  14.077  67.906  1.00  0.00    -0.363 NA 
ENDROOT
BRANCH   2   3
HETATM    3  C   UNL     1     -11.757  12.621  67.638  1.00  0.00    -0.361 C  
BRANCH   3   4
HETATM    4  C   UNL     1     -11.599  12.240  66.180  1.00  0.00    -0.450 A  
HETATM    5  C   UNL     1     -12.506  12.722  65.222  1.00  0.00    -0.528 A  
HETATM    6  C   UNL     1     -10.566  11.388  65.761  1.00  0.00    -0.315 A  
HETATM    7  C   UNL     1     -12.366  12.383  63.875  1.00  0.00    -0.602 A  
HETATM    8  C   UNL     1     -10.427  11.053  64.412  1.00  0.00    -0.422 A  
HETATM    9  C   UNL     1     -11.323  11.554  63.470  1.00  0.00    -0.375 A  
ENDBRANCH   3   4
ENDBRANCH   2   3
BRANCH   2  10
HETATM   10  C   UNL     1     -10.464  14.637  67.615  1.00  0.00    -0.243 C  
BRANCH  10  11
HETATM   11  C   UNL     1     -10.437  15.538  66.449  1.00  0.00    -0.310 C  
HETATM   12  C   UNL     1     -10.461  16.298  65.518  1.00  0.00    -0.383 C  
ENDBRANCH  10  11
ENDBRANCH   2  10
TORSDOF 4
ENDMDL
MODEL       33
REMARK 921   NORMALIZED FREE ENERGY PREDICTED BY IDOCK:   -3.72 KCAL/MOL
REMARK 922        TOTAL FREE ENERGY PREDICTED BY IDOCK:   -5.04 KCAL/MOL
REMARK 923 INTER-LIGAND FREE ENERGY PREDICTED BY IDOCK:   -4.59 KCAL/MOL
REMARK 924 INTRA-LIGAND FREE ENERGY PREDICTED BY IDOCK:   -0.46 KCAL/MOL
REMARK 927      BINDING AFFINITY PREDICTED BY RF-SCORE:    0.00 PKD
ROOT
HETATM    1  C   UNL     1     -11.906  12.517  67.576  1.00  0.00    -0.323 C  
HETATM    2  N   UNL     1     -11.575  11.175  68.072  1.00  0.00    -0.509 NA 
ENDROOT
BRANCH   2   3
HETATM    3  C   UNL     1     -10.940  11.251  69.407  1.00  0.00    -0.228 C  
BRANCH   3   4
HETATM    4  C   UNL     1     -11.538  10.337  70.458  1.00  0.00    -0.424 A  
HETATM    5  C   UNL     1     -12.885  10.476  70.830  1.00  0.00    -0.485 A  
HETATM    6  C   UNL     1     -10.762   9.355  71.091  1.00  0.00    -0.417 A  
HETATM    7  C   UNL     1     -13.449   9.635  71.791  1.00  0.00    -0.477 A  
HETATM    8  C   UNL     1     -11.330   8.513  72.051  1.00  0.00    -0.425 A  
HETATM    9  C   UNL     1     -12.673   8.650  72.397  1.00  0.00    -0.423 A  
ENDBRANCH   3   4
ENDBRANCH   2   3
BRANCH   2  10
HETATM   10  C   UNL     1     -10.639  10.494  67.156  1.00  0.00    -0.264 C  
BRANCH  10  11
HETATM   11  C   UNL     1     -10.540   9.039  67.376  1.00  0.00    -0.309 C  
HETATM   12  C   UNL     1     -10.447   7.864  67.608  1.00  0.00    -0.303 C  
ENDBRANCH  10  11
ENDBRANCH   2  10
TORSDOF 4
ENDMDL
MODEL       34
REMARK 921   NORMALIZED FREE ENERGY PREDICTED BY IDOCK:   -3.72 KCAL/MOL
REMARK 922        TOTAL FREE ENERGY PREDICTED BY IDOCK:   -5.04 KCAL/MOL
REMARK 923 INTER-LIGAND FREE ENERGY PREDICTED BY IDOCK:   -4.91 KCAL/MOL
REMARK 924 INTRA-LIGAND FREE ENERGY PREDICTED BY IDOCK:   -0.12 KCAL/MOL
REMARK 927      BINDING AFFINITY PREDICTED BY RF-SCORE:    0.00 PKD
ROOT
HETATM    1  C   UNL     1     -11.730  11.880  69.592  1.00  0.00    -0.343 C  
HETATM    2  N   UNL     1     -12.035  13.210  69.049  1.00  0.00    -0.308 NA 
ENDROOT
BRANCH   2   3
HETATM    3  C   UNL     1     -11.014  13.619  68.058  1.00  0.00    -0.250 C  
BRANCH   3   4
HETATM    4  C   UNL     1     -11.457  13.543  66.610  1.00  0.00    -0.366 A  
HETATM    5  C   UNL     1     -11.577  14.715  65.846  1.00  0.00    -0.327 A  
HETATM    6  C   UNL     1     -11.774  12.314  66.013  1.00  0.00    -0.451 A  
HETATM    7  C   UNL     1     -11.976  14.657  64.510  1.00  0.00    -0.473 A  
HETATM    8  C   UNL     1     -12.172  12.259  64.674  1.00  0.00    -0.454 A  
HETATM    9  C   UNL     1     -12.267  13.428  63.923  1.00  0.00    -0.478 A  
ENDBRANCH   3   4
ENDBRANCH   2   3
BRANCH   2  10
HETATM   10  C   UNL     1     -12.063  14.221  70.125  1.00  0.00    -0.339 C  
BRANCH  10  11
HETATM   11  C   UNL     1     -12.872  13.828  71.292  1.00  0.00    -0.434 C  
HETATM   12  C   UNL     1     -13.550  13.560  72.247  1.00  0.00    -0.690 C  
ENDBRANCH  10  11
ENDBRANCH   2  10
TORSDOF 4
ENDMDL
MODEL       35
REMARK 921   NORMALIZED FREE ENERGY PREDICTED BY IDOCK:   -3.72 KCAL/MOL
REMARK 922        TOTAL FREE ENERGY PREDICTED BY IDOCK:   -5.04 KCAL/MOL
REMARK 923 INTER-LIGAND FREE ENERGY PREDICTED BY IDOCK:   -4.75 KCAL/MOL
REMARK 924 INTRA-LIGAND FREE ENERGY PREDICTED BY IDOCK:   -0.29 KCAL/MOL
REMARK 927      BINDING AFFINITY PREDICTED BY RF-SCORE:    0.00 PKD
ROOT
HETATM    1  C   UNL     1      -9.802  15.795  69.707  1.00  0.00    -0.218 C  
HETATM    2  N   UNL     1     -11.103  15.203  70.047  1.00  0.00    -0.261 NA 
ENDROOT
BRANCH   2   3
HETATM    3  C   UNL     1     -12.008  15.220  68.876  1.00  0.00    -0.264 C  
BRANCH   3   4
HETATM    4  C   UNL     1     -11.853  14.050  67.925  1.00  0.00    -0.411 A  
HETATM    5  C   UNL     1     -12.041  14.231  66.546  1.00  0.00    -0.454 A  
HETATM    6  C   UNL     1     -11.542  12.767  68.400  1.00  0.00    -0.365 A  
HETATM    7  C   UNL     1     -11.894  13.162  65.660  1.00  0.00    -0.430 A  
HETATM    8  C   UNL     1     -11.393  11.700  67.511  1.00  0.00    -0.364 A  
HETATM    9  C   UNL     1     -11.564  11.898  66.143  1.00  0.00    -0.299 A  
ENDBRANCH   3   4
ENDBRANCH   2   3
BRANCH   2  10
HETATM   10  C   UNL     1     -11.750  15.955  71.140  1.00  0.00    -0.442 C  
BRANCH  10  11
HETATM   11  C   UNL     1     -13.132  15.526  71.423  1.00  0.00    -0.580 C  
HETATM   12  C   UNL     1     -14.246  15.127  71.630  1.00  0.00    -0.664 C  
ENDBRANCH  10  11
ENDBRANCH   2  10
TORSDOF 4
ENDMDL
MODEL       36
REMARK 921   NORMALIZED FREE ENERGY PREDICTED BY IDOCK:   -3.72 KCAL/MOL
REMARK 922        TOTAL FREE ENERGY PREDICTED BY IDOCK:   -5.03 KCAL/MOL
REMARK 923 INTER-LIGAND FREE ENERGY PREDICTED BY IDOCK:   -4.94 KCAL/MOL
REMARK 924 INTRA-LIGAND FREE ENERGY PREDICTED BY IDOCK:   -0.09 KCAL/MOL
REMARK 927      BINDING AFFINITY PREDICTED BY RF-SCORE:    0.00 PKD
ROOT
HETATM    1  C   UNL     1     -11.222  10.031  68.440  1.00  0.00    -0.127 C  
HETATM    2  N   UNL     1     -11.798  11.381  68.373  1.00  0.00    -0.536 NA 
ENDROOT
BRANCH   2   3
HETATM    3  C   UNL     1     -10.921  12.286  67.596  1.00  0.00    -0.244 C  
BRANCH   3   4
HETATM    4  C   UNL     1     -11.333  12.497  66.152  1.00  0.00    -0.388 A  
HETATM    5  C   UNL     1     -10.909  11.598  65.160  1.00  0.00    -0.346 A  
HETATM    6  C   UNL     1     -12.120  13.595  65.776  1.00  0.00    -0.463 A  
HETATM    7  C   UNL     1     -11.287  11.778  63.828  1.00  0.00    -0.524 A  
HETATM    8  C   UNL     1     -12.499  13.770  64.442  1.00  0.00    -0.317 A  
HETATM    9  C   UNL     1     -12.087  12.861  63.471  1.00  0.00    -0.633 A  
ENDBRANCH   3   4
ENDBRANCH   2   3
BRANCH   2  10
HETATM   10  C   UNL     1     -11.961  11.948  69.727  1.00  0.00    -0.307 C  
BRANCH  10  11
HETATM   11  C   UNL     1     -12.427  10.972  70.730  1.00  0.00    -0.491 C  
HETATM   12  C   UNL     1     -12.808  10.219  71.584  1.00  0.00    -0.568 C  
ENDBRANCH  10  11
ENDBRANCH   2  10
TORSDOF 4
ENDMDL
MODEL       37
REMARK 921   NORMALIZED FREE ENERGY PREDICTED BY IDOCK:   -3.70 KCAL/MOL
REMARK 922        TOTAL FREE ENERGY PREDICTED BY IDOCK:   -5.01 KCAL/MOL
REMARK 923 INTER-LIGAND FREE ENERGY PREDICTED BY IDOCK:   -4.79 KCAL/MOL
REMARK 924 INTRA-LIGAND FREE ENERGY PREDICTED BY IDOCK:   -0.22 KCAL/MOL
REMARK 927      BINDING AFFINITY PREDICTED BY RF-SCORE:    0.00 PKD
ROOT
HETATM    1  C   UNL     1     -10.164  14.514  68.557  1.00  0.00    -0.240 C  
HETATM    2  N   UNL     1     -11.061  13.376  68.315  1.00  0.00    -0.250 NA 
ENDROOT
BRANCH   2   3
HETATM    3  C   UNL     1     -12.010  13.680  67.220  1.00  0.00    -0.381 C  
BRANCH   3   4
HETATM    4  C   UNL     1     -11.711  12.994  65.902  1.00  0.00    -0.442 A  
HETATM    5  C   UNL     1     -10.879  11.864  65.867  1.00  0.00    -0.342 A  
HETATM    6  C   UNL     1     -12.238  13.482  64.696  1.00  0.00    -0.450 A  
HETATM    7  C   UNL     1     -10.603  11.220  64.660  1.00  0.00    -0.392 A  
HETATM    8  C   UNL     1     -11.961  12.833  63.490  1.00  0.00    -0.633 A  
HETATM    9  C   UNL     1     -11.149  11.701  63.472  1.00  0.00    -0.476 A  
ENDBRANCH   3   4
ENDBRANCH   2   3
BRANCH   2  10
HETATM   10  C   UNL     1     -11.843  13.059  69.527  1.00  0.00    -0.323 C  
BRANCH  10  11
HETATM   11  C   UNL     1     -12.461  14.237  70.163  1.00  0.00    -0.393 C  
HETATM   12  C   UNL     1     -12.933  15.188  70.726  1.00  0.00    -0.468 C  
ENDBRANCH  10  11
ENDBRANCH   2  10
TORSDOF 4
ENDMDL
MODEL       38
REMARK 921   NORMALIZED FREE ENERGY PREDICTED BY IDOCK:   -3.69 KCAL/MOL
REMARK 922        TOTAL FREE ENERGY PREDICTED BY IDOCK:   -5.00 KCAL/MOL
REMARK 923 INTER-LIGAND FREE ENERGY PREDICTED BY IDOCK:   -4.60 KCAL/MOL
REMARK 924 INTRA-LIGAND FREE ENERGY PREDICTED BY IDOCK:   -0.40 KCAL/MOL
REMARK 927      BINDING AFFINITY PREDICTED BY RF-SCORE:    0.00 PKD
ROOT
HETATM    1  C   UNL     1     -10.123   8.311  67.018  1.00  0.00    -0.283 C  
HETATM    2  N   UNL     1     -10.738   9.516  67.590  1.00  0.00    -0.278 NA 
ENDROOT
BRANCH   2   3
HETATM    3  C   UNL     1     -10.052  10.735  67.105  1.00  0.00    -0.204 C  
BRANCH   3   4
HETATM    4  C   UNL     1     -10.746  11.452  65.963  1.00  0.00    -0.318 A  
HETATM    5  C   UNL     1     -11.741  12.407  66.230  1.00  0.00    -0.457 A  
HETATM    6  C   UNL     1     -10.429  11.165  64.628  1.00  0.00    -0.400 A  
HETATM    7  C   UNL     1     -12.382  13.078  65.188  1.00  0.00    -0.536 A  
HETATM    8  C   UNL     1     -11.070  11.840  63.586  1.00  0.00    -0.518 A  
HETATM    9  C   UNL     1     -12.041  12.799  63.866  1.00  0.00    -0.562 A  
ENDBRANCH   3   4
ENDBRANCH   2   3
BRANCH   2  10
HETATM   10  C   UNL     1     -10.653   9.497  69.064  1.00  0.00    -0.219 C  
BRANCH  10  11
HETATM   11  C   UNL     1     -11.444  10.554  69.721  1.00  0.00    -0.365 C  
HETATM   12  C   UNL     1     -12.074  11.449  70.215  1.00  0.00    -0.459 C  
ENDBRANCH  10  11
ENDBRANCH   2  10
TORSDOF 4
ENDMDL
MODEL       39
REMARK 921   NORMALIZED FREE ENERGY PREDICTED BY IDOCK:   -3.67 KCAL/MOL
REMARK 922        TOTAL FREE ENERGY PREDICTED BY IDOCK:   -4.98 KCAL/MOL
REMARK 923 INTER-LIGAND FREE ENERGY PREDICTED BY IDOCK:   -4.60 KCAL/MOL
REMARK 924 INTRA-LIGAND FREE ENERGY PREDICTED BY IDOCK:   -0.38 KCAL/MOL
REMARK 927      BINDING AFFINITY PREDICTED BY RF-SCORE:    0.00 PKD
ROOT
HETATM    1  C   UNL     1     -12.065  13.645  69.510  1.00  0.00    -0.314 C  
HETATM    2  N   UNL     1     -11.662  13.617  68.098  1.00  0.00    -0.338 NA 
ENDROOT
BRANCH   2   3
HETATM    3  C   UNL     1     -11.492  12.223  67.629  1.00  0.00    -0.336 C  
BRANCH   3   4
HETATM    4  C   UNL     1     -11.404  12.057  66.125  1.00  0.00    -0.407 A  
HETATM    5  C   UNL     1     -10.383  11.277  65.559  1.00  0.00    -0.321 A  
HETATM    6  C   UNL     1     -12.319  12.691  65.271  1.00  0.00    -0.528 A  
HETATM    7  C   UNL     1     -10.296  11.111  64.176  1.00  0.00    -0.423 A  
HETATM    8  C   UNL     1     -12.231  12.521  63.887  1.00  0.00    -0.590 A  
HETATM    9  C   UNL     1     -11.224  11.729  63.341  1.00  0.00    -0.440 A  
ENDBRANCH   3   4
ENDBRANCH   2   3
BRANCH   2  10
HETATM   10  C   UNL     1     -10.382  14.327  67.905  1.00  0.00    -0.233 C  
BRANCH  10  11
HETATM   11  C   UNL     1     -10.363  15.214  66.728  1.00  0.00    -0.273 C  
HETATM   12  C   UNL     1     -10.292  15.936  65.770  1.00  0.00    -0.396 C  
ENDBRANCH  10  11
ENDBRANCH   2  10
TORSDOF 4
ENDMDL
MODEL       40
REMARK 921   NORMALIZED FREE ENERGY PREDICTED BY IDOCK:   -3.64 KCAL/MOL
REMARK 922        TOTAL FREE ENERGY PREDICTED BY IDOCK:   -4.95 KCAL/MOL
REMARK 923 INTER-LIGAND FREE ENERGY PREDICTED BY IDOCK:   -4.56 KCAL/MOL
REMARK 924 INTRA-LIGAND FREE ENERGY PREDICTED BY IDOCK:   -0.38 KCAL/MOL
REMARK 927      BINDING AFFINITY PREDICTED BY RF-SCORE:    0.00 PKD
ROOT
HETATM    1  C   UNL     1     -10.905  16.230  70.238  1.00  0.00    -0.254 C  
HETATM    2  N   UNL     1     -11.819  15.081  70.171  1.00  0.00    -0.292 NA 
ENDROOT
BRANCH   2   3
HETATM    3  C   UNL     1     -12.127  14.738  68.764  1.00  0.00    -0.190 C  
BRANCH   3   4
HETATM    4  C   UNL     1     -11.832  13.303  68.373  1.00  0.00    -0.395 A  
HETATM    5  C   UNL     1     -11.672  12.959  67.021  1.00  0.00    -0.447 A  
HETATM    6  C   UNL     1     -11.736  12.293  69.342  1.00  0.00    -0.392 A  
HETATM    7  C   UNL     1     -11.394  11.642  66.649  1.00  0.00    -0.338 A  
HETATM    8  C   UNL     1     -11.455  10.977  68.967  1.00  0.00    -0.368 A  
HETATM    9  C   UNL     1     -11.279  10.653  67.624  1.00  0.00    -0.361 A  
ENDBRANCH   3   4
ENDBRANCH   2   3
BRANCH   2  10
HETATM   10  C   UNL     1     -13.089  15.383  70.860  1.00  0.00    -0.468 C  
BRANCH  10  11
HETATM   11  C   UNL     1     -13.515  14.338  71.809  1.00  0.00    -0.464 C  
HETATM   12  C   UNL     1     -13.869  13.452  72.539  1.00  0.00    -0.595 C  
ENDBRANCH  10  11
ENDBRANCH   2  10
TORSDOF 4
ENDMDL
MODEL       41
REMARK 921   NORMALIZED FREE ENERGY PREDICTED BY IDOCK:   -3.64 KCAL/MOL
REMARK 922        TOTAL FREE ENERGY PREDICTED BY IDOCK:   -4.94 KCAL/MOL
REMARK 923 INTER-LIGAND FREE ENERGY PREDICTED BY IDOCK:   -4.73 KCAL/MOL
REMARK 924 INTRA-LIGAND FREE ENERGY PREDICTED BY IDOCK:   -0.21 KCAL/MOL
REMARK 927      BINDING AFFINITY PREDICTED BY RF-SCORE:    0.00 PKD
ROOT
HETATM    1  C   UNL     1     -11.020  16.062  68.066  1.00  0.00    -0.341 C  
HETATM    2  N   UNL     1     -10.668  15.950  66.645  1.00  0.00    -0.303 NA 
ENDROOT
BRANCH   2   3
HETATM    3  C   UNL     1      -9.963  14.676  66.379  1.00  0.00    -0.283 C  
BRANCH   3   4
HETATM    4  C   UNL     1     -10.635  13.768  65.367  1.00  0.00    -0.330 A  
HETATM    5  C   UNL     1     -11.654  14.266  64.540  1.00  0.00    -0.397 A  
HETATM    6  C   UNL     1     -10.273  12.418  65.252  1.00  0.00    -0.306 A  
HETATM    7  C   UNL     1     -12.276  13.442  63.600  1.00  0.00    -0.480 A  
HETATM    8  C   UNL     1     -10.895  11.596  64.309  1.00  0.00    -0.418 A  
HETATM    9  C   UNL     1     -11.891  12.109  63.481  1.00  0.00    -0.597 A  
ENDBRANCH   3   4
ENDBRANCH   2   3
BRANCH   2  10
HETATM   10  C   UNL     1      -9.783  17.059  66.236  1.00  0.00    -0.283 C  
BRANCH  10  11
HETATM   11  C   UNL     1     -10.286  18.393  66.613  1.00  0.00    -0.416 C  
HETATM   12  C   UNL     1     -10.678  19.499  66.870  1.00  0.00    -0.576 C  
ENDBRANCH  10  11
ENDBRANCH   2  10
TORSDOF 4
ENDMDL
MODEL       42
REMARK 921   NORMALIZED FREE ENERGY PREDICTED BY IDOCK:   -3.62 KCAL/MOL
REMARK 922        TOTAL FREE ENERGY PREDICTED BY IDOCK:   -4.92 KCAL/MOL
REMARK 923 INTER-LIGAND FREE ENERGY PREDICTED BY IDOCK:   -4.46 KCAL/MOL
REMARK 924 INTRA-LIGAND FREE ENERGY PREDICTED BY IDOCK:   -0.45 KCAL/MOL
REMARK 927      BINDING AFFINITY PREDICTED BY RF-SCORE:    0.00 PKD
ROOT
HETATM    1  C   UNL     1     -11.774   8.407  72.578  1.00  0.00    -0.359 C  
HETATM    2  N   UNL     1     -11.124   9.345  71.653  1.00  0.00    -0.373 NA 
ENDROOT
BRANCH   2   3
HETATM    3  C   UNL     1     -12.106   9.907  70.699  1.00  0.00    -0.257 C  
BRANCH   3   4
HETATM    4  C   UNL     1     -12.399  11.384  70.873  1.00  0.00    -0.483 A  
HETATM    5  C   UNL     1     -13.217  11.823  71.926  1.00  0.00    -0.468 A  
HETATM    6  C   UNL     1     -11.882  12.335  69.981  1.00  0.00    -0.372 A  
HETATM    7  C   UNL     1     -13.488  13.181  72.101  1.00  0.00    -0.653 A  
HETATM    8  C   UNL     1     -12.153  13.694  70.159  1.00  0.00    -0.431 A  
HETATM    9  C   UNL     1     -12.950  14.117  71.220  1.00  0.00    -0.426 A  
ENDBRANCH   3   4
ENDBRANCH   2   3
BRANCH   2  10
HETATM   10  C   UNL     1     -10.066   8.667  70.878  1.00  0.00    -0.211 C  
BRANCH  10  11
HETATM   11  C   UNL     1      -9.244   9.580  70.064  1.00  0.00    -0.264 C  
HETATM   12  C   UNL     1      -8.548  10.341  69.447  1.00  0.00    -0.167 C  
ENDBRANCH  10  11
ENDBRANCH   2  10
TORSDOF 4
ENDMDL
MODEL       43
REMARK 921   NORMALIZED FREE ENERGY PREDICTED BY IDOCK:   -3.62 KCAL/MOL
REMARK 922        TOTAL FREE ENERGY PREDICTED BY IDOCK:   -4.91 KCAL/MOL
REMARK 923 INTER-LIGAND FREE ENERGY PREDICTED BY IDOCK:   -4.68 KCAL/MOL
REMARK 924 INTRA-LIGAND FREE ENERGY PREDICTED BY IDOCK:   -0.24 KCAL/MOL
REMARK 927      BINDING AFFINITY PREDICTED BY RF-SCORE:    0.00 PKD
ROOT
HETATM    1  C   UNL     1     -12.647  12.006  63.424  1.00  0.00    -0.469 C  
HETATM    2  N   UNL     1     -11.698  12.239  64.521  1.00  0.00    -0.346 NA 
ENDROOT
BRANCH   2   3
HETATM    3  C   UNL     1     -12.055  13.464  65.272  1.00  0.00    -0.413 C  
BRANCH   3   4
HETATM    4  C   UNL     1     -11.916  13.359  66.778  1.00  0.00    -0.447 A  
HETATM    5  C   UNL     1     -11.942  14.517  67.571  1.00  0.00    -0.358 A  
HETATM    6  C   UNL     1     -11.738  12.117  67.404  1.00  0.00    -0.374 A  
HETATM    7  C   UNL     1     -11.822  14.432  68.959  1.00  0.00    -0.358 A  
HETATM    8  C   UNL     1     -11.620  12.035  68.794  1.00  0.00    -0.366 A  
HETATM    9  C   UNL     1     -11.667  13.190  69.570  1.00  0.00    -0.382 A  
ENDBRANCH   3   4
ENDBRANCH   2   3
BRANCH   2  10
HETATM   10  C   UNL     1     -10.326  12.402  64.000  1.00  0.00    -0.409 C  
BRANCH  10  11
HETATM   11  C   UNL     1      -9.828  11.230  63.257  1.00  0.00    -0.418 C  
HETATM   12  C   UNL     1      -9.370  10.288  62.668  1.00  0.00    -0.335 C  
ENDBRANCH  10  11
ENDBRANCH   2  10
TORSDOF 4
ENDMDL
MODEL       44
REMARK 921   NORMALIZED FREE ENERGY PREDICTED BY IDOCK:   -3.60 KCAL/MOL
REMARK 922        TOTAL FREE ENERGY PREDICTED BY IDOCK:   -4.89 KCAL/MOL
REMARK 923 INTER-LIGAND FREE ENERGY PREDICTED BY IDOCK:   -4.45 KCAL/MOL
REMARK 924 INTRA-LIGAND FREE ENERGY PREDICTED BY IDOCK:   -0.44 KCAL/MOL
REMARK 927      BINDING AFFINITY PREDICTED BY RF-SCORE:    0.00 PKD
ROOT
HETATM    1  C   UNL     1      -8.936  10.640  68.210  1.00  0.00    -0.143 C  
HETATM    2  N   UNL     1     -10.185  11.341  67.887  1.00  0.00    -0.177 NA 
ENDROOT
BRANCH   2   3
HETATM    3  C   UNL     1     -11.350  10.628  68.456  1.00  0.00    -0.284 C  
BRANCH   3   4
HETATM    4  C   UNL     1     -11.972  11.282  69.674  1.00  0.00    -0.423 A  
HETATM    5  C   UNL     1     -12.577  10.495  70.667  1.00  0.00    -0.457 A  
HETATM    6  C   UNL     1     -11.978  12.677  69.824  1.00  0.00    -0.365 A  
HETATM    7  C   UNL     1     -13.147  11.085  71.796  1.00  0.00    -0.554 A  
HETATM    8  C   UNL     1     -12.547  13.265  70.956  1.00  0.00    -0.408 A  
HETATM    9  C   UNL     1     -13.126  12.471  71.943  1.00  0.00    -0.473 A  
ENDBRANCH   3   4
ENDBRANCH   2   3
BRANCH   2  10
HETATM   10  C   UNL     1     -10.370  11.432  66.425  1.00  0.00    -0.242 C  
BRANCH  10  11
HETATM   11  C   UNL     1     -11.424  12.377  66.014  1.00  0.00    -0.431 C  
HETATM   12  C   UNL     1     -12.292  13.159  65.733  1.00  0.00    -0.496 C  
ENDBRANCH  10  11
ENDBRANCH   2  10
TORSDOF 4
ENDMDL
MODEL       45
REMARK 921   NORMALIZED FREE ENERGY PREDICTED BY IDOCK:   -3.59 KCAL/MOL
REMARK 922        TOTAL FREE ENERGY PREDICTED BY IDOCK:   -4.88 KCAL/MOL
REMARK 923 INTER-LIGAND FREE ENERGY PREDICTED BY IDOCK:   -4.42 KCAL/MOL
REMARK 924 INTRA-LIGAND FREE ENERGY PREDICTED BY IDOCK:   -0.46 KCAL/MOL
REMARK 927      BINDING AFFINITY PREDICTED BY RF-SCORE:    0.00 PKD
ROOT
HETATM    1  C   UNL     1     -12.090  11.207  69.363  1.00  0.00    -0.326 C  
HETATM    2  N   UNL     1     -11.853  12.446  68.611  1.00  0.00    -0.317 NA 
ENDROOT
BRANCH   2   3
HETATM    3  C   UNL     1     -10.711  12.286  67.682  1.00  0.00    -0.220 C  
BRANCH   3   4
HETATM    4  C   UNL     1     -11.080  12.233  66.213  1.00  0.00    -0.342 A  
HETATM    5  C   UNL     1     -12.232  12.888  65.750  1.00  0.00    -0.498 A  
HETATM    6  C   UNL     1     -10.297  11.517  65.295  1.00  0.00    -0.322 A  
HETATM    7  C   UNL     1     -12.577  12.853  64.398  1.00  0.00    -0.392 A  
HETATM    8  C   UNL     1     -10.644  11.485  63.942  1.00  0.00    -0.448 A  
HETATM    9  C   UNL     1     -11.779  12.156  63.493  1.00  0.00    -0.579 A  
ENDBRANCH   3   4
ENDBRANCH   2   3
BRANCH   2  10
HETATM   10  C   UNL     1     -11.549  13.564  69.527  1.00  0.00    -0.294 C  
BRANCH  10  11
HETATM   11  C   UNL     1     -11.430  14.870  68.854  1.00  0.00    -0.320 C  
HETATM   12  C   UNL     1     -11.380  15.951  68.332  1.00  0.00    -0.361 C  
ENDBRANCH  10  11
ENDBRANCH   2  10
TORSDOF 4
ENDMDL
MODEL       46
REMARK 921   NORMALIZED FREE ENERGY PREDICTED BY IDOCK:   -3.58 KCAL/MOL
REMARK 922        TOTAL FREE ENERGY PREDICTED BY IDOCK:   -4.87 KCAL/MOL
REMARK 923 INTER-LIGAND FREE ENERGY PREDICTED BY IDOCK:   -4.43 KCAL/MOL
REMARK 924 INTRA-LIGAND FREE ENERGY PREDICTED BY IDOCK:   -0.45 KCAL/MOL
REMARK 927      BINDING AFFINITY PREDICTED BY RF-SCORE:    0.00 PKD
ROOT
HETATM    1  C   UNL     1     -11.583  14.918  64.824  1.00  0.00    -0.410 C  
HETATM    2  N   UNL     1     -11.377  13.793  65.746  1.00  0.00    -0.301 NA 
ENDROOT
BRANCH   2   3
HETATM    3  C   UNL     1     -11.917  12.540  65.173  1.00  0.00    -0.434 C  
BRANCH   3   4
HETATM    4  C   UNL     1     -10.873  11.555  64.683  1.00  0.00    -0.372 A  
HETATM    5  C   UNL     1     -10.481  11.554  63.335  1.00  0.00    -0.466 A  
HETATM    6  C   UNL     1     -10.298  10.617  65.553  1.00  0.00    -0.297 A  
HETATM    7  C   UNL     1      -9.517  10.657  62.873  1.00  0.00    -0.367 A  
HETATM    8  C   UNL     1      -9.330   9.722  65.089  1.00  0.00    -0.322 A  
HETATM    9  C   UNL     1      -8.937   9.745  63.753  1.00  0.00    -0.272 A  
ENDBRANCH   3   4
ENDBRANCH   2   3
BRANCH   2  10
HETATM   10  C   UNL     1     -12.056  14.041  67.033  1.00  0.00    -0.420 C  
BRANCH  10  11
HETATM   11  C   UNL     1     -11.808  13.002  68.049  1.00  0.00    -0.391 C  
HETATM   12  C   UNL     1     -11.650  12.173  68.904  1.00  0.00    -0.377 C  
ENDBRANCH  10  11
ENDBRANCH   2  10
TORSDOF 4
ENDMDL
MODEL       47
REMARK 921   NORMALIZED FREE ENERGY PREDICTED BY IDOCK:   -3.58 KCAL/MOL
REMARK 922        TOTAL FREE ENERGY PREDICTED BY IDOCK:   -4.87 KCAL/MOL
REMARK 923 INTER-LIGAND FREE ENERGY PREDICTED BY IDOCK:   -4.64 KCAL/MOL
REMARK 924 INTRA-LIGAND FREE ENERGY PREDICTED BY IDOCK:   -0.23 KCAL/MOL
REMARK 927      BINDING AFFINITY PREDICTED BY RF-SCORE:    0.00 PKD
ROOT
HETATM    1  C   UNL     1     -10.251  13.597  68.209  1.00  0.00    -0.243 C  
HETATM    2  N   UNL     1     -11.125  12.417  68.180  1.00  0.00    -0.231 NA 
ENDROOT
BRANCH   2   3
HETATM    3  C   UNL     1     -10.474  11.266  68.847  1.00  0.00    -0.206 C  
BRANCH   3   4
HETATM    4  C   UNL     1     -11.240  10.686  70.020  1.00  0.00    -0.382 A  
HETATM    5  C   UNL     1     -12.308  11.399  70.588  1.00  0.00    -0.466 A  
HETATM    6  C   UNL     1     -10.889   9.445  70.572  1.00  0.00    -0.336 A  
HETATM    7  C   UNL     1     -13.025  10.872  71.663  1.00  0.00    -0.569 A  
HETATM    8  C   UNL     1     -11.610   8.919  71.647  1.00  0.00    -0.408 A  
HETATM    9  C   UNL     1     -12.679   9.629  72.188  1.00  0.00    -0.427 A  
ENDBRANCH   3   4
ENDBRANCH   2   3
BRANCH   2  10
HETATM   10  C   UNL     1     -11.432  12.029  66.789  1.00  0.00    -0.345 C  
BRANCH  10  11
HETATM   11  C   UNL     1     -12.101  13.086  66.008  1.00  0.00    -0.493 C  
HETATM   12  C   UNL     1     -12.654  13.910  65.332  1.00  0.00    -0.538 C  
ENDBRANCH  10  11
ENDBRANCH   2  10
TORSDOF 4
ENDMDL
MODEL       48
REMARK 921   NORMALIZED FREE ENERGY PREDICTED BY IDOCK:   -3.58 KCAL/MOL
REMARK 922        TOTAL FREE ENERGY PREDICTED BY IDOCK:   -4.87 KCAL/MOL
REMARK 923 INTER-LIGAND FREE ENERGY PREDICTED BY IDOCK:   -4.64 KCAL/MOL
REMARK 924 INTRA-LIGAND FREE ENERGY PREDICTED BY IDOCK:   -0.23 KCAL/MOL
REMARK 927      BINDING AFFINITY PREDICTED BY RF-SCORE:    0.00 PKD
ROOT
HETATM    1  C   UNL     1     -11.898  11.329  69.744  1.00  0.00    -0.364 C  
HETATM    2  N   UNL     1     -11.954  10.659  71.050  1.00  0.00    -0.350 NA 
ENDROOT
BRANCH   2   3
HETATM    3  C   UNL     1     -11.865   9.190  70.890  1.00  0.00    -0.270 C  
BRANCH   3   4
HETATM    4  C   UNL     1     -10.956   8.489  71.880  1.00  0.00    -0.394 A  
HETATM    5  C   UNL     1     -11.476   7.513  72.746  1.00  0.00    -0.352 A  
HETATM    6  C   UNL     1      -9.594   8.812  71.968  1.00  0.00    -0.356 A  
HETATM    7  C   UNL     1     -10.647   6.855  73.657  1.00  0.00    -0.371 A  
HETATM    8  C   UNL     1      -8.767   8.150  72.879  1.00  0.00    -0.290 A  
HETATM    9  C   UNL     1      -9.292   7.170  73.719  1.00  0.00    -0.272 A  
ENDBRANCH   3   4
ENDBRANCH   2   3
BRANCH   2  10
HETATM   10  C   UNL     1     -13.220  10.970  71.744  1.00  0.00    -0.400 C  
BRANCH  10  11
HETATM   11  C   UNL     1     -13.385  12.399  72.069  1.00  0.00    -0.511 C  
HETATM   12  C   UNL     1     -13.572  13.551  72.353  1.00  0.00    -0.709 C  
ENDBRANCH  10  11
ENDBRANCH   2  10
TORSDOF 4
ENDMDL
MODEL       49
REMARK 921   NORMALIZED FREE ENERGY PREDICTED BY IDOCK:   -3.55 KCAL/MOL
REMARK 922        TOTAL FREE ENERGY PREDICTED BY IDOCK:   -4.83 KCAL/MOL
REMARK 923 INTER-LIGAND FREE ENERGY PREDICTED BY IDOCK:   -4.60 KCAL/MOL
REMARK 924 INTRA-LIGAND FREE ENERGY PREDICTED BY IDOCK:   -0.23 KCAL/MOL
REMARK 927      BINDING AFFINITY PREDICTED BY RF-SCORE:    0.00 PKD
ROOT
HETATM    1  C   UNL     1      -9.332  15.599  68.775  1.00  0.00    -0.213 C  
HETATM    2  N   UNL     1     -10.448  16.549  68.674  1.00  0.00    -0.284 NA 
ENDROOT
BRANCH   2   3
HETATM    3  C   UNL     1     -11.746  15.847  68.793  1.00  0.00    -0.349 C  
BRANCH   3   4
HETATM    4  C   UNL     1     -12.137  15.453  70.203  1.00  0.00    -0.400 A  
HETATM    5  C   UNL     1     -12.761  14.218  70.443  1.00  0.00    -0.355 A  
HETATM    6  C   UNL     1     -11.906  16.313  71.287  1.00  0.00    -0.349 A  
HETATM    7  C   UNL     1     -13.120  13.841  71.738  1.00  0.00    -0.463 A  
HETATM    8  C   UNL     1     -12.263  15.931  72.583  1.00  0.00    -0.603 A  
HETATM    9  C   UNL     1     -12.864  14.695  72.809  1.00  0.00    -0.530 A  
ENDBRANCH   3   4
ENDBRANCH   2   3
BRANCH   2  10
HETATM   10  C   UNL     1     -10.421  17.251  67.375  1.00  0.00    -0.338 C  
BRANCH  10  11
HETATM   11  C   UNL     1     -10.423  16.348  66.209  1.00  0.00    -0.298 C  
HETATM   12  C   UNL     1     -10.400  15.574  65.291  1.00  0.00    -0.416 C  
ENDBRANCH  10  11
ENDBRANCH   2  10
TORSDOF 4
ENDMDL
MODEL       50
REMARK 921   NORMALIZED FREE ENERGY PREDICTED BY IDOCK:   -3.55 KCAL/MOL
REMARK 922        TOTAL FREE ENERGY PREDICTED BY IDOCK:   -4.83 KCAL/MOL
REMARK 923 INTER-LIGAND FREE ENERGY PREDICTED BY IDOCK:   -4.36 KCAL/MOL
REMARK 924 INTRA-LIGAND FREE ENERGY PREDICTED BY IDOCK:   -0.47 KCAL/MOL
REMARK 927      BINDING AFFINITY PREDICTED BY RF-SCORE:    0.00 PKD
ROOT
HETATM    1  C   UNL     1     -10.792  15.845  70.231  1.00  0.00    -0.340 C  
HETATM    2  N   UNL     1     -11.275  14.651  69.527  1.00  0.00    -0.260 NA 
ENDROOT
BRANCH   2   3
HETATM    3  C   UNL     1     -11.744  14.998  68.166  1.00  0.00    -0.312 C  
BRANCH   3   4
HETATM    4  C   UNL     1     -11.515  13.930  67.115  1.00  0.00    -0.370 A  
HETATM    5  C   UNL     1     -12.433  13.764  66.066  1.00  0.00    -0.491 A  
HETATM    6  C   UNL     1     -10.402  13.078  67.179  1.00  0.00    -0.243 A  
HETATM    7  C   UNL     1     -12.228  12.789  65.088  1.00  0.00    -0.530 A  
HETATM    8  C   UNL     1     -10.199  12.104  66.197  1.00  0.00    -0.254 A  
HETATM    9  C   UNL     1     -11.108  11.964  65.151  1.00  0.00    -0.360 A  
ENDBRANCH   3   4
ENDBRANCH   2   3
BRANCH   2  10
HETATM   10  C   UNL     1     -12.400  14.032  70.257  1.00  0.00    -0.358 C  
BRANCH  10  11
HETATM   11  C   UNL     1     -12.276  12.572  70.417  1.00  0.00    -0.368 C  
HETATM   12  C   UNL     1     -12.173  11.377  70.492  1.00  0.00    -0.478 C  
ENDBRANCH  10  11
ENDBRANCH   2  10
TORSDOF 4
ENDMDL
MODEL       51
REMARK 921   NORMALIZED FREE ENERGY PREDICTED BY IDOCK:   -3.54 KCAL/MOL
REMARK 922        TOTAL FREE ENERGY PREDICTED BY IDOCK:   -4.82 KCAL/MOL
REMARK 923 INTER-LIGAND FREE ENERGY PREDICTED BY IDOCK:   -4.55 KCAL/MOL
REMARK 924 INTRA-LIGAND FREE ENERGY PREDICTED BY IDOCK:   -0.27 KCAL/MOL
REMARK 927      BINDING AFFINITY PREDICTED BY RF-SCORE:    0.00 PKD
ROOT
HETATM    1  C   UNL     1     -12.539  13.963  65.441  1.00  0.00    -0.507 C  
HETATM    2  N   UNL     1     -11.476  13.504  66.345  1.00  0.00    -0.320 NA 
ENDROOT
BRANCH   2   3
HETATM    3  C   UNL     1     -11.631  14.111  67.686  1.00  0.00    -0.365 C  
BRANCH   3   4
HETATM    4  C   UNL     1     -11.907  13.130  68.808  1.00  0.00    -0.361 A  
HETATM    5  C   UNL     1     -12.357  13.592  70.055  1.00  0.00    -0.342 A  
HETATM    6  C   UNL     1     -11.700  11.754  68.634  1.00  0.00    -0.389 A  
HETATM    7  C   UNL     1     -12.622  12.697  71.094  1.00  0.00    -0.354 A  
HETATM    8  C   UNL     1     -11.968  10.860  69.675  1.00  0.00    -0.414 A  
HETATM    9  C   UNL     1     -12.433  11.331  70.900  1.00  0.00    -0.493 A  
ENDBRANCH   3   4
ENDBRANCH   2   3
BRANCH   2  10
HETATM   10  C   UNL     1     -10.147  13.877  65.821  1.00  0.00    -0.320 C  
BRANCH  10  11
HETATM   11  C   UNL     1      -9.883  15.327  65.841  1.00  0.00    -0.385 C  
HETATM   12  C   UNL     1      -9.722  16.518  65.847  1.00  0.00    -0.303 C  
ENDBRANCH  10  11
ENDBRANCH   2  10
TORSDOF 4
ENDMDL
MODEL       52
REMARK 921   NORMALIZED FREE ENERGY PREDICTED BY IDOCK:   -3.54 KCAL/MOL
REMARK 922        TOTAL FREE ENERGY PREDICTED BY IDOCK:   -4.81 KCAL/MOL
REMARK 923 INTER-LIGAND FREE ENERGY PREDICTED BY IDOCK:   -4.55 KCAL/MOL
REMARK 924 INTRA-LIGAND FREE ENERGY PREDICTED BY IDOCK:   -0.26 KCAL/MOL
REMARK 927      BINDING AFFINITY PREDICTED BY RF-SCORE:    0.00 PKD
ROOT
HETATM    1  C   UNL     1      -9.896  14.016  68.388  1.00  0.00    -0.232 C  
HETATM    2  N   UNL     1     -11.177  14.481  67.839  1.00  0.00    -0.282 NA 
ENDROOT
BRANCH   2   3
HETATM    3  C   UNL     1     -11.016  14.920  66.434  1.00  0.00    -0.336 C  
BRANCH   3   4
HETATM    4  C   UNL     1     -11.304  13.858  65.392  1.00  0.00    -0.311 A  
HETATM    5  C   UNL     1     -12.595  13.318  65.272  1.00  0.00    -0.528 A  
HETATM    6  C   UNL     1     -10.293  13.380  64.546  1.00  0.00    -0.394 A  
HETATM    7  C   UNL     1     -12.874  12.344  64.311  1.00  0.00    -0.356 A  
HETATM    8  C   UNL     1     -10.575  12.407  63.583  1.00  0.00    -0.481 A  
HETATM    9  C   UNL     1     -11.865  11.894  63.463  1.00  0.00    -0.560 A  
ENDBRANCH   3   4
ENDBRANCH   2   3
BRANCH   2  10
HETATM   10  C   UNL     1     -11.698  15.620  68.621  1.00  0.00    -0.352 C  
BRANCH  10  11
HETATM   11  C   UNL     1     -10.888  16.846  68.501  1.00  0.00    -0.335 C  
HETATM   12  C   UNL     1     -10.207  17.835  68.453  1.00  0.00    -0.384 C  
ENDBRANCH  10  11
ENDBRANCH   2  10
TORSDOF 4
ENDMDL
MODEL       53
REMARK 921   NORMALIZED FREE ENERGY PREDICTED BY IDOCK:   -3.54 KCAL/MOL
REMARK 922        TOTAL FREE ENERGY PREDICTED BY IDOCK:   -4.81 KCAL/MOL
REMARK 923 INTER-LIGAND FREE ENERGY PREDICTED BY IDOCK:   -4.38 KCAL/MOL
REMARK 924 INTRA-LIGAND FREE ENERGY PREDICTED BY IDOCK:   -0.43 KCAL/MOL
REMARK 927      BINDING AFFINITY PREDICTED BY RF-SCORE:    0.00 PKD
ROOT
HETATM    1  C   UNL     1     -12.786   9.869  71.059  1.00  0.00    -0.334 C  
HETATM    2  N   UNL     1     -12.885  11.317  70.833  1.00  0.00    -0.292 NA 
ENDROOT
BRANCH   2   3
HETATM    3  C   UNL     1     -11.605  11.857  70.322  1.00  0.00    -0.089 C  
BRANCH   3   4
HETATM    4  C   UNL     1     -11.640  12.347  68.888  1.00  0.00    -0.364 A  
HETATM    5  C   UNL     1     -12.024  13.666  68.602  1.00  0.00    -0.395 A  
HETATM    6  C   UNL     1     -11.314  11.493  67.823  1.00  0.00    -0.364 A  
HETATM    7  C   UNL     1     -12.053  14.131  67.285  1.00  0.00    -0.407 A  
HETATM    8  C   UNL     1     -11.342  11.961  66.507  1.00  0.00    -0.403 A  
HETATM    9  C   UNL     1     -11.706  13.279  66.239  1.00  0.00    -0.412 A  
ENDBRANCH   3   4
ENDBRANCH   2   3
BRANCH   2  10
HETATM   10  C   UNL     1     -13.213  12.021  72.089  1.00  0.00    -0.295 C  
BRANCH  10  11
HETATM   11  C   UNL     1     -13.489  13.458  71.913  1.00  0.00    -0.526 C  
HETATM   12  C   UNL     1     -13.738  14.618  71.721  1.00  0.00    -0.502 C  
ENDBRANCH  10  11
ENDBRANCH   2  10
TORSDOF 4
ENDMDL
MODEL       54
REMARK 921   NORMALIZED FREE ENERGY PREDICTED BY IDOCK:   -3.51 KCAL/MOL
REMARK 922        TOTAL FREE ENERGY PREDICTED BY IDOCK:   -4.79 KCAL/MOL
REMARK 923 INTER-LIGAND FREE ENERGY PREDICTED BY IDOCK:   -4.42 KCAL/MOL
REMARK 924 INTRA-LIGAND FREE ENERGY PREDICTED BY IDOCK:   -0.36 KCAL/MOL
REMARK 927      BINDING AFFINITY PREDICTED BY RF-SCORE:    0.00 PKD
ROOT
HETATM    1  C   UNL     1     -12.780   9.742  71.711  1.00  0.00    -0.426 C  
HETATM    2  N   UNL     1     -11.934  10.722  71.016  1.00  0.00    -0.328 NA 
ENDROOT
BRANCH   2   3
HETATM    3  C   UNL     1     -12.761  11.780  70.394  1.00  0.00     0.007 C  
BRANCH   3   4
HETATM    4  C   UNL     1     -12.702  13.130  71.082  1.00  0.00    -0.386 A  
HETATM    5  C   UNL     1     -12.009  14.196  70.486  1.00  0.00    -0.393 A  
HETATM    6  C   UNL     1     -13.315  13.336  72.326  1.00  0.00    -0.630 A  
HETATM    7  C   UNL     1     -11.953  15.445  71.107  1.00  0.00    -0.414 A  
HETATM    8  C   UNL     1     -13.260  14.589  72.944  1.00  0.00    -0.612 A  
HETATM    9  C   UNL     1     -12.585  15.643  72.333  1.00  0.00    -0.510 A  
ENDBRANCH   3   4
ENDBRANCH   2   3
BRANCH   2  10
HETATM   10  C   UNL     1     -11.144  10.070  69.953  1.00  0.00    -0.288 C  
BRANCH  10  11
HETATM   11  C   UNL     1     -10.452  11.016  69.059  1.00  0.00    -0.242 C  
HETATM   12  C   UNL     1      -9.924  11.774  68.290  1.00  0.00    -0.200 C  
ENDBRANCH  10  11
ENDBRANCH   2  10
TORSDOF 4
ENDMDL
MODEL       55
REMARK 921   NORMALIZED FREE ENERGY PREDICTED BY IDOCK:   -3.51 KCAL/MOL
REMARK 922        TOTAL FREE ENERGY PREDICTED BY IDOCK:   -4.78 KCAL/MOL
REMARK 923 INTER-LIGAND FREE ENERGY PREDICTED BY IDOCK:   -4.54 KCAL/MOL
REMARK 924 INTRA-LIGAND FREE ENERGY PREDICTED BY IDOCK:   -0.24 KCAL/MOL
REMARK 927      BINDING AFFINITY PREDICTED BY RF-SCORE:    0.00 PKD
ROOT
HETATM    1  C   UNL     1     -10.073  13.481  68.200  1.00  0.00    -0.250 C  
HETATM    2  N   UNL     1     -10.909  12.274  68.157  1.00  0.00    -0.216 NA 
ENDROOT
BRANCH   2   3
HETATM    3  C   UNL     1     -10.253  11.156  68.872  1.00  0.00    -0.194 C  
BRANCH   3   4
HETATM    4  C   UNL     1     -11.071  10.539  69.990  1.00  0.00    -0.376 A  
HETATM    5  C   UNL     1     -10.501   9.568  70.828  1.00  0.00    -0.384 A  
HETATM    6  C   UNL     1     -12.409  10.906  70.196  1.00  0.00    -0.399 A  
HETATM    7  C   UNL     1     -11.242   8.998  71.865  1.00  0.00    -0.438 A  
HETATM    8  C   UNL     1     -13.147  10.336  71.236  1.00  0.00    -0.492 A  
HETATM    9  C   UNL     1     -12.563   9.387  72.072  1.00  0.00    -0.462 A  
ENDBRANCH   3   4
ENDBRANCH   2   3
BRANCH   2  10
HETATM   10  C   UNL     1     -11.147  11.851  66.762  1.00  0.00    -0.308 C  
BRANCH  10  11
HETATM   11  C   UNL     1     -12.000  12.778  65.995  1.00  0.00    -0.491 C  
HETATM   12  C   UNL     1     -12.649  13.551  65.345  1.00  0.00    -0.531 C  
ENDBRANCH  10  11
ENDBRANCH   2  10
TORSDOF 4
ENDMDL
MODEL       56
REMARK 921   NORMALIZED FREE ENERGY PREDICTED BY IDOCK:   -3.51 KCAL/MOL
REMARK 922        TOTAL FREE ENERGY PREDICTED BY IDOCK:   -4.78 KCAL/MOL
REMARK 923 INTER-LIGAND FREE ENERGY PREDICTED BY IDOCK:   -4.52 KCAL/MOL
REMARK 924 INTRA-LIGAND FREE ENERGY PREDICTED BY IDOCK:   -0.26 KCAL/MOL
REMARK 927      BINDING AFFINITY PREDICTED BY RF-SCORE:    0.00 PKD
ROOT
HETATM    1  C   UNL     1     -11.535  14.904  67.386  1.00  0.00    -0.343 C  
HETATM    2  N   UNL     1     -10.307  15.230  66.649  1.00  0.00    -0.273 NA 
ENDROOT
BRANCH   2   3
HETATM    3  C   UNL     1     -10.486  16.464  65.851  1.00  0.00    -0.337 C  
BRANCH   3   4
HETATM    4  C   UNL     1      -9.877  17.714  66.455  1.00  0.00    -0.315 A  
HETATM    5  C   UNL     1     -10.392  18.979  66.128  1.00  0.00    -0.537 A  
HETATM    6  C   UNL     1      -8.781  17.637  67.327  1.00  0.00    -0.241 A  
HETATM    7  C   UNL     1      -9.844  20.137  66.683  1.00  0.00    -0.588 A  
HETATM    8  C   UNL     1      -8.236  18.798  67.883  1.00  0.00    -0.293 A  
HETATM    9  C   UNL     1      -8.770  20.045  67.566  1.00  0.00    -0.415 A  
ENDBRANCH   3   4
ENDBRANCH   2   3
BRANCH   2  10
HETATM   10  C   UNL     1      -9.944  14.135  65.727  1.00  0.00    -0.309 C  
BRANCH  10  11
HETATM   11  C   UNL     1     -11.017  13.768  64.785  1.00  0.00    -0.396 C  
HETATM   12  C   UNL     1     -11.895  13.523  64.002  1.00  0.00    -0.476 C  
ENDBRANCH  10  11
ENDBRANCH   2  10
TORSDOF 4
ENDMDL
MODEL       57
REMARK 921   NORMALIZED FREE ENERGY PREDICTED BY IDOCK:   -3.50 KCAL/MOL
REMARK 922        TOTAL FREE ENERGY PREDICTED BY IDOCK:   -4.77 KCAL/MOL
REMARK 923 INTER-LIGAND FREE ENERGY PREDICTED BY IDOCK:   -4.38 KCAL/MOL
REMARK 924 INTRA-LIGAND FREE ENERGY PREDICTED BY IDOCK:   -0.39 KCAL/MOL
REMARK 927      BINDING AFFINITY PREDICTED BY RF-SCORE:    0.00 PKD
ROOT
HETATM    1  C   UNL     1     -14.405   8.615  72.281  1.00  0.00    -0.396 C  
HETATM    2  N   UNL     1     -13.120   8.935  71.645  1.00  0.00    -0.342 NA 
ENDROOT
BRANCH   2   3
HETATM    3  C   UNL     1     -12.003   8.274  72.357  1.00  0.00    -0.384 C  
BRANCH   3   4
HETATM    4  C   UNL     1     -11.377   7.104  71.624  1.00  0.00    -0.282 A  
HETATM    5  C   UNL     1     -11.390   7.062  70.221  1.00  0.00    -0.339 A  
HETATM    6  C   UNL     1     -10.794   6.038  72.326  1.00  0.00    -0.289 A  
HETATM    7  C   UNL     1     -10.809   5.993  69.535  1.00  0.00    -0.439 A  
HETATM    8  C   UNL     1     -10.212   4.971  71.636  1.00  0.00    -0.275 A  
HETATM    9  C   UNL     1     -10.215   4.951  70.243  1.00  0.00    -0.299 A  
ENDBRANCH   3   4
ENDBRANCH   2   3
BRANCH   2  10
HETATM   10  C   UNL     1     -12.877  10.392  71.661  1.00  0.00    -0.474 C  
BRANCH  10  11
HETATM   11  C   UNL     1     -12.121  10.883  70.495  1.00  0.00    -0.464 C  
HETATM   12  C   UNL     1     -11.552  11.298  69.521  1.00  0.00    -0.398 C  
ENDBRANCH  10  11
ENDBRANCH   2  10
TORSDOF 4
ENDMDL
MODEL       58
REMARK 921   NORMALIZED FREE ENERGY PREDICTED BY IDOCK:   -3.50 KCAL/MOL
REMARK 922        TOTAL FREE ENERGY PREDICTED BY IDOCK:   -4.77 KCAL/MOL
REMARK 923 INTER-LIGAND FREE ENERGY PREDICTED BY IDOCK:   -4.32 KCAL/MOL
REMARK 924 INTRA-LIGAND FREE ENERGY PREDICTED BY IDOCK:   -0.45 KCAL/MOL
REMARK 927      BINDING AFFINITY PREDICTED BY RF-SCORE:    0.00 PKD
ROOT
HETATM    1  C   UNL     1     -10.927   6.337  68.304  1.00  0.00    -0.321 C  
HETATM    2  N   UNL     1     -11.072   6.417  69.763  1.00  0.00    -0.360 NA 
ENDROOT
BRANCH   2   3
HETATM    3  C   UNL     1     -10.398   7.624  70.292  1.00  0.00    -0.214 C  
BRANCH   3   4
HETATM    4  C   UNL     1     -11.328   8.729  70.754  1.00  0.00    -0.313 A  
HETATM    5  C   UNL     1     -11.324   9.972  70.102  1.00  0.00    -0.357 A  
HETATM    6  C   UNL     1     -12.188   8.543  71.846  1.00  0.00    -0.411 A  
HETATM    7  C   UNL     1     -12.180  10.995  70.514  1.00  0.00    -0.472 A  
HETATM    8  C   UNL     1     -13.046   9.568  72.254  1.00  0.00    -0.492 A  
HETATM    9  C   UNL     1     -13.046  10.790  71.586  1.00  0.00    -0.551 A  
ENDBRANCH   3   4
ENDBRANCH   2   3
BRANCH   2  10
HETATM   10  C   UNL     1     -10.473   5.233  70.413  1.00  0.00    -0.251 C  
BRANCH  10  11
HETATM   11  C   UNL     1     -10.742   5.148  71.860  1.00  0.00    -0.219 C  
HETATM   12  C   UNL     1     -10.985   5.128  73.036  1.00  0.00    -0.355 C  
ENDBRANCH  10  11
ENDBRANCH   2  10
TORSDOF 4
ENDMDL
MODEL       59
REMARK 921   NORMALIZED FREE ENERGY PREDICTED BY IDOCK:   -3.50 KCAL/MOL
REMARK 922        TOTAL FREE ENERGY PREDICTED BY IDOCK:   -4.77 KCAL/MOL
REMARK 923 INTER-LIGAND FREE ENERGY PREDICTED BY IDOCK:   -4.43 KCAL/MOL
REMARK 924 INTRA-LIGAND FREE ENERGY PREDICTED BY IDOCK:   -0.34 KCAL/MOL
REMARK 927      BINDING AFFINITY PREDICTED BY RF-SCORE:    0.00 PKD
ROOT
HETATM    1  C   UNL     1     -11.824  12.839  67.024  1.00  0.00    -0.361 C  
HETATM    2  N   UNL     1     -11.839  11.604  67.820  1.00  0.00    -0.611 NA 
ENDROOT
BRANCH   2   3
HETATM    3  C   UNL     1     -11.170  11.813  69.124  1.00  0.00    -0.264 C  
BRANCH   3   4
HETATM    4  C   UNL     1     -11.506  10.789  70.190  1.00  0.00    -0.415 A  
HETATM    5  C   UNL     1     -10.575   9.794  70.531  1.00  0.00    -0.376 A  
HETATM    6  C   UNL     1     -12.750  10.798  70.838  1.00  0.00    -0.478 A  
HETATM    7  C   UNL     1     -10.870   8.850  71.516  1.00  0.00    -0.396 A  
HETATM    8  C   UNL     1     -13.041   9.853  71.825  1.00  0.00    -0.553 A  
HETATM    9  C   UNL     1     -12.101   8.884  72.167  1.00  0.00    -0.430 A  
ENDBRANCH   3   4
ENDBRANCH   2   3
BRANCH   2  10
HETATM   10  C   UNL     1     -11.136  10.516  67.111  1.00  0.00    -0.160 C  
BRANCH  10  11
HETATM   11  C   UNL     1      -9.722  10.811  66.819  1.00  0.00    -0.221 C  
HETATM   12  C   UNL     1      -8.586  11.086  66.541  1.00  0.00    -0.165 C  
ENDBRANCH  10  11
ENDBRANCH   2  10
TORSDOF 4
ENDMDL
MODEL       60
REMARK 921   NORMALIZED FREE ENERGY PREDICTED BY IDOCK:   -3.49 KCAL/MOL
REMARK 922        TOTAL FREE ENERGY PREDICTED BY IDOCK:   -4.75 KCAL/MOL
REMARK 923 INTER-LIGAND FREE ENERGY PREDICTED BY IDOCK:   -4.50 KCAL/MOL
REMARK 924 INTRA-LIGAND FREE ENERGY PREDICTED BY IDOCK:   -0.25 KCAL/MOL
REMARK 927      BINDING AFFINITY PREDICTED BY RF-SCORE:    0.00 PKD
ROOT
HETATM    1  C   UNL     1     -11.723  12.429  67.497  1.00  0.00    -0.357 C  
HETATM    2  N   UNL     1     -11.591  13.675  66.730  1.00  0.00    -0.346 NA 
ENDROOT
BRANCH   2   3
HETATM    3  C   UNL     1     -11.682  14.852  67.623  1.00  0.00    -0.307 C  
BRANCH   3   4
HETATM    4  C   UNL     1     -10.578  15.877  67.451  1.00  0.00    -0.315 A  
HETATM    5  C   UNL     1      -9.631  15.729  66.425  1.00  0.00    -0.311 A  
HETATM    6  C   UNL     1     -10.466  16.974  68.318  1.00  0.00    -0.363 A  
HETATM    7  C   UNL     1      -8.614  16.669  66.252  1.00  0.00    -0.359 A  
HETATM    8  C   UNL     1      -9.449  17.915  68.142  1.00  0.00    -0.288 A  
HETATM    9  C   UNL     1      -8.528  17.766  67.107  1.00  0.00    -0.239 A  
ENDBRANCH   3   4
ENDBRANCH   2   3
BRANCH   2  10
HETATM   10  C   UNL     1     -12.659  13.781  65.717  1.00  0.00    -0.480 C  
BRANCH  10  11
HETATM   11  C   UNL     1     -12.433  12.947  64.522  1.00  0.00    -0.468 C  
HETATM   12  C   UNL     1     -12.209  12.303  63.533  1.00  0.00    -0.669 C  
ENDBRANCH  10  11
ENDBRANCH   2  10
TORSDOF 4
ENDMDL
MODEL       61
REMARK 921   NORMALIZED FREE ENERGY PREDICTED BY IDOCK:   -3.47 KCAL/MOL
REMARK 922        TOTAL FREE ENERGY PREDICTED BY IDOCK:   -4.73 KCAL/MOL
REMARK 923 INTER-LIGAND FREE ENERGY PREDICTED BY IDOCK:   -4.34 KCAL/MOL
REMARK 924 INTRA-LIGAND FREE ENERGY PREDICTED BY IDOCK:   -0.40 KCAL/MOL
REMARK 927      BINDING AFFINITY PREDICTED BY RF-SCORE:    0.00 PKD
ROOT
HETATM    1  C   UNL     1      -7.448  16.372  68.020  1.00  0.00    -0.144 C  
HETATM    2  N   UNL     1      -8.678  16.985  67.504  1.00  0.00    -0.208 NA 
ENDROOT
BRANCH   2   3
HETATM    3  C   UNL     1      -8.999  16.464  66.156  1.00  0.00    -0.332 C  
BRANCH   3   4
HETATM    4  C   UNL     1     -10.243  15.600  66.080  1.00  0.00    -0.354 A  
HETATM    5  C   UNL     1     -10.909  15.430  64.856  1.00  0.00    -0.445 A  
HETATM    6  C   UNL     1     -10.763  14.976  67.223  1.00  0.00    -0.298 A  
HETATM    7  C   UNL     1     -12.051  14.631  64.772  1.00  0.00    -0.428 A  
HETATM    8  C   UNL     1     -11.905  14.176  67.135  1.00  0.00    -0.454 A  
HETATM    9  C   UNL     1     -12.545  13.999  65.911  1.00  0.00    -0.484 A  
ENDBRANCH   3   4
ENDBRANCH   2   3
BRANCH   2  10
HETATM   10  C   UNL     1      -8.531  18.451  67.408  1.00  0.00    -0.253 C  
BRANCH  10  11
HETATM   11  C   UNL     1      -9.788  19.158  67.099  1.00  0.00    -0.411 C  
HETATM   12  C   UNL     1     -10.781  19.774  66.823  1.00  0.00    -0.526 C  
ENDBRANCH  10  11
ENDBRANCH   2  10
TORSDOF 4
ENDMDL
MODEL       62
REMARK 921   NORMALIZED FREE ENERGY PREDICTED BY IDOCK:   -3.47 KCAL/MOL
REMARK 922        TOTAL FREE ENERGY PREDICTED BY IDOCK:   -4.73 KCAL/MOL
REMARK 923 INTER-LIGAND FREE ENERGY PREDICTED BY IDOCK:   -4.47 KCAL/MOL
REMARK 924 INTRA-LIGAND FREE ENERGY PREDICTED BY IDOCK:   -0.26 KCAL/MOL
REMARK 927      BINDING AFFINITY PREDICTED BY RF-SCORE:    0.00 PKD
ROOT
HETATM    1  C   UNL     1     -12.265  14.697  64.512  1.00  0.00    -0.456 C  
HETATM    2  N   UNL     1     -12.228  13.694  65.584  1.00  0.00    -0.423 NA 
ENDROOT
BRANCH   2   3
HETATM    3  C   UNL     1     -10.990  13.827  66.385  1.00  0.00    -0.298 C  
BRANCH   3   4
HETATM    4  C   UNL     1     -11.141  14.606  67.677  1.00  0.00    -0.311 A  
HETATM    5  C   UNL     1     -11.876  14.066  68.744  1.00  0.00    -0.396 A  
HETATM    6  C   UNL     1     -10.573  15.879  67.826  1.00  0.00    -0.302 A  
HETATM    7  C   UNL     1     -12.016  14.770  69.942  1.00  0.00    -0.378 A  
HETATM    8  C   UNL     1     -10.712  16.581  69.026  1.00  0.00    -0.332 A  
HETATM    9  C   UNL     1     -11.428  16.025  70.084  1.00  0.00    -0.350 A  
ENDBRANCH   3   4
ENDBRANCH   2   3
BRANCH   2  10
HETATM   10  C   UNL     1     -12.269  12.328  65.024  1.00  0.00    -0.304 C  
BRANCH  10  11
HETATM   11  C   UNL     1     -11.144  12.019  64.123  1.00  0.00    -0.431 C  
HETATM   12  C   UNL     1     -10.262  11.775  63.344  1.00  0.00    -0.482 C  
ENDBRANCH  10  11
ENDBRANCH   2  10
TORSDOF 4
ENDMDL
MODEL       63
REMARK 921   NORMALIZED FREE ENERGY PREDICTED BY IDOCK:   -3.43 KCAL/MOL
REMARK 922        TOTAL FREE ENERGY PREDICTED BY IDOCK:   -4.69 KCAL/MOL
REMARK 923 INTER-LIGAND FREE ENERGY PREDICTED BY IDOCK:   -4.46 KCAL/MOL
REMARK 924 INTRA-LIGAND FREE ENERGY PREDICTED BY IDOCK:   -0.23 KCAL/MOL
REMARK 927      BINDING AFFINITY PREDICTED BY RF-SCORE:    0.00 PKD
ROOT
HETATM    1  C   UNL     1      -9.764   9.452  70.948  1.00  0.00    -0.250 C  
HETATM    2  N   UNL     1     -11.207   9.255  70.759  1.00  0.00    -0.268 NA 
ENDROOT
BRANCH   2   3
HETATM    3  C   UNL     1     -11.938  10.530  70.941  1.00  0.00    -0.377 C  
BRANCH   3   4
HETATM    4  C   UNL     1     -11.860  11.489  69.770  1.00  0.00    -0.429 A  
HETATM    5  C   UNL     1     -11.938  12.874  69.987  1.00  0.00    -0.380 A  
HETATM    6  C   UNL     1     -11.731  11.019  68.455  1.00  0.00    -0.348 A  
HETATM    7  C   UNL     1     -11.860  13.768  68.917  1.00  0.00    -0.396 A  
HETATM    8  C   UNL     1     -11.651  11.916  67.387  1.00  0.00    -0.367 A  
HETATM    9  C   UNL     1     -11.710  13.288  67.618  1.00  0.00    -0.408 A  
ENDBRANCH   3   4
ENDBRANCH   2   3
BRANCH   2  10
HETATM   10  C   UNL     1     -11.734   8.279  71.733  1.00  0.00    -0.302 C  
BRANCH  10  11
HETATM   11  C   UNL     1     -13.181   8.029  71.604  1.00  0.00    -0.358 C  
HETATM   12  C   UNL     1     -14.354   7.778  71.526  1.00  0.00    -0.574 C  
ENDBRANCH  10  11
ENDBRANCH   2  10
TORSDOF 4
ENDMDL
MODEL       64
REMARK 921   NORMALIZED FREE ENERGY PREDICTED BY IDOCK:   -3.42 KCAL/MOL
REMARK 922        TOTAL FREE ENERGY PREDICTED BY IDOCK:   -4.67 KCAL/MOL
REMARK 923 INTER-LIGAND FREE ENERGY PREDICTED BY IDOCK:   -4.24 KCAL/MOL
REMARK 924 INTRA-LIGAND FREE ENERGY PREDICTED BY IDOCK:   -0.43 KCAL/MOL
REMARK 927      BINDING AFFINITY PREDICTED BY RF-SCORE:    0.00 PKD
ROOT
HETATM    1  C   UNL     1     -10.225  13.920  67.357  1.00  0.00    -0.252 C  
HETATM    2  N   UNL     1      -9.686  15.285  67.297  1.00  0.00    -0.212 NA 
ENDROOT
BRANCH   2   3
HETATM    3  C   UNL     1     -10.768  16.266  67.058  1.00  0.00    -0.233 C  
BRANCH   3   4
HETATM    4  C   UNL     1     -10.368  17.719  67.230  1.00  0.00    -0.364 A  
HETATM    5  C   UNL     1     -10.007  18.206  68.496  1.00  0.00    -0.408 A  
HETATM    6  C   UNL     1     -10.372  18.605  66.143  1.00  0.00    -0.481 A  
HETATM    7  C   UNL     1      -9.631  19.539  68.666  1.00  0.00    -0.483 A  
HETATM    8  C   UNL     1      -9.993  19.939  66.315  1.00  0.00    -0.596 A  
HETATM    9  C   UNL     1      -9.618  20.403  67.574  1.00  0.00    -0.560 A  
ENDBRANCH   3   4
ENDBRANCH   2   3
BRANCH   2  10
HETATM   10  C   UNL     1      -8.700  15.410  66.205  1.00  0.00    -0.205 C  
BRANCH  10  11
HETATM   11  C   UNL     1      -7.475  16.136  66.587  1.00  0.00    -0.200 C  
HETATM   12  C   UNL     1      -6.460  16.724  66.846  1.00  0.00    -0.243 C  
ENDBRANCH  10  11
ENDBRANCH   2  10
TORSDOF 4
ENDMDL
MODEL       65
REMARK 921   NORMALIZED FREE ENERGY PREDICTED BY IDOCK:   -3.41 KCAL/MOL
REMARK 922        TOTAL FREE ENERGY PREDICTED BY IDOCK:   -4.66 KCAL/MOL
REMARK 923 INTER-LIGAND FREE ENERGY PREDICTED BY IDOCK:   -4.19 KCAL/MOL
REMARK 924 INTRA-LIGAND FREE ENERGY PREDICTED BY IDOCK:   -0.47 KCAL/MOL
REMARK 927      BINDING AFFINITY PREDICTED BY RF-SCORE:    0.00 PKD
ROOT
HETATM    1  C   UNL     1      -8.621   6.799  73.727  1.00  0.00    -0.134 C  
HETATM    2  N   UNL     1      -9.607   6.866  72.641  1.00  0.00    -0.145 NA 
ENDROOT
BRANCH   2   3
HETATM    3  C   UNL     1     -10.909   7.361  73.144  1.00  0.00    -0.386 C  
BRANCH   3   4
HETATM    4  C   UNL     1     -11.502   8.517  72.363  1.00  0.00    -0.419 A  
HETATM    5  C   UNL     1     -12.838   8.896  72.569  1.00  0.00    -0.401 A  
HETATM    6  C   UNL     1     -10.742   9.214  71.412  1.00  0.00    -0.414 A  
HETATM    7  C   UNL     1     -13.393   9.963  71.862  1.00  0.00    -0.524 A  
HETATM    8  C   UNL     1     -11.300  10.284  70.707  1.00  0.00    -0.421 A  
HETATM    9  C   UNL     1     -12.622  10.661  70.936  1.00  0.00    -0.503 A  
ENDBRANCH   3   4
ENDBRANCH   2   3
BRANCH   2  10
HETATM   10  C   UNL     1      -9.821   5.531  72.046  1.00  0.00    -0.166 C  
BRANCH  10  11
HETATM   11  C   UNL     1     -10.356   5.569  70.672  1.00  0.00    -0.332 C  
HETATM   12  C   UNL     1     -10.842   5.610  69.575  1.00  0.00    -0.345 C  
ENDBRANCH  10  11
ENDBRANCH   2  10
TORSDOF 4
ENDMDL
MODEL       66
REMARK 921   NORMALIZED FREE ENERGY PREDICTED BY IDOCK:   -3.40 KCAL/MOL
REMARK 922        TOTAL FREE ENERGY PREDICTED BY IDOCK:   -4.64 KCAL/MOL
REMARK 923 INTER-LIGAND FREE ENERGY PREDICTED BY IDOCK:   -4.50 KCAL/MOL
REMARK 924 INTRA-LIGAND FREE ENERGY PREDICTED BY IDOCK:   -0.15 KCAL/MOL
REMARK 927      BINDING AFFINITY PREDICTED BY RF-SCORE:    0.00 PKD
ROOT
HETATM    1  C   UNL     1     -13.204   9.985  71.006  1.00  0.00    -0.325 C  
HETATM    2  N   UNL     1     -11.941  10.674  70.710  1.00  0.00    -0.349 NA 
ENDROOT
BRANCH   2   3
HETATM    3  C   UNL     1     -11.995  11.320  69.380  1.00  0.00    -0.341 C  
BRANCH   3   4
HETATM    4  C   UNL     1     -11.964  12.836  69.399  1.00  0.00    -0.321 A  
HETATM    5  C   UNL     1     -11.619  13.550  68.241  1.00  0.00    -0.381 A  
HETATM    6  C   UNL     1     -12.254  13.551  70.570  1.00  0.00    -0.433 A  
HETATM    7  C   UNL     1     -11.594  14.945  68.244  1.00  0.00    -0.356 A  
HETATM    8  C   UNL     1     -12.230  14.948  70.571  1.00  0.00    -0.388 A  
HETATM    9  C   UNL     1     -11.906  15.644  69.408  1.00  0.00    -0.391 A  
ENDBRANCH   3   4
ENDBRANCH   2   3
BRANCH   2  10
HETATM   10  C   UNL     1     -10.813   9.721  70.714  1.00  0.00    -0.333 C  
BRANCH  10  11
HETATM   11  C   UNL     1     -10.837   8.771  71.841  1.00  0.00    -0.431 C  
HETATM   12  C   UNL     1     -10.838   7.958  72.726  1.00  0.00    -0.451 C  
ENDBRANCH  10  11
ENDBRANCH   2  10
TORSDOF 4
ENDMDL
MODEL       67
REMARK 921   NORMALIZED FREE ENERGY PREDICTED BY IDOCK:   -3.40 KCAL/MOL
REMARK 922        TOTAL FREE ENERGY PREDICTED BY IDOCK:   -4.64 KCAL/MOL
REMARK 923 INTER-LIGAND FREE ENERGY PREDICTED BY IDOCK:   -4.32 KCAL/MOL
REMARK 924 INTRA-LIGAND FREE ENERGY PREDICTED BY IDOCK:   -0.32 KCAL/MOL
REMARK 927      BINDING AFFINITY PREDICTED BY RF-SCORE:    0.00 PKD
ROOT
HETATM    1  C   UNL     1      -8.764   5.890  70.535  1.00  0.00    -0.140 C  
HETATM    2  N   UNL     1      -9.827   6.885  70.336  1.00  0.00    -0.179 NA 
ENDROOT
BRANCH   2   3
HETATM    3  C   UNL     1     -10.240   7.476  71.629  1.00  0.00    -0.184 C  
BRANCH   3   4
HETATM    4  C   UNL     1     -11.196   8.648  71.523  1.00  0.00    -0.360 A  
HETATM    5  C   UNL     1     -10.909   9.718  70.662  1.00  0.00    -0.396 A  
HETATM    6  C   UNL     1     -12.368   8.698  72.293  1.00  0.00    -0.449 A  
HETATM    7  C   UNL     1     -11.785  10.799  70.551  1.00  0.00    -0.449 A  
HETATM    8  C   UNL     1     -13.244   9.781  72.178  1.00  0.00    -0.530 A  
HETATM    9  C   UNL     1     -12.956  10.827  71.305  1.00  0.00    -0.502 A  
ENDBRANCH   3   4
ENDBRANCH   2   3
BRANCH   2  10
HETATM   10  C   UNL     1     -11.013   6.265  69.713  1.00  0.00    -0.378 C  
BRANCH  10  11
HETATM   11  C   UNL     1     -11.086   6.452  68.252  1.00  0.00    -0.359 C  
HETATM   12  C   UNL     1     -11.108   6.646  67.067  1.00  0.00    -0.395 C  
ENDBRANCH  10  11
ENDBRANCH   2  10
TORSDOF 4
ENDMDL
MODEL       68
REMARK 921   NORMALIZED FREE ENERGY PREDICTED BY IDOCK:   -3.37 KCAL/MOL
REMARK 922        TOTAL FREE ENERGY PREDICTED BY IDOCK:   -4.61 KCAL/MOL
REMARK 923 INTER-LIGAND FREE ENERGY PREDICTED BY IDOCK:   -4.43 KCAL/MOL
REMARK 924 INTRA-LIGAND FREE ENERGY PREDICTED BY IDOCK:   -0.18 KCAL/MOL
REMARK 927      BINDING AFFINITY PREDICTED BY RF-SCORE:    0.00 PKD
ROOT
HETATM    1  C   UNL     1      -9.480  14.779  67.808  1.00  0.00    -0.204 C  
HETATM    2  N   UNL     1     -10.232  14.906  69.063  1.00  0.00    -0.238 NA 
ENDROOT
BRANCH   2   3
HETATM    3  C   UNL     1     -11.625  14.435  68.890  1.00  0.00    -0.306 C  
BRANCH   3   4
HETATM    4  C   UNL     1     -12.056  13.338  69.843  1.00  0.00    -0.377 A  
HETATM    5  C   UNL     1     -12.660  13.665  71.068  1.00  0.00    -0.441 A  
HETATM    6  C   UNL     1     -11.844  11.986  69.535  1.00  0.00    -0.390 A  
HETATM    7  C   UNL     1     -13.068  12.663  71.951  1.00  0.00    -0.470 A  
HETATM    8  C   UNL     1     -12.256  10.986  70.420  1.00  0.00    -0.461 A  
HETATM    9  C   UNL     1     -12.872  11.324  71.623  1.00  0.00    -0.510 A  
ENDBRANCH   3   4
ENDBRANCH   2   3
BRANCH   2  10
HETATM   10  C   UNL     1     -10.273  16.313  69.509  1.00  0.00    -0.251 C  
BRANCH  10  11
HETATM   11  C   UNL     1     -10.451  17.281  68.411  1.00  0.00    -0.381 C  
HETATM   12  C   UNL     1     -10.645  18.086  67.540  1.00  0.00    -0.402 C  
ENDBRANCH  10  11
ENDBRANCH   2  10
TORSDOF 4
ENDMDL
MODEL       69
REMARK 921   NORMALIZED FREE ENERGY PREDICTED BY IDOCK:   -3.37 KCAL/MOL
REMARK 922        TOTAL FREE ENERGY PREDICTED BY IDOCK:   -4.61 KCAL/MOL
REMARK 923 INTER-LIGAND FREE ENERGY PREDICTED BY IDOCK:   -4.18 KCAL/MOL
REMARK 924 INTRA-LIGAND FREE ENERGY PREDICTED BY IDOCK:   -0.43 KCAL/MOL
REMARK 927      BINDING AFFINITY PREDICTED BY RF-SCORE:    0.00 PKD
ROOT
HETATM    1  C   UNL     1      -8.964   5.598  70.263  1.00  0.00    -0.139 C  
HETATM    2  N   UNL     1     -10.070   6.489  69.887  1.00  0.00    -0.170 NA 
ENDROOT
BRANCH   2   3
HETATM    3  C   UNL     1     -11.260   6.232  70.730  1.00  0.00    -0.324 C  
BRANCH   3   4
HETATM    4  C   UNL     1     -12.048   7.467  71.121  1.00  0.00    -0.357 A  
HETATM    5  C   UNL     1     -11.433   8.729  71.114  1.00  0.00    -0.344 A  
HETATM    6  C   UNL     1     -13.391   7.373  71.517  1.00  0.00    -0.435 A  
HETATM    7  C   UNL     1     -12.151   9.873  71.466  1.00  0.00    -0.496 A  
HETATM    8  C   UNL     1     -14.107   8.521  71.867  1.00  0.00    -0.519 A  
HETATM    9  C   UNL     1     -13.490   9.769  71.836  1.00  0.00    -0.485 A  
ENDBRANCH   3   4
ENDBRANCH   2   3
BRANCH   2  10
HETATM   10  C   UNL     1     -10.452   6.281  68.476  1.00  0.00    -0.229 C  
BRANCH  10  11
HETATM   11  C   UNL     1     -10.451   7.515  67.670  1.00  0.00    -0.319 C  
HETATM   12  C   UNL     1     -10.493   8.540  67.044  1.00  0.00    -0.362 C  
ENDBRANCH  10  11
ENDBRANCH   2  10
TORSDOF 4
ENDMDL
MODEL       70
REMARK 921   NORMALIZED FREE ENERGY PREDICTED BY IDOCK:   -3.36 KCAL/MOL
REMARK 922        TOTAL FREE ENERGY PREDICTED BY IDOCK:   -4.60 KCAL/MOL
REMARK 923 INTER-LIGAND FREE ENERGY PREDICTED BY IDOCK:   -4.20 KCAL/MOL
REMARK 924 INTRA-LIGAND FREE ENERGY PREDICTED BY IDOCK:   -0.39 KCAL/MOL
REMARK 927      BINDING AFFINITY PREDICTED BY RF-SCORE:    0.00 PKD
ROOT
HETATM    1  C   UNL     1     -10.578  11.015  66.959  1.00  0.00    -0.256 C  
HETATM    2  N   UNL     1     -11.048  12.376  67.252  1.00  0.00    -0.266 NA 
ENDROOT
BRANCH   2   3
HETATM    3  C   UNL     1     -11.795  12.409  68.529  1.00  0.00    -0.304 C  
BRANCH   3   4
HETATM    4  C   UNL     1     -11.676  13.702  69.311  1.00  0.00    -0.376 A  
HETATM    5  C   UNL     1     -12.649  14.042  70.265  1.00  0.00    -0.354 A  
HETATM    6  C   UNL     1     -10.614  14.590  69.085  1.00  0.00    -0.242 A  
HETATM    7  C   UNL     1     -12.546  15.227  70.996  1.00  0.00    -0.469 A  
HETATM    8  C   UNL     1     -10.513  15.775  69.819  1.00  0.00    -0.318 A  
HETATM    9  C   UNL     1     -11.475  16.090  70.777  1.00  0.00    -0.444 A  
ENDBRANCH   3   4
ENDBRANCH   2   3
BRANCH   2  10
HETATM   10  C   UNL     1     -11.942  12.861  66.182  1.00  0.00    -0.429 C  
BRANCH  10  11
HETATM   11  C   UNL     1     -11.458  14.078  65.506  1.00  0.00    -0.318 C  
HETATM   12  C   UNL     1     -11.086  15.100  64.996  1.00  0.00    -0.428 C  
ENDBRANCH  10  11
ENDBRANCH   2  10
TORSDOF 4
ENDMDL
MODEL       71
REMARK 921   NORMALIZED FREE ENERGY PREDICTED BY IDOCK:   -3.33 KCAL/MOL
REMARK 922        TOTAL FREE ENERGY PREDICTED BY IDOCK:   -4.56 KCAL/MOL
REMARK 923 INTER-LIGAND FREE ENERGY PREDICTED BY IDOCK:   -4.18 KCAL/MOL
REMARK 924 INTRA-LIGAND FREE ENERGY PREDICTED BY IDOCK:   -0.38 KCAL/MOL
REMARK 927      BINDING AFFINITY PREDICTED BY RF-SCORE:    0.00 PKD
ROOT
HETATM    1  C   UNL     1      -9.404   6.703  71.379  1.00  0.00    -0.151 C  
HETATM    2  N   UNL     1     -10.715   7.332  71.172  1.00  0.00    -0.227 NA 
ENDROOT
BRANCH   2   3
HETATM    3  C   UNL     1     -10.805   8.612  71.910  1.00  0.00    -0.348 C  
BRANCH   3   4
HETATM    4  C   UNL     1     -11.151   9.821  71.062  1.00  0.00    -0.431 A  
HETATM    5  C   UNL     1     -10.436  10.083  69.883  1.00  0.00    -0.317 A  
HETATM    6  C   UNL     1     -12.168  10.707  71.446  1.00  0.00    -0.405 A  
HETATM    7  C   UNL     1     -10.750  11.189  69.090  1.00  0.00    -0.262 A  
HETATM    8  C   UNL     1     -12.482  11.812  70.649  1.00  0.00    -0.364 A  
HETATM    9  C   UNL     1     -11.777  12.049  69.471  1.00  0.00    -0.408 A  
ENDBRANCH   3   4
ENDBRANCH   2   3
BRANCH   2  10
HETATM   10  C   UNL     1     -11.800   6.450  71.647  1.00  0.00    -0.306 C  
BRANCH  10  11
HETATM   11  C   UNL     1     -13.136   7.070  71.602  1.00  0.00    -0.384 C  
HETATM   12  C   UNL     1     -14.244   7.531  71.538  1.00  0.00    -0.580 C  
ENDBRANCH  10  11
ENDBRANCH   2  10
TORSDOF 4
ENDMDL
MODEL       72
REMARK 921   NORMALIZED FREE ENERGY PREDICTED BY IDOCK:   -3.31 KCAL/MOL
REMARK 922        TOTAL FREE ENERGY PREDICTED BY IDOCK:   -4.54 KCAL/MOL
REMARK 923 INTER-LIGAND FREE ENERGY PREDICTED BY IDOCK:   -4.26 KCAL/MOL
REMARK 924 INTRA-LIGAND FREE ENERGY PREDICTED BY IDOCK:   -0.28 KCAL/MOL
REMARK 927      BINDING AFFINITY PREDICTED BY RF-SCORE:    0.00 PKD
ROOT
HETATM    1  C   UNL     1     -12.532  12.103  63.572  1.00  0.00    -0.555 C  
HETATM    2  N   UNL     1     -11.606  12.599  64.598  1.00  0.00    -0.326 NA 
ENDROOT
BRANCH   2   3
HETATM    3  C   UNL     1     -11.605  14.079  64.632  1.00  0.00    -0.392 C  
BRANCH   3   4
HETATM    4  C   UNL     1     -11.205  14.691  65.960  1.00  0.00    -0.342 A  
HETATM    5  C   UNL     1     -10.099  15.553  66.036  1.00  0.00    -0.354 A  
HETATM    6  C   UNL     1     -11.912  14.397  67.135  1.00  0.00    -0.419 A  
HETATM    7  C   UNL     1      -9.726  16.128  67.252  1.00  0.00    -0.233 A  
HETATM    8  C   UNL     1     -11.538  14.976  68.351  1.00  0.00    -0.352 A  
HETATM    9  C   UNL     1     -10.450  15.844  68.408  1.00  0.00    -0.254 A  
ENDBRANCH   3   4
ENDBRANCH   2   3
BRANCH   2  10
HETATM   10  C   UNL     1     -10.228  12.144  64.322  1.00  0.00    -0.324 C  
BRANCH  10  11
HETATM   11  C   UNL     1      -9.939  10.786  64.815  1.00  0.00    -0.382 C  
HETATM   12  C   UNL     1      -9.740   9.686  65.257  1.00  0.00    -0.330 C  
ENDBRANCH  10  11
ENDBRANCH   2  10
TORSDOF 4
ENDMDL
MODEL       73
REMARK 921   NORMALIZED FREE ENERGY PREDICTED BY IDOCK:   -3.31 KCAL/MOL
REMARK 922        TOTAL FREE ENERGY PREDICTED BY IDOCK:   -4.53 KCAL/MOL
REMARK 923 INTER-LIGAND FREE ENERGY PREDICTED BY IDOCK:   -4.21 KCAL/MOL
REMARK 924 INTRA-LIGAND FREE ENERGY PREDICTED BY IDOCK:   -0.32 KCAL/MOL
REMARK 927      BINDING AFFINITY PREDICTED BY RF-SCORE:    0.00 PKD
ROOT
HETATM    1  C   UNL     1      -9.107  10.570  67.107  1.00  0.00    -0.143 C  
HETATM    2  N   UNL     1     -10.028  11.415  66.335  1.00  0.00    -0.208 NA 
ENDROOT
BRANCH   2   3
HETATM    3  C   UNL     1     -11.393  11.360  66.905  1.00  0.00    -0.210 C  
BRANCH   3   4
HETATM    4  C   UNL     1     -11.667  12.357  68.014  1.00  0.00    -0.414 A  
HETATM    5  C   UNL     1     -11.638  13.735  67.747  1.00  0.00    -0.381 A  
HETATM    6  C   UNL     1     -11.932  11.929  69.323  1.00  0.00    -0.342 A  
HETATM    7  C   UNL     1     -11.895  14.663  68.758  1.00  0.00    -0.348 A  
HETATM    8  C   UNL     1     -12.192  12.860  70.333  1.00  0.00    -0.381 A  
HETATM    9  C   UNL     1     -12.179  14.224  70.049  1.00  0.00    -0.417 A  
ENDBRANCH   3   4
ENDBRANCH   2   3
BRANCH   2  10
HETATM   10  C   UNL     1     -10.097  10.964  64.930  1.00  0.00    -0.312 C  
BRANCH  10  11
HETATM   11  C   UNL     1     -11.139  11.642  64.137  1.00  0.00    -0.435 C  
HETATM   12  C   UNL     1     -12.007  12.144  63.475  1.00  0.00    -0.619 C  
ENDBRANCH  10  11
ENDBRANCH   2  10
TORSDOF 4
ENDMDL
MODEL       74
REMARK 921   NORMALIZED FREE ENERGY PREDICTED BY IDOCK:   -3.30 KCAL/MOL
REMARK 922        TOTAL FREE ENERGY PREDICTED BY IDOCK:   -4.53 KCAL/MOL
REMARK 923 INTER-LIGAND FREE ENERGY PREDICTED BY IDOCK:   -4.13 KCAL/MOL
REMARK 924 INTRA-LIGAND FREE ENERGY PREDICTED BY IDOCK:   -0.40 KCAL/MOL
REMARK 927      BINDING AFFINITY PREDICTED BY RF-SCORE:    0.00 PKD
ROOT
HETATM    1  C   UNL     1     -10.688  17.321  68.237  1.00  0.00    -0.349 C  
HETATM    2  N   UNL     1     -10.950  16.453  67.082  1.00  0.00    -0.161 NA 
ENDROOT
BRANCH   2   3
HETATM    3  C   UNL     1     -10.729  15.032  67.433  1.00  0.00    -0.289 C  
BRANCH   3   4
HETATM    4  C   UNL     1     -11.119  14.036  66.358  1.00  0.00    -0.316 A  
HETATM    5  C   UNL     1     -10.158  13.162  65.824  1.00  0.00    -0.290 A  
HETATM    6  C   UNL     1     -12.430  13.981  65.862  1.00  0.00    -0.513 A  
HETATM    7  C   UNL     1     -10.507  12.236  64.839  1.00  0.00    -0.321 A  
HETATM    8  C   UNL     1     -12.776  13.052  64.878  1.00  0.00    -0.456 A  
HETATM    9  C   UNL     1     -11.817  12.177  64.371  1.00  0.00    -0.436 A  
ENDBRANCH   3   4
ENDBRANCH   2   3
BRANCH   2  10
HETATM   10  C   UNL     1     -10.055  16.795  65.958  1.00  0.00    -0.332 C  
BRANCH  10  11
HETATM   11  C   UNL     1      -8.621  16.711  66.291  1.00  0.00    -0.359 C  
HETATM   12  C   UNL     1      -7.446  16.607  66.519  1.00  0.00    -0.306 C  
ENDBRANCH  10  11
ENDBRANCH   2  10
TORSDOF 4
ENDMDL
MODEL       75
REMARK 921   NORMALIZED FREE ENERGY PREDICTED BY IDOCK:   -3.30 KCAL/MOL
REMARK 922        TOTAL FREE ENERGY PREDICTED BY IDOCK:   -4.52 KCAL/MOL
REMARK 923 INTER-LIGAND FREE ENERGY PREDICTED BY IDOCK:   -4.19 KCAL/MOL
REMARK 924 INTRA-LIGAND FREE ENERGY PREDICTED BY IDOCK:   -0.33 KCAL/MOL
REMARK 927      BINDING AFFINITY PREDICTED BY RF-SCORE:    0.00 PKD
ROOT
HETATM    1  C   UNL     1      -9.706  16.348  66.248  1.00  0.00    -0.308 C  
HETATM    2  N   UNL     1     -10.473  15.497  67.166  1.00  0.00    -0.281 NA 
ENDROOT
BRANCH   2   3
HETATM    3  C   UNL     1     -11.564  14.800  66.448  1.00  0.00    -0.299 C  
BRANCH   3   4
HETATM    4  C   UNL     1     -11.165  13.504  65.772  1.00  0.00    -0.308 A  
HETATM    5  C   UNL     1     -10.886  12.363  66.542  1.00  0.00    -0.284 A  
HETATM    6  C   UNL     1     -11.045  13.421  64.377  1.00  0.00    -0.408 A  
HETATM    7  C   UNL     1     -10.523  11.162  65.930  1.00  0.00    -0.310 A  
HETATM    8  C   UNL     1     -10.684  12.217  63.767  1.00  0.00    -0.488 A  
HETATM    9  C   UNL     1     -10.429  11.088  64.542  1.00  0.00    -0.411 A  
ENDBRANCH   3   4
ENDBRANCH   2   3
BRANCH   2  10
HETATM   10  C   UNL     1     -11.074  16.303  68.247  1.00  0.00    -0.346 C  
BRANCH  10  11
HETATM   11  C   UNL     1     -11.595  15.502  69.370  1.00  0.00    -0.366 C  
HETATM   12  C   UNL     1     -12.067  14.877  70.282  1.00  0.00    -0.379 C  
ENDBRANCH  10  11
ENDBRANCH   2  10
TORSDOF 4
ENDMDL
MODEL       76
REMARK 921   NORMALIZED FREE ENERGY PREDICTED BY IDOCK:   -3.29 KCAL/MOL
REMARK 922        TOTAL FREE ENERGY PREDICTED BY IDOCK:   -4.51 KCAL/MOL
REMARK 923 INTER-LIGAND FREE ENERGY PREDICTED BY IDOCK:   -4.39 KCAL/MOL
REMARK 924 INTRA-LIGAND FREE ENERGY PREDICTED BY IDOCK:   -0.12 KCAL/MOL
REMARK 927      BINDING AFFINITY PREDICTED BY RF-SCORE:    0.00 PKD
ROOT
HETATM    1  C   UNL     1     -11.147   5.973  69.811  1.00  0.00    -0.406 C  
HETATM    2  N   UNL     1     -11.715   6.821  70.868  1.00  0.00    -0.354 NA 
ENDROOT
BRANCH   2   3
HETATM    3  C   UNL     1     -10.838   7.982  71.138  1.00  0.00    -0.238 C  
BRANCH   3   4
HETATM    4  C   UNL     1     -11.512   9.336  71.032  1.00  0.00    -0.387 A  
HETATM    5  C   UNL     1     -12.550   9.678  71.913  1.00  0.00    -0.481 A  
HETATM    6  C   UNL     1     -11.131  10.260  70.048  1.00  0.00    -0.373 A  
HETATM    7  C   UNL     1     -13.173  10.924  71.831  1.00  0.00    -0.508 A  
HETATM    8  C   UNL     1     -11.756  11.507  69.969  1.00  0.00    -0.414 A  
HETATM    9  C   UNL     1     -12.771  11.841  70.862  1.00  0.00    -0.328 A  
ENDBRANCH   3   4
ENDBRANCH   2   3
BRANCH   2  10
HETATM   10  C   UNL     1     -11.870   6.059  72.123  1.00  0.00    -0.247 C  
BRANCH  10  11
HETATM   11  C   UNL     1     -10.906   6.437  73.173  1.00  0.00    -0.282 C  
HETATM   12  C   UNL     1     -10.139   6.702  74.058  1.00  0.00    -0.373 C  
ENDBRANCH  10  11
ENDBRANCH   2  10
TORSDOF 4
ENDMDL
MODEL       77
REMARK 921   NORMALIZED FREE ENERGY PREDICTED BY IDOCK:   -3.28 KCAL/MOL
REMARK 922        TOTAL FREE ENERGY PREDICTED BY IDOCK:   -4.50 KCAL/MOL
REMARK 923 INTER-LIGAND FREE ENERGY PREDICTED BY IDOCK:   -4.05 KCAL/MOL
REMARK 924 INTRA-LIGAND FREE ENERGY PREDICTED BY IDOCK:   -0.45 KCAL/MOL
REMARK 927      BINDING AFFINITY PREDICTED BY RF-SCORE:    0.00 PKD
ROOT
HETATM    1  C   UNL     1     -13.050  10.032  71.885  1.00  0.00    -0.460 C  
HETATM    2  N   UNL     1     -12.319  10.241  70.629  1.00  0.00    -0.317 NA 
ENDROOT
BRANCH   2   3
HETATM    3  C   UNL     1     -10.998   9.573  70.673  1.00  0.00    -0.306 C  
BRANCH   3   4
HETATM    4  C   UNL     1     -10.847   8.386  69.741  1.00  0.00    -0.184 A  
HETATM    5  C   UNL     1     -10.513   8.587  68.392  1.00  0.00    -0.215 A  
HETATM    6  C   UNL     1     -11.055   7.076  70.197  1.00  0.00    -0.323 A  
HETATM    7  C   UNL     1     -10.363   7.502  67.527  1.00  0.00    -0.321 A  
HETATM    8  C   UNL     1     -10.902   5.992  69.329  1.00  0.00    -0.428 A  
HETATM    9  C   UNL     1     -10.552   6.204  67.997  1.00  0.00    -0.334 A  
ENDBRANCH   3   4
ENDBRANCH   2   3
BRANCH   2  10
HETATM   10  C   UNL     1     -12.099  11.681  70.385  1.00  0.00    -0.373 C  
BRANCH  10  11
HETATM   11  C   UNL     1     -11.852  12.015  68.971  1.00  0.00    -0.372 C  
HETATM   12  C   UNL     1     -11.632  12.236  67.810  1.00  0.00    -0.416 C  
ENDBRANCH  10  11
ENDBRANCH   2  10
TORSDOF 4
ENDMDL
MODEL       78
REMARK 921   NORMALIZED FREE ENERGY PREDICTED BY IDOCK:   -3.27 KCAL/MOL
REMARK 922        TOTAL FREE ENERGY PREDICTED BY IDOCK:   -4.49 KCAL/MOL
REMARK 923 INTER-LIGAND FREE ENERGY PREDICTED BY IDOCK:   -4.25 KCAL/MOL
REMARK 924 INTRA-LIGAND FREE ENERGY PREDICTED BY IDOCK:   -0.24 KCAL/MOL
REMARK 927      BINDING AFFINITY PREDICTED BY RF-SCORE:    0.00 PKD
ROOT
HETATM    1  C   UNL     1     -10.452  19.354  67.092  1.00  0.00    -0.466 C  
HETATM    2  N   UNL     1      -9.629  18.195  66.721  1.00  0.00    -0.289 NA 
ENDROOT
BRANCH   2   3
HETATM    3  C   UNL     1      -9.897  17.052  67.622  1.00  0.00    -0.257 C  
BRANCH   3   4
HETATM    4  C   UNL     1     -10.532  15.845  66.959  1.00  0.00    -0.306 A  
HETATM    5  C   UNL     1     -10.287  15.576  65.603  1.00  0.00    -0.407 A  
HETATM    6  C   UNL     1     -11.386  14.992  67.673  1.00  0.00    -0.342 A  
HETATM    7  C   UNL     1     -10.860  14.464  64.983  1.00  0.00    -0.420 A  
HETATM    8  C   UNL     1     -11.956  13.878  67.050  1.00  0.00    -0.459 A  
HETATM    9  C   UNL     1     -11.689  13.612  65.709  1.00  0.00    -0.369 A  
ENDBRANCH   3   4
ENDBRANCH   2   3
BRANCH   2  10
HETATM   10  C   UNL     1      -8.192  18.525  66.810  1.00  0.00    -0.257 C  
BRANCH  10  11
HETATM   11  C   UNL     1      -7.794  19.113  68.101  1.00  0.00    -0.336 C  
HETATM   12  C   UNL     1      -7.522  19.586  69.171  1.00  0.00    -0.340 C  
ENDBRANCH  10  11
ENDBRANCH   2  10
TORSDOF 4
ENDMDL
MODEL       79
REMARK 921   NORMALIZED FREE ENERGY PREDICTED BY IDOCK:   -3.26 KCAL/MOL
REMARK 922        TOTAL FREE ENERGY PREDICTED BY IDOCK:   -4.47 KCAL/MOL
REMARK 923 INTER-LIGAND FREE ENERGY PREDICTED BY IDOCK:   -4.50 KCAL/MOL
REMARK 924 INTRA-LIGAND FREE ENERGY PREDICTED BY IDOCK:    0.03 KCAL/MOL
REMARK 927      BINDING AFFINITY PREDICTED BY RF-SCORE:    0.00 PKD
ROOT
HETATM    1  C   UNL     1      -8.791  16.471  66.578  1.00  0.00    -0.282 C  
HETATM    2  N   UNL     1      -9.762  16.567  67.676  1.00  0.00    -0.236 NA 
ENDROOT
BRANCH   2   3
HETATM    3  C   UNL     1     -10.459  15.276  67.874  1.00  0.00    -0.253 C  
BRANCH   3   4
HETATM    4  C   UNL     1     -11.122  15.103  69.226  1.00  0.00    -0.279 A  
HETATM    5  C   UNL     1     -11.797  13.911  69.534  1.00  0.00    -0.383 A  
HETATM    6  C   UNL     1     -11.096  16.129  70.182  1.00  0.00    -0.373 A  
HETATM    7  C   UNL     1     -12.405  13.737  70.779  1.00  0.00    -0.451 A  
HETATM    8  C   UNL     1     -11.705  15.952  71.427  1.00  0.00    -0.530 A  
HETATM    9  C   UNL     1     -12.353  14.756  71.727  1.00  0.00    -0.414 A  
ENDBRANCH   3   4
ENDBRANCH   2   3
BRANCH   2  10
HETATM   10  C   UNL     1     -10.778  17.599  67.389  1.00  0.00    -0.258 C  
BRANCH  10  11
HETATM   11  C   UNL     1     -10.323  18.975  67.660  1.00  0.00    -0.504 C  
HETATM   12  C   UNL     1      -9.900  20.078  67.876  1.00  0.00    -0.538 C  
ENDBRANCH  10  11
ENDBRANCH   2  10
TORSDOF 4
ENDMDL
MODEL       80
REMARK 921   NORMALIZED FREE ENERGY PREDICTED BY IDOCK:   -3.25 KCAL/MOL
REMARK 922        TOTAL FREE ENERGY PREDICTED BY IDOCK:   -4.46 KCAL/MOL
REMARK 923 INTER-LIGAND FREE ENERGY PREDICTED BY IDOCK:   -4.06 KCAL/MOL
REMARK 924 INTRA-LIGAND FREE ENERGY PREDICTED BY IDOCK:   -0.40 KCAL/MOL
REMARK 927      BINDING AFFINITY PREDICTED BY RF-SCORE:    0.00 PKD
ROOT
HETATM    1  C   UNL     1     -10.810  15.675  67.166  1.00  0.00    -0.297 C  
HETATM    2  N   UNL     1     -11.242  14.404  66.570  1.00  0.00    -0.332 NA 
ENDROOT
BRANCH   2   3
HETATM    3  C   UNL     1     -10.170  13.388  66.667  1.00  0.00    -0.274 C  
BRANCH   3   4
HETATM    4  C   UNL     1     -10.374  12.339  67.743  1.00  0.00    -0.216 A  
HETATM    5  C   UNL     1      -9.316  11.493  68.113  1.00  0.00    -0.185 A  
HETATM    6  C   UNL     1     -11.618  12.178  68.370  1.00  0.00    -0.381 A  
HETATM    7  C   UNL     1      -9.490  10.529  69.107  1.00  0.00    -0.205 A  
HETATM    8  C   UNL     1     -11.788  11.213  69.367  1.00  0.00    -0.415 A  
HETATM    9  C   UNL     1     -10.725  10.393  69.738  1.00  0.00    -0.325 A  
ENDBRANCH   3   4
ENDBRANCH   2   3
BRANCH   2  10
HETATM   10  C   UNL     1     -11.578  14.583  65.143  1.00  0.00    -0.371 C  
BRANCH  10  11
HETATM   11  C   UNL     1     -12.038  13.350  64.479  1.00  0.00    -0.457 C  
HETATM   12  C   UNL     1     -12.393  12.365  63.890  1.00  0.00    -0.602 C  
ENDBRANCH  10  11
ENDBRANCH   2  10
TORSDOF 4
ENDMDL
MODEL       81
REMARK 921   NORMALIZED FREE ENERGY PREDICTED BY IDOCK:   -3.25 KCAL/MOL
REMARK 922        TOTAL FREE ENERGY PREDICTED BY IDOCK:   -4.45 KCAL/MOL
REMARK 923 INTER-LIGAND FREE ENERGY PREDICTED BY IDOCK:   -4.61 KCAL/MOL
REMARK 924 INTRA-LIGAND FREE ENERGY PREDICTED BY IDOCK:    0.16 KCAL/MOL
REMARK 927      BINDING AFFINITY PREDICTED BY RF-SCORE:    0.00 PKD
ROOT
HETATM    1  C   UNL     1     -11.711  15.899  68.481  1.00  0.00    -0.292 C  
HETATM    2  N   UNL     1     -11.812  14.569  67.867  1.00  0.00    -0.352 NA 
ENDROOT
BRANCH   2   3
HETATM    3  C   UNL     1     -11.071  13.566  68.664  1.00  0.00    -0.269 C  
BRANCH   3   4
HETATM    4  C   UNL     1     -11.833  12.988  69.840  1.00  0.00    -0.377 A  
HETATM    5  C   UNL     1     -11.858  11.600  70.052  1.00  0.00    -0.435 A  
HETATM    6  C   UNL     1     -12.542  13.817  70.722  1.00  0.00    -0.410 A  
HETATM    7  C   UNL     1     -12.550  11.056  71.135  1.00  0.00    -0.522 A  
HETATM    8  C   UNL     1     -13.233  13.270  71.807  1.00  0.00    -0.495 A  
HETATM    9  C   UNL     1     -13.232  11.893  72.016  1.00  0.00    -0.461 A  
ENDBRANCH   3   4
ENDBRANCH   2   3
BRANCH   2  10
HETATM   10  C   UNL     1     -11.250  14.578  66.502  1.00  0.00    -0.344 C  
BRANCH  10  11
HETATM   11  C   UNL     1      -9.898  15.159  66.417  1.00  0.00    -0.300 C  
HETATM   12  C   UNL     1      -8.781  15.601  66.393  1.00  0.00    -0.354 C  
ENDBRANCH  10  11
ENDBRANCH   2  10
TORSDOF 4
ENDMDL
MODEL       82
REMARK 921   NORMALIZED FREE ENERGY PREDICTED BY IDOCK:   -3.24 KCAL/MOL
REMARK 922        TOTAL FREE ENERGY PREDICTED BY IDOCK:   -4.45 KCAL/MOL
REMARK 923 INTER-LIGAND FREE ENERGY PREDICTED BY IDOCK:   -4.34 KCAL/MOL
REMARK 924 INTRA-LIGAND FREE ENERGY PREDICTED BY IDOCK:   -0.11 KCAL/MOL
REMARK 927      BINDING AFFINITY PREDICTED BY RF-SCORE:    0.00 PKD
ROOT
HETATM    1  C   UNL     1     -11.947  12.119  63.622  1.00  0.00    -0.534 C  
HETATM    2  N   UNL     1     -11.264  12.490  64.868  1.00  0.00    -0.296 NA 
ENDROOT
BRANCH   2   3
HETATM    3  C   UNL     1     -12.209  13.119  65.818  1.00  0.00    -0.456 C  
BRANCH   3   4
HETATM    4  C   UNL     1     -12.001  12.747  67.273  1.00  0.00    -0.345 A  
HETATM    5  C   UNL     1     -11.864  11.400  67.644  1.00  0.00    -0.157 A  
HETATM    6  C   UNL     1     -11.963  13.730  68.273  1.00  0.00    -0.392 A  
HETATM    7  C   UNL     1     -11.666  11.046  68.980  1.00  0.00    -0.402 A  
HETATM    8  C   UNL     1     -11.762  13.372  69.609  1.00  0.00    -0.375 A  
HETATM    9  C   UNL     1     -11.608  12.033  69.961  1.00  0.00    -0.275 A  
ENDBRANCH   3   4
ENDBRANCH   2   3
BRANCH   2  10
HETATM   10  C   UNL     1     -10.173  13.450  64.600  1.00  0.00    -0.315 C  
BRANCH  10  11
HETATM   11  C   UNL     1     -10.510  14.844  64.938  1.00  0.00    -0.389 C  
HETATM   12  C   UNL     1     -10.789  15.966  65.267  1.00  0.00    -0.401 C  
ENDBRANCH  10  11
ENDBRANCH   2  10
TORSDOF 4
ENDMDL
MODEL       83
REMARK 921   NORMALIZED FREE ENERGY PREDICTED BY IDOCK:   -3.24 KCAL/MOL
REMARK 922        TOTAL FREE ENERGY PREDICTED BY IDOCK:   -4.44 KCAL/MOL
REMARK 923 INTER-LIGAND FREE ENERGY PREDICTED BY IDOCK:   -4.00 KCAL/MOL
REMARK 924 INTRA-LIGAND FREE ENERGY PREDICTED BY IDOCK:   -0.44 KCAL/MOL
REMARK 927      BINDING AFFINITY PREDICTED BY RF-SCORE:    0.00 PKD
ROOT
HETATM    1  C   UNL     1     -10.464   7.926  67.141  1.00  0.00    -0.344 C  
HETATM    2  N   UNL     1     -10.550   7.495  68.542  1.00  0.00    -0.174 NA 
ENDROOT
BRANCH   2   3
HETATM    3  C   UNL     1     -10.061   8.557  69.449  1.00  0.00    -0.205 C  
BRANCH   3   4
HETATM    4  C   UNL     1     -11.132   9.236  70.281  1.00  0.00    -0.289 A  
HETATM    5  C   UNL     1     -11.833   8.510  71.257  1.00  0.00    -0.335 A  
HETATM    6  C   UNL     1     -11.458  10.586  70.080  1.00  0.00    -0.405 A  
HETATM    7  C   UNL     1     -12.816   9.126  72.033  1.00  0.00    -0.483 A  
HETATM    8  C   UNL     1     -12.441  11.200  70.861  1.00  0.00    -0.509 A  
HETATM    9  C   UNL     1     -13.115  10.473  71.839  1.00  0.00    -0.567 A  
ENDBRANCH   3   4
ENDBRANCH   2   3
BRANCH   2  10
HETATM   10  C   UNL     1      -9.733   6.285  68.768  1.00  0.00    -0.128 C  
BRANCH  10  11
HETATM   11  C   UNL     1     -10.038   5.587  70.030  1.00  0.00    -0.311 C  
HETATM   12  C   UNL     1     -10.319   5.060  71.072  1.00  0.00    -0.254 C  
ENDBRANCH  10  11
ENDBRANCH   2  10
TORSDOF 4
ENDMDL
MODEL       84
REMARK 921   NORMALIZED FREE ENERGY PREDICTED BY IDOCK:   -3.23 KCAL/MOL
REMARK 922        TOTAL FREE ENERGY PREDICTED BY IDOCK:   -4.43 KCAL/MOL
REMARK 923 INTER-LIGAND FREE ENERGY PREDICTED BY IDOCK:   -4.04 KCAL/MOL
REMARK 924 INTRA-LIGAND FREE ENERGY PREDICTED BY IDOCK:   -0.39 KCAL/MOL
REMARK 927      BINDING AFFINITY PREDICTED BY RF-SCORE:    0.00 PKD
ROOT
HETATM    1  C   UNL     1      -9.008  11.207  68.295  1.00  0.00    -0.166 C  
HETATM    2  N   UNL     1      -9.721   9.960  68.599  1.00  0.00    -0.153 NA 
ENDROOT
BRANCH   2   3
HETATM    3  C   UNL     1      -9.571   9.605  70.028  1.00  0.00    -0.243 C  
BRANCH   3   4
HETATM    4  C   UNL     1     -10.863   9.566  70.820  1.00  0.00    -0.386 A  
HETATM    5  C   UNL     1     -11.122   8.500  71.697  1.00  0.00    -0.360 A  
HETATM    6  C   UNL     1     -11.829  10.574  70.680  1.00  0.00    -0.458 A  
HETATM    7  C   UNL     1     -12.306   8.457  72.436  1.00  0.00    -0.412 A  
HETATM    8  C   UNL     1     -13.012  10.529  71.423  1.00  0.00    -0.542 A  
HETATM    9  C   UNL     1     -13.247   9.475  72.304  1.00  0.00    -0.507 A  
ENDBRANCH   3   4
ENDBRANCH   2   3
BRANCH   2  10
HETATM   10  C   UNL     1      -9.190   8.844  67.790  1.00  0.00    -0.141 C  
BRANCH  10  11
HETATM   11  C   UNL     1     -10.167   7.768  67.544  1.00  0.00    -0.301 C  
HETATM   12  C   UNL     1     -10.996   6.913  67.383  1.00  0.00    -0.374 C  
ENDBRANCH  10  11
ENDBRANCH   2  10
TORSDOF 4
ENDMDL
MODEL       85
REMARK 921   NORMALIZED FREE ENERGY PREDICTED BY IDOCK:   -3.22 KCAL/MOL
REMARK 922        TOTAL FREE ENERGY PREDICTED BY IDOCK:   -4.43 KCAL/MOL
REMARK 923 INTER-LIGAND FREE ENERGY PREDICTED BY IDOCK:   -4.01 KCAL/MOL
REMARK 924 INTRA-LIGAND FREE ENERGY PREDICTED BY IDOCK:   -0.42 KCAL/MOL
REMARK 927      BINDING AFFINITY PREDICTED BY RF-SCORE:    0.00 PKD
ROOT
HETATM    1  C   UNL     1      -9.508   9.155  70.472  1.00  0.00    -0.242 C  
HETATM    2  N   UNL     1     -10.702   8.721  71.208  1.00  0.00    -0.246 NA 
ENDROOT
BRANCH   2   3
HETATM    3  C   UNL     1     -11.281   7.503  70.598  1.00  0.00    -0.268 C  
BRANCH   3   4
HETATM    4  C   UNL     1     -10.950   6.206  71.311  1.00  0.00    -0.340 A  
HETATM    5  C   UNL     1     -11.489   5.942  72.580  1.00  0.00    -0.319 A  
HETATM    6  C   UNL     1     -10.089   5.261  70.734  1.00  0.00    -0.294 A  
HETATM    7  C   UNL     1     -11.197   4.748  73.244  1.00  0.00    -0.421 A  
HETATM    8  C   UNL     1      -9.800   4.067  71.399  1.00  0.00    -0.249 A  
HETATM    9  C   UNL     1     -10.358   3.809  72.650  1.00  0.00    -0.226 A  
ENDBRANCH   3   4
ENDBRANCH   2   3
BRANCH   2  10
HETATM   10  C   UNL     1     -11.735   9.776  71.199  1.00  0.00    -0.385 C  
BRANCH  10  11
HETATM   11  C   UNL     1     -12.995   9.383  71.855  1.00  0.00    -0.502 C  
HETATM   12  C   UNL     1     -13.997   9.068  72.438  1.00  0.00    -0.517 C  
ENDBRANCH  10  11
ENDBRANCH   2  10
TORSDOF 4
ENDMDL
MODEL       86
REMARK 921   NORMALIZED FREE ENERGY PREDICTED BY IDOCK:   -3.21 KCAL/MOL
REMARK 922        TOTAL FREE ENERGY PREDICTED BY IDOCK:   -4.41 KCAL/MOL
REMARK 923 INTER-LIGAND FREE ENERGY PREDICTED BY IDOCK:   -4.25 KCAL/MOL
REMARK 924 INTRA-LIGAND FREE ENERGY PREDICTED BY IDOCK:   -0.16 KCAL/MOL
REMARK 927      BINDING AFFINITY PREDICTED BY RF-SCORE:    0.00 PKD
ROOT
HETATM    1  C   UNL     1     -11.915  15.814  69.967  1.00  0.00    -0.337 C  
HETATM    2  N   UNL     1     -11.175  15.085  68.929  1.00  0.00    -0.261 NA 
ENDROOT
BRANCH   2   3
HETATM    3  C   UNL     1     -10.995  15.927  67.724  1.00  0.00    -0.315 C  
BRANCH   3   4
HETATM    4  C   UNL     1     -10.186  17.191  67.938  1.00  0.00    -0.330 A  
HETATM    5  C   UNL     1      -8.829  17.109  68.290  1.00  0.00    -0.245 A  
HETATM    6  C   UNL     1     -10.774  18.458  67.811  1.00  0.00    -0.371 A  
HETATM    7  C   UNL     1      -8.072  18.266  68.482  1.00  0.00    -0.330 A  
HETATM    8  C   UNL     1     -10.013  19.614  68.002  1.00  0.00    -0.541 A  
HETATM    9  C   UNL     1      -8.663  19.518  68.332  1.00  0.00    -0.389 A  
ENDBRANCH   3   4
ENDBRANCH   2   3
BRANCH   2  10
HETATM   10  C   UNL     1     -11.899  13.862  68.531  1.00  0.00    -0.366 C  
BRANCH  10  11
HETATM   11  C   UNL     1     -12.006  12.856  69.604  1.00  0.00    -0.358 C  
HETATM   12  C   UNL     1     -12.056  12.007  70.452  1.00  0.00    -0.407 C  
ENDBRANCH  10  11
ENDBRANCH   2  10
TORSDOF 4
ENDMDL
MODEL       87
REMARK 921   NORMALIZED FREE ENERGY PREDICTED BY IDOCK:   -3.20 KCAL/MOL
REMARK 922        TOTAL FREE ENERGY PREDICTED BY IDOCK:   -4.40 KCAL/MOL
REMARK 923 INTER-LIGAND FREE ENERGY PREDICTED BY IDOCK:   -3.94 KCAL/MOL
REMARK 924 INTRA-LIGAND FREE ENERGY PREDICTED BY IDOCK:   -0.46 KCAL/MOL
REMARK 927      BINDING AFFINITY PREDICTED BY RF-SCORE:    0.00 PKD
ROOT
HETATM    1  C   UNL     1     -10.195  10.337  69.084  1.00  0.00    -0.218 C  
HETATM    2  N   UNL     1      -9.995  11.345  68.035  1.00  0.00    -0.177 NA 
ENDROOT
BRANCH   2   3
HETATM    3  C   UNL     1     -10.029  10.720  66.693  1.00  0.00    -0.206 C  
BRANCH   3   4
HETATM    4  C   UNL     1     -10.765  11.513  65.632  1.00  0.00    -0.323 A  
HETATM    5  C   UNL     1     -11.763  12.429  66.002  1.00  0.00    -0.469 A  
HETATM    6  C   UNL     1     -10.485  11.335  64.269  1.00  0.00    -0.419 A  
HETATM    7  C   UNL     1     -12.443  13.171  65.034  1.00  0.00    -0.516 A  
HETATM    8  C   UNL     1     -11.166  12.081  63.303  1.00  0.00    -0.403 A  
HETATM    9  C   UNL     1     -12.140  13.001  63.685  1.00  0.00    -0.604 A  
ENDBRANCH   3   4
ENDBRANCH   2   3
BRANCH   2  10
HETATM   10  C   UNL     1      -8.690  12.017  68.197  1.00  0.00    -0.177 C  
BRANCH  10  11
HETATM   11  C   UNL     1      -8.651  13.385  67.650  1.00  0.00    -0.193 C  
HETATM   12  C   UNL     1      -8.670  14.492  67.183  1.00  0.00    -0.237 C  
ENDBRANCH  10  11
ENDBRANCH   2  10
TORSDOF 4
ENDMDL
MODEL       88
REMARK 921   NORMALIZED FREE ENERGY PREDICTED BY IDOCK:   -3.17 KCAL/MOL
REMARK 922        TOTAL FREE ENERGY PREDICTED BY IDOCK:   -4.36 KCAL/MOL
REMARK 923 INTER-LIGAND FREE ENERGY PREDICTED BY IDOCK:   -3.91 KCAL/MOL
REMARK 924 INTRA-LIGAND FREE ENERGY PREDICTED BY IDOCK:   -0.44 KCAL/MOL
REMARK 927      BINDING AFFINITY PREDICTED BY RF-SCORE:    0.00 PKD
ROOT
HETATM    1  C   UNL     1      -9.915   8.373  66.652  1.00  0.00    -0.284 C  
HETATM    2  N   UNL     1      -9.584   9.772  66.352  1.00  0.00    -0.185 NA 
ENDROOT
BRANCH   2   3
HETATM    3  C   UNL     1     -10.008  10.127  64.979  1.00  0.00    -0.305 C  
BRANCH   3   4
HETATM    4  C   UNL     1     -10.825  11.399  64.867  1.00  0.00    -0.323 A  
HETATM    5  C   UNL     1     -11.227  11.871  63.607  1.00  0.00    -0.522 A  
HETATM    6  C   UNL     1     -11.175  12.138  66.007  1.00  0.00    -0.382 A  
HETATM    7  C   UNL     1     -11.986  13.038  63.492  1.00  0.00    -0.615 A  
HETATM    8  C   UNL     1     -11.936  13.304  65.888  1.00  0.00    -0.466 A  
HETATM    9  C   UNL     1     -12.345  13.750  64.634  1.00  0.00    -0.410 A  
ENDBRANCH   3   4
ENDBRANCH   2   3
BRANCH   2  10
HETATM   10  C   UNL     1      -8.129   9.999  66.458  1.00  0.00    -0.119 C  
BRANCH  10  11
HETATM   11  C   UNL     1      -7.771  11.316  67.015  1.00  0.00    -0.147 C  
HETATM   12  C   UNL     1      -7.525  12.411  67.446  1.00  0.00    -0.157 C  
ENDBRANCH  10  11
ENDBRANCH   2  10
TORSDOF 4
ENDMDL
MODEL       89
REMARK 921   NORMALIZED FREE ENERGY PREDICTED BY IDOCK:   -3.16 KCAL/MOL
REMARK 922        TOTAL FREE ENERGY PREDICTED BY IDOCK:   -4.35 KCAL/MOL
REMARK 923 INTER-LIGAND FREE ENERGY PREDICTED BY IDOCK:   -4.28 KCAL/MOL
REMARK 924 INTRA-LIGAND FREE ENERGY PREDICTED BY IDOCK:   -0.07 KCAL/MOL
REMARK 927      BINDING AFFINITY PREDICTED BY RF-SCORE:    0.00 PKD
ROOT
HETATM    1  C   UNL     1     -11.118  14.786  64.952  1.00  0.00    -0.407 C  
HETATM    2  N   UNL     1     -11.417  13.351  65.053  1.00  0.00    -0.304 NA 
ENDROOT
BRANCH   2   3
HETATM    3  C   UNL     1     -10.333  12.639  65.766  1.00  0.00    -0.279 C  
BRANCH   3   4
HETATM    4  C   UNL     1     -10.753  11.948  67.049  1.00  0.00    -0.280 A  
HETATM    5  C   UNL     1     -10.482  10.583  67.236  1.00  0.00    -0.300 A  
HETATM    6  C   UNL     1     -11.434  12.645  68.058  1.00  0.00    -0.366 A  
HETATM    7  C   UNL     1     -10.857   9.937  68.416  1.00  0.00    -0.263 A  
HETATM    8  C   UNL     1     -11.806  11.996  69.238  1.00  0.00    -0.377 A  
HETATM    9  C   UNL     1     -11.514  10.646  69.419  1.00  0.00    -0.356 A  
ENDBRANCH   3   4
ENDBRANCH   2   3
BRANCH   2  10
HETATM   10  C   UNL     1     -11.559  12.751  63.712  1.00  0.00    -0.481 C  
BRANCH  10  11
HETATM   11  C   UNL     1     -10.618  11.646  63.450  1.00  0.00    -0.472 C  
HETATM   12  C   UNL     1      -9.810  10.784  63.234  1.00  0.00    -0.394 C  
ENDBRANCH  10  11
ENDBRANCH   2  10
TORSDOF 4
ENDMDL
MODEL       90
REMARK 921   NORMALIZED FREE ENERGY PREDICTED BY IDOCK:   -3.15 KCAL/MOL
REMARK 922        TOTAL FREE ENERGY PREDICTED BY IDOCK:   -4.34 KCAL/MOL
REMARK 923 INTER-LIGAND FREE ENERGY PREDICTED BY IDOCK:   -4.08 KCAL/MOL
REMARK 924 INTRA-LIGAND FREE ENERGY PREDICTED BY IDOCK:   -0.26 KCAL/MOL
REMARK 927      BINDING AFFINITY PREDICTED BY RF-SCORE:    0.00 PKD
ROOT
HETATM    1  C   UNL     1      -9.856   8.399  71.017  1.00  0.00    -0.187 C  
HETATM    2  N   UNL     1     -10.858   7.469  71.555  1.00  0.00    -0.226 NA 
ENDROOT
BRANCH   2   3
HETATM    3  C   UNL     1     -11.722   6.946  70.473  1.00  0.00    -0.350 C  
BRANCH   3   4
HETATM    4  C   UNL     1     -11.016   6.083  69.446  1.00  0.00    -0.455 A  
HETATM    5  C   UNL     1     -11.155   6.360  68.076  1.00  0.00    -0.365 A  
HETATM    6  C   UNL     1     -10.234   4.986  69.836  1.00  0.00    -0.340 A  
HETATM    7  C   UNL     1     -10.504   5.577  67.121  1.00  0.00    -0.321 A  
HETATM    8  C   UNL     1      -9.581   4.206  68.878  1.00  0.00    -0.222 A  
HETATM    9  C   UNL     1      -9.712   4.504  67.523  1.00  0.00    -0.213 A  
ENDBRANCH   3   4
ENDBRANCH   2   3
BRANCH   2  10
HETATM   10  C   UNL     1     -11.719   8.144  72.547  1.00  0.00    -0.394 C  
BRANCH  10  11
HETATM   11  C   UNL     1     -12.460   9.297  72.006  1.00  0.00    -0.451 C  
HETATM   12  C   UNL     1     -13.096  10.237  71.612  1.00  0.00    -0.553 C  
ENDBRANCH  10  11
ENDBRANCH   2  10
TORSDOF 4
ENDMDL
MODEL       91
REMARK 921   NORMALIZED FREE ENERGY PREDICTED BY IDOCK:   -3.15 KCAL/MOL
REMARK 922        TOTAL FREE ENERGY PREDICTED BY IDOCK:   -4.34 KCAL/MOL
REMARK 923 INTER-LIGAND FREE ENERGY PREDICTED BY IDOCK:   -4.16 KCAL/MOL
REMARK 924 INTRA-LIGAND FREE ENERGY PREDICTED BY IDOCK:   -0.18 KCAL/MOL
REMARK 927      BINDING AFFINITY PREDICTED BY RF-SCORE:    0.00 PKD
ROOT
HETATM    1  C   UNL     1     -11.171  15.040  67.292  1.00  0.00    -0.338 C  
HETATM    2  N   UNL     1     -10.870  14.260  68.499  1.00  0.00    -0.245 NA 
ENDROOT
BRANCH   2   3
HETATM    3  C   UNL     1     -12.070  13.526  68.962  1.00  0.00    -0.291 C  
BRANCH   3   4
HETATM    4  C   UNL     1     -11.790  12.215  69.670  1.00  0.00    -0.391 A  
HETATM    5  C   UNL     1     -12.465  11.897  70.858  1.00  0.00    -0.397 A  
HETATM    6  C   UNL     1     -10.842  11.310  69.169  1.00  0.00    -0.269 A  
HETATM    7  C   UNL     1     -12.221  10.689  71.515  1.00  0.00    -0.345 A  
HETATM    8  C   UNL     1     -10.601  10.101  69.827  1.00  0.00    -0.298 A  
HETATM    9  C   UNL     1     -11.293   9.789  70.996  1.00  0.00    -0.460 A  
ENDBRANCH   3   4
ENDBRANCH   2   3
BRANCH   2  10
HETATM   10  C   UNL     1     -10.419  15.142  69.594  1.00  0.00    -0.250 C  
BRANCH  10  11
HETATM   11  C   UNL     1     -11.486  15.507  70.544  1.00  0.00    -0.368 C  
HETATM   12  C   UNL     1     -12.321  15.842  71.340  1.00  0.00    -0.505 C  
ENDBRANCH  10  11
ENDBRANCH   2  10
TORSDOF 4
ENDMDL
MODEL       92
REMARK 921   NORMALIZED FREE ENERGY PREDICTED BY IDOCK:   -3.15 KCAL/MOL
REMARK 922        TOTAL FREE ENERGY PREDICTED BY IDOCK:   -4.33 KCAL/MOL
REMARK 923 INTER-LIGAND FREE ENERGY PREDICTED BY IDOCK:   -4.05 KCAL/MOL
REMARK 924 INTRA-LIGAND FREE ENERGY PREDICTED BY IDOCK:   -0.28 KCAL/MOL
REMARK 927      BINDING AFFINITY PREDICTED BY RF-SCORE:    0.00 PKD
ROOT
HETATM    1  C   UNL     1     -10.564  19.469  67.346  1.00  0.00    -0.485 C  
HETATM    2  N   UNL     1      -9.616  18.645  66.586  1.00  0.00    -0.320 NA 
ENDROOT
BRANCH   2   3
HETATM    3  C   UNL     1      -9.420  17.332  67.241  1.00  0.00    -0.250 C  
BRANCH   3   4
HETATM    4  C   UNL     1      -9.905  16.137  66.444  1.00  0.00    -0.304 A  
HETATM    5  C   UNL     1      -9.525  14.838  66.818  1.00  0.00    -0.271 A  
HETATM    6  C   UNL     1     -10.719  16.302  65.314  1.00  0.00    -0.349 A  
HETATM    7  C   UNL     1      -9.971  13.729  66.096  1.00  0.00    -0.318 A  
HETATM    8  C   UNL     1     -11.166  15.191  64.595  1.00  0.00    -0.352 A  
HETATM    9  C   UNL     1     -10.797  13.906  64.988  1.00  0.00    -0.389 A  
ENDBRANCH   3   4
ENDBRANCH   2   3
BRANCH   2  10
HETATM   10  C   UNL     1      -8.302  19.312  66.490  1.00  0.00    -0.319 C  
BRANCH  10  11
HETATM   11  C   UNL     1      -7.646  19.529  67.793  1.00  0.00    -0.307 C  
HETATM   12  C   UNL     1      -7.076  19.665  68.841  1.00  0.00    -0.388 C  
ENDBRANCH  10  11
ENDBRANCH   2  10
TORSDOF 4
ENDMDL
MODEL       93
REMARK 921   NORMALIZED FREE ENERGY PREDICTED BY IDOCK:   -3.14 KCAL/MOL
REMARK 922        TOTAL FREE ENERGY PREDICTED BY IDOCK:   -4.33 KCAL/MOL
REMARK 923 INTER-LIGAND FREE ENERGY PREDICTED BY IDOCK:   -3.96 KCAL/MOL
REMARK 924 INTRA-LIGAND FREE ENERGY PREDICTED BY IDOCK:   -0.37 KCAL/MOL
REMARK 927      BINDING AFFINITY PREDICTED BY RF-SCORE:    0.00 PKD
ROOT
HETATM    1  C   UNL     1     -11.160  15.353  66.464  1.00  0.00    -0.227 C  
HETATM    2  N   UNL     1     -10.612  14.083  66.958  1.00  0.00    -0.278 NA 
ENDROOT
BRANCH   2   3
HETATM    3  C   UNL     1     -11.619  13.002  66.855  1.00  0.00    -0.366 C  
BRANCH   3   4
HETATM    4  C   UNL     1     -11.052  11.613  66.641  1.00  0.00    -0.364 A  
HETATM    5  C   UNL     1     -11.135  10.652  67.661  1.00  0.00    -0.385 A  
HETATM    6  C   UNL     1     -10.418  11.266  65.439  1.00  0.00    -0.326 A  
HETATM    7  C   UNL     1     -10.623   9.367  67.474  1.00  0.00    -0.333 A  
HETATM    8  C   UNL     1      -9.908   9.979  65.253  1.00  0.00    -0.388 A  
HETATM    9  C   UNL     1     -10.015   9.029  66.267  1.00  0.00    -0.352 A  
ENDBRANCH   3   4
ENDBRANCH   2   3
BRANCH   2  10
HETATM   10  C   UNL     1     -10.208  14.202  68.373  1.00  0.00    -0.247 C  
BRANCH  10  11
HETATM   11  C   UNL     1     -11.314  14.557  69.281  1.00  0.00    -0.317 C  
HETATM   12  C   UNL     1     -12.180  14.879  70.049  1.00  0.00    -0.381 C  
ENDBRANCH  10  11
ENDBRANCH   2  10
TORSDOF 4
ENDMDL
MODEL       94
REMARK 921   NORMALIZED FREE ENERGY PREDICTED BY IDOCK:   -3.14 KCAL/MOL
REMARK 922        TOTAL FREE ENERGY PREDICTED BY IDOCK:   -4.32 KCAL/MOL
REMARK 923 INTER-LIGAND FREE ENERGY PREDICTED BY IDOCK:   -3.99 KCAL/MOL
REMARK 924 INTRA-LIGAND FREE ENERGY PREDICTED BY IDOCK:   -0.33 KCAL/MOL
REMARK 927      BINDING AFFINITY PREDICTED BY RF-SCORE:    0.00 PKD
ROOT
HETATM    1  C   UNL     1     -12.280  12.659  70.259  1.00  0.00    -0.271 C  
HETATM    2  N   UNL     1     -12.260  13.921  69.507  1.00  0.00    -0.336 NA 
ENDROOT
BRANCH   2   3
HETATM    3  C   UNL     1     -10.869  14.383  69.297  1.00  0.00    -0.239 C  
BRANCH   3   4
HETATM    4  C   UNL     1     -10.693  15.413  68.197  1.00  0.00    -0.271 A  
HETATM    5  C   UNL     1     -10.682  15.013  66.852  1.00  0.00    -0.308 A  
HETATM    6  C   UNL     1     -10.518  16.771  68.499  1.00  0.00    -0.335 A  
HETATM    7  C   UNL     1     -10.527  15.952  65.830  1.00  0.00    -0.373 A  
HETATM    8  C   UNL     1     -10.366  17.709  67.474  1.00  0.00    -0.365 A  
HETATM    9  C   UNL     1     -10.376  17.301  66.142  1.00  0.00    -0.320 A  
ENDBRANCH   3   4
ENDBRANCH   2   3
BRANCH   2  10
HETATM   10  C   UNL     1     -12.991  14.976  70.236  1.00  0.00    -0.167 C  
BRANCH  10  11
HETATM   11  C   UNL     1     -12.417  15.297  71.556  1.00  0.00    -0.430 C  
HETATM   12  C   UNL     1     -11.901  15.570  72.605  1.00  0.00    -0.575 C  
ENDBRANCH  10  11
ENDBRANCH   2  10
TORSDOF 4
ENDMDL
MODEL       95
REMARK 921   NORMALIZED FREE ENERGY PREDICTED BY IDOCK:   -3.11 KCAL/MOL
REMARK 922        TOTAL FREE ENERGY PREDICTED BY IDOCK:   -4.29 KCAL/MOL
REMARK 923 INTER-LIGAND FREE ENERGY PREDICTED BY IDOCK:   -3.83 KCAL/MOL
REMARK 924 INTRA-LIGAND FREE ENERGY PREDICTED BY IDOCK:   -0.46 KCAL/MOL
REMARK 927      BINDING AFFINITY PREDICTED BY RF-SCORE:    0.00 PKD
ROOT
HETATM    1  C   UNL     1     -11.922  15.699  69.567  1.00  0.00    -0.345 C  
HETATM    2  N   UNL     1     -11.052  15.105  68.544  1.00  0.00    -0.263 NA 
ENDROOT
BRANCH   2   3
HETATM    3  C   UNL     1     -11.547  13.767  68.148  1.00  0.00    -0.335 C  
BRANCH   3   4
HETATM    4  C   UNL     1     -11.623  13.526  66.653  1.00  0.00    -0.396 A  
HETATM    5  C   UNL     1     -11.631  12.216  66.149  1.00  0.00    -0.418 A  
HETATM    6  C   UNL     1     -11.666  14.597  65.748  1.00  0.00    -0.302 A  
HETATM    7  C   UNL     1     -11.708  11.981  64.775  1.00  0.00    -0.342 A  
HETATM    8  C   UNL     1     -11.746  14.359  64.374  1.00  0.00    -0.390 A  
HETATM    9  C   UNL     1     -11.772  13.053  63.888  1.00  0.00    -0.531 A  
ENDBRANCH   3   4
ENDBRANCH   2   3
BRANCH   2  10
HETATM   10  C   UNL     1      -9.674  14.955  69.052  1.00  0.00    -0.212 C  
BRANCH  10  11
HETATM   11  C   UNL     1      -8.690  14.602  68.013  1.00  0.00    -0.167 C  
HETATM   12  C   UNL     1      -7.928  14.287  67.139  1.00  0.00    -0.128 C  
ENDBRANCH  10  11
ENDBRANCH   2  10
TORSDOF 4
ENDMDL
MODEL       96
REMARK 921   NORMALIZED FREE ENERGY PREDICTED BY IDOCK:   -3.10 KCAL/MOL
REMARK 922        TOTAL FREE ENERGY PREDICTED BY IDOCK:   -4.27 KCAL/MOL
REMARK 923 INTER-LIGAND FREE ENERGY PREDICTED BY IDOCK:   -3.85 KCAL/MOL
REMARK 924 INTRA-LIGAND FREE ENERGY PREDICTED BY IDOCK:   -0.42 KCAL/MOL
REMARK 927      BINDING AFFINITY PREDICTED BY RF-SCORE:    0.00 PKD
ROOT
HETATM    1  C   UNL     1     -11.985  14.278  70.722  1.00  0.00    -0.320 C  
HETATM    2  N   UNL     1     -11.603  13.707  69.424  1.00  0.00    -0.295 NA 
ENDROOT
BRANCH   2   3
HETATM    3  C   UNL     1     -12.236  14.456  68.315  1.00  0.00    -0.125 C  
BRANCH   3   4
HETATM    4  C   UNL     1     -11.749  14.085  66.928  1.00  0.00    -0.435 A  
HETATM    5  C   UNL     1     -10.377  14.107  66.633  1.00  0.00    -0.277 A  
HETATM    6  C   UNL     1     -12.652  13.736  65.913  1.00  0.00    -0.494 A  
HETATM    7  C   UNL     1      -9.915  13.761  65.362  1.00  0.00    -0.254 A  
HETATM    8  C   UNL     1     -12.187  13.388  64.642  1.00  0.00    -0.456 A  
HETATM    9  C   UNL     1     -10.821  13.395  64.368  1.00  0.00    -0.422 A  
ENDBRANCH   3   4
ENDBRANCH   2   3
BRANCH   2  10
HETATM   10  C   UNL     1     -12.027  12.296  69.329  1.00  0.00    -0.253 C  
BRANCH  10  11
HETATM   11  C   UNL     1     -10.914  11.352  69.117  1.00  0.00    -0.289 C  
HETATM   12  C   UNL     1      -9.981  10.607  68.986  1.00  0.00    -0.226 C  
ENDBRANCH  10  11
ENDBRANCH   2  10
TORSDOF 4
ENDMDL
MODEL       97
REMARK 921   NORMALIZED FREE ENERGY PREDICTED BY IDOCK:   -3.09 KCAL/MOL
REMARK 922        TOTAL FREE ENERGY PREDICTED BY IDOCK:   -4.27 KCAL/MOL
REMARK 923 INTER-LIGAND FREE ENERGY PREDICTED BY IDOCK:   -4.34 KCAL/MOL
REMARK 924 INTRA-LIGAND FREE ENERGY PREDICTED BY IDOCK:    0.08 KCAL/MOL
REMARK 927      BINDING AFFINITY PREDICTED BY RF-SCORE:    0.00 PKD
ROOT
HETATM    1  C   UNL     1     -12.783  11.454  71.254  1.00  0.00    -0.393 C  
HETATM    2  N   UNL     1     -11.660  11.230  70.335  1.00  0.00    -0.288 NA 
ENDROOT
BRANCH   2   3
HETATM    3  C   UNL     1     -12.141  11.099  68.941  1.00  0.00    -0.207 C  
BRANCH   3   4
HETATM    4  C   UNL     1     -11.893  12.307  68.059  1.00  0.00    -0.368 A  
HETATM    5  C   UNL     1     -11.538  12.135  66.711  1.00  0.00    -0.412 A  
HETATM    6  C   UNL     1     -11.990  13.609  68.570  1.00  0.00    -0.396 A  
HETATM    7  C   UNL     1     -11.313  13.240  65.887  1.00  0.00    -0.333 A  
HETATM    8  C   UNL     1     -11.767  14.713  67.742  1.00  0.00    -0.386 A  
HETATM    9  C   UNL     1     -11.434  14.529  66.402  1.00  0.00    -0.362 A  
ENDBRANCH   3   4
ENDBRANCH   2   3
BRANCH   2  10
HETATM   10  C   UNL     1     -10.933   9.994  70.689  1.00  0.00    -0.322 C  
BRANCH  10  11
HETATM   11  C   UNL     1     -11.671   9.111  71.610  1.00  0.00    -0.448 C  
HETATM   12  C   UNL     1     -12.224   8.375  72.381  1.00  0.00    -0.430 C  
ENDBRANCH  10  11
ENDBRANCH   2  10
TORSDOF 4
ENDMDL
MODEL       98
REMARK 921   NORMALIZED FREE ENERGY PREDICTED BY IDOCK:   -3.06 KCAL/MOL
REMARK 922        TOTAL FREE ENERGY PREDICTED BY IDOCK:   -4.23 KCAL/MOL
REMARK 923 INTER-LIGAND FREE ENERGY PREDICTED BY IDOCK:   -3.77 KCAL/MOL
REMARK 924 INTRA-LIGAND FREE ENERGY PREDICTED BY IDOCK:   -0.46 KCAL/MOL
REMARK 927      BINDING AFFINITY PREDICTED BY RF-SCORE:    0.00 PKD
ROOT
HETATM    1  C   UNL     1     -11.153   5.997  71.642  1.00  0.00    -0.275 C  
HETATM    2  N   UNL     1     -11.384   7.373  71.183  1.00  0.00    -0.262 NA 
ENDROOT
BRANCH   2   3
HETATM    3  C   UNL     1     -10.137   7.964  70.649  1.00  0.00    -0.194 C  
BRANCH   3   4
HETATM    4  C   UNL     1     -10.180   8.340  69.181  1.00  0.00    -0.223 A  
HETATM    5  C   UNL     1     -10.088   9.686  68.794  1.00  0.00    -0.193 A  
HETATM    6  C   UNL     1     -10.333   7.361  68.187  1.00  0.00    -0.235 A  
HETATM    7  C   UNL     1     -10.119  10.043  67.444  1.00  0.00    -0.256 A  
HETATM    8  C   UNL     1     -10.361   7.721  66.838  1.00  0.00    -0.396 A  
HETATM    9  C   UNL     1     -10.250   9.059  66.467  1.00  0.00    -0.318 A  
ENDBRANCH   3   4
ENDBRANCH   2   3
BRANCH   2  10
HETATM   10  C   UNL     1     -11.858   8.222  72.294  1.00  0.00    -0.388 C  
BRANCH  10  11
HETATM   11  C   UNL     1     -12.445   9.502  71.859  1.00  0.00    -0.465 C  
HETATM   12  C   UNL     1     -12.880  10.572  71.528  1.00  0.00    -0.568 C  
ENDBRANCH  10  11
ENDBRANCH   2  10
TORSDOF 4
ENDMDL
MODEL       99
REMARK 921   NORMALIZED FREE ENERGY PREDICTED BY IDOCK:   -3.06 KCAL/MOL
REMARK 922        TOTAL FREE ENERGY PREDICTED BY IDOCK:   -4.22 KCAL/MOL
REMARK 923 INTER-LIGAND FREE ENERGY PREDICTED BY IDOCK:   -3.86 KCAL/MOL
REMARK 924 INTRA-LIGAND FREE ENERGY PREDICTED BY IDOCK:   -0.36 KCAL/MOL
REMARK 927      BINDING AFFINITY PREDICTED BY RF-SCORE:    0.00 PKD
ROOT
HETATM    1  C   UNL     1      -8.768  11.119  68.737  1.00  0.00    -0.128 C  
HETATM    2  N   UNL     1      -9.624  10.151  68.039  1.00  0.00    -0.144 NA 
ENDROOT
BRANCH   2   3
HETATM    3  C   UNL     1     -10.914  10.769  67.659  1.00  0.00    -0.306 C  
BRANCH   3   4
HETATM    4  C   UNL     1     -10.967  11.335  66.254  1.00  0.00    -0.265 A  
HETATM    5  C   UNL     1     -11.761  12.459  65.975  1.00  0.00    -0.469 A  
HETATM    6  C   UNL     1     -10.248  10.741  65.206  1.00  0.00    -0.351 A  
HETATM    7  C   UNL     1     -11.813  12.993  64.687  1.00  0.00    -0.422 A  
HETATM    8  C   UNL     1     -10.299  11.280  63.918  1.00  0.00    -0.439 A  
HETATM    9  C   UNL     1     -11.077  12.407  63.660  1.00  0.00    -0.535 A  
ENDBRANCH   3   4
ENDBRANCH   2   3
BRANCH   2  10
HETATM   10  C   UNL     1      -9.907   8.986  68.901  1.00  0.00    -0.175 C  
BRANCH  10  11
HETATM   11  C   UNL     1     -10.335   7.785  68.161  1.00  0.00    -0.248 C  
HETATM   12  C   UNL     1     -10.727   6.836  67.537  1.00  0.00    -0.381 C  
ENDBRANCH  10  11
ENDBRANCH   2  10
TORSDOF 4
ENDMDL
MODEL      100
REMARK 921   NORMALIZED FREE ENERGY PREDICTED BY IDOCK:   -3.05 KCAL/MOL
REMARK 922        TOTAL FREE ENERGY PREDICTED BY IDOCK:   -4.21 KCAL/MOL
REMARK 923 INTER-LIGAND FREE ENERGY PREDICTED BY IDOCK:   -3.98 KCAL/MOL
REMARK 924 INTRA-LIGAND FREE ENERGY PREDICTED BY IDOCK:   -0.24 KCAL/MOL
REMARK 927      BINDING AFFINITY PREDICTED BY RF-SCORE:    0.00 PKD
ROOT
HETATM    1  C   UNL     1      -9.204  15.669  69.368  1.00  0.00    -0.279 C  
HETATM    2  N   UNL     1     -10.357  16.251  68.670  1.00  0.00    -0.249 NA 
ENDROOT
BRANCH   2   3
HETATM    3  C   UNL     1     -10.386  17.721  68.839  1.00  0.00    -0.300 C  
BRANCH   3   4
HETATM    4  C   UNL     1      -9.199  18.459  68.253  1.00  0.00    -0.333 A  
HETATM    5  C   UNL     1      -8.900  18.342  66.886  1.00  0.00    -0.279 A  
HETATM    6  C   UNL     1      -8.368  19.251  69.059  1.00  0.00    -0.268 A  
HETATM    7  C   UNL     1      -7.813  19.022  66.333  1.00  0.00    -0.291 A  
HETATM    8  C   UNL     1      -7.282  19.933  68.502  1.00  0.00    -0.331 A  
HETATM    9  C   UNL     1      -7.009  19.823  67.141  1.00  0.00    -0.235 A  
ENDBRANCH   3   4
ENDBRANCH   2   3
BRANCH   2  10
HETATM   10  C   UNL     1     -11.621  15.702  69.200  1.00  0.00    -0.383 C  
BRANCH  10  11
HETATM   11  C   UNL     1     -11.772  15.854  70.659  1.00  0.00    -0.411 C  
HETATM   12  C   UNL     1     -11.860  16.021  71.845  1.00  0.00    -0.619 C  
ENDBRANCH  10  11
ENDBRANCH   2  10
TORSDOF 4
ENDMDL
MODEL      101
REMARK 921   NORMALIZED FREE ENERGY PREDICTED BY IDOCK:   -3.03 KCAL/MOL
REMARK 922        TOTAL FREE ENERGY PREDICTED BY IDOCK:   -4.19 KCAL/MOL
REMARK 923 INTER-LIGAND FREE ENERGY PREDICTED BY IDOCK:   -3.87 KCAL/MOL
REMARK 924 INTRA-LIGAND FREE ENERGY PREDICTED BY IDOCK:   -0.31 KCAL/MOL
REMARK 927      BINDING AFFINITY PREDICTED BY RF-SCORE:    0.00 PKD
ROOT
HETATM    1  C   UNL     1     -11.287  11.675  64.028  1.00  0.00    -0.345 C  
HETATM    2  N   UNL     1     -10.968  11.661  65.462  1.00  0.00    -0.291 NA 
ENDROOT
BRANCH   2   3
HETATM    3  C   UNL     1     -11.624  12.792  66.156  1.00  0.00    -0.379 C  
BRANCH   3   4
HETATM    4  C   UNL     1     -11.775  12.626  67.655  1.00  0.00    -0.420 A  
HETATM    5  C   UNL     1     -11.856  11.342  68.218  1.00  0.00    -0.320 A  
HETATM    6  C   UNL     1     -11.860  13.740  68.503  1.00  0.00    -0.406 A  
HETATM    7  C   UNL     1     -11.988  11.176  69.598  1.00  0.00    -0.429 A  
HETATM    8  C   UNL     1     -11.990  13.571  69.884  1.00  0.00    -0.416 A  
HETATM    9  C   UNL     1     -12.049  12.292  70.431  1.00  0.00    -0.385 A  
ENDBRANCH   3   4
ENDBRANCH   2   3
BRANCH   2  10
HETATM   10  C   UNL     1      -9.511  11.773  65.674  1.00  0.00    -0.192 C  
BRANCH  10  11
HETATM   11  C   UNL     1      -8.883  10.534  66.168  1.00  0.00    -0.172 C  
HETATM   12  C   UNL     1      -8.380   9.501  66.521  1.00  0.00    -0.119 C  
ENDBRANCH  10  11
ENDBRANCH   2  10
TORSDOF 4
ENDMDL
MODEL      102
REMARK 921   NORMALIZED FREE ENERGY PREDICTED BY IDOCK:   -3.02 KCAL/MOL
REMARK 922        TOTAL FREE ENERGY PREDICTED BY IDOCK:   -4.18 KCAL/MOL
REMARK 923 INTER-LIGAND FREE ENERGY PREDICTED BY IDOCK:   -3.75 KCAL/MOL
REMARK 924 INTRA-LIGAND FREE ENERGY PREDICTED BY IDOCK:   -0.43 KCAL/MOL
REMARK 927      BINDING AFFINITY PREDICTED BY RF-SCORE:    0.00 PKD
ROOT
HETATM    1  C   UNL     1      -9.708   4.729  70.538  1.00  0.00    -0.211 C  
HETATM    2  N   UNL     1     -10.016   5.982  71.239  1.00  0.00    -0.181 NA 
ENDROOT
BRANCH   2   3
HETATM    3  C   UNL     1     -10.771   6.903  70.360  1.00  0.00    -0.246 C  
BRANCH   3   4
HETATM    4  C   UNL     1     -11.906   7.650  71.033  1.00  0.00    -0.306 A  
HETATM    5  C   UNL     1     -13.146   7.021  71.230  1.00  0.00    -0.329 A  
HETATM    6  C   UNL     1     -11.751   8.980  71.451  1.00  0.00    -0.392 A  
HETATM    7  C   UNL     1     -14.196   7.696  71.855  1.00  0.00    -0.492 A  
HETATM    8  C   UNL     1     -12.803   9.652  72.079  1.00  0.00    -0.497 A  
HETATM    9  C   UNL     1     -14.022   9.009  72.285  1.00  0.00    -0.522 A  
ENDBRANCH   3   4
ENDBRANCH   2   3
BRANCH   2  10
HETATM   10  C   UNL     1      -8.776   6.663  71.663  1.00  0.00    -0.130 C  
BRANCH  10  11
HETATM   11  C   UNL     1      -8.840   7.226  73.024  1.00  0.00    -0.165 C  
HETATM   12  C   UNL     1      -8.860   7.642  74.150  1.00  0.00    -0.280 C  
ENDBRANCH  10  11
ENDBRANCH   2  10
TORSDOF 4
ENDMDL
MODEL      103
REMARK 921   NORMALIZED FREE ENERGY PREDICTED BY IDOCK:   -3.02 KCAL/MOL
REMARK 922        TOTAL FREE ENERGY PREDICTED BY IDOCK:   -4.17 KCAL/MOL
REMARK 923 INTER-LIGAND FREE ENERGY PREDICTED BY IDOCK:   -3.93 KCAL/MOL
REMARK 924 INTRA-LIGAND FREE ENERGY PREDICTED BY IDOCK:   -0.24 KCAL/MOL
REMARK 927      BINDING AFFINITY PREDICTED BY RF-SCORE:    0.00 PKD
ROOT
HETATM    1  C   UNL     1     -14.307   8.285  71.368  1.00  0.00    -0.361 C  
HETATM    2  N   UNL     1     -12.945   8.806  71.537  1.00  0.00    -0.328 NA 
ENDROOT
BRANCH   2   3
HETATM    3  C   UNL     1     -12.215   8.040  72.573  1.00  0.00    -0.242 C  
BRANCH   3   4
HETATM    4  C   UNL     1     -10.704   8.066  72.447  1.00  0.00    -0.386 A  
HETATM    5  C   UNL     1      -9.899   7.665  73.525  1.00  0.00    -0.357 A  
HETATM    6  C   UNL     1     -10.083   8.508  71.269  1.00  0.00    -0.286 A  
HETATM    7  C   UNL     1      -8.507   7.678  73.418  1.00  0.00    -0.220 A  
HETATM    8  C   UNL     1      -8.689   8.518  71.165  1.00  0.00    -0.215 A  
HETATM    9  C   UNL     1      -7.903   8.098  72.235  1.00  0.00    -0.167 A  
ENDBRANCH   3   4
ENDBRANCH   2   3
BRANCH   2  10
HETATM   10  C   UNL     1     -12.974  10.224  71.949  1.00  0.00    -0.449 C  
BRANCH  10  11
HETATM   11  C   UNL     1     -12.425  11.149  70.941  1.00  0.00    -0.509 C  
HETATM   12  C   UNL     1     -11.948  11.928  70.160  1.00  0.00    -0.413 C  
ENDBRANCH  10  11
ENDBRANCH   2  10
TORSDOF 4
ENDMDL
MODEL      104
REMARK 921   NORMALIZED FREE ENERGY PREDICTED BY IDOCK:   -3.00 KCAL/MOL
REMARK 922        TOTAL FREE ENERGY PREDICTED BY IDOCK:   -4.16 KCAL/MOL
REMARK 923 INTER-LIGAND FREE ENERGY PREDICTED BY IDOCK:   -4.00 KCAL/MOL
REMARK 924 INTRA-LIGAND FREE ENERGY PREDICTED BY IDOCK:   -0.15 KCAL/MOL
REMARK 927      BINDING AFFINITY PREDICTED BY RF-SCORE:    0.00 PKD
ROOT
HETATM    1  C   UNL     1      -9.312  15.672  69.278  1.00  0.00    -0.267 C  
HETATM    2  N   UNL     1     -10.358  16.222  68.407  1.00  0.00    -0.259 NA 
ENDROOT
BRANCH   2   3
HETATM    3  C   UNL     1     -10.581  17.657  68.695  1.00  0.00    -0.244 C  
BRANCH   3   4
HETATM    4  C   UNL     1      -9.660  18.611  67.960  1.00  0.00    -0.348 A  
HETATM    5  C   UNL     1      -8.506  19.104  68.590  1.00  0.00    -0.397 A  
HETATM    6  C   UNL     1      -9.949  19.035  66.655  1.00  0.00    -0.428 A  
HETATM    7  C   UNL     1      -7.647  19.977  67.921  1.00  0.00    -0.325 A  
HETATM    8  C   UNL     1      -9.086  19.908  65.987  1.00  0.00    -0.321 A  
HETATM    9  C   UNL     1      -7.934  20.374  66.617  1.00  0.00    -0.256 A  
ENDBRANCH   3   4
ENDBRANCH   2   3
BRANCH   2  10
HETATM   10  C   UNL     1     -11.635  15.508  68.609  1.00  0.00    -0.368 C  
BRANCH  10  11
HETATM   11  C   UNL     1     -12.000  14.612  67.497  1.00  0.00    -0.309 C  
HETATM   12  C   UNL     1     -12.244  13.878  66.577  1.00  0.00    -0.482 C  
ENDBRANCH  10  11
ENDBRANCH   2  10
TORSDOF 4
ENDMDL
MODEL      105
REMARK 921   NORMALIZED FREE ENERGY PREDICTED BY IDOCK:   -3.00 KCAL/MOL
REMARK 922        TOTAL FREE ENERGY PREDICTED BY IDOCK:   -4.16 KCAL/MOL
REMARK 923 INTER-LIGAND FREE ENERGY PREDICTED BY IDOCK:   -3.76 KCAL/MOL
REMARK 924 INTRA-LIGAND FREE ENERGY PREDICTED BY IDOCK:   -0.39 KCAL/MOL
REMARK 927      BINDING AFFINITY PREDICTED BY RF-SCORE:    0.00 PKD
ROOT
HETATM    1  C   UNL     1     -10.494  17.935  67.952  1.00  0.00    -0.396 C  
HETATM    2  N   UNL     1     -10.191  16.507  67.799  1.00  0.00    -0.269 NA 
ENDROOT
BRANCH   2   3
HETATM    3  C   UNL     1     -11.365  15.775  67.270  1.00  0.00    -0.059 C  
BRANCH   3   4
HETATM    4  C   UNL     1     -11.094  14.344  66.849  1.00  0.00    -0.325 A  
HETATM    5  C   UNL     1     -10.178  14.072  65.820  1.00  0.00    -0.343 A  
HETATM    6  C   UNL     1     -11.762  13.271  67.458  1.00  0.00    -0.410 A  
HETATM    7  C   UNL     1      -9.916  12.758  65.428  1.00  0.00    -0.215 A  
HETATM    8  C   UNL     1     -11.496  11.957  67.065  1.00  0.00    -0.384 A  
HETATM    9  C   UNL     1     -10.570  11.701  66.056  1.00  0.00    -0.303 A  
ENDBRANCH   3   4
ENDBRANCH   2   3
BRANCH   2  10
HETATM   10  C   UNL     1      -9.822  15.908  69.097  1.00  0.00    -0.247 C  
BRANCH  10  11
HETATM   11  C   UNL     1     -10.929  15.865  70.070  1.00  0.00    -0.361 C  
HETATM   12  C   UNL     1     -11.812  15.780  70.880  1.00  0.00    -0.451 C  
ENDBRANCH  10  11
ENDBRANCH   2  10
TORSDOF 4
ENDMDL
MODEL      106
REMARK 921   NORMALIZED FREE ENERGY PREDICTED BY IDOCK:   -3.00 KCAL/MOL
REMARK 922        TOTAL FREE ENERGY PREDICTED BY IDOCK:   -4.15 KCAL/MOL
REMARK 923 INTER-LIGAND FREE ENERGY PREDICTED BY IDOCK:   -3.76 KCAL/MOL
REMARK 924 INTRA-LIGAND FREE ENERGY PREDICTED BY IDOCK:   -0.39 KCAL/MOL
REMARK 927      BINDING AFFINITY PREDICTED BY RF-SCORE:    0.00 PKD
ROOT
HETATM    1  C   UNL     1      -9.475   9.943  69.606  1.00  0.00    -0.231 C  
HETATM    2  N   UNL     1     -10.022  10.252  68.279  1.00  0.00    -0.144 NA 
ENDROOT
BRANCH   2   3
HETATM    3  C   UNL     1     -11.403  10.772  68.389  1.00  0.00    -0.302 C  
BRANCH   3   4
HETATM    4  C   UNL     1     -11.654  12.087  67.676  1.00  0.00    -0.392 A  
HETATM    5  C   UNL     1     -11.865  12.108  66.288  1.00  0.00    -0.320 A  
HETATM    6  C   UNL     1     -11.659  13.301  68.378  1.00  0.00    -0.372 A  
HETATM    7  C   UNL     1     -12.105  13.311  65.622  1.00  0.00    -0.488 A  
HETATM    8  C   UNL     1     -11.901  14.504  67.709  1.00  0.00    -0.390 A  
HETATM    9  C   UNL     1     -12.129  14.508  66.334  1.00  0.00    -0.320 A  
ENDBRANCH   3   4
ENDBRANCH   2   3
BRANCH   2  10
HETATM   10  C   UNL     1     -10.051   9.044  67.431  1.00  0.00    -0.230 C  
BRANCH  10  11
HETATM   11  C   UNL     1      -9.517   9.255  66.073  1.00  0.00    -0.311 C  
HETATM   12  C   UNL     1      -9.108   9.381  64.950  1.00  0.00    -0.258 C  
ENDBRANCH  10  11
ENDBRANCH   2  10
TORSDOF 4
ENDMDL
MODEL      107
REMARK 921   NORMALIZED FREE ENERGY PREDICTED BY IDOCK:   -2.99 KCAL/MOL
REMARK 922        TOTAL FREE ENERGY PREDICTED BY IDOCK:   -4.14 KCAL/MOL
REMARK 923 INTER-LIGAND FREE ENERGY PREDICTED BY IDOCK:   -3.86 KCAL/MOL
REMARK 924 INTRA-LIGAND FREE ENERGY PREDICTED BY IDOCK:   -0.28 KCAL/MOL
REMARK 927      BINDING AFFINITY PREDICTED BY RF-SCORE:    0.00 PKD
ROOT
HETATM    1  C   UNL     1     -12.419  12.181  63.658  1.00  0.00    -0.549 C  
HETATM    2  N   UNL     1     -11.004  12.261  64.044  1.00  0.00    -0.346 NA 
ENDROOT
BRANCH   2   3
HETATM    3  C   UNL     1     -10.704  11.307  65.135  1.00  0.00    -0.246 C  
BRANCH   3   4
HETATM    4  C   UNL     1      -9.732  10.201  64.772  1.00  0.00    -0.389 A  
HETATM    5  C   UNL     1      -9.343   9.259  65.738  1.00  0.00    -0.306 A  
HETATM    6  C   UNL     1      -9.189  10.108  63.482  1.00  0.00    -0.322 A  
HETATM    7  C   UNL     1      -8.455   8.231  65.414  1.00  0.00    -0.189 A  
HETATM    8  C   UNL     1      -8.301   9.077  63.161  1.00  0.00    -0.195 A  
HETATM    9  C   UNL     1      -7.939   8.138  64.123  1.00  0.00    -0.142 A  
ENDBRANCH   3   4
ENDBRANCH   2   3
BRANCH   2  10
HETATM   10  C   UNL     1     -10.666  13.619  64.514  1.00  0.00    -0.407 C  
BRANCH  10  11
HETATM   11  C   UNL     1     -11.345  14.004  65.764  1.00  0.00    -0.312 C  
HETATM   12  C   UNL     1     -11.943  14.290  66.766  1.00  0.00    -0.462 C  
ENDBRANCH  10  11
ENDBRANCH   2  10
TORSDOF 4
ENDMDL
MODEL      108
REMARK 921   NORMALIZED FREE ENERGY PREDICTED BY IDOCK:   -2.98 KCAL/MOL
REMARK 922        TOTAL FREE ENERGY PREDICTED BY IDOCK:   -4.13 KCAL/MOL
REMARK 923 INTER-LIGAND FREE ENERGY PREDICTED BY IDOCK:   -3.75 KCAL/MOL
REMARK 924 INTRA-LIGAND FREE ENERGY PREDICTED BY IDOCK:   -0.37 KCAL/MOL
REMARK 927      BINDING AFFINITY PREDICTED BY RF-SCORE:    0.00 PKD
ROOT
HETATM    1  C   UNL     1     -10.366  16.400  66.245  1.00  0.00    -0.329 C  
HETATM    2  N   UNL     1     -10.377  15.221  67.121  1.00  0.00    -0.261 NA 
ENDROOT
BRANCH   2   3
HETATM    3  C   UNL     1     -11.723  15.008  67.698  1.00  0.00    -0.262 C  
BRANCH   3   4
HETATM    4  C   UNL     1     -11.855  13.791  68.593  1.00  0.00    -0.409 A  
HETATM    5  C   UNL     1     -12.234  13.941  69.936  1.00  0.00    -0.393 A  
HETATM    6  C   UNL     1     -11.583  12.504  68.108  1.00  0.00    -0.390 A  
HETATM    7  C   UNL     1     -12.365  12.827  70.768  1.00  0.00    -0.375 A  
HETATM    8  C   UNL     1     -11.718  11.390  68.942  1.00  0.00    -0.409 A  
HETATM    9  C   UNL     1     -12.113  11.552  70.268  1.00  0.00    -0.444 A  
ENDBRANCH   3   4
ENDBRANCH   2   3
BRANCH   2  10
HETATM   10  C   UNL     1      -9.420  15.388  68.234  1.00  0.00    -0.200 C  
BRANCH  10  11
HETATM   11  C   UNL     1      -8.333  14.393  68.241  1.00  0.00    -0.158 C  
HETATM   12  C   UNL     1      -7.453  13.578  68.303  1.00  0.00    -0.122 C  
ENDBRANCH  10  11
ENDBRANCH   2  10
TORSDOF 4
ENDMDL
MODEL      109
REMARK 921   NORMALIZED FREE ENERGY PREDICTED BY IDOCK:   -2.97 KCAL/MOL
REMARK 922        TOTAL FREE ENERGY PREDICTED BY IDOCK:   -4.12 KCAL/MOL
REMARK 923 INTER-LIGAND FREE ENERGY PREDICTED BY IDOCK:   -4.12 KCAL/MOL
REMARK 924 INTRA-LIGAND FREE ENERGY PREDICTED BY IDOCK:   -0.00 KCAL/MOL
REMARK 927      BINDING AFFINITY PREDICTED BY RF-SCORE:    0.00 PKD
ROOT
HETATM    1  C   UNL     1     -10.645  16.439  65.483  1.00  0.00    -0.330 C  
HETATM    2  N   UNL     1     -10.291  16.180  66.885  1.00  0.00    -0.293 NA 
ENDROOT
BRANCH   2   3
HETATM    3  C   UNL     1     -11.171  15.138  67.463  1.00  0.00    -0.330 C  
BRANCH   3   4
HETATM    4  C   UNL     1     -10.703  13.712  67.252  1.00  0.00    -0.283 A  
HETATM    5  C   UNL     1     -11.636  12.665  67.188  1.00  0.00    -0.434 A  
HETATM    6  C   UNL     1      -9.338  13.406  67.140  1.00  0.00    -0.240 A  
HETATM    7  C   UNL     1     -11.218  11.348  66.988  1.00  0.00    -0.350 A  
HETATM    8  C   UNL     1      -8.922  12.088  66.937  1.00  0.00    -0.199 A  
HETATM    9  C   UNL     1      -9.861  11.061  66.856  1.00  0.00    -0.222 A  
ENDBRANCH   3   4
ENDBRANCH   2   3
BRANCH   2  10
HETATM   10  C   UNL     1     -10.435  17.405  67.696  1.00  0.00    -0.368 C  
BRANCH  10  11
HETATM   11  C   UNL     1     -10.457  18.647  66.902  1.00  0.00    -0.449 C  
HETATM   12  C   UNL     1     -10.507  19.682  66.294  1.00  0.00    -0.621 C  
ENDBRANCH  10  11
ENDBRANCH   2  10
TORSDOF 4
ENDMDL
MODEL      110
REMARK 921   NORMALIZED FREE ENERGY PREDICTED BY IDOCK:   -2.97 KCAL/MOL
REMARK 922        TOTAL FREE ENERGY PREDICTED BY IDOCK:   -4.12 KCAL/MOL
REMARK 923 INTER-LIGAND FREE ENERGY PREDICTED BY IDOCK:   -4.21 KCAL/MOL
REMARK 924 INTRA-LIGAND FREE ENERGY PREDICTED BY IDOCK:    0.09 KCAL/MOL
REMARK 927      BINDING AFFINITY PREDICTED BY RF-SCORE:    0.00 PKD
ROOT
HETATM    1  C   UNL     1      -9.681   8.731  68.833  1.00  0.00    -0.172 C  
HETATM    2  N   UNL     1     -10.125   9.910  69.588  1.00  0.00    -0.216 NA 
ENDROOT
BRANCH   2   3
HETATM    3  C   UNL     1     -10.333   9.573  71.014  1.00  0.00    -0.283 C  
BRANCH   3   4
HETATM    4  C   UNL     1     -11.662   8.916  71.332  1.00  0.00    -0.385 A  
HETATM    5  C   UNL     1     -12.688   9.657  71.939  1.00  0.00    -0.499 A  
HETATM    6  C   UNL     1     -11.886   7.560  71.049  1.00  0.00    -0.319 A  
HETATM    7  C   UNL     1     -13.918   9.065  72.231  1.00  0.00    -0.522 A  
HETATM    8  C   UNL     1     -13.119   6.971  71.340  1.00  0.00    -0.375 A  
HETATM    9  C   UNL     1     -14.135   7.723  71.924  1.00  0.00    -0.462 A  
ENDBRANCH   3   4
ENDBRANCH   2   3
BRANCH   2  10
HETATM   10  C   UNL     1     -11.397  10.429  69.047  1.00  0.00    -0.219 C  
BRANCH  10  11
HETATM   11  C   UNL     1     -11.560  11.886  69.201  1.00  0.00    -0.373 C  
HETATM   12  C   UNL     1     -11.717  13.064  69.375  1.00  0.00    -0.386 C  
ENDBRANCH  10  11
ENDBRANCH   2  10
TORSDOF 4
ENDMDL
MODEL      111
REMARK 921   NORMALIZED FREE ENERGY PREDICTED BY IDOCK:   -2.96 KCAL/MOL
REMARK 922        TOTAL FREE ENERGY PREDICTED BY IDOCK:   -4.10 KCAL/MOL
REMARK 923 INTER-LIGAND FREE ENERGY PREDICTED BY IDOCK:   -3.74 KCAL/MOL
REMARK 924 INTRA-LIGAND FREE ENERGY PREDICTED BY IDOCK:   -0.36 KCAL/MOL
REMARK 927      BINDING AFFINITY PREDICTED BY RF-SCORE:    0.00 PKD
ROOT
HETATM    1  C   UNL     1      -9.464   4.919  67.379  1.00  0.00    -0.140 C  
HETATM    2  N   UNL     1      -9.947   6.066  68.159  1.00  0.00    -0.138 NA 
ENDROOT
BRANCH   2   3
HETATM    3  C   UNL     1     -10.562   5.615  69.428  1.00  0.00    -0.304 C  
BRANCH   3   4
HETATM    4  C   UNL     1     -10.932   6.724  70.393  1.00  0.00    -0.330 A  
HETATM    5  C   UNL     1      -9.993   7.716  70.722  1.00  0.00    -0.181 A  
HETATM    6  C   UNL     1     -12.200   6.772  70.990  1.00  0.00    -0.405 A  
HETATM    7  C   UNL     1     -10.324   8.746  71.604  1.00  0.00    -0.391 A  
HETATM    8  C   UNL     1     -12.529   7.806  71.871  1.00  0.00    -0.343 A  
HETATM    9  C   UNL     1     -11.595   8.794  72.173  1.00  0.00    -0.434 A  
ENDBRANCH   3   4
ENDBRANCH   2   3
BRANCH   2  10
HETATM   10  C   UNL     1     -10.962   6.824  67.400  1.00  0.00    -0.337 C  
BRANCH  10  11
HETATM   11  C   UNL     1     -10.478   8.118  66.886  1.00  0.00    -0.379 C  
HETATM   12  C   UNL     1     -10.101   9.197  66.514  1.00  0.00    -0.357 C  
ENDBRANCH  10  11
ENDBRANCH   2  10
TORSDOF 4
ENDMDL
MODEL      112
REMARK 921   NORMALIZED FREE ENERGY PREDICTED BY IDOCK:   -2.96 KCAL/MOL
REMARK 922        TOTAL FREE ENERGY PREDICTED BY IDOCK:   -4.10 KCAL/MOL
REMARK 923 INTER-LIGAND FREE ENERGY PREDICTED BY IDOCK:   -4.21 KCAL/MOL
REMARK 924 INTRA-LIGAND FREE ENERGY PREDICTED BY IDOCK:    0.11 KCAL/MOL
REMARK 927      BINDING AFFINITY PREDICTED BY RF-SCORE:    0.00 PKD
ROOT
HETATM    1  C   UNL     1     -12.957  10.506  71.541  1.00  0.00    -0.460 C  
HETATM    2  N   UNL     1     -12.354  11.129  70.355  1.00  0.00    -0.339 NA 
ENDROOT
BRANCH   2   3
HETATM    3  C   UNL     1     -11.028  10.537  70.069  1.00  0.00    -0.286 C  
BRANCH   3   4
HETATM    4  C   UNL     1     -10.702  10.368  68.598  1.00  0.00    -0.250 A  
HETATM    5  C   UNL     1     -10.679  11.486  67.748  1.00  0.00    -0.249 A  
HETATM    6  C   UNL     1     -10.441   9.102  68.054  1.00  0.00    -0.276 A  
HETATM    7  C   UNL     1     -10.373  11.345  66.393  1.00  0.00    -0.284 A  
HETATM    8  C   UNL     1     -10.133   8.964  66.698  1.00  0.00    -0.357 A  
HETATM    9  C   UNL     1     -10.094  10.084  65.870  1.00  0.00    -0.319 A  
ENDBRANCH   3   4
ENDBRANCH   2   3
BRANCH   2  10
HETATM   10  C   UNL     1     -12.176  12.580  70.559  1.00  0.00    -0.297 C  
BRANCH  10  11
HETATM   11  C   UNL     1     -13.140  13.172  71.504  1.00  0.00    -0.404 C  
HETATM   12  C   UNL     1     -13.909  13.705  72.258  1.00  0.00    -0.689 C  
ENDBRANCH  10  11
ENDBRANCH   2  10
TORSDOF 4
ENDMDL
MODEL      113
REMARK 921   NORMALIZED FREE ENERGY PREDICTED BY IDOCK:   -2.96 KCAL/MOL
REMARK 922        TOTAL FREE ENERGY PREDICTED BY IDOCK:   -4.10 KCAL/MOL
REMARK 923 INTER-LIGAND FREE ENERGY PREDICTED BY IDOCK:   -4.07 KCAL/MOL
REMARK 924 INTRA-LIGAND FREE ENERGY PREDICTED BY IDOCK:   -0.03 KCAL/MOL
REMARK 927      BINDING AFFINITY PREDICTED BY RF-SCORE:    0.00 PKD
ROOT
HETATM    1  C   UNL     1     -11.137   6.194  71.090  1.00  0.00    -0.298 C  
HETATM    2  N   UNL     1     -11.066   7.199  72.159  1.00  0.00    -0.240 NA 
ENDROOT
BRANCH   2   3
HETATM    3  C   UNL     1     -10.148   8.299  71.785  1.00  0.00    -0.224 C  
BRANCH   3   4
HETATM    4  C   UNL     1     -10.805   9.479  71.096  1.00  0.00    -0.425 A  
HETATM    5  C   UNL     1     -10.199  10.068  69.975  1.00  0.00    -0.306 A  
HETATM    6  C   UNL     1     -12.009  10.017  71.573  1.00  0.00    -0.438 A  
HETATM    7  C   UNL     1     -10.798  11.151  69.329  1.00  0.00    -0.277 A  
HETATM    8  C   UNL     1     -12.608  11.099  70.922  1.00  0.00    -0.483 A  
HETATM    9  C   UNL     1     -12.006  11.662  69.799  1.00  0.00    -0.402 A  
ENDBRANCH   3   4
ENDBRANCH   2   3
BRANCH   2  10
HETATM   10  C   UNL     1     -10.573   6.595  73.413  1.00  0.00    -0.309 C  
BRANCH  10  11
HETATM   11  C   UNL     1     -10.870   5.157  73.539  1.00  0.00    -0.360 C  
HETATM   12  C   UNL     1     -11.167   3.996  73.637  1.00  0.00    -0.305 C  
ENDBRANCH  10  11
ENDBRANCH   2  10
TORSDOF 4
ENDMDL
MODEL      114
REMARK 921   NORMALIZED FREE ENERGY PREDICTED BY IDOCK:   -2.95 KCAL/MOL
REMARK 922        TOTAL FREE ENERGY PREDICTED BY IDOCK:   -4.10 KCAL/MOL
REMARK 923 INTER-LIGAND FREE ENERGY PREDICTED BY IDOCK:   -3.69 KCAL/MOL
REMARK 924 INTRA-LIGAND FREE ENERGY PREDICTED BY IDOCK:   -0.41 KCAL/MOL
REMARK 927      BINDING AFFINITY PREDICTED BY RF-SCORE:    0.00 PKD
ROOT
HETATM    1  C   UNL     1      -8.117  10.819  66.210  1.00  0.00    -0.159 C  
HETATM    2  N   UNL     1      -9.488  11.331  66.339  1.00  0.00    -0.194 NA 
ENDROOT
BRANCH   2   3
HETATM    3  C   UNL     1     -10.433  10.230  66.632  1.00  0.00    -0.194 C  
BRANCH   3   4
HETATM    4  C   UNL     1     -10.837  10.100  68.088  1.00  0.00    -0.310 A  
HETATM    5  C   UNL     1     -11.442  11.180  68.751  1.00  0.00    -0.366 A  
HETATM    6  C   UNL     1     -10.597   8.918  68.803  1.00  0.00    -0.185 A  
HETATM    7  C   UNL     1     -11.825  11.070  70.089  1.00  0.00    -0.441 A  
HETATM    8  C   UNL     1     -10.983   8.810  70.142  1.00  0.00    -0.236 A  
HETATM    9  C   UNL     1     -11.601   9.882  70.782  1.00  0.00    -0.430 A  
ENDBRANCH   3   4
ENDBRANCH   2   3
BRANCH   2  10
HETATM   10  C   UNL     1      -9.920  11.987  65.089  1.00  0.00    -0.239 C  
BRANCH  10  11
HETATM   11  C   UNL     1     -11.333  12.408  65.093  1.00  0.00    -0.367 C  
HETATM   12  C   UNL     1     -12.475  12.776  65.049  1.00  0.00    -0.572 C  
ENDBRANCH  10  11
ENDBRANCH   2  10
TORSDOF 4
ENDMDL
MODEL      115
REMARK 921   NORMALIZED FREE ENERGY PREDICTED BY IDOCK:   -2.95 KCAL/MOL
REMARK 922        TOTAL FREE ENERGY PREDICTED BY IDOCK:   -4.09 KCAL/MOL
REMARK 923 INTER-LIGAND FREE ENERGY PREDICTED BY IDOCK:   -3.84 KCAL/MOL
REMARK 924 INTRA-LIGAND FREE ENERGY PREDICTED BY IDOCK:   -0.26 KCAL/MOL
REMARK 927      BINDING AFFINITY PREDICTED BY RF-SCORE:    0.00 PKD
ROOT
HETATM    1  C   UNL     1     -10.077   8.341  72.687  1.00  0.00    -0.295 C  
HETATM    2  N   UNL     1     -11.502   8.021  72.537  1.00  0.00    -0.387 NA 
ENDROOT
BRANCH   2   3
HETATM    3  C   UNL     1     -11.697   6.955  71.528  1.00  0.00    -0.311 C  
BRANCH   3   4
HETATM    4  C   UNL     1     -11.107   5.607  71.893  1.00  0.00    -0.278 A  
HETATM    5  C   UNL     1     -10.220   4.964  71.016  1.00  0.00    -0.262 A  
HETATM    6  C   UNL     1     -11.448   4.969  73.095  1.00  0.00    -0.362 A  
HETATM    7  C   UNL     1      -9.665   3.726  71.344  1.00  0.00    -0.242 A  
HETATM    8  C   UNL     1     -10.889   3.731  73.422  1.00  0.00    -0.315 A  
HETATM    9  C   UNL     1      -9.995   3.113  72.551  1.00  0.00    -0.228 A  
ENDBRANCH   3   4
ENDBRANCH   2   3
BRANCH   2  10
HETATM   10  C   UNL     1     -12.263   9.210  72.104  1.00  0.00    -0.338 C  
BRANCH  10  11
HETATM   11  C   UNL     1     -11.736   9.842  70.881  1.00  0.00    -0.449 C  
HETATM   12  C   UNL     1     -11.357  10.382  69.877  1.00  0.00    -0.370 C  
ENDBRANCH  10  11
ENDBRANCH   2  10
TORSDOF 4
ENDMDL
MODEL      116
REMARK 921   NORMALIZED FREE ENERGY PREDICTED BY IDOCK:   -2.94 KCAL/MOL
REMARK 922        TOTAL FREE ENERGY PREDICTED BY IDOCK:   -4.08 KCAL/MOL
REMARK 923 INTER-LIGAND FREE ENERGY PREDICTED BY IDOCK:   -4.12 KCAL/MOL
REMARK 924 INTRA-LIGAND FREE ENERGY PREDICTED BY IDOCK:    0.04 KCAL/MOL
REMARK 927      BINDING AFFINITY PREDICTED BY RF-SCORE:    0.00 PKD
ROOT
HETATM    1  C   UNL     1     -11.758  11.527  69.944  1.00  0.00    -0.343 C  
HETATM    2  N   UNL     1     -10.745  11.389  68.890  1.00  0.00    -0.204 NA 
ENDROOT
BRANCH   2   3
HETATM    3  C   UNL     1     -11.353  10.876  67.641  1.00  0.00    -0.270 C  
BRANCH   3   4
HETATM    4  C   UNL     1     -11.389  11.862  66.491  1.00  0.00    -0.403 A  
HETATM    5  C   UNL     1     -10.703  11.581  65.298  1.00  0.00    -0.337 A  
HETATM    6  C   UNL     1     -12.083  13.076  66.598  1.00  0.00    -0.386 A  
HETATM    7  C   UNL     1     -10.735  12.478  64.229  1.00  0.00    -0.399 A  
HETATM    8  C   UNL     1     -12.115  13.971  65.526  1.00  0.00    -0.423 A  
HETATM    9  C   UNL     1     -11.446  13.670  64.341  1.00  0.00    -0.410 A  
ENDBRANCH   3   4
ENDBRANCH   2   3
BRANCH   2  10
HETATM   10  C   UNL     1      -9.683  10.451  69.304  1.00  0.00    -0.214 C  
BRANCH  10  11
HETATM   11  C   UNL     1     -10.011   9.675  70.514  1.00  0.00    -0.318 C  
HETATM   12  C   UNL     1     -10.279   8.996  71.468  1.00  0.00    -0.414 C  
ENDBRANCH  10  11
ENDBRANCH   2  10
TORSDOF 4
ENDMDL
MODEL      117
REMARK 921   NORMALIZED FREE ENERGY PREDICTED BY IDOCK:   -2.94 KCAL/MOL
REMARK 922        TOTAL FREE ENERGY PREDICTED BY IDOCK:   -4.08 KCAL/MOL
REMARK 923 INTER-LIGAND FREE ENERGY PREDICTED BY IDOCK:   -3.72 KCAL/MOL
REMARK 924 INTRA-LIGAND FREE ENERGY PREDICTED BY IDOCK:   -0.36 KCAL/MOL
REMARK 927      BINDING AFFINITY PREDICTED BY RF-SCORE:    0.00 PKD
ROOT
HETATM    1  C   UNL     1     -10.968   9.480  71.089  1.00  0.00    -0.368 C  
HETATM    2  N   UNL     1     -10.771   8.075  71.469  1.00  0.00    -0.222 NA 
ENDROOT
BRANCH   2   3
HETATM    3  C   UNL     1     -11.676   7.191  70.699  1.00  0.00    -0.307 C  
BRANCH   3   4
HETATM    4  C   UNL     1     -10.982   6.201  69.784  1.00  0.00    -0.459 A  
HETATM    5  C   UNL     1     -10.190   5.176  70.324  1.00  0.00    -0.342 A  
HETATM    6  C   UNL     1     -11.099   6.300  68.389  1.00  0.00    -0.371 A  
HETATM    7  C   UNL     1      -9.552   4.254  69.492  1.00  0.00    -0.274 A  
HETATM    8  C   UNL     1     -10.462   5.374  67.559  1.00  0.00    -0.235 A  
HETATM    9  C   UNL     1      -9.694   4.350  68.109  1.00  0.00    -0.181 A  
ENDBRANCH   3   4
ENDBRANCH   2   3
BRANCH   2  10
HETATM   10  C   UNL     1     -11.048   7.877  72.906  1.00  0.00    -0.379 C  
BRANCH  10  11
HETATM   11  C   UNL     1      -9.989   7.143  73.622  1.00  0.00    -0.367 C  
HETATM   12  C   UNL     1      -9.163   6.504  74.217  1.00  0.00    -0.210 C  
ENDBRANCH  10  11
ENDBRANCH   2  10
TORSDOF 4
ENDMDL
MODEL      118
REMARK 921   NORMALIZED FREE ENERGY PREDICTED BY IDOCK:   -2.93 KCAL/MOL
REMARK 922        TOTAL FREE ENERGY PREDICTED BY IDOCK:   -4.07 KCAL/MOL
REMARK 923 INTER-LIGAND FREE ENERGY PREDICTED BY IDOCK:   -3.60 KCAL/MOL
REMARK 924 INTRA-LIGAND FREE ENERGY PREDICTED BY IDOCK:   -0.47 KCAL/MOL
REMARK 927      BINDING AFFINITY PREDICTED BY RF-SCORE:    0.00 PKD
ROOT
HETATM    1  C   UNL     1     -11.881  15.795  72.222  1.00  0.00    -0.498 C  
HETATM    2  N   UNL     1     -11.516  15.292  70.891  1.00  0.00    -0.311 NA 
ENDROOT
BRANCH   2   3
HETATM    3  C   UNL     1     -11.197  16.411  69.976  1.00  0.00    -0.258 C  
BRANCH   3   4
HETATM    4  C   UNL     1     -10.362  16.036  68.768  1.00  0.00    -0.237 A  
HETATM    5  C   UNL     1      -9.232  15.218  68.918  1.00  0.00    -0.211 A  
HETATM    6  C   UNL     1     -10.685  16.513  67.489  1.00  0.00    -0.283 A  
HETATM    7  C   UNL     1      -8.459  14.860  67.811  1.00  0.00    -0.160 A  
HETATM    8  C   UNL     1      -9.911  16.151  66.383  1.00  0.00    -0.304 A  
HETATM    9  C   UNL     1      -8.803  15.322  66.543  1.00  0.00    -0.335 A  
ENDBRANCH   3   4
ENDBRANCH   2   3
BRANCH   2  10
HETATM   10  C   UNL     1     -12.626  14.517  70.302  1.00  0.00    -0.323 C  
BRANCH  10  11
HETATM   11  C   UNL     1     -12.243  13.163  69.864  1.00  0.00    -0.293 C  
HETATM   12  C   UNL     1     -11.894  12.082  69.472  1.00  0.00    -0.390 C  
ENDBRANCH  10  11
ENDBRANCH   2  10
TORSDOF 4
ENDMDL
MODEL      119
REMARK 921   NORMALIZED FREE ENERGY PREDICTED BY IDOCK:   -2.91 KCAL/MOL
REMARK 922        TOTAL FREE ENERGY PREDICTED BY IDOCK:   -4.04 KCAL/MOL
REMARK 923 INTER-LIGAND FREE ENERGY PREDICTED BY IDOCK:   -3.90 KCAL/MOL
REMARK 924 INTRA-LIGAND FREE ENERGY PREDICTED BY IDOCK:   -0.13 KCAL/MOL
REMARK 927      BINDING AFFINITY PREDICTED BY RF-SCORE:    0.00 PKD
ROOT
HETATM    1  C   UNL     1      -9.803   9.018  66.010  1.00  0.00    -0.242 C  
HETATM    2  N   UNL     1      -9.288  10.185  65.283  1.00  0.00    -0.203 NA 
ENDROOT
BRANCH   2   3
HETATM    3  C   UNL     1     -10.249  10.624  64.247  1.00  0.00    -0.320 C  
BRANCH   3   4
HETATM    4  C   UNL     1     -11.046  11.867  64.594  1.00  0.00    -0.373 A  
HETATM    5  C   UNL     1     -11.424  12.115  65.923  1.00  0.00    -0.418 A  
HETATM    6  C   UNL     1     -11.438  12.776  63.601  1.00  0.00    -0.544 A  
HETATM    7  C   UNL     1     -12.151  13.259  66.256  1.00  0.00    -0.472 A  
HETATM    8  C   UNL     1     -12.164  13.922  63.937  1.00  0.00    -0.375 A  
HETATM    9  C   UNL     1     -12.515  14.166  65.262  1.00  0.00    -0.474 A  
ENDBRANCH   3   4
ENDBRANCH   2   3
BRANCH   2  10
HETATM   10  C   UNL     1      -8.009   9.865  64.619  1.00  0.00    -0.141 C  
BRANCH  10  11
HETATM   11  C   UNL     1      -8.157   9.043  63.404  1.00  0.00    -0.167 C  
HETATM   12  C   UNL     1      -8.255   8.330  62.442  1.00  0.00    -0.171 C  
ENDBRANCH  10  11
ENDBRANCH   2  10
TORSDOF 4
ENDMDL
MODEL      120
REMARK 921   NORMALIZED FREE ENERGY PREDICTED BY IDOCK:   -2.89 KCAL/MOL
REMARK 922        TOTAL FREE ENERGY PREDICTED BY IDOCK:   -4.01 KCAL/MOL
REMARK 923 INTER-LIGAND FREE ENERGY PREDICTED BY IDOCK:   -3.61 KCAL/MOL
REMARK 924 INTRA-LIGAND FREE ENERGY PREDICTED BY IDOCK:   -0.40 KCAL/MOL
REMARK 927      BINDING AFFINITY PREDICTED BY RF-SCORE:    0.00 PKD
ROOT
HETATM    1  C   UNL     1     -10.552   7.845  67.430  1.00  0.00    -0.272 C  
HETATM    2  N   UNL     1     -10.297   8.639  68.638  1.00  0.00    -0.198 NA 
ENDROOT
BRANCH   2   3
HETATM    3  C   UNL     1     -10.573  10.072  68.392  1.00  0.00    -0.220 C  
BRANCH   3   4
HETATM    4  C   UNL     1     -11.389  10.764  69.467  1.00  0.00    -0.355 A  
HETATM    5  C   UNL     1     -11.616  12.148  69.399  1.00  0.00    -0.381 A  
HETATM    6  C   UNL     1     -11.910  10.048  70.554  1.00  0.00    -0.387 A  
HETATM    7  C   UNL     1     -12.371  12.795  70.379  1.00  0.00    -0.324 A  
HETATM    8  C   UNL     1     -12.667  10.697  71.532  1.00  0.00    -0.549 A  
HETATM    9  C   UNL     1     -12.902  12.068  71.442  1.00  0.00    -0.391 A  
ENDBRANCH   3   4
ENDBRANCH   2   3
BRANCH   2  10
HETATM   10  C   UNL     1      -8.888   8.508  69.062  1.00  0.00    -0.145 C  
BRANCH  10  11
HETATM   11  C   UNL     1      -8.708   8.453  70.524  1.00  0.00    -0.152 C  
HETATM   12  C   UNL     1      -8.545   8.355  71.711  1.00  0.00    -0.234 C  
ENDBRANCH  10  11
ENDBRANCH   2  10
TORSDOF 4
ENDMDL
MODEL      121
REMARK 921   NORMALIZED FREE ENERGY PREDICTED BY IDOCK:   -2.86 KCAL/MOL
REMARK 922        TOTAL FREE ENERGY PREDICTED BY IDOCK:   -3.98 KCAL/MOL
REMARK 923 INTER-LIGAND FREE ENERGY PREDICTED BY IDOCK:   -3.80 KCAL/MOL
REMARK 924 INTRA-LIGAND FREE ENERGY PREDICTED BY IDOCK:   -0.19 KCAL/MOL
REMARK 927      BINDING AFFINITY PREDICTED BY RF-SCORE:    0.00 PKD
ROOT
HETATM    1  C   UNL     1     -10.895  12.508  67.185  1.00  0.00    -0.250 C  
HETATM    2  N   UNL     1     -11.134  12.582  68.632  1.00  0.00    -0.250 NA 
ENDROOT
BRANCH   2   3
HETATM    3  C   UNL     1     -11.704  11.312  69.135  1.00  0.00    -0.341 C  
BRANCH   3   4
HETATM    4  C   UNL     1     -10.742  10.439  69.916  1.00  0.00    -0.331 A  
HETATM    5  C   UNL     1     -11.183   9.745  71.054  1.00  0.00    -0.451 A  
HETATM    6  C   UNL     1      -9.396  10.325  69.536  1.00  0.00    -0.200 A  
HETATM    7  C   UNL     1     -10.308   8.933  71.777  1.00  0.00    -0.426 A  
HETATM    8  C   UNL     1      -8.523   9.509  70.261  1.00  0.00    -0.237 A  
HETATM    9  C   UNL     1      -8.979   8.810  71.376  1.00  0.00    -0.307 A  
ENDBRANCH   3   4
ENDBRANCH   2   3
BRANCH   2  10
HETATM   10  C   UNL     1     -12.080  13.670  68.950  1.00  0.00    -0.300 C  
BRANCH  10  11
HETATM   11  C   UNL     1     -11.650  14.525  70.072  1.00  0.00    -0.339 C  
HETATM   12  C   UNL     1     -11.259  15.243  70.953  1.00  0.00    -0.367 C  
ENDBRANCH  10  11
ENDBRANCH   2  10
TORSDOF 4
ENDMDL
MODEL      122
REMARK 921   NORMALIZED FREE ENERGY PREDICTED BY IDOCK:   -2.85 KCAL/MOL
REMARK 922        TOTAL FREE ENERGY PREDICTED BY IDOCK:   -3.97 KCAL/MOL
REMARK 923 INTER-LIGAND FREE ENERGY PREDICTED BY IDOCK:   -3.79 KCAL/MOL
REMARK 924 INTRA-LIGAND FREE ENERGY PREDICTED BY IDOCK:   -0.18 KCAL/MOL
REMARK 927      BINDING AFFINITY PREDICTED BY RF-SCORE:    0.00 PKD
ROOT
HETATM    1  C   UNL     1     -10.391  18.015  66.089  1.00  0.00    -0.366 C  
HETATM    2  N   UNL     1      -9.381  17.052  66.548  1.00  0.00    -0.258 NA 
ENDROOT
BRANCH   2   3
HETATM    3  C   UNL     1      -8.022  17.492  66.161  1.00  0.00    -0.226 C  
BRANCH   3   4
HETATM    4  C   UNL     1      -7.449  18.621  66.996  1.00  0.00    -0.229 A  
HETATM    5  C   UNL     1      -7.104  18.399  68.339  1.00  0.00    -0.276 A  
HETATM    6  C   UNL     1      -7.274  19.904  66.458  1.00  0.00    -0.275 A  
HETATM    7  C   UNL     1      -6.570  19.428  69.116  1.00  0.00    -0.357 A  
HETATM    8  C   UNL     1      -6.736  20.931  67.237  1.00  0.00    -0.414 A  
HETATM    9  C   UNL     1      -6.380  20.692  68.563  1.00  0.00    -0.322 A  
ENDBRANCH   3   4
ENDBRANCH   2   3
BRANCH   2  10
HETATM   10  C   UNL     1      -9.620  15.721  65.955  1.00  0.00    -0.347 C  
BRANCH  10  11
HETATM   11  C   UNL     1     -10.735  14.983  66.575  1.00  0.00    -0.312 C  
HETATM   12  C   UNL     1     -11.607  14.352  67.110  1.00  0.00    -0.406 C  
ENDBRANCH  10  11
ENDBRANCH   2  10
TORSDOF 4
ENDMDL
MODEL      123
REMARK 921   NORMALIZED FREE ENERGY PREDICTED BY IDOCK:   -2.85 KCAL/MOL
REMARK 922        TOTAL FREE ENERGY PREDICTED BY IDOCK:   -3.97 KCAL/MOL
REMARK 923 INTER-LIGAND FREE ENERGY PREDICTED BY IDOCK:   -4.17 KCAL/MOL
REMARK 924 INTRA-LIGAND FREE ENERGY PREDICTED BY IDOCK:    0.21 KCAL/MOL
REMARK 927      BINDING AFFINITY PREDICTED BY RF-SCORE:    0.00 PKD
ROOT
HETATM    1  C   UNL     1     -10.096  17.746  66.570  1.00  0.00    -0.358 C  
HETATM    2  N   UNL     1      -9.683  16.593  65.759  1.00  0.00    -0.531 NA 
ENDROOT
BRANCH   2   3
HETATM    3  C   UNL     1     -10.860  15.799  65.339  1.00  0.00    -0.364 C  
BRANCH   3   4
HETATM    4  C   UNL     1     -11.175  14.603  66.216  1.00  0.00    -0.340 A  
HETATM    5  C   UNL     1     -10.904  13.303  65.759  1.00  0.00    -0.286 A  
HETATM    6  C   UNL     1     -11.757  14.765  67.481  1.00  0.00    -0.370 A  
HETATM    7  C   UNL     1     -11.183  12.194  66.559  1.00  0.00    -0.378 A  
HETATM    8  C   UNL     1     -12.033  13.653  68.281  1.00  0.00    -0.385 A  
HETATM    9  C   UNL     1     -11.741  12.371  67.823  1.00  0.00    -0.413 A  
ENDBRANCH   3   4
ENDBRANCH   2   3
BRANCH   2  10
HETATM   10  C   UNL     1      -8.782  15.710  66.526  1.00  0.00    -0.307 C  
BRANCH  10  11
HETATM   11  C   UNL     1      -7.546  16.371  66.982  1.00  0.00    -0.240 C  
HETATM   12  C   UNL     1      -6.513  16.891  67.308  1.00  0.00    -0.201 C  
ENDBRANCH  10  11
ENDBRANCH   2  10
TORSDOF 4
ENDMDL
MODEL      124
REMARK 921   NORMALIZED FREE ENERGY PREDICTED BY IDOCK:   -2.82 KCAL/MOL
REMARK 922        TOTAL FREE ENERGY PREDICTED BY IDOCK:   -3.93 KCAL/MOL
REMARK 923 INTER-LIGAND FREE ENERGY PREDICTED BY IDOCK:   -4.21 KCAL/MOL
REMARK 924 INTRA-LIGAND FREE ENERGY PREDICTED BY IDOCK:    0.28 KCAL/MOL
REMARK 927      BINDING AFFINITY PREDICTED BY RF-SCORE:    0.00 PKD
ROOT
HETATM    1  C   UNL     1     -11.387  15.500  72.379  1.00  0.00    -0.253 C  
HETATM    2  N   UNL     1     -11.576  16.077  71.041  1.00  0.00    -0.418 NA 
ENDROOT
BRANCH   2   3
HETATM    3  C   UNL     1     -12.536  15.271  70.254  1.00  0.00    -0.347 C  
BRANCH   3   4
HETATM    4  C   UNL     1     -12.612  13.806  70.636  1.00  0.00    -0.386 A  
HETATM    5  C   UNL     1     -11.909  12.845  69.892  1.00  0.00    -0.373 A  
HETATM    6  C   UNL     1     -13.395  13.379  71.719  1.00  0.00    -0.479 A  
HETATM    7  C   UNL     1     -11.965  11.494  70.238  1.00  0.00    -0.455 A  
HETATM    8  C   UNL     1     -13.447  12.026  72.065  1.00  0.00    -0.364 A  
HETATM    9  C   UNL     1     -12.729  11.086  71.329  1.00  0.00    -0.537 A  
ENDBRANCH   3   4
ENDBRANCH   2   3
BRANCH   2  10
HETATM   10  C   UNL     1     -10.297  16.119  70.304  1.00  0.00     0.085 C  
BRANCH  10  11
HETATM   11  C   UNL     1     -10.277  17.096  69.200  1.00  0.00    -0.284 C  
HETATM   12  C   UNL     1     -10.266  17.932  68.338  1.00  0.00    -0.398 C  
ENDBRANCH  10  11
ENDBRANCH   2  10
TORSDOF 4
ENDMDL
MODEL      125
REMARK 921   NORMALIZED FREE ENERGY PREDICTED BY IDOCK:   -2.79 KCAL/MOL
REMARK 922        TOTAL FREE ENERGY PREDICTED BY IDOCK:   -3.89 KCAL/MOL
REMARK 923 INTER-LIGAND FREE ENERGY PREDICTED BY IDOCK:   -4.12 KCAL/MOL
REMARK 924 INTRA-LIGAND FREE ENERGY PREDICTED BY IDOCK:    0.23 KCAL/MOL
REMARK 927      BINDING AFFINITY PREDICTED BY RF-SCORE:    0.00 PKD
ROOT
HETATM    1  C   UNL     1      -9.426   6.961  73.117  1.00  0.00    -0.150 C  
HETATM    2  N   UNL     1     -10.877   7.174  73.035  1.00  0.00    -0.306 NA 
ENDROOT
BRANCH   2   3
HETATM    3  C   UNL     1     -11.533   6.048  72.333  1.00  0.00    -0.308 C  
BRANCH   3   4
HETATM    4  C   UNL     1     -11.019   5.776  70.932  1.00  0.00    -0.305 A  
HETATM    5  C   UNL     1     -10.051   4.783  70.716  1.00  0.00    -0.286 A  
HETATM    6  C   UNL     1     -11.480   6.519  69.835  1.00  0.00    -0.467 A  
HETATM    7  C   UNL     1      -9.575   4.519  69.431  1.00  0.00    -0.264 A  
HETATM    8  C   UNL     1     -11.004   6.251  68.549  1.00  0.00    -0.421 A  
HETATM    9  C   UNL     1     -10.057   5.249  68.346  1.00  0.00    -0.224 A  
ENDBRANCH   3   4
ENDBRANCH   2   3
BRANCH   2  10
HETATM   10  C   UNL     1     -11.183   8.416  72.298  1.00  0.00    -0.376 C  
BRANCH  10  11
HETATM   11  C   UNL     1     -12.610   8.784  72.315  1.00  0.00    -0.460 C  
HETATM   12  C   UNL     1     -13.771   9.090  72.273  1.00  0.00    -0.550 C  
ENDBRANCH  10  11
ENDBRANCH   2  10
TORSDOF 4
ENDMDL
MODEL      126
REMARK 921   NORMALIZED FREE ENERGY PREDICTED BY IDOCK:   -2.78 KCAL/MOL
REMARK 922        TOTAL FREE ENERGY PREDICTED BY IDOCK:   -3.88 KCAL/MOL
REMARK 923 INTER-LIGAND FREE ENERGY PREDICTED BY IDOCK:   -3.61 KCAL/MOL
REMARK 924 INTRA-LIGAND FREE ENERGY PREDICTED BY IDOCK:   -0.27 KCAL/MOL
REMARK 927      BINDING AFFINITY PREDICTED BY RF-SCORE:    0.00 PKD
ROOT
HETATM    1  C   UNL     1      -9.603  15.227  69.016  1.00  0.00    -0.237 C  
HETATM    2  N   UNL     1      -8.384  15.998  69.295  1.00  0.00    -0.245 NA 
ENDROOT
BRANCH   2   3
HETATM    3  C   UNL     1      -7.953  16.750  68.095  1.00  0.00    -0.181 C  
BRANCH   3   4
HETATM    4  C   UNL     1      -8.892  17.857  67.658  1.00  0.00    -0.250 A  
HETATM    5  C   UNL     1      -9.472  17.826  66.379  1.00  0.00    -0.277 A  
HETATM    6  C   UNL     1      -9.184  18.936  68.505  1.00  0.00    -0.404 A  
HETATM    7  C   UNL     1     -10.344  18.835  65.968  1.00  0.00    -0.467 A  
HETATM    8  C   UNL     1     -10.059  19.944  68.091  1.00  0.00    -0.569 A  
HETATM    9  C   UNL     1     -10.642  19.891  66.827  1.00  0.00    -0.536 A  
ENDBRANCH   3   4
ENDBRANCH   2   3
BRANCH   2  10
HETATM   10  C   UNL     1      -7.281  15.103  69.699  1.00  0.00    -0.194 C  
BRANCH  10  11
HETATM   11  C   UNL     1      -6.942  14.081  68.691  1.00  0.00    -0.106 C  
HETATM   12  C   UNL     1      -6.620  13.238  67.899  1.00  0.00    -0.145 C  
ENDBRANCH  10  11
ENDBRANCH   2  10
TORSDOF 4
ENDMDL
MODEL      127
REMARK 921   NORMALIZED FREE ENERGY PREDICTED BY IDOCK:   -2.78 KCAL/MOL
REMARK 922        TOTAL FREE ENERGY PREDICTED BY IDOCK:   -3.88 KCAL/MOL
REMARK 923 INTER-LIGAND FREE ENERGY PREDICTED BY IDOCK:   -3.89 KCAL/MOL
REMARK 924 INTRA-LIGAND FREE ENERGY PREDICTED BY IDOCK:    0.01 KCAL/MOL
REMARK 927      BINDING AFFINITY PREDICTED BY RF-SCORE:    0.00 PKD
ROOT
HETATM    1  C   UNL     1      -9.526   4.667  69.423  1.00  0.00    -0.169 C  
HETATM    2  N   UNL     1     -10.196   5.971  69.519  1.00  0.00    -0.190 NA 
ENDROOT
BRANCH   2   3
HETATM    3  C   UNL     1     -11.004   6.054  70.757  1.00  0.00    -0.297 C  
BRANCH   3   4
HETATM    4  C   UNL     1     -11.599   7.418  71.046  1.00  0.00    -0.315 A  
HETATM    5  C   UNL     1     -12.947   7.536  71.421  1.00  0.00    -0.379 A  
HETATM    6  C   UNL     1     -10.829   8.585  70.924  1.00  0.00    -0.275 A  
HETATM    7  C   UNL     1     -13.504   8.786  71.696  1.00  0.00    -0.411 A  
HETATM    8  C   UNL     1     -11.389   9.835  71.203  1.00  0.00    -0.459 A  
HETATM    9  C   UNL     1     -12.722   9.934  71.593  1.00  0.00    -0.527 A  
ENDBRANCH   3   4
ENDBRANCH   2   3
BRANCH   2  10
HETATM   10  C   UNL     1     -11.094   6.184  68.367  1.00  0.00    -0.248 C  
BRANCH  10  11
HETATM   11  C   UNL     1     -10.660   5.497  67.137  1.00  0.00    -0.313 C  
HETATM   12  C   UNL     1     -10.284   4.898  66.166  1.00  0.00    -0.309 C  
ENDBRANCH  10  11
ENDBRANCH   2  10
TORSDOF 4
ENDMDL
MODEL      128
REMARK 921   NORMALIZED FREE ENERGY PREDICTED BY IDOCK:   -2.77 KCAL/MOL
REMARK 922        TOTAL FREE ENERGY PREDICTED BY IDOCK:   -3.86 KCAL/MOL
REMARK 923 INTER-LIGAND FREE ENERGY PREDICTED BY IDOCK:   -3.51 KCAL/MOL
REMARK 924 INTRA-LIGAND FREE ENERGY PREDICTED BY IDOCK:   -0.35 KCAL/MOL
REMARK 927      BINDING AFFINITY PREDICTED BY RF-SCORE:    0.00 PKD
ROOT
HETATM    1  C   UNL     1      -9.423   7.022  72.429  1.00  0.00    -0.142 C  
HETATM    2  N   UNL     1     -10.697   7.415  71.814  1.00  0.00    -0.213 NA 
ENDROOT
BRANCH   2   3
HETATM    3  C   UNL     1     -10.479   8.432  70.761  1.00  0.00    -0.197 C  
BRANCH   3   4
HETATM    4  C   UNL     1     -10.543   7.910  69.339  1.00  0.00    -0.209 A  
HETATM    5  C   UNL     1     -10.752   6.543  69.099  1.00  0.00    -0.323 A  
HETATM    6  C   UNL     1     -10.373   8.769  68.243  1.00  0.00    -0.252 A  
HETATM    7  C   UNL     1     -10.820   6.051  67.794  1.00  0.00    -0.380 A  
HETATM    8  C   UNL     1     -10.444   8.274  66.938  1.00  0.00    -0.365 A  
HETATM    9  C   UNL     1     -10.672   6.918  66.714  1.00  0.00    -0.296 A  
ENDBRANCH   3   4
ENDBRANCH   2   3
BRANCH   2  10
HETATM   10  C   UNL     1     -11.611   7.987  72.823  1.00  0.00    -0.327 C  
BRANCH  10  11
HETATM   11  C   UNL     1     -12.960   8.282  72.308  1.00  0.00    -0.289 C  
HETATM   12  C   UNL     1     -14.066   8.469  71.878  1.00  0.00    -0.519 C  
ENDBRANCH  10  11
ENDBRANCH   2  10
TORSDOF 4
ENDMDL
MODEL      129
REMARK 921   NORMALIZED FREE ENERGY PREDICTED BY IDOCK:   -2.76 KCAL/MOL
REMARK 922        TOTAL FREE ENERGY PREDICTED BY IDOCK:   -3.86 KCAL/MOL
REMARK 923 INTER-LIGAND FREE ENERGY PREDICTED BY IDOCK:   -3.93 KCAL/MOL
REMARK 924 INTRA-LIGAND FREE ENERGY PREDICTED BY IDOCK:    0.07 KCAL/MOL
REMARK 927      BINDING AFFINITY PREDICTED BY RF-SCORE:    0.00 PKD
ROOT
HETATM    1  C   UNL     1     -12.241  13.539  70.415  1.00  0.00    -0.356 C  
HETATM    2  N   UNL     1     -11.598  13.072  69.180  1.00  0.00    -0.298 NA 
ENDROOT
BRANCH   2   3
HETATM    3  C   UNL     1     -12.091  13.836  68.012  1.00  0.00    -0.280 C  
BRANCH   3   4
HETATM    4  C   UNL     1     -11.227  15.012  67.601  1.00  0.00    -0.331 A  
HETATM    5  C   UNL     1     -11.452  16.281  68.158  1.00  0.00    -0.173 A  
HETATM    6  C   UNL     1     -10.207  14.865  66.650  1.00  0.00    -0.264 A  
HETATM    7  C   UNL     1     -10.658  17.371  67.794  1.00  0.00    -0.371 A  
HETATM    8  C   UNL     1      -9.413  15.957  66.288  1.00  0.00    -0.350 A  
HETATM    9  C   UNL     1      -9.635  17.206  66.863  1.00  0.00    -0.268 A  
ENDBRANCH   3   4
ENDBRANCH   2   3
BRANCH   2  10
HETATM   10  C   UNL     1     -11.885  11.642  68.949  1.00  0.00    -0.329 C  
BRANCH  10  11
HETATM   11  C   UNL     1     -12.358  10.927  70.149  1.00  0.00    -0.399 C  
HETATM   12  C   UNL     1     -12.795  10.351  71.108  1.00  0.00    -0.511 C  
ENDBRANCH  10  11
ENDBRANCH   2  10
TORSDOF 4
ENDMDL
MODEL      130
REMARK 921   NORMALIZED FREE ENERGY PREDICTED BY IDOCK:   -2.74 KCAL/MOL
REMARK 922        TOTAL FREE ENERGY PREDICTED BY IDOCK:   -3.83 KCAL/MOL
REMARK 923 INTER-LIGAND FREE ENERGY PREDICTED BY IDOCK:   -3.43 KCAL/MOL
REMARK 924 INTRA-LIGAND FREE ENERGY PREDICTED BY IDOCK:   -0.41 KCAL/MOL
REMARK 927      BINDING AFFINITY PREDICTED BY RF-SCORE:    0.00 PKD
ROOT
HETATM    1  C   UNL     1     -11.912  13.226  63.460  1.00  0.00    -0.474 C  
HETATM    2  N   UNL     1     -11.582  13.095  64.885  1.00  0.00    -0.312 NA 
ENDROOT
BRANCH   2   3
HETATM    3  C   UNL     1     -11.539  11.670  65.284  1.00  0.00    -0.035 C  
BRANCH   3   4
HETATM    4  C   UNL     1     -10.154  11.054  65.323  1.00  0.00    -0.332 A  
HETATM    5  C   UNL     1      -9.764  10.133  64.338  1.00  0.00    -0.345 A  
HETATM    6  C   UNL     1      -9.249  11.371  66.347  1.00  0.00    -0.209 A  
HETATM    7  C   UNL     1      -8.489   9.565  64.359  1.00  0.00    -0.191 A  
HETATM    8  C   UNL     1      -7.973  10.802  66.365  1.00  0.00    -0.151 A  
HETATM    9  C   UNL     1      -7.592   9.905  65.370  1.00  0.00    -0.131 A  
ENDBRANCH   3   4
ENDBRANCH   2   3
BRANCH   2  10
HETATM   10  C   UNL     1     -12.590  13.777  65.720  1.00  0.00    -0.480 C  
BRANCH  10  11
HETATM   11  C   UNL     1     -12.218  13.874  67.144  1.00  0.00    -0.353 C  
HETATM   12  C   UNL     1     -11.862  13.948  68.289  1.00  0.00    -0.412 C  
ENDBRANCH  10  11
ENDBRANCH   2  10
TORSDOF 4
ENDMDL
MODEL      131
REMARK 921   NORMALIZED FREE ENERGY PREDICTED BY IDOCK:   -2.73 KCAL/MOL
REMARK 922        TOTAL FREE ENERGY PREDICTED BY IDOCK:   -3.81 KCAL/MOL
REMARK 923 INTER-LIGAND FREE ENERGY PREDICTED BY IDOCK:   -4.06 KCAL/MOL
REMARK 924 INTRA-LIGAND FREE ENERGY PREDICTED BY IDOCK:    0.25 KCAL/MOL
REMARK 927      BINDING AFFINITY PREDICTED BY RF-SCORE:    0.00 PKD
ROOT
HETATM    1  C   UNL     1     -10.243  15.248  69.454  1.00  0.00    -0.256 C  
HETATM    2  N   UNL     1     -10.899  15.598  68.187  1.00  0.00    -0.290 NA 
ENDROOT
BRANCH   2   3
HETATM    3  C   UNL     1     -12.032  14.685  67.914  1.00  0.00    -0.264 C  
BRANCH   3   4
HETATM    4  C   UNL     1     -11.821  13.249  68.352  1.00  0.00    -0.395 A  
HETATM    5  C   UNL     1     -12.065  12.875  69.683  1.00  0.00    -0.290 A  
HETATM    6  C   UNL     1     -11.362  12.277  67.452  1.00  0.00    -0.389 A  
HETATM    7  C   UNL     1     -11.881  11.554  70.097  1.00  0.00    -0.440 A  
HETATM    8  C   UNL     1     -11.181  10.955  67.869  1.00  0.00    -0.387 A  
HETATM    9  C   UNL     1     -11.446  10.594  69.188  1.00  0.00    -0.349 A  
ENDBRANCH   3   4
ENDBRANCH   2   3
BRANCH   2  10
HETATM   10  C   UNL     1      -9.948  15.501  67.061  1.00  0.00    -0.239 C  
BRANCH  10  11
HETATM   11  C   UNL     1     -10.581  15.610  65.735  1.00  0.00    -0.374 C  
HETATM   12  C   UNL     1     -11.146  15.702  64.679  1.00  0.00    -0.387 C  
ENDBRANCH  10  11
ENDBRANCH   2  10
TORSDOF 4
ENDMDL
MODEL      132
REMARK 921   NORMALIZED FREE ENERGY PREDICTED BY IDOCK:   -2.72 KCAL/MOL
REMARK 922        TOTAL FREE ENERGY PREDICTED BY IDOCK:   -3.80 KCAL/MOL
REMARK 923 INTER-LIGAND FREE ENERGY PREDICTED BY IDOCK:   -3.86 KCAL/MOL
REMARK 924 INTRA-LIGAND FREE ENERGY PREDICTED BY IDOCK:    0.05 KCAL/MOL
REMARK 927      BINDING AFFINITY PREDICTED BY RF-SCORE:    0.00 PKD
ROOT
HETATM    1  C   UNL     1     -13.389  12.700  72.002  1.00  0.00    -0.454 C  
HETATM    2  N   UNL     1     -12.363  13.151  71.053  1.00  0.00    -0.333 NA 
ENDROOT
BRANCH   2   3
HETATM    3  C   UNL     1     -12.922  14.144  70.108  1.00  0.00     0.090 C  
BRANCH   3   4
HETATM    4  C   UNL     1     -11.895  14.911  69.299  1.00  0.00    -0.350 A  
HETATM    5  C   UNL     1     -11.689  14.601  67.945  1.00  0.00    -0.379 A  
HETATM    6  C   UNL     1     -11.121  15.924  69.884  1.00  0.00    -0.343 A  
HETATM    7  C   UNL     1     -10.751  15.306  67.188  1.00  0.00    -0.316 A  
HETATM    8  C   UNL     1     -10.185  16.629  69.123  1.00  0.00    -0.309 A  
HETATM    9  C   UNL     1     -10.004  16.324  67.776  1.00  0.00    -0.246 A  
ENDBRANCH   3   4
ENDBRANCH   2   3
BRANCH   2  10
HETATM   10  C   UNL     1     -11.839  12.014  70.270  1.00  0.00    -0.270 C  
BRANCH  10  11
HETATM   11  C   UNL     1     -12.163  10.695  70.843  1.00  0.00    -0.497 C  
HETATM   12  C   UNL     1     -12.392   9.597  71.275  1.00  0.00    -0.449 C  
ENDBRANCH  10  11
ENDBRANCH   2  10
TORSDOF 4
ENDMDL
MODEL      133
REMARK 921   NORMALIZED FREE ENERGY PREDICTED BY IDOCK:   -2.70 KCAL/MOL
REMARK 922        TOTAL FREE ENERGY PREDICTED BY IDOCK:   -3.78 KCAL/MOL
REMARK 923 INTER-LIGAND FREE ENERGY PREDICTED BY IDOCK:   -3.42 KCAL/MOL
REMARK 924 INTRA-LIGAND FREE ENERGY PREDICTED BY IDOCK:   -0.36 KCAL/MOL
REMARK 927      BINDING AFFINITY PREDICTED BY RF-SCORE:    0.00 PKD
ROOT
HETATM    1  C   UNL     1      -9.765   5.047  70.753  1.00  0.00    -0.196 C  
HETATM    2  N   UNL     1      -9.920   6.492  70.545  1.00  0.00    -0.183 NA 
ENDROOT
BRANCH   2   3
HETATM    3  C   UNL     1     -11.277   6.807  70.043  1.00  0.00    -0.328 C  
BRANCH   3   4
HETATM    4  C   UNL     1     -11.982   7.941  70.762  1.00  0.00    -0.146 A  
HETATM    5  C   UNL     1     -11.591   9.270  70.537  1.00  0.00    -0.266 A  
HETATM    6  C   UNL     1     -13.016   7.687  71.676  1.00  0.00    -0.385 A  
HETATM    7  C   UNL     1     -12.237  10.323  71.187  1.00  0.00    -0.500 A  
HETATM    8  C   UNL     1     -13.662   8.743  72.324  1.00  0.00    -0.494 A  
HETATM    9  C   UNL     1     -13.277  10.059  72.076  1.00  0.00    -0.545 A  
ENDBRANCH   3   4
ENDBRANCH   2   3
BRANCH   2  10
HETATM   10  C   UNL     1      -8.939   6.988  69.560  1.00  0.00    -0.143 C  
BRANCH  10  11
HETATM   11  C   UNL     1      -8.203   8.187  70.001  1.00  0.00    -0.120 C  
HETATM   12  C   UNL     1      -7.652   9.186  70.377  1.00  0.00    -0.118 C  
ENDBRANCH  10  11
ENDBRANCH   2  10
TORSDOF 4
ENDMDL
MODEL      134
REMARK 921   NORMALIZED FREE ENERGY PREDICTED BY IDOCK:   -2.69 KCAL/MOL
REMARK 922        TOTAL FREE ENERGY PREDICTED BY IDOCK:   -3.78 KCAL/MOL
REMARK 923 INTER-LIGAND FREE ENERGY PREDICTED BY IDOCK:   -3.49 KCAL/MOL
REMARK 924 INTRA-LIGAND FREE ENERGY PREDICTED BY IDOCK:   -0.28 KCAL/MOL
REMARK 927      BINDING AFFINITY PREDICTED BY RF-SCORE:    0.00 PKD
ROOT
HETATM    1  C   UNL     1      -9.663   8.809  66.578  1.00  0.00    -0.259 C  
HETATM    2  N   UNL     1      -9.632  10.264  66.386  1.00  0.00    -0.177 NA 
ENDROOT
BRANCH   2   3
HETATM    3  C   UNL     1     -10.327  10.643  65.135  1.00  0.00    -0.261 C  
BRANCH   3   4
HETATM    4  C   UNL     1     -11.185  11.889  65.227  1.00  0.00    -0.351 A  
HETATM    5  C   UNL     1     -11.645  12.338  66.475  1.00  0.00    -0.440 A  
HETATM    6  C   UNL     1     -11.553  12.602  64.076  1.00  0.00    -0.486 A  
HETATM    7  C   UNL     1     -12.431  13.488  66.573  1.00  0.00    -0.309 A  
HETATM    8  C   UNL     1     -12.338  13.754  64.178  1.00  0.00    -0.382 A  
HETATM    9  C   UNL     1     -12.771  14.199  65.425  1.00  0.00    -0.453 A  
ENDBRANCH   3   4
ENDBRANCH   2   3
BRANCH   2  10
HETATM   10  C   UNL     1      -8.241  10.752  66.307  1.00  0.00    -0.162 C  
BRANCH  10  11
HETATM   11  C   UNL     1      -7.662  11.119  67.612  1.00  0.00    -0.113 C  
HETATM   12  C   UNL     1      -7.166  11.367  68.678  1.00  0.00    -0.100 C  
ENDBRANCH  10  11
ENDBRANCH   2  10
TORSDOF 4
ENDMDL
MODEL      135
REMARK 921   NORMALIZED FREE ENERGY PREDICTED BY IDOCK:   -2.68 KCAL/MOL
REMARK 922        TOTAL FREE ENERGY PREDICTED BY IDOCK:   -3.76 KCAL/MOL
REMARK 923 INTER-LIGAND FREE ENERGY PREDICTED BY IDOCK:   -3.95 KCAL/MOL
REMARK 924 INTRA-LIGAND FREE ENERGY PREDICTED BY IDOCK:    0.19 KCAL/MOL
REMARK 927      BINDING AFFINITY PREDICTED BY RF-SCORE:    0.00 PKD
ROOT
HETATM    1  C   UNL     1      -9.593  14.803  68.530  1.00  0.00    -0.218 C  
HETATM    2  N   UNL     1     -10.432  15.388  67.476  1.00  0.00    -0.269 NA 
ENDROOT
BRANCH   2   3
HETATM    3  C   UNL     1     -11.628  14.550  67.233  1.00  0.00    -0.385 C  
BRANCH   3   4
HETATM    4  C   UNL     1     -11.414  13.059  67.402  1.00  0.00    -0.380 A  
HETATM    5  C   UNL     1     -10.787  12.317  66.389  1.00  0.00    -0.299 A  
HETATM    6  C   UNL     1     -11.853  12.390  68.554  1.00  0.00    -0.352 A  
HETATM    7  C   UNL     1     -10.578  10.944  66.536  1.00  0.00    -0.295 A  
HETATM    8  C   UNL     1     -11.640  11.017  68.700  1.00  0.00    -0.385 A  
HETATM    9  C   UNL     1     -10.999  10.296  67.695  1.00  0.00    -0.356 A  
ENDBRANCH   3   4
ENDBRANCH   2   3
BRANCH   2  10
HETATM   10  C   UNL     1      -9.681  15.496  66.209  1.00  0.00    -0.302 C  
BRANCH  10  11
HETATM   11  C   UNL     1      -8.485  16.354  66.296  1.00  0.00    -0.372 C  
HETATM   12  C   UNL     1      -7.483  17.016  66.337  1.00  0.00    -0.336 C  
ENDBRANCH  10  11
ENDBRANCH   2  10
TORSDOF 4
ENDMDL
MODEL      136
REMARK 921   NORMALIZED FREE ENERGY PREDICTED BY IDOCK:   -2.67 KCAL/MOL
REMARK 922        TOTAL FREE ENERGY PREDICTED BY IDOCK:   -3.75 KCAL/MOL
REMARK 923 INTER-LIGAND FREE ENERGY PREDICTED BY IDOCK:   -3.48 KCAL/MOL
REMARK 924 INTRA-LIGAND FREE ENERGY PREDICTED BY IDOCK:   -0.27 KCAL/MOL
REMARK 927      BINDING AFFINITY PREDICTED BY RF-SCORE:    0.00 PKD
ROOT
HETATM    1  C   UNL     1      -9.748  15.817  69.308  1.00  0.00    -0.263 C  
HETATM    2  N   UNL     1      -8.875  15.940  68.134  1.00  0.00    -0.174 NA 
ENDROOT
BRANCH   2   3
HETATM    3  C   UNL     1      -8.821  14.664  67.385  1.00  0.00    -0.195 C  
BRANCH   3   4
HETATM    4  C   UNL     1     -10.054  14.350  66.560  1.00  0.00    -0.281 A  
HETATM    5  C   UNL     1     -10.477  15.237  65.558  1.00  0.00    -0.396 A  
HETATM    6  C   UNL     1     -10.805  13.188  66.793  1.00  0.00    -0.289 A  
HETATM    7  C   UNL     1     -11.606  14.955  64.787  1.00  0.00    -0.410 A  
HETATM    8  C   UNL     1     -11.934  12.908  66.019  1.00  0.00    -0.505 A  
HETATM    9  C   UNL     1     -12.331  13.787  65.014  1.00  0.00    -0.456 A  
ENDBRANCH   3   4
ENDBRANCH   2   3
BRANCH   2  10
HETATM   10  C   UNL     1      -7.500  16.293  68.540  1.00  0.00    -0.176 C  
BRANCH  10  11
HETATM   11  C   UNL     1      -6.837  15.265  69.362  1.00  0.00    -0.172 C  
HETATM   12  C   UNL     1      -6.290  14.396  69.985  1.00  0.00    -0.160 C  
ENDBRANCH  10  11
ENDBRANCH   2  10
TORSDOF 4
ENDMDL
MODEL      137
REMARK 921   NORMALIZED FREE ENERGY PREDICTED BY IDOCK:   -2.65 KCAL/MOL
REMARK 922        TOTAL FREE ENERGY PREDICTED BY IDOCK:   -3.72 KCAL/MOL
REMARK 923 INTER-LIGAND FREE ENERGY PREDICTED BY IDOCK:   -3.31 KCAL/MOL
REMARK 924 INTRA-LIGAND FREE ENERGY PREDICTED BY IDOCK:   -0.41 KCAL/MOL
REMARK 927      BINDING AFFINITY PREDICTED BY RF-SCORE:    0.00 PKD
ROOT
HETATM    1  C   UNL     1     -10.604   6.117  73.458  1.00  0.00    -0.266 C  
HETATM    2  N   UNL     1     -10.130   6.372  72.092  1.00  0.00    -0.177 NA 
ENDROOT
BRANCH   2   3
HETATM    3  C   UNL     1     -11.234   6.223  71.117  1.00  0.00    -0.305 C  
BRANCH   3   4
HETATM    4  C   UNL     1     -10.957   6.792  69.740  1.00  0.00    -0.345 A  
HETATM    5  C   UNL     1     -10.604   8.143  69.593  1.00  0.00    -0.223 A  
HETATM    6  C   UNL     1     -11.069   5.996  68.591  1.00  0.00    -0.293 A  
HETATM    7  C   UNL     1     -10.340   8.677  68.331  1.00  0.00    -0.239 A  
HETATM    8  C   UNL     1     -10.801   6.533  67.328  1.00  0.00    -0.463 A  
HETATM    9  C   UNL     1     -10.433   7.870  67.199  1.00  0.00    -0.414 A  
ENDBRANCH   3   4
ENDBRANCH   2   3
BRANCH   2  10
HETATM   10  C   UNL     1      -9.060   5.423  71.725  1.00  0.00    -0.138 C  
BRANCH  10  11
HETATM   11  C   UNL     1      -9.477   4.009  71.765  1.00  0.00    -0.210 C  
HETATM   12  C   UNL     1      -9.805   2.857  71.853  1.00  0.00    -0.234 C  
ENDBRANCH  10  11
ENDBRANCH   2  10
TORSDOF 4
ENDMDL
MODEL      138
REMARK 921   NORMALIZED FREE ENERGY PREDICTED BY IDOCK:   -2.64 KCAL/MOL
REMARK 922        TOTAL FREE ENERGY PREDICTED BY IDOCK:   -3.71 KCAL/MOL
REMARK 923 INTER-LIGAND FREE ENERGY PREDICTED BY IDOCK:   -3.31 KCAL/MOL
REMARK 924 INTRA-LIGAND FREE ENERGY PREDICTED BY IDOCK:   -0.40 KCAL/MOL
REMARK 927      BINDING AFFINITY PREDICTED BY RF-SCORE:    0.00 PKD
ROOT
HETATM    1  C   UNL     1     -11.765  10.895  70.549  1.00  0.00    -0.342 C  
HETATM    2  N   UNL     1     -10.651  10.739  69.606  1.00  0.00    -0.212 NA 
ENDROOT
BRANCH   2   3
HETATM    3  C   UNL     1     -11.119  10.137  68.337  1.00  0.00    -0.218 C  
BRANCH   3   4
HETATM    4  C   UNL     1     -10.972  11.021  67.114  1.00  0.00    -0.344 A  
HETATM    5  C   UNL     1     -11.547  12.302  67.096  1.00  0.00    -0.423 A  
HETATM    6  C   UNL     1     -10.284  10.575  65.976  1.00  0.00    -0.310 A  
HETATM    7  C   UNL     1     -11.413  13.128  65.978  1.00  0.00    -0.370 A  
HETATM    8  C   UNL     1     -10.149  11.405  64.860  1.00  0.00    -0.323 A  
HETATM    9  C   UNL     1     -10.709  12.681  64.863  1.00  0.00    -0.327 A  
ENDBRANCH   3   4
ENDBRANCH   2   3
BRANCH   2  10
HETATM   10  C   UNL     1      -9.605   9.863  70.173  1.00  0.00    -0.185 C  
BRANCH  10  11
HETATM   11  C   UNL     1      -8.292  10.001  69.517  1.00  0.00    -0.180 C  
HETATM   12  C   UNL     1      -7.198  10.091  69.029  1.00  0.00    -0.076 C  
ENDBRANCH  10  11
ENDBRANCH   2  10
TORSDOF 4
ENDMDL
MODEL      139
REMARK 921   NORMALIZED FREE ENERGY PREDICTED BY IDOCK:   -2.64 KCAL/MOL
REMARK 922        TOTAL FREE ENERGY PREDICTED BY IDOCK:   -3.71 KCAL/MOL
REMARK 923 INTER-LIGAND FREE ENERGY PREDICTED BY IDOCK:   -3.58 KCAL/MOL
REMARK 924 INTRA-LIGAND FREE ENERGY PREDICTED BY IDOCK:   -0.13 KCAL/MOL
REMARK 927      BINDING AFFINITY PREDICTED BY RF-SCORE:    0.00 PKD
ROOT
HETATM    1  C   UNL     1     -11.900  11.719  68.562  1.00  0.00    -0.303 C  
HETATM    2  N   UNL     1     -10.465  11.408  68.587  1.00  0.00    -0.195 NA 
ENDROOT
BRANCH   2   3
HETATM    3  C   UNL     1      -9.862  11.603  67.249  1.00  0.00    -0.187 C  
BRANCH   3   4
HETATM    4  C   UNL     1     -10.052  12.984  66.653  1.00  0.00    -0.251 A  
HETATM    5  C   UNL     1      -9.554  14.115  67.320  1.00  0.00    -0.234 A  
HETATM    6  C   UNL     1     -10.742  13.163  65.445  1.00  0.00    -0.308 A  
HETATM    7  C   UNL     1      -9.717  15.391  66.778  1.00  0.00    -0.254 A  
HETATM    8  C   UNL     1     -10.902  14.442  64.904  1.00  0.00    -0.430 A  
HETATM    9  C   UNL     1     -10.385  15.553  65.566  1.00  0.00    -0.419 A  
ENDBRANCH   3   4
ENDBRANCH   2   3
BRANCH   2  10
HETATM   10  C   UNL     1     -10.241  10.006  68.992  1.00  0.00    -0.203 C  
BRANCH  10  11
HETATM   11  C   UNL     1     -10.624   9.720  70.387  1.00  0.00    -0.365 C  
HETATM   12  C   UNL     1     -10.980   9.457  71.504  1.00  0.00    -0.429 C  
ENDBRANCH  10  11
ENDBRANCH   2  10
TORSDOF 4
ENDMDL
MODEL      140
REMARK 921   NORMALIZED FREE ENERGY PREDICTED BY IDOCK:   -2.64 KCAL/MOL
REMARK 922        TOTAL FREE ENERGY PREDICTED BY IDOCK:   -3.71 KCAL/MOL
REMARK 923 INTER-LIGAND FREE ENERGY PREDICTED BY IDOCK:   -3.57 KCAL/MOL
REMARK 924 INTRA-LIGAND FREE ENERGY PREDICTED BY IDOCK:   -0.13 KCAL/MOL
REMARK 927      BINDING AFFINITY PREDICTED BY RF-SCORE:    0.00 PKD
ROOT
HETATM    1  C   UNL     1     -10.075   8.292  70.952  1.00  0.00    -0.190 C  
HETATM    2  N   UNL     1     -10.654   6.942  70.959  1.00  0.00    -0.218 NA 
ENDROOT
BRANCH   2   3
HETATM    3  C   UNL     1     -11.436   6.700  69.726  1.00  0.00    -0.328 C  
BRANCH   3   4
HETATM    4  C   UNL     1     -10.731   5.872  68.669  1.00  0.00    -0.339 A  
HETATM    5  C   UNL     1      -9.980   4.745  69.041  1.00  0.00    -0.213 A  
HETATM    6  C   UNL     1     -10.795   6.222  67.313  1.00  0.00    -0.457 A  
HETATM    7  C   UNL     1      -9.332   3.971  68.077  1.00  0.00    -0.220 A  
HETATM    8  C   UNL     1     -10.147   5.443  66.350  1.00  0.00    -0.239 A  
HETATM    9  C   UNL     1      -9.422   4.317  66.731  1.00  0.00    -0.202 A  
ENDBRANCH   3   4
ENDBRANCH   2   3
BRANCH   2  10
HETATM   10  C   UNL     1     -11.554   6.766  72.117  1.00  0.00    -0.288 C  
BRANCH  10  11
HETATM   11  C   UNL     1     -12.974   7.021  71.813  1.00  0.00    -0.356 C  
HETATM   12  C   UNL     1     -14.138   7.246  71.617  1.00  0.00    -0.522 C  
ENDBRANCH  10  11
ENDBRANCH   2  10
TORSDOF 4
ENDMDL
MODEL      141
REMARK 921   NORMALIZED FREE ENERGY PREDICTED BY IDOCK:   -2.63 KCAL/MOL
REMARK 922        TOTAL FREE ENERGY PREDICTED BY IDOCK:   -3.70 KCAL/MOL
REMARK 923 INTER-LIGAND FREE ENERGY PREDICTED BY IDOCK:   -3.40 KCAL/MOL
REMARK 924 INTRA-LIGAND FREE ENERGY PREDICTED BY IDOCK:   -0.29 KCAL/MOL
REMARK 927      BINDING AFFINITY PREDICTED BY RF-SCORE:    0.00 PKD
ROOT
HETATM    1  C   UNL     1      -9.357  14.758  68.701  1.00  0.00    -0.198 C  
HETATM    2  N   UNL     1     -10.224  14.099  67.716  1.00  0.00    -0.240 NA 
ENDROOT
BRANCH   2   3
HETATM    3  C   UNL     1      -9.427  13.258  66.794  1.00  0.00    -0.257 C  
BRANCH   3   4
HETATM    4  C   UNL     1      -9.789  11.786  66.790  1.00  0.00    -0.218 A  
HETATM    5  C   UNL     1      -9.652  11.029  65.616  1.00  0.00    -0.265 A  
HETATM    6  C   UNL     1     -10.285  11.159  67.943  1.00  0.00    -0.202 A  
HETATM    7  C   UNL     1      -9.976   9.671  65.602  1.00  0.00    -0.321 A  
HETATM    8  C   UNL     1     -10.606   9.799  67.926  1.00  0.00    -0.310 A  
HETATM    9  C   UNL     1     -10.447   9.055  66.759  1.00  0.00    -0.270 A  
ENDBRANCH   3   4
ENDBRANCH   2   3
BRANCH   2  10
HETATM   10  C   UNL     1     -10.956  15.098  66.912  1.00  0.00    -0.323 C  
BRANCH  10  11
HETATM   11  C   UNL     1     -11.461  14.577  65.628  1.00  0.00    -0.341 C  
HETATM   12  C   UNL     1     -11.917  14.183  64.589  1.00  0.00    -0.459 C  
ENDBRANCH  10  11
ENDBRANCH   2  10
TORSDOF 4
ENDMDL
MODEL      142
REMARK 921   NORMALIZED FREE ENERGY PREDICTED BY IDOCK:   -2.62 KCAL/MOL
REMARK 922        TOTAL FREE ENERGY PREDICTED BY IDOCK:   -3.68 KCAL/MOL
REMARK 923 INTER-LIGAND FREE ENERGY PREDICTED BY IDOCK:   -3.45 KCAL/MOL
REMARK 924 INTRA-LIGAND FREE ENERGY PREDICTED BY IDOCK:   -0.23 KCAL/MOL
REMARK 927      BINDING AFFINITY PREDICTED BY RF-SCORE:    0.00 PKD
ROOT
HETATM    1  C   UNL     1     -11.997  13.751  68.559  1.00  0.00    -0.367 C  
HETATM    2  N   UNL     1     -11.044  13.922  67.455  1.00  0.00    -0.291 NA 
ENDROOT
BRANCH   2   3
HETATM    3  C   UNL     1     -11.351  15.147  66.682  1.00  0.00    -0.234 C  
BRANCH   3   4
HETATM    4  C   UNL     1     -10.301  16.238  66.762  1.00  0.00    -0.296 A  
HETATM    5  C   UNL     1     -10.646  17.515  67.233  1.00  0.00    -0.287 A  
HETATM    6  C   UNL     1      -8.981  16.004  66.352  1.00  0.00    -0.354 A  
HETATM    7  C   UNL     1      -9.686  18.526  67.318  1.00  0.00    -0.313 A  
HETATM    8  C   UNL     1      -8.022  17.017  66.441  1.00  0.00    -0.342 A  
HETATM    9  C   UNL     1      -8.373  18.274  66.927  1.00  0.00    -0.256 A  
ENDBRANCH   3   4
ENDBRANCH   2   3
BRANCH   2  10
HETATM   10  C   UNL     1     -11.100  12.770  66.533  1.00  0.00    -0.286 C  
BRANCH  10  11
HETATM   11  C   UNL     1     -10.277  11.624  66.960  1.00  0.00    -0.240 C  
HETATM   12  C   UNL     1      -9.592  10.681  67.254  1.00  0.00    -0.186 C  
ENDBRANCH  10  11
ENDBRANCH   2  10
TORSDOF 4
ENDMDL
MODEL      143
REMARK 921   NORMALIZED FREE ENERGY PREDICTED BY IDOCK:   -2.61 KCAL/MOL
REMARK 922        TOTAL FREE ENERGY PREDICTED BY IDOCK:   -3.67 KCAL/MOL
REMARK 923 INTER-LIGAND FREE ENERGY PREDICTED BY IDOCK:   -3.24 KCAL/MOL
REMARK 924 INTRA-LIGAND FREE ENERGY PREDICTED BY IDOCK:   -0.44 KCAL/MOL
REMARK 927      BINDING AFFINITY PREDICTED BY RF-SCORE:    0.00 PKD
ROOT
HETATM    1  C   UNL     1     -10.747   6.957  68.014  1.00  0.00    -0.218 C  
HETATM    2  N   UNL     1     -10.225   8.323  68.158  1.00  0.00    -0.204 NA 
ENDROOT
BRANCH   2   3
HETATM    3  C   UNL     1     -10.636   9.164  67.011  1.00  0.00    -0.195 C  
BRANCH   3   4
HETATM    4  C   UNL     1     -11.067  10.573  67.370  1.00  0.00    -0.322 A  
HETATM    5  C   UNL     1     -11.482  10.873  68.677  1.00  0.00    -0.380 A  
HETATM    6  C   UNL     1     -11.082  11.593  66.407  1.00  0.00    -0.347 A  
HETATM    7  C   UNL     1     -11.875  12.167  69.021  1.00  0.00    -0.361 A  
HETATM    8  C   UNL     1     -11.474  12.889  66.755  1.00  0.00    -0.391 A  
HETATM    9  C   UNL     1     -11.865  13.176  68.061  1.00  0.00    -0.398 A  
ENDBRANCH   3   4
ENDBRANCH   2   3
BRANCH   2  10
HETATM   10  C   UNL     1      -8.749   8.315  68.217  1.00  0.00    -0.136 C  
BRANCH  10  11
HETATM   11  C   UNL     1      -8.181   9.374  69.071  1.00  0.00    -0.108 C  
HETATM   12  C   UNL     1      -7.727  10.205  69.810  1.00  0.00    -0.176 C  
ENDBRANCH  10  11
ENDBRANCH   2  10
TORSDOF 4
ENDMDL
MODEL      144
REMARK 921   NORMALIZED FREE ENERGY PREDICTED BY IDOCK:   -2.61 KCAL/MOL
REMARK 922        TOTAL FREE ENERGY PREDICTED BY IDOCK:   -3.67 KCAL/MOL
REMARK 923 INTER-LIGAND FREE ENERGY PREDICTED BY IDOCK:   -3.93 KCAL/MOL
REMARK 924 INTRA-LIGAND FREE ENERGY PREDICTED BY IDOCK:    0.26 KCAL/MOL
REMARK 927      BINDING AFFINITY PREDICTED BY RF-SCORE:    0.00 PKD
ROOT
HETATM    1  C   UNL     1     -10.369  18.860  66.340  1.00  0.00    -0.443 C  
HETATM    2  N   UNL     1     -10.354  18.334  67.711  1.00  0.00    -0.383 NA 
ENDROOT
BRANCH   2   3
HETATM    3  C   UNL     1      -8.999  18.436  68.298  1.00  0.00    -0.312 C  
BRANCH   3   4
HETATM    4  C   UNL     1      -7.941  19.011  67.376  1.00  0.00    -0.272 A  
HETATM    5  C   UNL     1      -7.632  20.380  67.424  1.00  0.00    -0.364 A  
HETATM    6  C   UNL     1      -7.270  18.201  66.449  1.00  0.00    -0.282 A  
HETATM    7  C   UNL     1      -6.655  20.920  66.586  1.00  0.00    -0.350 A  
HETATM    8  C   UNL     1      -6.291  18.743  65.612  1.00  0.00    -0.297 A  
HETATM    9  C   UNL     1      -5.980  20.100  65.684  1.00  0.00    -0.218 A  
ENDBRANCH   3   4
ENDBRANCH   2   3
BRANCH   2  10
HETATM   10  C   UNL     1     -10.758  16.914  67.731  1.00  0.00    -0.315 C  
BRANCH  10  11
HETATM   11  C   UNL     1     -10.876  16.346  69.087  1.00  0.00    -0.329 C  
HETATM   12  C   UNL     1     -10.964  15.935  70.212  1.00  0.00    -0.370 C  
ENDBRANCH  10  11
ENDBRANCH   2  10
TORSDOF 4
ENDMDL
MODEL      145
REMARK 921   NORMALIZED FREE ENERGY PREDICTED BY IDOCK:   -2.59 KCAL/MOL
REMARK 922        TOTAL FREE ENERGY PREDICTED BY IDOCK:   -3.64 KCAL/MOL
REMARK 923 INTER-LIGAND FREE ENERGY PREDICTED BY IDOCK:   -3.77 KCAL/MOL
REMARK 924 INTRA-LIGAND FREE ENERGY PREDICTED BY IDOCK:    0.12 KCAL/MOL
REMARK 927      BINDING AFFINITY PREDICTED BY RF-SCORE:    0.00 PKD
ROOT
HETATM    1  C   UNL     1     -10.011  19.521  68.539  1.00  0.00    -0.446 C  
HETATM    2  N   UNL     1      -9.008  20.119  67.648  1.00  0.00    -0.330 NA 
ENDROOT
BRANCH   2   3
HETATM    3  C   UNL     1      -9.031  19.465  66.320  1.00  0.00    -0.346 C  
BRANCH   3   4
HETATM    4  C   UNL     1      -9.160  17.954  66.349  1.00  0.00    -0.253 A  
HETATM    5  C   UNL     1     -10.418  17.350  66.194  1.00  0.00    -0.284 A  
HETATM    6  C   UNL     1      -8.039  17.136  66.551  1.00  0.00    -0.318 A  
HETATM    7  C   UNL     1     -10.548  15.961  66.212  1.00  0.00    -0.301 A  
HETATM    8  C   UNL     1      -8.172  15.745  66.566  1.00  0.00    -0.278 A  
HETATM    9  C   UNL     1      -9.423  15.158  66.391  1.00  0.00    -0.325 A  
ENDBRANCH   3   4
ENDBRANCH   2   3
BRANCH   2  10
HETATM   10  C   UNL     1      -7.652  19.969  68.211  1.00  0.00    -0.223 C  
BRANCH  10  11
HETATM   11  C   UNL     1      -6.603  20.653  67.433  1.00  0.00    -0.346 C  
HETATM   12  C   UNL     1      -5.746  21.167  66.766  1.00  0.00    -0.316 C  
ENDBRANCH  10  11
ENDBRANCH   2  10
TORSDOF 4
ENDMDL
MODEL      146
REMARK 921   NORMALIZED FREE ENERGY PREDICTED BY IDOCK:   -2.58 KCAL/MOL
REMARK 922        TOTAL FREE ENERGY PREDICTED BY IDOCK:   -3.63 KCAL/MOL
REMARK 923 INTER-LIGAND FREE ENERGY PREDICTED BY IDOCK:   -4.00 KCAL/MOL
REMARK 924 INTRA-LIGAND FREE ENERGY PREDICTED BY IDOCK:    0.37 KCAL/MOL
REMARK 927      BINDING AFFINITY PREDICTED BY RF-SCORE:    0.00 PKD
ROOT
HETATM    1  C   UNL     1     -10.045  15.424  70.453  1.00  0.00     0.098 C  
HETATM    2  N   UNL     1     -10.854  16.319  69.617  1.00  0.00    -0.326 NA 
ENDROOT
BRANCH   2   3
HETATM    3  C   UNL     1     -12.039  15.610  69.083  1.00  0.00    -0.227 C  
BRANCH   3   4
HETATM    4  C   UNL     1     -11.830  14.136  68.794  1.00  0.00    -0.384 A  
HETATM    5  C   UNL     1     -11.608  13.699  67.479  1.00  0.00    -0.384 A  
HETATM    6  C   UNL     1     -11.875  13.183  69.822  1.00  0.00    -0.386 A  
HETATM    7  C   UNL     1     -11.407  12.346  67.201  1.00  0.00    -0.390 A  
HETATM    8  C   UNL     1     -11.671  11.829  69.542  1.00  0.00    -0.408 A  
HETATM    9  C   UNL     1     -11.433  11.412  68.235  1.00  0.00    -0.369 A  
ENDBRANCH   3   4
ENDBRANCH   2   3
BRANCH   2  10
HETATM   10  C   UNL     1     -10.066  16.823  68.475  1.00  0.00    -0.281 C  
BRANCH  10  11
HETATM   11  C   UNL     1     -10.267  18.256  68.197  1.00  0.00    -0.406 C  
HETATM   12  C   UNL     1     -10.412  19.416  67.918  1.00  0.00    -0.536 C  
ENDBRANCH  10  11
ENDBRANCH   2  10
TORSDOF 4
ENDMDL
MODEL      147
REMARK 921   NORMALIZED FREE ENERGY PREDICTED BY IDOCK:   -2.55 KCAL/MOL
REMARK 922        TOTAL FREE ENERGY PREDICTED BY IDOCK:   -3.60 KCAL/MOL
REMARK 923 INTER-LIGAND FREE ENERGY PREDICTED BY IDOCK:   -3.76 KCAL/MOL
REMARK 924 INTRA-LIGAND FREE ENERGY PREDICTED BY IDOCK:    0.16 KCAL/MOL
REMARK 927      BINDING AFFINITY PREDICTED BY RF-SCORE:    0.00 PKD
ROOT
HETATM    1  C   UNL     1     -11.164  15.032  67.878  1.00  0.00    -0.323 C  
HETATM    2  N   UNL     1     -10.826  16.214  67.075  1.00  0.00    -0.252 NA 
ENDROOT
BRANCH   2   3
HETATM    3  C   UNL     1      -9.788  15.886  66.071  1.00  0.00    -0.337 C  
BRANCH   3   4
HETATM    4  C   UNL     1      -8.358  16.023  66.557  1.00  0.00    -0.348 A  
HETATM    5  C   UNL     1      -7.778  15.012  67.340  1.00  0.00    -0.227 A  
HETATM    6  C   UNL     1      -7.597  17.162  66.256  1.00  0.00    -0.352 A  
HETATM    7  C   UNL     1      -6.461  15.123  67.787  1.00  0.00    -0.182 A  
HETATM    8  C   UNL     1      -6.277  17.270  66.702  1.00  0.00    -0.248 A  
HETATM    9  C   UNL     1      -5.708  16.250  67.462  1.00  0.00    -0.179 A  
ENDBRANCH   3   4
ENDBRANCH   2   3
BRANCH   2  10
HETATM   10  C   UNL     1     -10.310  17.299  67.933  1.00  0.00    -0.360 C  
BRANCH  10  11
HETATM   11  C   UNL     1     -10.645  18.651  67.450  1.00  0.00    -0.490 C  
HETATM   12  C   UNL     1     -10.863  19.766  67.058  1.00  0.00    -0.465 C  
ENDBRANCH  10  11
ENDBRANCH   2  10
TORSDOF 4
ENDMDL
MODEL      148
REMARK 921   NORMALIZED FREE ENERGY PREDICTED BY IDOCK:   -2.55 KCAL/MOL
REMARK 922        TOTAL FREE ENERGY PREDICTED BY IDOCK:   -3.59 KCAL/MOL
REMARK 923 INTER-LIGAND FREE ENERGY PREDICTED BY IDOCK:   -3.91 KCAL/MOL
REMARK 924 INTRA-LIGAND FREE ENERGY PREDICTED BY IDOCK:    0.32 KCAL/MOL
REMARK 927      BINDING AFFINITY PREDICTED BY RF-SCORE:    0.00 PKD
ROOT
HETATM    1  C   UNL     1      -9.376   7.621  70.223  1.00  0.00    -0.157 C  
HETATM    2  N   UNL     1     -10.835   7.704  70.079  1.00  0.00    -0.248 NA 
ENDROOT
BRANCH   2   3
HETATM    3  C   UNL     1     -11.480   7.928  71.393  1.00  0.00    -0.260 C  
BRANCH   3   4
HETATM    4  C   UNL     1     -11.119   6.921  72.467  1.00  0.00    -0.302 A  
HETATM    5  C   UNL     1     -11.609   5.608  72.396  1.00  0.00    -0.281 A  
HETATM    6  C   UNL     1     -10.312   7.282  73.556  1.00  0.00    -0.412 A  
HETATM    7  C   UNL     1     -11.277   4.670  73.375  1.00  0.00    -0.423 A  
HETATM    8  C   UNL     1      -9.980   6.341  74.534  1.00  0.00    -0.356 A  
HETATM    9  C   UNL     1     -10.458   5.035  74.441  1.00  0.00    -0.313 A  
ENDBRANCH   3   4
ENDBRANCH   2   3
BRANCH   2  10
HETATM   10  C   UNL     1     -11.376   6.454  69.508  1.00  0.00    -0.393 C  
BRANCH  10  11
HETATM   11  C   UNL     1     -10.900   6.168  68.142  1.00  0.00    -0.389 C  
HETATM   12  C   UNL     1     -10.565   5.920  67.016  1.00  0.00    -0.376 C  
ENDBRANCH  10  11
ENDBRANCH   2  10
TORSDOF 4
ENDMDL
MODEL      149
REMARK 921   NORMALIZED FREE ENERGY PREDICTED BY IDOCK:   -2.54 KCAL/MOL
REMARK 922        TOTAL FREE ENERGY PREDICTED BY IDOCK:   -3.58 KCAL/MOL
REMARK 923 INTER-LIGAND FREE ENERGY PREDICTED BY IDOCK:   -3.25 KCAL/MOL
REMARK 924 INTRA-LIGAND FREE ENERGY PREDICTED BY IDOCK:   -0.33 KCAL/MOL
REMARK 927      BINDING AFFINITY PREDICTED BY RF-SCORE:    0.00 PKD
ROOT
HETATM    1  C   UNL     1      -8.850   7.499  66.473  1.00  0.00    -0.148 C  
HETATM    2  N   UNL     1      -9.144   8.776  67.138  1.00  0.00    -0.130 NA 
ENDROOT
BRANCH   2   3
HETATM    3  C   UNL     1     -10.600   9.042  67.142  1.00  0.00    -0.220 C  
BRANCH   3   4
HETATM    4  C   UNL     1     -11.070  10.032  68.190  1.00  0.00    -0.252 A  
HETATM    5  C   UNL     1     -11.119   9.659  69.542  1.00  0.00    -0.198 A  
HETATM    6  C   UNL     1     -11.482  11.324  67.832  1.00  0.00    -0.360 A  
HETATM    7  C   UNL     1     -11.542  10.564  70.517  1.00  0.00    -0.441 A  
HETATM    8  C   UNL     1     -11.904  12.229  68.810  1.00  0.00    -0.356 A  
HETATM    9  C   UNL     1     -11.929  11.851  70.151  1.00  0.00    -0.413 A  
ENDBRANCH   3   4
ENDBRANCH   2   3
BRANCH   2  10
HETATM   10  C   UNL     1      -8.474   9.893  66.443  1.00  0.00    -0.124 C  
BRANCH  10  11
HETATM   11  C   UNL     1      -9.071  10.227  65.137  1.00  0.00    -0.234 C  
HETATM   12  C   UNL     1      -9.606  10.484  64.093  1.00  0.00    -0.369 C  
ENDBRANCH  10  11
ENDBRANCH   2  10
TORSDOF 4
ENDMDL
MODEL      150
REMARK 921   NORMALIZED FREE ENERGY PREDICTED BY IDOCK:   -2.53 KCAL/MOL
REMARK 922        TOTAL FREE ENERGY PREDICTED BY IDOCK:   -3.57 KCAL/MOL
REMARK 923 INTER-LIGAND FREE ENERGY PREDICTED BY IDOCK:   -3.29 KCAL/MOL
REMARK 924 INTRA-LIGAND FREE ENERGY PREDICTED BY IDOCK:   -0.28 KCAL/MOL
REMARK 927      BINDING AFFINITY PREDICTED BY RF-SCORE:    0.00 PKD
ROOT
HETATM    1  C   UNL     1     -11.505   6.313  70.792  1.00  0.00    -0.316 C  
HETATM    2  N   UNL     1     -11.306   7.767  70.736  1.00  0.00    -0.279 NA 
ENDROOT
BRANCH   2   3
HETATM    3  C   UNL     1      -9.989   8.094  70.144  1.00  0.00    -0.187 C  
BRANCH   3   4
HETATM    4  C   UNL     1     -10.019   9.148  69.054  1.00  0.00    -0.189 A  
HETATM    5  C   UNL     1     -10.395   8.801  67.747  1.00  0.00    -0.297 A  
HETATM    6  C   UNL     1      -9.652  10.476  69.320  1.00  0.00    -0.199 A  
HETATM    7  C   UNL     1     -10.433   9.764  66.737  1.00  0.00    -0.259 A  
HETATM    8  C   UNL     1      -9.693  11.438  68.307  1.00  0.00    -0.202 A  
HETATM    9  C   UNL     1     -10.088  11.083  67.019  1.00  0.00    -0.232 A  
ENDBRANCH   3   4
ENDBRANCH   2   3
BRANCH   2  10
HETATM   10  C   UNL     1     -11.361   8.355  72.090  1.00  0.00    -0.366 C  
BRANCH  10  11
HETATM   11  C   UNL     1     -10.428   7.734  73.048  1.00  0.00    -0.432 C  
HETATM   12  C   UNL     1      -9.625   7.244  73.796  1.00  0.00    -0.330 C  
ENDBRANCH  10  11
ENDBRANCH   2  10
TORSDOF 4
ENDMDL
MODEL      151
REMARK 921   NORMALIZED FREE ENERGY PREDICTED BY IDOCK:   -2.52 KCAL/MOL
REMARK 922        TOTAL FREE ENERGY PREDICTED BY IDOCK:   -3.56 KCAL/MOL
REMARK 923 INTER-LIGAND FREE ENERGY PREDICTED BY IDOCK:   -3.17 KCAL/MOL
REMARK 924 INTRA-LIGAND FREE ENERGY PREDICTED BY IDOCK:   -0.39 KCAL/MOL
REMARK 927      BINDING AFFINITY PREDICTED BY RF-SCORE:    0.00 PKD
ROOT
HETATM    1  C   UNL     1      -9.932   8.862  66.819  1.00  0.00    -0.267 C  
HETATM    2  N   UNL     1      -9.861  10.305  67.084  1.00  0.00    -0.179 NA 
ENDROOT
BRANCH   2   3
HETATM    3  C   UNL     1     -11.111  10.978  66.666  1.00  0.00    -0.133 C  
BRANCH   3   4
HETATM    4  C   UNL     1     -11.324  12.361  67.250  1.00  0.00    -0.384 A  
HETATM    5  C   UNL     1     -11.631  12.512  68.611  1.00  0.00    -0.357 A  
HETATM    6  C   UNL     1     -11.241  13.507  66.446  1.00  0.00    -0.322 A  
HETATM    7  C   UNL     1     -11.823  13.780  69.162  1.00  0.00    -0.398 A  
HETATM    8  C   UNL     1     -11.431  14.776  67.000  1.00  0.00    -0.362 A  
HETATM    9  C   UNL     1     -11.716  14.912  68.357  1.00  0.00    -0.336 A  
ENDBRANCH   3   4
ENDBRANCH   2   3
BRANCH   2  10
HETATM   10  C   UNL     1      -8.739  10.918  66.346  1.00  0.00    -0.170 C  
BRANCH  10  11
HETATM   11  C   UNL     1      -7.797  11.662  67.202  1.00  0.00    -0.163 C  
HETATM   12  C   UNL     1      -6.998  12.222  67.903  1.00  0.00    -0.104 C  
ENDBRANCH  10  11
ENDBRANCH   2  10
TORSDOF 4
ENDMDL
MODEL      152
REMARK 921   NORMALIZED FREE ENERGY PREDICTED BY IDOCK:   -2.52 KCAL/MOL
REMARK 922        TOTAL FREE ENERGY PREDICTED BY IDOCK:   -3.56 KCAL/MOL
REMARK 923 INTER-LIGAND FREE ENERGY PREDICTED BY IDOCK:   -3.16 KCAL/MOL
REMARK 924 INTRA-LIGAND FREE ENERGY PREDICTED BY IDOCK:   -0.39 KCAL/MOL
REMARK 927      BINDING AFFINITY PREDICTED BY RF-SCORE:    0.00 PKD
ROOT
HETATM    1  C   UNL     1      -7.624   9.387  68.396  1.00  0.00    -0.082 C  
HETATM    2  N   UNL     1      -8.841   9.695  69.158  1.00  0.00    -0.147 NA 
ENDROOT
BRANCH   2   3
HETATM    3  C   UNL     1      -9.754   8.530  69.183  1.00  0.00    -0.170 C  
BRANCH   3   4
HETATM    4  C   UNL     1     -10.185   8.079  70.565  1.00  0.00    -0.201 A  
HETATM    5  C   UNL     1     -11.333   7.287  70.722  1.00  0.00    -0.312 A  
HETATM    6  C   UNL     1      -9.465   8.458  71.707  1.00  0.00    -0.302 A  
HETATM    7  C   UNL     1     -11.735   6.860  71.989  1.00  0.00    -0.336 A  
HETATM    8  C   UNL     1      -9.869   8.027  72.974  1.00  0.00    -0.352 A  
HETATM    9  C   UNL     1     -10.999   7.225  73.114  1.00  0.00    -0.384 A  
ENDBRANCH   3   4
ENDBRANCH   2   3
BRANCH   2  10
HETATM   10  C   UNL     1      -9.563  10.833  68.554  1.00  0.00    -0.183 C  
BRANCH  10  11
HETATM   11  C   UNL     1     -10.844  11.145  69.214  1.00  0.00    -0.277 C  
HETATM   12  C   UNL     1     -11.914  11.393  69.702  1.00  0.00    -0.416 C  
ENDBRANCH  10  11
ENDBRANCH   2  10
TORSDOF 4
ENDMDL
MODEL      153
REMARK 921   NORMALIZED FREE ENERGY PREDICTED BY IDOCK:   -2.51 KCAL/MOL
REMARK 922        TOTAL FREE ENERGY PREDICTED BY IDOCK:   -3.54 KCAL/MOL
REMARK 923 INTER-LIGAND FREE ENERGY PREDICTED BY IDOCK:   -3.28 KCAL/MOL
REMARK 924 INTRA-LIGAND FREE ENERGY PREDICTED BY IDOCK:   -0.26 KCAL/MOL
REMARK 927      BINDING AFFINITY PREDICTED BY RF-SCORE:    0.00 PKD
ROOT
HETATM    1  C   UNL     1     -11.249   6.660  70.654  1.00  0.00    -0.317 C  
HETATM    2  N   UNL     1     -11.501   7.849  71.478  1.00  0.00    -0.258 NA 
ENDROOT
BRANCH   2   3
HETATM    3  C   UNL     1     -11.456   7.509  72.918  1.00  0.00    -0.259 C  
BRANCH   3   4
HETATM    4  C   UNL     1     -10.077   7.192  73.462  1.00  0.00    -0.374 A  
HETATM    5  C   UNL     1      -9.060   8.159  73.415  1.00  0.00    -0.309 A  
HETATM    6  C   UNL     1      -9.783   5.929  73.998  1.00  0.00    -0.183 A  
HETATM    7  C   UNL     1      -7.788   7.881  73.918  1.00  0.00    -0.230 A  
HETATM    8  C   UNL     1      -8.509   5.654  74.503  1.00  0.00    -0.107 A  
HETATM    9  C   UNL     1      -7.515   6.630  74.468  1.00  0.00    -0.104 A  
ENDBRANCH   3   4
ENDBRANCH   2   3
BRANCH   2  10
HETATM   10  C   UNL     1     -12.830   8.419  71.181  1.00  0.00    -0.077 C  
BRANCH  10  11
HETATM   11  C   UNL     1     -12.925   9.870  71.422  1.00  0.00    -0.504 C  
HETATM   12  C   UNL     1     -13.020  11.042  71.670  1.00  0.00    -0.561 C  
ENDBRANCH  10  11
ENDBRANCH   2  10
TORSDOF 4
ENDMDL
MODEL      154
REMARK 921   NORMALIZED FREE ENERGY PREDICTED BY IDOCK:   -2.49 KCAL/MOL
REMARK 922        TOTAL FREE ENERGY PREDICTED BY IDOCK:   -3.52 KCAL/MOL
REMARK 923 INTER-LIGAND FREE ENERGY PREDICTED BY IDOCK:   -3.26 KCAL/MOL
REMARK 924 INTRA-LIGAND FREE ENERGY PREDICTED BY IDOCK:   -0.26 KCAL/MOL
REMARK 927      BINDING AFFINITY PREDICTED BY RF-SCORE:    0.00 PKD
ROOT
HETATM    1  C   UNL     1      -8.531   3.804  71.927  1.00  0.00    -0.090 C  
HETATM    2  N   UNL     1      -9.706   4.370  72.602  1.00  0.00    -0.144 NA 
ENDROOT
BRANCH   2   3
HETATM    3  C   UNL     1      -9.500   5.807  72.896  1.00  0.00    -0.154 C  
BRANCH   3   4
HETATM    4  C   UNL     1     -10.636   6.718  72.473  1.00  0.00    -0.249 A  
HETATM    5  C   UNL     1     -11.824   6.174  71.961  1.00  0.00    -0.336 A  
HETATM    6  C   UNL     1     -10.517   8.113  72.564  1.00  0.00    -0.409 A  
HETATM    7  C   UNL     1     -12.879   7.003  71.575  1.00  0.00    -0.420 A  
HETATM    8  C   UNL     1     -11.576   8.940  72.179  1.00  0.00    -0.400 A  
HETATM    9  C   UNL     1     -12.756   8.386  71.691  1.00  0.00    -0.358 A  
ENDBRANCH   3   4
ENDBRANCH   2   3
BRANCH   2  10
HETATM   10  C   UNL     1      -9.964   3.672  73.878  1.00  0.00    -0.118 C  
BRANCH  10  11
HETATM   11  C   UNL     1     -10.839   2.493  73.746  1.00  0.00    -0.282 C  
HETATM   12  C   UNL     1     -11.596   1.565  73.645  1.00  0.00    -0.300 C  
ENDBRANCH  10  11
ENDBRANCH   2  10
TORSDOF 4
ENDMDL
MODEL      155
REMARK 921   NORMALIZED FREE ENERGY PREDICTED BY IDOCK:   -2.48 KCAL/MOL
REMARK 922        TOTAL FREE ENERGY PREDICTED BY IDOCK:   -3.52 KCAL/MOL
REMARK 923 INTER-LIGAND FREE ENERGY PREDICTED BY IDOCK:   -3.39 KCAL/MOL
REMARK 924 INTRA-LIGAND FREE ENERGY PREDICTED BY IDOCK:   -0.13 KCAL/MOL
REMARK 927      BINDING AFFINITY PREDICTED BY RF-SCORE:    0.00 PKD
ROOT
HETATM    1  C   UNL     1     -11.249   6.491  72.506  1.00  0.00    -0.262 C  
HETATM    2  N   UNL     1     -10.706   7.848  72.366  1.00  0.00    -0.279 NA 
ENDROOT
BRANCH   2   3
HETATM    3  C   UNL     1     -10.289   8.104  70.968  1.00  0.00    -0.195 C  
BRANCH   3   4
HETATM    4  C   UNL     1     -10.838   9.378  70.357  1.00  0.00    -0.321 A  
HETATM    5  C   UNL     1     -10.489   9.738  69.045  1.00  0.00    -0.229 A  
HETATM    6  C   UNL     1     -11.680  10.228  71.088  1.00  0.00    -0.430 A  
HETATM    7  C   UNL     1     -10.993  10.905  68.468  1.00  0.00    -0.278 A  
HETATM    8  C   UNL     1     -12.186  11.395  70.507  1.00  0.00    -0.478 A  
HETATM    9  C   UNL     1     -11.847  11.730  69.198  1.00  0.00    -0.389 A  
ENDBRANCH   3   4
ENDBRANCH   2   3
BRANCH   2  10
HETATM   10  C   UNL     1      -9.530   8.033  73.239  1.00  0.00    -0.266 C  
BRANCH  10  11
HETATM   11  C   UNL     1      -8.240   7.921  72.534  1.00  0.00    -0.184 C  
HETATM   12  C   UNL     1      -7.189   7.885  71.952  1.00  0.00    -0.076 C  
ENDBRANCH  10  11
ENDBRANCH   2  10
TORSDOF 4
ENDMDL
MODEL      156
REMARK 921   NORMALIZED FREE ENERGY PREDICTED BY IDOCK:   -2.48 KCAL/MOL
REMARK 922        TOTAL FREE ENERGY PREDICTED BY IDOCK:   -3.51 KCAL/MOL
REMARK 923 INTER-LIGAND FREE ENERGY PREDICTED BY IDOCK:   -3.16 KCAL/MOL
REMARK 924 INTRA-LIGAND FREE ENERGY PREDICTED BY IDOCK:   -0.36 KCAL/MOL
REMARK 927      BINDING AFFINITY PREDICTED BY RF-SCORE:    0.00 PKD
ROOT
HETATM    1  C   UNL     1      -6.877  13.487  69.002  1.00  0.00    -0.107 C  
HETATM    2  N   UNL     1      -7.915  13.336  67.974  1.00  0.00    -0.139 NA 
ENDROOT
BRANCH   2   3
HETATM    3  C   UNL     1      -9.053  14.244  68.242  1.00  0.00    -0.188 C  
BRANCH   3   4
HETATM    4  C   UNL     1     -10.093  14.313  67.141  1.00  0.00    -0.254 A  
HETATM    5  C   UNL     1      -9.753  14.828  65.880  1.00  0.00    -0.355 A  
HETATM    6  C   UNL     1     -11.411  13.888  67.362  1.00  0.00    -0.374 A  
HETATM    7  C   UNL     1     -10.700  14.890  64.856  1.00  0.00    -0.426 A  
HETATM    8  C   UNL     1     -12.356  13.949  66.335  1.00  0.00    -0.468 A  
HETATM    9  C   UNL     1     -12.000  14.444  65.083  1.00  0.00    -0.391 A  
ENDBRANCH   3   4
ENDBRANCH   2   3
BRANCH   2  10
HETATM   10  C   UNL     1      -8.427  11.952  67.948  1.00  0.00    -0.154 C  
BRANCH  10  11
HETATM   11  C   UNL     1      -8.043  11.196  66.741  1.00  0.00    -0.155 C  
HETATM   12  C   UNL     1      -7.762  10.539  65.776  1.00  0.00    -0.145 C  
ENDBRANCH  10  11
ENDBRANCH   2  10
TORSDOF 4
ENDMDL
MODEL      157
REMARK 921   NORMALIZED FREE ENERGY PREDICTED BY IDOCK:   -2.48 KCAL/MOL
REMARK 922        TOTAL FREE ENERGY PREDICTED BY IDOCK:   -3.51 KCAL/MOL
REMARK 923 INTER-LIGAND FREE ENERGY PREDICTED BY IDOCK:   -3.12 KCAL/MOL
REMARK 924 INTRA-LIGAND FREE ENERGY PREDICTED BY IDOCK:   -0.39 KCAL/MOL
REMARK 927      BINDING AFFINITY PREDICTED BY RF-SCORE:    0.00 PKD
ROOT
HETATM    1  C   UNL     1      -7.224   7.462  70.358  1.00  0.00    -0.068 C  
HETATM    2  N   UNL     1      -8.678   7.674  70.344  1.00  0.00    -0.142 NA 
ENDROOT
BRANCH   2   3
HETATM    3  C   UNL     1      -9.010   9.055  70.760  1.00  0.00    -0.236 C  
BRANCH   3   4
HETATM    4  C   UNL     1      -9.981   9.785  69.852  1.00  0.00    -0.282 A  
HETATM    5  C   UNL     1      -9.648  10.023  68.509  1.00  0.00    -0.157 A  
HETATM    6  C   UNL     1     -11.212  10.252  70.335  1.00  0.00    -0.407 A  
HETATM    7  C   UNL     1     -10.537  10.687  67.662  1.00  0.00    -0.288 A  
HETATM    8  C   UNL     1     -12.101  10.914  69.484  1.00  0.00    -0.380 A  
HETATM    9  C   UNL     1     -11.766  11.127  68.149  1.00  0.00    -0.304 A  
ENDBRANCH   3   4
ENDBRANCH   2   3
BRANCH   2  10
HETATM   10  C   UNL     1      -9.351   6.740  71.268  1.00  0.00    -0.165 C  
BRANCH  10  11
HETATM   11  C   UNL     1     -10.820   6.736  71.146  1.00  0.00    -0.275 C  
HETATM   12  C   UNL     1     -12.013   6.691  71.010  1.00  0.00    -0.415 C  
ENDBRANCH  10  11
ENDBRANCH   2  10
TORSDOF 4
ENDMDL
MODEL      158
REMARK 921   NORMALIZED FREE ENERGY PREDICTED BY IDOCK:   -2.45 KCAL/MOL
REMARK 922        TOTAL FREE ENERGY PREDICTED BY IDOCK:   -3.48 KCAL/MOL
REMARK 923 INTER-LIGAND FREE ENERGY PREDICTED BY IDOCK:   -3.28 KCAL/MOL
REMARK 924 INTRA-LIGAND FREE ENERGY PREDICTED BY IDOCK:   -0.20 KCAL/MOL
REMARK 927      BINDING AFFINITY PREDICTED BY RF-SCORE:    0.00 PKD
ROOT
HETATM    1  C   UNL     1     -10.241  10.585  69.380  1.00  0.00    -0.221 C  
HETATM    2  N   UNL     1     -10.382  11.204  68.056  1.00  0.00    -0.179 NA 
ENDROOT
BRANCH   2   3
HETATM    3  C   UNL     1     -11.551  12.112  68.023  1.00  0.00    -0.348 C  
BRANCH   3   4
HETATM    4  C   UNL     1     -11.378  13.412  68.785  1.00  0.00    -0.332 A  
HETATM    5  C   UNL     1     -10.351  14.303  68.436  1.00  0.00    -0.247 A  
HETATM    6  C   UNL     1     -12.219  13.740  69.859  1.00  0.00    -0.383 A  
HETATM    7  C   UNL     1     -10.185  15.505  69.125  1.00  0.00    -0.240 A  
HETATM    8  C   UNL     1     -12.053  14.945  70.545  1.00  0.00    -0.378 A  
HETATM    9  C   UNL     1     -11.041  15.829  70.176  1.00  0.00    -0.360 A  
ENDBRANCH   3   4
ENDBRANCH   2   3
BRANCH   2  10
HETATM   10  C   UNL     1     -10.570  10.175  67.014  1.00  0.00    -0.225 C  
BRANCH  10  11
HETATM   11  C   UNL     1      -9.361   9.911  66.212  1.00  0.00    -0.224 C  
HETATM   12  C   UNL     1      -8.374   9.751  65.547  1.00  0.00    -0.141 C  
ENDBRANCH  10  11
ENDBRANCH   2  10
TORSDOF 4
ENDMDL
MODEL      159
REMARK 921   NORMALIZED FREE ENERGY PREDICTED BY IDOCK:   -2.45 KCAL/MOL
REMARK 922        TOTAL FREE ENERGY PREDICTED BY IDOCK:   -3.47 KCAL/MOL
REMARK 923 INTER-LIGAND FREE ENERGY PREDICTED BY IDOCK:   -3.58 KCAL/MOL
REMARK 924 INTRA-LIGAND FREE ENERGY PREDICTED BY IDOCK:    0.12 KCAL/MOL
REMARK 927      BINDING AFFINITY PREDICTED BY RF-SCORE:    0.00 PKD
ROOT
HETATM    1  C   UNL     1     -10.541  14.726  65.022  1.00  0.00    -0.429 C  
HETATM    2  N   UNL     1     -11.240  14.590  66.306  1.00  0.00    -0.336 NA 
ENDROOT
BRANCH   2   3
HETATM    3  C   UNL     1     -10.737  15.579  67.286  1.00  0.00    -0.308 C  
BRANCH   3   4
HETATM    4  C   UNL     1      -9.299  16.013  67.079  1.00  0.00    -0.233 A  
HETATM    5  C   UNL     1      -8.245  15.204  67.532  1.00  0.00    -0.196 A  
HETATM    6  C   UNL     1      -8.993  17.233  66.457  1.00  0.00    -0.294 A  
HETATM    7  C   UNL     1      -6.917  15.590  67.341  1.00  0.00    -0.232 A  
HETATM    8  C   UNL     1      -7.663  17.616  66.265  1.00  0.00    -0.324 A  
HETATM    9  C   UNL     1      -6.627  16.793  66.702  1.00  0.00    -0.216 A  
ENDBRANCH   3   4
ENDBRANCH   2   3
BRANCH   2  10
HETATM   10  C   UNL     1     -11.040  13.240  66.870  1.00  0.00    -0.289 C  
BRANCH  10  11
HETATM   11  C   UNL     1     -11.466  13.111  68.276  1.00  0.00    -0.349 C  
HETATM   12  C   UNL     1     -11.865  13.002  69.403  1.00  0.00    -0.380 C  
ENDBRANCH  10  11
ENDBRANCH   2  10
TORSDOF 4
ENDMDL
MODEL      160
REMARK 921   NORMALIZED FREE ENERGY PREDICTED BY IDOCK:   -2.40 KCAL/MOL
REMARK 922        TOTAL FREE ENERGY PREDICTED BY IDOCK:   -3.42 KCAL/MOL
REMARK 923 INTER-LIGAND FREE ENERGY PREDICTED BY IDOCK:   -3.67 KCAL/MOL
REMARK 924 INTRA-LIGAND FREE ENERGY PREDICTED BY IDOCK:    0.25 KCAL/MOL
REMARK 927      BINDING AFFINITY PREDICTED BY RF-SCORE:    0.00 PKD
ROOT
HETATM    1  C   UNL     1      -6.819  19.826  69.445  1.00  0.00    -0.329 C  
HETATM    2  N   UNL     1      -5.930  19.812  68.277  1.00  0.00    -0.228 NA 
ENDROOT
BRANCH   2   3
HETATM    3  C   UNL     1      -6.703  19.985  67.027  1.00  0.00    -0.216 C  
BRANCH   3   4
HETATM    4  C   UNL     1      -8.138  19.497  67.085  1.00  0.00    -0.301 A  
HETATM    5  C   UNL     1      -8.438  18.154  66.809  1.00  0.00    -0.273 A  
HETATM    6  C   UNL     1      -9.189  20.374  67.392  1.00  0.00    -0.513 A  
HETATM    7  C   UNL     1      -9.754  17.691  66.866  1.00  0.00    -0.292 A  
HETATM    8  C   UNL     1     -10.505  19.907  67.451  1.00  0.00    -0.542 A  
HETATM    9  C   UNL     1     -10.786  18.567  67.194  1.00  0.00    -0.396 A  
ENDBRANCH   3   4
ENDBRANCH   2   3
BRANCH   2  10
HETATM   10  C   UNL     1      -5.199  18.531  68.192  1.00  0.00    -0.171 C  
BRANCH  10  11
HETATM   11  C   UNL     1      -5.822  17.437  68.958  1.00  0.00    -0.191 C  
HETATM   12  C   UNL     1      -6.368  16.541  69.543  1.00  0.00    -0.214 C  
ENDBRANCH  10  11
ENDBRANCH   2  10
TORSDOF 4
ENDMDL
MODEL      161
REMARK 921   NORMALIZED FREE ENERGY PREDICTED BY IDOCK:   -2.39 KCAL/MOL
REMARK 922        TOTAL FREE ENERGY PREDICTED BY IDOCK:   -3.40 KCAL/MOL
REMARK 923 INTER-LIGAND FREE ENERGY PREDICTED BY IDOCK:   -3.01 KCAL/MOL
REMARK 924 INTRA-LIGAND FREE ENERGY PREDICTED BY IDOCK:   -0.39 KCAL/MOL
REMARK 927      BINDING AFFINITY PREDICTED BY RF-SCORE:    0.00 PKD
ROOT
HETATM    1  C   UNL     1      -9.602   5.728  66.248  1.00  0.00    -0.134 C  
HETATM    2  N   UNL     1      -9.578   6.056  67.679  1.00  0.00    -0.111 NA 
ENDROOT
BRANCH   2   3
HETATM    3  C   UNL     1     -10.952   6.107  68.228  1.00  0.00    -0.308 C  
BRANCH   3   4
HETATM    4  C   UNL     1     -11.048   5.977  69.736  1.00  0.00    -0.476 A  
HETATM    5  C   UNL     1     -10.242   5.050  70.416  1.00  0.00    -0.324 A  
HETATM    6  C   UNL     1     -11.950   6.756  70.475  1.00  0.00    -0.385 A  
HETATM    7  C   UNL     1     -10.316   4.926  71.805  1.00  0.00    -0.249 A  
HETATM    8  C   UNL     1     -12.020   6.631  71.865  1.00  0.00    -0.386 A  
HETATM    9  C   UNL     1     -11.201   5.721  72.529  1.00  0.00    -0.347 A  
ENDBRANCH   3   4
ENDBRANCH   2   3
BRANCH   2  10
HETATM   10  C   UNL     1      -8.943   7.369  67.904  1.00  0.00    -0.131 C  
BRANCH  10  11
HETATM   11  C   UNL     1      -7.645   7.293  68.600  1.00  0.00    -0.114 C  
HETATM   12  C   UNL     1      -6.616   7.224  69.215  1.00  0.00    -0.041 C  
ENDBRANCH  10  11
ENDBRANCH   2  10
TORSDOF 4
ENDMDL
MODEL      162
REMARK 921   NORMALIZED FREE ENERGY PREDICTED BY IDOCK:   -2.38 KCAL/MOL
REMARK 922        TOTAL FREE ENERGY PREDICTED BY IDOCK:   -3.39 KCAL/MOL
REMARK 923 INTER-LIGAND FREE ENERGY PREDICTED BY IDOCK:   -3.23 KCAL/MOL
REMARK 924 INTRA-LIGAND FREE ENERGY PREDICTED BY IDOCK:   -0.16 KCAL/MOL
REMARK 927      BINDING AFFINITY PREDICTED BY RF-SCORE:    0.00 PKD
ROOT
HETATM    1  C   UNL     1     -11.556  13.574  68.448  1.00  0.00    -0.343 C  
HETATM    2  N   UNL     1     -11.092  13.309  67.080  1.00  0.00    -0.276 NA 
ENDROOT
BRANCH   2   3
HETATM    3  C   UNL     1     -10.624  11.911  66.946  1.00  0.00    -0.230 C  
BRANCH   3   4
HETATM    4  C   UNL     1     -10.312  11.470  65.530  1.00  0.00    -0.322 A  
HETATM    5  C   UNL     1     -11.097  11.926  64.459  1.00  0.00    -0.381 A  
HETATM    6  C   UNL     1      -9.255  10.588  65.262  1.00  0.00    -0.238 A  
HETATM    7  C   UNL     1     -10.815  11.532  63.150  1.00  0.00    -0.243 A  
HETATM    8  C   UNL     1      -8.973  10.197  63.950  1.00  0.00    -0.270 A  
HETATM    9  C   UNL     1      -9.749  10.673  62.896  1.00  0.00    -0.329 A  
ENDBRANCH   3   4
ENDBRANCH   2   3
BRANCH   2  10
HETATM   10  C   UNL     1      -9.974  14.206  66.723  1.00  0.00    -0.267 C  
BRANCH  10  11
HETATM   11  C   UNL     1      -8.936  14.307  67.764  1.00  0.00    -0.188 C  
HETATM   12  C   UNL     1      -8.129  14.383  68.652  1.00  0.00    -0.146 C  
ENDBRANCH  10  11
ENDBRANCH   2  10
TORSDOF 4
ENDMDL
MODEL      163
REMARK 921   NORMALIZED FREE ENERGY PREDICTED BY IDOCK:   -2.38 KCAL/MOL
REMARK 922        TOTAL FREE ENERGY PREDICTED BY IDOCK:   -3.39 KCAL/MOL
REMARK 923 INTER-LIGAND FREE ENERGY PREDICTED BY IDOCK:   -3.27 KCAL/MOL
REMARK 924 INTRA-LIGAND FREE ENERGY PREDICTED BY IDOCK:   -0.12 KCAL/MOL
REMARK 927      BINDING AFFINITY PREDICTED BY RF-SCORE:    0.00 PKD
ROOT
HETATM    1  C   UNL     1      -9.498   9.651  69.467  1.00  0.00    -0.199 C  
HETATM    2  N   UNL     1      -9.349   8.583  68.471  1.00  0.00    -0.139 NA 
ENDROOT
BRANCH   2   3
HETATM    3  C   UNL     1     -10.444   8.637  67.476  1.00  0.00    -0.266 C  
BRANCH   3   4
HETATM    4  C   UNL     1     -10.390   9.813  66.522  1.00  0.00    -0.262 A  
HETATM    5  C   UNL     1      -9.566   9.763  65.386  1.00  0.00    -0.359 A  
HETATM    6  C   UNL     1     -11.137  10.976  66.761  1.00  0.00    -0.240 A  
HETATM    7  C   UNL     1      -9.513  10.837  64.496  1.00  0.00    -0.297 A  
HETATM    8  C   UNL     1     -11.084  12.049  65.868  1.00  0.00    -0.369 A  
HETATM    9  C   UNL     1     -10.277  11.977  64.734  1.00  0.00    -0.311 A  
ENDBRANCH   3   4
ENDBRANCH   2   3
BRANCH   2  10
HETATM   10  C   UNL     1      -9.379   7.256  69.118  1.00  0.00    -0.146 C  
BRANCH  10  11
HETATM   11  C   UNL     1     -10.676   6.922  69.734  1.00  0.00    -0.276 C  
HETATM   12  C   UNL     1     -11.757   6.657  70.187  1.00  0.00    -0.412 C  
ENDBRANCH  10  11
ENDBRANCH   2  10
TORSDOF 4
ENDMDL
MODEL      164
REMARK 921   NORMALIZED FREE ENERGY PREDICTED BY IDOCK:   -2.38 KCAL/MOL
REMARK 922        TOTAL FREE ENERGY PREDICTED BY IDOCK:   -3.39 KCAL/MOL
REMARK 923 INTER-LIGAND FREE ENERGY PREDICTED BY IDOCK:   -3.31 KCAL/MOL
REMARK 924 INTRA-LIGAND FREE ENERGY PREDICTED BY IDOCK:   -0.08 KCAL/MOL
REMARK 927      BINDING AFFINITY PREDICTED BY RF-SCORE:    0.00 PKD
ROOT
HETATM    1  C   UNL     1     -10.749   7.421  67.151  1.00  0.00    -0.330 C  
HETATM    2  N   UNL     1     -10.016   8.665  67.421  1.00  0.00    -0.192 NA 
ENDROOT
BRANCH   2   3
HETATM    3  C   UNL     1     -10.056   9.563  66.245  1.00  0.00    -0.257 C  
BRANCH   3   4
HETATM    4  C   UNL     1     -10.743  10.895  66.476  1.00  0.00    -0.270 A  
HETATM    5  C   UNL     1     -10.945  11.780  65.405  1.00  0.00    -0.352 A  
HETATM    6  C   UNL     1     -11.167  11.279  67.757  1.00  0.00    -0.354 A  
HETATM    7  C   UNL     1     -11.583  13.006  65.604  1.00  0.00    -0.391 A  
HETATM    8  C   UNL     1     -11.807  12.505  67.952  1.00  0.00    -0.383 A  
HETATM    9  C   UNL     1     -12.019  13.365  66.877  1.00  0.00    -0.437 A  
ENDBRANCH   3   4
ENDBRANCH   2   3
BRANCH   2  10
HETATM   10  C   UNL     1      -8.602   8.381  67.736  1.00  0.00    -0.130 C  
BRANCH  10  11
HETATM   11  C   UNL     1      -8.103   7.121  67.157  1.00  0.00    -0.114 C  
HETATM   12  C   UNL     1      -7.651   6.098  66.717  1.00  0.00    -0.099 C  
ENDBRANCH  10  11
ENDBRANCH   2  10
TORSDOF 4
ENDMDL
MODEL      165
REMARK 921   NORMALIZED FREE ENERGY PREDICTED BY IDOCK:   -2.35 KCAL/MOL
REMARK 922        TOTAL FREE ENERGY PREDICTED BY IDOCK:   -3.35 KCAL/MOL
REMARK 923 INTER-LIGAND FREE ENERGY PREDICTED BY IDOCK:   -3.37 KCAL/MOL
REMARK 924 INTRA-LIGAND FREE ENERGY PREDICTED BY IDOCK:    0.02 KCAL/MOL
REMARK 927      BINDING AFFINITY PREDICTED BY RF-SCORE:    0.00 PKD
ROOT
HETATM    1  C   UNL     1     -10.784   8.820  68.046  1.00  0.00    -0.090 C  
HETATM    2  N   UNL     1     -10.292  10.198  68.166  1.00  0.00    -0.175 NA 
ENDROOT
BRANCH   2   3
HETATM    3  C   UNL     1     -11.416  11.161  68.139  1.00  0.00    -0.303 C  
BRANCH   3   4
HETATM    4  C   UNL     1     -12.006  11.498  69.495  1.00  0.00    -0.402 A  
HETATM    5  C   UNL     1     -12.008  12.825  69.952  1.00  0.00    -0.368 A  
HETATM    6  C   UNL     1     -12.537  10.498  70.323  1.00  0.00    -0.306 A  
HETATM    7  C   UNL     1     -12.554  13.150  71.196  1.00  0.00    -0.403 A  
HETATM    8  C   UNL     1     -13.085  10.826  71.566  1.00  0.00    -0.517 A  
HETATM    9  C   UNL     1     -13.099  12.150  71.999  1.00  0.00    -0.462 A  
ENDBRANCH   3   4
ENDBRANCH   2   3
BRANCH   2  10
HETATM   10  C   UNL     1      -9.379  10.526  67.052  1.00  0.00    -0.155 C  
BRANCH  10  11
HETATM   11  C   UNL     1      -8.023  10.908  67.485  1.00  0.00    -0.115 C  
HETATM   12  C   UNL     1      -6.939  11.237  67.886  1.00  0.00    -0.073 C  
ENDBRANCH  10  11
ENDBRANCH   2  10
TORSDOF 4
ENDMDL
MODEL      166
REMARK 921   NORMALIZED FREE ENERGY PREDICTED BY IDOCK:   -2.34 KCAL/MOL
REMARK 922        TOTAL FREE ENERGY PREDICTED BY IDOCK:   -3.34 KCAL/MOL
REMARK 923 INTER-LIGAND FREE ENERGY PREDICTED BY IDOCK:   -2.88 KCAL/MOL
REMARK 924 INTRA-LIGAND FREE ENERGY PREDICTED BY IDOCK:   -0.46 KCAL/MOL
REMARK 927      BINDING AFFINITY PREDICTED BY RF-SCORE:    0.00 PKD
ROOT
HETATM    1  C   UNL     1      -6.719   8.424  72.412  1.00  0.00    -0.088 C  
HETATM    2  N   UNL     1      -7.896   8.224  71.557  1.00  0.00    -0.107 NA 
ENDROOT
BRANCH   2   3
HETATM    3  C   UNL     1      -8.885   7.347  72.223  1.00  0.00    -0.124 C  
BRANCH   3   4
HETATM    4  C   UNL     1     -10.336   7.730  72.003  1.00  0.00    -0.267 A  
HETATM    5  C   UNL     1     -11.319   6.735  71.887  1.00  0.00    -0.306 A  
HETATM    6  C   UNL     1     -10.720   9.075  71.890  1.00  0.00    -0.401 A  
HETATM    7  C   UNL     1     -12.659   7.076  71.692  1.00  0.00    -0.419 A  
HETATM    8  C   UNL     1     -12.062   9.413  71.697  1.00  0.00    -0.462 A  
HETATM    9  C   UNL     1     -13.030   8.415  71.603  1.00  0.00    -0.355 A  
ENDBRANCH   3   4
ENDBRANCH   2   3
BRANCH   2  10
HETATM   10  C   UNL     1      -7.512   7.597  70.277  1.00  0.00    -0.083 C  
BRANCH  10  11
HETATM   11  C   UNL     1      -8.350   8.008  69.136  1.00  0.00    -0.132 C  
HETATM   12  C   UNL     1      -8.993   8.379  68.191  1.00  0.00    -0.139 C  
ENDBRANCH  10  11
ENDBRANCH   2  10
TORSDOF 4
ENDMDL
MODEL      167
REMARK 921   NORMALIZED FREE ENERGY PREDICTED BY IDOCK:   -2.33 KCAL/MOL
REMARK 922        TOTAL FREE ENERGY PREDICTED BY IDOCK:   -3.32 KCAL/MOL
REMARK 923 INTER-LIGAND FREE ENERGY PREDICTED BY IDOCK:   -3.13 KCAL/MOL
REMARK 924 INTRA-LIGAND FREE ENERGY PREDICTED BY IDOCK:   -0.20 KCAL/MOL
REMARK 927      BINDING AFFINITY PREDICTED BY RF-SCORE:    0.00 PKD
ROOT
HETATM    1  C   UNL     1      -9.629  15.221  69.016  1.00  0.00    -0.237 C  
HETATM    2  N   UNL     1      -8.643  16.083  68.352  1.00  0.00    -0.178 NA 
ENDROOT
BRANCH   2   3
HETATM    3  C   UNL     1      -9.247  17.383  67.983  1.00  0.00    -0.266 C  
BRANCH   3   4
HETATM    4  C   UNL     1      -8.283  18.553  67.949  1.00  0.00    -0.277 A  
HETATM    5  C   UNL     1      -8.635  19.738  67.283  1.00  0.00    -0.374 A  
HETATM    6  C   UNL     1      -7.022  18.471  68.558  1.00  0.00    -0.284 A  
HETATM    7  C   UNL     1      -7.759  20.824  67.251  1.00  0.00    -0.332 A  
HETATM    8  C   UNL     1      -6.148  19.561  68.526  1.00  0.00    -0.262 A  
HETATM    9  C   UNL     1      -6.518  20.737  67.879  1.00  0.00    -0.376 A  
ENDBRANCH   3   4
ENDBRANCH   2   3
BRANCH   2  10
HETATM   10  C   UNL     1      -8.136  15.444  67.120  1.00  0.00    -0.217 C  
BRANCH  10  11
HETATM   11  C   UNL     1      -7.324  14.238  67.364  1.00  0.00    -0.152 C  
HETATM   12  C   UNL     1      -6.690  13.248  67.611  1.00  0.00    -0.171 C  
ENDBRANCH  10  11
ENDBRANCH   2  10
TORSDOF 4
ENDMDL
MODEL      168
REMARK 921   NORMALIZED FREE ENERGY PREDICTED BY IDOCK:   -2.32 KCAL/MOL
REMARK 922        TOTAL FREE ENERGY PREDICTED BY IDOCK:   -3.31 KCAL/MOL
REMARK 923 INTER-LIGAND FREE ENERGY PREDICTED BY IDOCK:   -3.14 KCAL/MOL
REMARK 924 INTRA-LIGAND FREE ENERGY PREDICTED BY IDOCK:   -0.17 KCAL/MOL
REMARK 927      BINDING AFFINITY PREDICTED BY RF-SCORE:    0.00 PKD
ROOT
HETATM    1  C   UNL     1     -11.332  12.603  63.969  1.00  0.00    -0.407 C  
HETATM    2  N   UNL     1     -10.367  12.467  65.067  1.00  0.00    -0.294 NA 
ENDROOT
BRANCH   2   3
HETATM    3  C   UNL     1     -10.915  11.612  66.145  1.00  0.00    -0.288 C  
BRANCH   3   4
HETATM    4  C   UNL     1      -9.972  10.543  66.660  1.00  0.00    -0.260 A  
HETATM    5  C   UNL     1      -8.850  10.901  67.425  1.00  0.00    -0.133 A  
HETATM    6  C   UNL     1     -10.185   9.188  66.368  1.00  0.00    -0.300 A  
HETATM    7  C   UNL     1      -7.978   9.925  67.911  1.00  0.00    -0.104 A  
HETATM    8  C   UNL     1      -9.312   8.213  66.858  1.00  0.00    -0.219 A  
HETATM    9  C   UNL     1      -8.213   8.580  67.632  1.00  0.00    -0.118 A  
ENDBRANCH   3   4
ENDBRANCH   2   3
BRANCH   2  10
HETATM   10  C   UNL     1     -10.044  13.787  65.646  1.00  0.00    -0.298 C  
BRANCH  10  11
HETATM   11  C   UNL     1     -10.994  14.232  66.682  1.00  0.00    -0.310 C  
HETATM   12  C   UNL     1     -11.809  14.572  67.497  1.00  0.00    -0.404 C  
ENDBRANCH  10  11
ENDBRANCH   2  10
TORSDOF 4
ENDMDL
MODEL      169
REMARK 921   NORMALIZED FREE ENERGY PREDICTED BY IDOCK:   -2.30 KCAL/MOL
REMARK 922        TOTAL FREE ENERGY PREDICTED BY IDOCK:   -3.29 KCAL/MOL
REMARK 923 INTER-LIGAND FREE ENERGY PREDICTED BY IDOCK:   -2.82 KCAL/MOL
REMARK 924 INTRA-LIGAND FREE ENERGY PREDICTED BY IDOCK:   -0.46 KCAL/MOL
REMARK 927      BINDING AFFINITY PREDICTED BY RF-SCORE:    0.00 PKD
ROOT
HETATM    1  C   UNL     1      -9.980   8.970  71.121  1.00  0.00    -0.295 C  
HETATM    2  N   UNL     1     -10.105   7.815  70.222  1.00  0.00    -0.194 NA 
ENDROOT
BRANCH   2   3
HETATM    3  C   UNL     1      -8.942   6.910  70.367  1.00  0.00    -0.152 C  
BRANCH   3   4
HETATM    4  C   UNL     1      -9.274   5.503  70.824  1.00  0.00    -0.179 A  
HETATM    5  C   UNL     1      -9.188   4.430  69.924  1.00  0.00    -0.202 A  
HETATM    6  C   UNL     1      -9.692   5.249  72.139  1.00  0.00    -0.202 A  
HETATM    7  C   UNL     1      -9.485   3.129  70.335  1.00  0.00    -0.227 A  
HETATM    8  C   UNL     1      -9.986   3.945  72.549  1.00  0.00    -0.225 A  
HETATM    9  C   UNL     1      -9.877   2.887  71.650  1.00  0.00    -0.209 A  
ENDBRANCH   3   4
ENDBRANCH   2   3
BRANCH   2  10
HETATM   10  C   UNL     1     -10.175   8.253  68.814  1.00  0.00    -0.210 C  
BRANCH  10  11
HETATM   11  C   UNL     1     -10.578   7.188  67.878  1.00  0.00    -0.269 C  
HETATM   12  C   UNL     1     -10.905   6.284  67.157  1.00  0.00    -0.460 C  
ENDBRANCH  10  11
ENDBRANCH   2  10
TORSDOF 4
ENDMDL
MODEL      170
REMARK 921   NORMALIZED FREE ENERGY PREDICTED BY IDOCK:   -2.29 KCAL/MOL
REMARK 922        TOTAL FREE ENERGY PREDICTED BY IDOCK:   -3.28 KCAL/MOL
REMARK 923 INTER-LIGAND FREE ENERGY PREDICTED BY IDOCK:   -2.86 KCAL/MOL
REMARK 924 INTRA-LIGAND FREE ENERGY PREDICTED BY IDOCK:   -0.41 KCAL/MOL
REMARK 927      BINDING AFFINITY PREDICTED BY RF-SCORE:    0.00 PKD
ROOT
HETATM    1  C   UNL     1      -9.594   4.017  66.826  1.00  0.00    -0.211 C  
HETATM    2  N   UNL     1      -9.397   5.468  66.936  1.00  0.00    -0.124 NA 
ENDROOT
BRANCH   2   3
HETATM    3  C   UNL     1     -10.684   6.154  67.188  1.00  0.00    -0.346 C  
BRANCH   3   4
HETATM    4  C   UNL     1     -10.797   6.835  68.538  1.00  0.00    -0.280 A  
HETATM    5  C   UNL     1     -11.067   6.077  69.689  1.00  0.00    -0.474 A  
HETATM    6  C   UNL     1     -10.657   8.225  68.663  1.00  0.00    -0.144 A  
HETATM    7  C   UNL     1     -11.167   6.691  70.939  1.00  0.00    -0.352 A  
HETATM    8  C   UNL     1     -10.755   8.836  69.916  1.00  0.00    -0.228 A  
HETATM    9  C   UNL     1     -11.004   8.070  71.053  1.00  0.00    -0.263 A  
ENDBRANCH   3   4
ENDBRANCH   2   3
BRANCH   2  10
HETATM   10  C   UNL     1      -8.820   6.014  65.692  1.00  0.00    -0.109 C  
BRANCH  10  11
HETATM   11  C   UNL     1      -8.614   7.473  65.719  1.00  0.00    -0.158 C  
HETATM   12  C   UNL     1      -8.458   8.664  65.687  1.00  0.00    -0.171 C  
ENDBRANCH  10  11
ENDBRANCH   2  10
TORSDOF 4
ENDMDL
MODEL      171
REMARK 921   NORMALIZED FREE ENERGY PREDICTED BY IDOCK:   -2.26 KCAL/MOL
REMARK 922        TOTAL FREE ENERGY PREDICTED BY IDOCK:   -3.24 KCAL/MOL
REMARK 923 INTER-LIGAND FREE ENERGY PREDICTED BY IDOCK:   -2.83 KCAL/MOL
REMARK 924 INTRA-LIGAND FREE ENERGY PREDICTED BY IDOCK:   -0.42 KCAL/MOL
REMARK 927      BINDING AFFINITY PREDICTED BY RF-SCORE:    0.00 PKD
ROOT
HETATM    1  C   UNL     1     -10.526  16.749  66.574  1.00  0.00    -0.258 C  
HETATM    2  N   UNL     1     -10.419  15.346  66.992  1.00  0.00    -0.288 NA 
ENDROOT
BRANCH   2   3
HETATM    3  C   UNL     1      -9.183  14.731  66.456  1.00  0.00    -0.276 C  
BRANCH   3   4
HETATM    4  C   UNL     1      -8.189  14.268  67.503  1.00  0.00    -0.201 A  
HETATM    5  C   UNL     1      -7.676  12.962  67.460  1.00  0.00    -0.174 A  
HETATM    6  C   UNL     1      -7.779  15.120  68.540  1.00  0.00    -0.122 A  
HETATM    7  C   UNL     1      -6.755  12.526  68.414  1.00  0.00    -0.081 A  
HETATM    8  C   UNL     1      -6.855  14.682  69.492  1.00  0.00    -0.165 A  
HETATM    9  C   UNL     1      -6.340  13.389  69.426  1.00  0.00    -0.111 A  
ENDBRANCH   3   4
ENDBRANCH   2   3
BRANCH   2  10
HETATM   10  C   UNL     1     -11.572  14.564  66.502  1.00  0.00    -0.371 C  
BRANCH  10  11
HETATM   11  C   UNL     1     -11.510  13.131  66.843  1.00  0.00    -0.384 C  
HETATM   12  C   UNL     1     -11.405  11.970  67.131  1.00  0.00    -0.396 C  
ENDBRANCH  10  11
ENDBRANCH   2  10
TORSDOF 4
ENDMDL
MODEL      172
REMARK 921   NORMALIZED FREE ENERGY PREDICTED BY IDOCK:   -2.25 KCAL/MOL
REMARK 922        TOTAL FREE ENERGY PREDICTED BY IDOCK:   -3.23 KCAL/MOL
REMARK 923 INTER-LIGAND FREE ENERGY PREDICTED BY IDOCK:   -2.96 KCAL/MOL
REMARK 924 INTRA-LIGAND FREE ENERGY PREDICTED BY IDOCK:   -0.27 KCAL/MOL
REMARK 927      BINDING AFFINITY PREDICTED BY RF-SCORE:    0.00 PKD
ROOT
HETATM    1  C   UNL     1      -9.116   5.172  70.224  1.00  0.00    -0.126 C  
HETATM    2  N   UNL     1      -9.514   5.904  71.434  1.00  0.00    -0.150 NA 
ENDROOT
BRANCH   2   3
HETATM    3  C   UNL     1      -9.078   7.316  71.360  1.00  0.00    -0.142 C  
BRANCH   3   4
HETATM    4  C   UNL     1     -10.200   8.331  71.263  1.00  0.00    -0.253 A  
HETATM    5  C   UNL     1     -11.396   8.131  71.969  1.00  0.00    -0.378 A  
HETATM    6  C   UNL     1     -10.077   9.472  70.455  1.00  0.00    -0.347 A  
HETATM    7  C   UNL     1     -12.434   9.062  71.893  1.00  0.00    -0.454 A  
HETATM    8  C   UNL     1     -11.116  10.403  70.383  1.00  0.00    -0.371 A  
HETATM    9  C   UNL     1     -12.290  10.201  71.105  1.00  0.00    -0.488 A  
ENDBRANCH   3   4
ENDBRANCH   2   3
BRANCH   2  10
HETATM   10  C   UNL     1      -8.907   5.297  72.636  1.00  0.00    -0.123 C  
BRANCH  10  11
HETATM   11  C   UNL     1      -7.434   5.262  72.607  1.00  0.00    -0.096 C  
HETATM   12  C   UNL     1      -6.235   5.247  72.529  1.00  0.00    -0.032 C  
ENDBRANCH  10  11
ENDBRANCH   2  10
TORSDOF 4
ENDMDL
MODEL      173
REMARK 921   NORMALIZED FREE ENERGY PREDICTED BY IDOCK:   -2.21 KCAL/MOL
REMARK 922        TOTAL FREE ENERGY PREDICTED BY IDOCK:   -3.17 KCAL/MOL
REMARK 923 INTER-LIGAND FREE ENERGY PREDICTED BY IDOCK:   -3.42 KCAL/MOL
REMARK 924 INTRA-LIGAND FREE ENERGY PREDICTED BY IDOCK:    0.25 KCAL/MOL
REMARK 927      BINDING AFFINITY PREDICTED BY RF-SCORE:    0.00 PKD
ROOT
HETATM    1  C   UNL     1      -9.882   8.477  71.729  1.00  0.00    -0.269 C  
HETATM    2  N   UNL     1     -10.924   8.578  70.699  1.00  0.00    -0.236 NA 
ENDROOT
BRANCH   2   3
HETATM    3  C   UNL     1     -11.762   7.358  70.679  1.00  0.00    -0.242 C  
BRANCH   3   4
HETATM    4  C   UNL     1     -11.118   6.125  71.284  1.00  0.00    -0.351 A  
HETATM    5  C   UNL     1     -11.420   5.747  72.602  1.00  0.00    -0.337 A  
HETATM    6  C   UNL     1     -10.200   5.356  70.555  1.00  0.00    -0.326 A  
HETATM    7  C   UNL     1     -10.839   4.610  73.168  1.00  0.00    -0.338 A  
HETATM    8  C   UNL     1      -9.621   4.218  71.123  1.00  0.00    -0.249 A  
HETATM    9  C   UNL     1      -9.945   3.842  72.425  1.00  0.00    -0.232 A  
ENDBRANCH   3   4
ENDBRANCH   2   3
BRANCH   2  10
HETATM   10  C   UNL     1     -10.321   8.744  69.361  1.00  0.00    -0.214 C  
BRANCH  10  11
HETATM   11  C   UNL     1     -10.877   9.873  68.593  1.00  0.00    -0.244 C  
HETATM   12  C   UNL     1     -11.285  10.792  67.935  1.00  0.00    -0.386 C  
ENDBRANCH  10  11
ENDBRANCH   2  10
TORSDOF 4
ENDMDL
MODEL      174
REMARK 921   NORMALIZED FREE ENERGY PREDICTED BY IDOCK:   -2.20 KCAL/MOL
REMARK 922        TOTAL FREE ENERGY PREDICTED BY IDOCK:   -3.17 KCAL/MOL
REMARK 923 INTER-LIGAND FREE ENERGY PREDICTED BY IDOCK:   -3.44 KCAL/MOL
REMARK 924 INTRA-LIGAND FREE ENERGY PREDICTED BY IDOCK:    0.27 KCAL/MOL
REMARK 927      BINDING AFFINITY PREDICTED BY RF-SCORE:    0.00 PKD
ROOT
HETATM    1  C   UNL     1     -11.843  11.536  68.402  1.00  0.00    -0.283 C  
HETATM    2  N   UNL     1     -10.551  10.916  68.725  1.00  0.00    -0.189 NA 
ENDROOT
BRANCH   2   3
HETATM    3  C   UNL     1      -9.476  11.469  67.870  1.00  0.00    -0.178 C  
BRANCH   3   4
HETATM    4  C   UNL     1      -9.815  11.573  66.396  1.00  0.00    -0.233 A  
HETATM    5  C   UNL     1      -9.821  10.422  65.591  1.00  0.00    -0.321 A  
HETATM    6  C   UNL     1     -10.107  12.811  65.805  1.00  0.00    -0.296 A  
HETATM    7  C   UNL     1     -10.139  10.504  64.234  1.00  0.00    -0.380 A  
HETATM    8  C   UNL     1     -10.427  12.889  64.447  1.00  0.00    -0.419 A  
HETATM    9  C   UNL     1     -10.448  11.737  63.664  1.00  0.00    -0.490 A  
ENDBRANCH   3   4
ENDBRANCH   2   3
BRANCH   2  10
HETATM   10  C   UNL     1     -10.603   9.456  68.511  1.00  0.00    -0.197 C  
BRANCH  10  11
HETATM   11  C   UNL     1     -10.842   8.681  69.742  1.00  0.00    -0.185 C  
HETATM   12  C   UNL     1     -11.092   8.052  70.735  1.00  0.00    -0.269 C  
ENDBRANCH  10  11
ENDBRANCH   2  10
TORSDOF 4
ENDMDL
MODEL      175
REMARK 921   NORMALIZED FREE ENERGY PREDICTED BY IDOCK:   -2.20 KCAL/MOL
REMARK 922        TOTAL FREE ENERGY PREDICTED BY IDOCK:   -3.16 KCAL/MOL
REMARK 923 INTER-LIGAND FREE ENERGY PREDICTED BY IDOCK:   -2.75 KCAL/MOL
REMARK 924 INTRA-LIGAND FREE ENERGY PREDICTED BY IDOCK:   -0.41 KCAL/MOL
REMARK 927      BINDING AFFINITY PREDICTED BY RF-SCORE:    0.00 PKD
ROOT
HETATM    1  C   UNL     1      -8.704   9.157  70.398  1.00  0.00    -0.215 C  
HETATM    2  N   UNL     1      -9.898   8.313  70.255  1.00  0.00    -0.182 NA 
ENDROOT
BRANCH   2   3
HETATM    3  C   UNL     1     -10.544   8.537  68.942  1.00  0.00    -0.144 C  
BRANCH   3   4
HETATM    4  C   UNL     1     -10.243   7.487  67.890  1.00  0.00    -0.245 A  
HETATM    5  C   UNL     1      -9.385   7.787  66.820  1.00  0.00    -0.227 A  
HETATM    6  C   UNL     1     -10.827   6.214  67.950  1.00  0.00    -0.406 A  
HETATM    7  C   UNL     1      -9.095   6.826  65.849  1.00  0.00    -0.049 A  
HETATM    8  C   UNL     1     -10.533   5.254  66.978  1.00  0.00    -0.290 A  
HETATM    9  C   UNL     1      -9.664   5.558  65.932  1.00  0.00    -0.058 A  
ENDBRANCH   3   4
ENDBRANCH   2   3
BRANCH   2  10
HETATM   10  C   UNL     1     -10.883   8.618  71.311  1.00  0.00    -0.260 C  
BRANCH  10  11
HETATM   11  C   UNL     1     -11.998   7.656  71.382  1.00  0.00    -0.336 C  
HETATM   12  C   UNL     1     -12.941   6.914  71.455  1.00  0.00    -0.339 C  
ENDBRANCH  10  11
ENDBRANCH   2  10
TORSDOF 4
ENDMDL
MODEL      176
REMARK 921   NORMALIZED FREE ENERGY PREDICTED BY IDOCK:   -2.17 KCAL/MOL
REMARK 922        TOTAL FREE ENERGY PREDICTED BY IDOCK:   -3.13 KCAL/MOL
REMARK 923 INTER-LIGAND FREE ENERGY PREDICTED BY IDOCK:   -2.67 KCAL/MOL
REMARK 924 INTRA-LIGAND FREE ENERGY PREDICTED BY IDOCK:   -0.46 KCAL/MOL
REMARK 927      BINDING AFFINITY PREDICTED BY RF-SCORE:    0.00 PKD
ROOT
HETATM    1  C   UNL     1      -8.951   3.355  65.169  1.00  0.00    -0.138 C  
HETATM    2  N   UNL     1      -8.807   4.569  65.982  1.00  0.00    -0.117 NA 
ENDROOT
BRANCH   2   3
HETATM    3  C   UNL     1     -10.125   5.033  66.471  1.00  0.00    -0.248 C  
BRANCH   3   4
HETATM    4  C   UNL     1     -10.234   5.194  67.975  1.00  0.00    -0.178 A  
HETATM    5  C   UNL     1     -11.102   6.153  68.521  1.00  0.00    -0.352 A  
HETATM    6  C   UNL     1      -9.461   4.410  68.845  1.00  0.00    -0.232 A  
HETATM    7  C   UNL     1     -11.215   6.306  69.904  1.00  0.00    -0.498 A  
HETATM    8  C   UNL     1      -9.579   4.564  70.229  1.00  0.00    -0.263 A  
HETATM    9  C   UNL     1     -10.458   5.506  70.757  1.00  0.00    -0.330 A  
ENDBRANCH   3   4
ENDBRANCH   2   3
BRANCH   2  10
HETATM   10  C   UNL     1      -8.200   5.659  65.193  1.00  0.00    -0.136 C  
BRANCH  10  11
HETATM   11  C   UNL     1      -7.725   6.792  66.007  1.00  0.00    -0.093 C  
HETATM   12  C   UNL     1      -7.388   7.719  66.694  1.00  0.00    -0.088 C  
ENDBRANCH  10  11
ENDBRANCH   2  10
TORSDOF 4
ENDMDL
MODEL      177
REMARK 921   NORMALIZED FREE ENERGY PREDICTED BY IDOCK:   -2.16 KCAL/MOL
REMARK 922        TOTAL FREE ENERGY PREDICTED BY IDOCK:   -3.12 KCAL/MOL
REMARK 923 INTER-LIGAND FREE ENERGY PREDICTED BY IDOCK:   -3.25 KCAL/MOL
REMARK 924 INTRA-LIGAND FREE ENERGY PREDICTED BY IDOCK:    0.13 KCAL/MOL
REMARK 927      BINDING AFFINITY PREDICTED BY RF-SCORE:    0.00 PKD
ROOT
HETATM    1  C   UNL     1     -10.232   5.049  70.617  1.00  0.00    -0.235 C  
HETATM    2  N   UNL     1     -11.284   5.979  70.185  1.00  0.00    -0.369 NA 
ENDROOT
BRANCH   2   3
HETATM    3  C   UNL     1     -10.868   6.712  68.968  1.00  0.00    -0.277 C  
BRANCH   3   4
HETATM    4  C   UNL     1     -10.003   7.932  69.217  1.00  0.00    -0.190 A  
HETATM    5  C   UNL     1     -10.587   9.206  69.305  1.00  0.00    -0.229 A  
HETATM    6  C   UNL     1      -8.610   7.819  69.341  1.00  0.00    -0.135 A  
HETATM    7  C   UNL     1      -9.802  10.335  69.540  1.00  0.00    -0.244 A  
HETATM    8  C   UNL     1      -7.826   8.952  69.579  1.00  0.00    -0.094 A  
HETATM    9  C   UNL     1      -8.422  10.207  69.684  1.00  0.00    -0.172 A  
ENDBRANCH   3   4
ENDBRANCH   2   3
BRANCH   2  10
HETATM   10  C   UNL     1     -11.573   6.968  71.242  1.00  0.00    -0.303 C  
BRANCH  10  11
HETATM   11  C   UNL     1     -13.007   7.279  71.392  1.00  0.00    -0.420 C  
HETATM   12  C   UNL     1     -14.186   7.477  71.510  1.00  0.00    -0.580 C  
ENDBRANCH  10  11
ENDBRANCH   2  10
TORSDOF 4
ENDMDL
MODEL      178
REMARK 921   NORMALIZED FREE ENERGY PREDICTED BY IDOCK:   -2.15 KCAL/MOL
REMARK 922        TOTAL FREE ENERGY PREDICTED BY IDOCK:   -3.10 KCAL/MOL
REMARK 923 INTER-LIGAND FREE ENERGY PREDICTED BY IDOCK:   -3.02 KCAL/MOL
REMARK 924 INTRA-LIGAND FREE ENERGY PREDICTED BY IDOCK:   -0.08 KCAL/MOL
REMARK 927      BINDING AFFINITY PREDICTED BY RF-SCORE:    0.00 PKD
ROOT
HETATM    1  C   UNL     1     -10.113   9.915  65.743  1.00  0.00    -0.247 C  
HETATM    2  N   UNL     1     -10.449   9.085  66.907  1.00  0.00    -0.250 NA 
ENDROOT
BRANCH   2   3
HETATM    3  C   UNL     1      -9.976   9.720  68.158  1.00  0.00    -0.154 C  
BRANCH   3   4
HETATM    4  C   UNL     1     -10.327  11.187  68.307  1.00  0.00    -0.198 A  
HETATM    5  C   UNL     1      -9.329  12.167  68.183  1.00  0.00    -0.204 A  
HETATM    6  C   UNL     1     -11.639  11.593  68.590  1.00  0.00    -0.373 A  
HETATM    7  C   UNL     1      -9.641  13.522  68.311  1.00  0.00    -0.218 A  
HETATM    8  C   UNL     1     -11.949  12.950  68.715  1.00  0.00    -0.290 A  
HETATM    9  C   UNL     1     -10.953  13.913  68.570  1.00  0.00    -0.277 A  
ENDBRANCH   3   4
ENDBRANCH   2   3
BRANCH   2  10
HETATM   10  C   UNL     1      -9.818   7.754  66.800  1.00  0.00    -0.241 C  
BRANCH  10  11
HETATM   11  C   UNL     1     -10.364   6.757  67.739  1.00  0.00    -0.245 C  
HETATM   12  C   UNL     1     -10.760   5.946  68.532  1.00  0.00    -0.327 C  
ENDBRANCH  10  11
ENDBRANCH   2  10
TORSDOF 4
ENDMDL
MODEL      179
REMARK 921   NORMALIZED FREE ENERGY PREDICTED BY IDOCK:   -2.14 KCAL/MOL
REMARK 922        TOTAL FREE ENERGY PREDICTED BY IDOCK:   -3.09 KCAL/MOL
REMARK 923 INTER-LIGAND FREE ENERGY PREDICTED BY IDOCK:   -3.03 KCAL/MOL
REMARK 924 INTRA-LIGAND FREE ENERGY PREDICTED BY IDOCK:   -0.06 KCAL/MOL
REMARK 927      BINDING AFFINITY PREDICTED BY RF-SCORE:    0.00 PKD
ROOT
HETATM    1  C   UNL     1      -8.164  13.852  68.378  1.00  0.00    -0.153 C  
HETATM    2  N   UNL     1      -8.839  14.125  67.103  1.00  0.00    -0.219 NA 
ENDROOT
BRANCH   2   3
HETATM    3  C   UNL     1     -10.039  14.967  67.315  1.00  0.00    -0.235 C  
BRANCH   3   4
HETATM    4  C   UNL     1      -9.820  16.456  67.131  1.00  0.00    -0.249 A  
HETATM    5  C   UNL     1      -8.738  16.921  66.367  1.00  0.00    -0.321 A  
HETATM    6  C   UNL     1     -10.674  17.393  67.731  1.00  0.00    -0.332 A  
HETATM    7  C   UNL     1      -8.530  18.289  66.185  1.00  0.00    -0.143 A  
HETATM    8  C   UNL     1     -10.465  18.762  67.544  1.00  0.00    -0.495 A  
HETATM    9  C   UNL     1      -9.398  19.209  66.768  1.00  0.00    -0.364 A  
ENDBRANCH   3   4
ENDBRANCH   2   3
BRANCH   2  10
HETATM   10  C   UNL     1      -9.267  12.868  66.458  1.00  0.00    -0.182 C  
BRANCH  10  11
HETATM   11  C   UNL     1      -9.446  11.746  67.397  1.00  0.00    -0.174 C  
HETATM   12  C   UNL     1      -9.602  10.799  68.120  1.00  0.00    -0.167 C  
ENDBRANCH  10  11
ENDBRANCH   2  10
TORSDOF 4
ENDMDL
MODEL      180
REMARK 921   NORMALIZED FREE ENERGY PREDICTED BY IDOCK:   -2.10 KCAL/MOL
REMARK 922        TOTAL FREE ENERGY PREDICTED BY IDOCK:   -3.05 KCAL/MOL
REMARK 923 INTER-LIGAND FREE ENERGY PREDICTED BY IDOCK:   -2.86 KCAL/MOL
REMARK 924 INTRA-LIGAND FREE ENERGY PREDICTED BY IDOCK:   -0.19 KCAL/MOL
REMARK 927      BINDING AFFINITY PREDICTED BY RF-SCORE:    0.00 PKD
ROOT
HETATM    1  C   UNL     1      -7.102   7.323  68.872  1.00  0.00    -0.084 C  
HETATM    2  N   UNL     1      -8.526   7.283  68.516  1.00  0.00    -0.125 NA 
ENDROOT
BRANCH   2   3
HETATM    3  C   UNL     1      -9.243   6.276  69.331  1.00  0.00    -0.138 C  
BRANCH   3   4
HETATM    4  C   UNL     1     -10.288   6.839  70.274  1.00  0.00    -0.224 A  
HETATM    5  C   UNL     1      -9.900   7.628  71.368  1.00  0.00    -0.195 A  
HETATM    6  C   UNL     1     -11.652   6.567  70.089  1.00  0.00    -0.466 A  
HETATM    7  C   UNL     1     -10.854   8.157  72.239  1.00  0.00    -0.388 A  
HETATM    8  C   UNL     1     -12.605   7.100  70.961  1.00  0.00    -0.335 A  
HETATM    9  C   UNL     1     -12.207   7.898  72.031  1.00  0.00    -0.357 A  
ENDBRANCH   3   4
ENDBRANCH   2   3
BRANCH   2  10
HETATM   10  C   UNL     1      -8.700   6.930  67.092  1.00  0.00    -0.120 C  
BRANCH  10  11
HETATM   11  C   UNL     1      -9.902   6.121  66.820  1.00  0.00    -0.203 C  
HETATM   12  C   UNL     1     -10.852   5.433  66.562  1.00  0.00    -0.222 C  
ENDBRANCH  10  11
ENDBRANCH   2  10
TORSDOF 4
ENDMDL
MODEL      181
REMARK 921   NORMALIZED FREE ENERGY PREDICTED BY IDOCK:   -2.09 KCAL/MOL
REMARK 922        TOTAL FREE ENERGY PREDICTED BY IDOCK:   -3.03 KCAL/MOL
REMARK 923 INTER-LIGAND FREE ENERGY PREDICTED BY IDOCK:   -2.79 KCAL/MOL
REMARK 924 INTRA-LIGAND FREE ENERGY PREDICTED BY IDOCK:   -0.24 KCAL/MOL
REMARK 927      BINDING AFFINITY PREDICTED BY RF-SCORE:    0.00 PKD
ROOT
HETATM    1  C   UNL     1     -10.428   8.185  68.426  1.00  0.00    -0.161 C  
HETATM    2  N   UNL     1     -10.910   8.939  69.590  1.00  0.00    -0.215 NA 
ENDROOT
BRANCH   2   3
HETATM    3  C   UNL     1     -10.125  10.180  69.773  1.00  0.00    -0.231 C  
BRANCH   3   4
HETATM    4  C   UNL     1     -10.343  11.241  68.712  1.00  0.00    -0.223 A  
HETATM    5  C   UNL     1      -9.266  11.690  67.931  1.00  0.00    -0.171 A  
HETATM    6  C   UNL     1     -11.609  11.808  68.504  1.00  0.00    -0.380 A  
HETATM    7  C   UNL     1      -9.455  12.661  66.946  1.00  0.00    -0.229 A  
HETATM    8  C   UNL     1     -11.796  12.778  67.516  1.00  0.00    -0.402 A  
HETATM    9  C   UNL     1     -10.722  13.200  66.735  1.00  0.00    -0.274 A  
ENDBRANCH   3   4
ENDBRANCH   2   3
BRANCH   2  10
HETATM   10  C   UNL     1     -10.790   8.133  70.822  1.00  0.00    -0.228 C  
BRANCH  10  11
HETATM   11  C   UNL     1      -9.450   7.553  71.027  1.00  0.00    -0.162 C  
HETATM   12  C   UNL     1      -8.379   7.032  71.180  1.00  0.00    -0.118 C  
ENDBRANCH  10  11
ENDBRANCH   2  10
TORSDOF 4
ENDMDL
MODEL      182
REMARK 921   NORMALIZED FREE ENERGY PREDICTED BY IDOCK:   -2.08 KCAL/MOL
REMARK 922        TOTAL FREE ENERGY PREDICTED BY IDOCK:   -3.02 KCAL/MOL
REMARK 923 INTER-LIGAND FREE ENERGY PREDICTED BY IDOCK:   -2.61 KCAL/MOL
REMARK 924 INTRA-LIGAND FREE ENERGY PREDICTED BY IDOCK:   -0.41 KCAL/MOL
REMARK 927      BINDING AFFINITY PREDICTED BY RF-SCORE:    0.00 PKD
ROOT
HETATM    1  C   UNL     1      -9.672   4.925  73.657  1.00  0.00    -0.137 C  
HETATM    2  N   UNL     1      -9.423   5.630  72.393  1.00  0.00    -0.144 NA 
ENDROOT
BRANCH   2   3
HETATM    3  C   UNL     1      -9.172   4.668  71.297  1.00  0.00    -0.139 C  
BRANCH   3   4
HETATM    4  C   UNL     1      -9.693   5.091  69.937  1.00  0.00    -0.266 A  
HETATM    5  C   UNL     1     -10.801   5.948  69.842  1.00  0.00    -0.439 A  
HETATM    6  C   UNL     1      -9.098   4.624  68.756  1.00  0.00    -0.158 A  
HETATM    7  C   UNL     1     -11.285   6.351  68.596  1.00  0.00    -0.338 A  
HETATM    8  C   UNL     1      -9.584   5.030  67.510  1.00  0.00    -0.169 A  
HETATM    9  C   UNL     1     -10.672   5.896  67.431  1.00  0.00    -0.370 A  
ENDBRANCH   3   4
ENDBRANCH   2   3
BRANCH   2  10
HETATM   10  C   UNL     1      -8.246   6.514  72.510  1.00  0.00    -0.104 C  
BRANCH  10  11
HETATM   11  C   UNL     1      -8.348   7.752  71.716  1.00  0.00    -0.130 C  
HETATM   12  C   UNL     1      -8.378   8.771  71.081  1.00  0.00    -0.219 C  
ENDBRANCH  10  11
ENDBRANCH   2  10
TORSDOF 4
ENDMDL
MODEL      183
REMARK 921   NORMALIZED FREE ENERGY PREDICTED BY IDOCK:   -2.07 KCAL/MOL
REMARK 922        TOTAL FREE ENERGY PREDICTED BY IDOCK:   -3.01 KCAL/MOL
REMARK 923 INTER-LIGAND FREE ENERGY PREDICTED BY IDOCK:   -3.13 KCAL/MOL
REMARK 924 INTRA-LIGAND FREE ENERGY PREDICTED BY IDOCK:    0.12 KCAL/MOL
REMARK 927      BINDING AFFINITY PREDICTED BY RF-SCORE:    0.00 PKD
ROOT
HETATM    1  C   UNL     1      -9.913   8.266  71.617  1.00  0.00    -0.212 C  
HETATM    2  N   UNL     1     -10.959   8.451  70.604  1.00  0.00    -0.240 NA 
ENDROOT
BRANCH   2   3
HETATM    3  C   UNL     1     -11.558   9.801  70.708  1.00  0.00    -0.339 C  
BRANCH   3   4
HETATM    4  C   UNL     1     -11.111  10.787  69.647  1.00  0.00    -0.339 A  
HETATM    5  C   UNL     1      -9.792  10.757  69.167  1.00  0.00    -0.194 A  
HETATM    6  C   UNL     1     -11.990  11.756  69.142  1.00  0.00    -0.356 A  
HETATM    7  C   UNL     1      -9.370  11.655  68.184  1.00  0.00    -0.188 A  
HETATM    8  C   UNL     1     -11.566  12.652  68.157  1.00  0.00    -0.386 A  
HETATM    9  C   UNL     1     -10.260  12.598  67.676  1.00  0.00    -0.217 A  
ENDBRANCH   3   4
ENDBRANCH   2   3
BRANCH   2  10
HETATM   10  C   UNL     1     -12.036   7.455  70.775  1.00  0.00    -0.200 C  
BRANCH  10  11
HETATM   11  C   UNL     1     -11.865   6.589  71.956  1.00  0.00    -0.374 C  
HETATM   12  C   UNL     1     -11.776   5.861  72.907  1.00  0.00    -0.090 C  
ENDBRANCH  10  11
ENDBRANCH   2  10
TORSDOF 4
ENDMDL
MODEL      184
REMARK 921   NORMALIZED FREE ENERGY PREDICTED BY IDOCK:   -2.06 KCAL/MOL
REMARK 922        TOTAL FREE ENERGY PREDICTED BY IDOCK:   -2.99 KCAL/MOL
REMARK 923 INTER-LIGAND FREE ENERGY PREDICTED BY IDOCK:   -2.79 KCAL/MOL
REMARK 924 INTRA-LIGAND FREE ENERGY PREDICTED BY IDOCK:   -0.20 KCAL/MOL
REMARK 927      BINDING AFFINITY PREDICTED BY RF-SCORE:    0.00 PKD
ROOT
HETATM    1  C   UNL     1     -11.394   9.089  71.897  1.00  0.00    -0.368 C  
HETATM    2  N   UNL     1     -10.976   8.031  70.969  1.00  0.00    -0.236 NA 
ENDROOT
BRANCH   2   3
HETATM    3  C   UNL     1      -9.820   7.283  71.513  1.00  0.00    -0.174 C  
BRANCH   3   4
HETATM    4  C   UNL     1     -10.122   5.863  71.953  1.00  0.00    -0.222 A  
HETATM    5  C   UNL     1     -11.069   5.624  72.962  1.00  0.00    -0.327 A  
HETATM    6  C   UNL     1      -9.454   4.770  71.382  1.00  0.00    -0.213 A  
HETATM    7  C   UNL     1     -11.360   4.321  73.370  1.00  0.00    -0.324 A  
HETATM    8  C   UNL     1      -9.749   3.467  71.791  1.00  0.00    -0.235 A  
HETATM    9  C   UNL     1     -10.705   3.243  72.780  1.00  0.00    -0.113 A  
ENDBRANCH   3   4
ENDBRANCH   2   3
BRANCH   2  10
HETATM   10  C   UNL     1     -10.581   8.603  69.666  1.00  0.00    -0.218 C  
BRANCH  10  11
HETATM   11  C   UNL     1      -9.272   9.281  69.684  1.00  0.00    -0.182 C  
HETATM   12  C   UNL     1      -8.232   9.882  69.699  1.00  0.00    -0.178 C  
ENDBRANCH  10  11
ENDBRANCH   2  10
TORSDOF 4
ENDMDL
MODEL      185
REMARK 921   NORMALIZED FREE ENERGY PREDICTED BY IDOCK:   -2.06 KCAL/MOL
REMARK 922        TOTAL FREE ENERGY PREDICTED BY IDOCK:   -2.99 KCAL/MOL
REMARK 923 INTER-LIGAND FREE ENERGY PREDICTED BY IDOCK:   -2.80 KCAL/MOL
REMARK 924 INTRA-LIGAND FREE ENERGY PREDICTED BY IDOCK:   -0.19 KCAL/MOL
REMARK 927      BINDING AFFINITY PREDICTED BY RF-SCORE:    0.00 PKD
ROOT
HETATM    1  C   UNL     1      -7.131   3.792  68.223  1.00  0.00    -0.051 C  
HETATM    2  N   UNL     1      -8.102   4.860  68.493  1.00  0.00    -0.085 NA 
ENDROOT
BRANCH   2   3
HETATM    3  C   UNL     1      -9.432   4.292  68.810  1.00  0.00    -0.164 C  
BRANCH   3   4
HETATM    4  C   UNL     1     -10.147   4.943  69.978  1.00  0.00    -0.337 A  
HETATM    5  C   UNL     1     -11.052   5.993  69.754  1.00  0.00    -0.476 A  
HETATM    6  C   UNL     1      -9.906   4.530  71.296  1.00  0.00    -0.260 A  
HETATM    7  C   UNL     1     -11.722   6.596  70.820  1.00  0.00    -0.445 A  
HETATM    8  C   UNL     1     -10.580   5.134  72.361  1.00  0.00    -0.278 A  
HETATM    9  C   UNL     1     -11.491   6.161  72.123  1.00  0.00    -0.361 A  
ENDBRANCH   3   4
ENDBRANCH   2   3
BRANCH   2  10
HETATM   10  C   UNL     1      -8.248   5.743  67.318  1.00  0.00    -0.102 C  
BRANCH  10  11
HETATM   11  C   UNL     1      -8.339   5.021  66.036  1.00  0.00    -0.114 C  
HETATM   12  C   UNL     1      -8.423   4.385  65.020  1.00  0.00    -0.124 C  
ENDBRANCH  10  11
ENDBRANCH   2  10
TORSDOF 4
ENDMDL
MODEL      186
REMARK 921   NORMALIZED FREE ENERGY PREDICTED BY IDOCK:   -2.05 KCAL/MOL
REMARK 922        TOTAL FREE ENERGY PREDICTED BY IDOCK:   -2.99 KCAL/MOL
REMARK 923 INTER-LIGAND FREE ENERGY PREDICTED BY IDOCK:   -3.18 KCAL/MOL
REMARK 924 INTRA-LIGAND FREE ENERGY PREDICTED BY IDOCK:    0.20 KCAL/MOL
REMARK 927      BINDING AFFINITY PREDICTED BY RF-SCORE:    0.00 PKD
ROOT
HETATM    1  C   UNL     1     -10.303   5.203  70.023  1.00  0.00    -0.276 C  
HETATM    2  N   UNL     1     -11.215   6.211  69.467  1.00  0.00    -0.417 NA 
ENDROOT
BRANCH   2   3
HETATM    3  C   UNL     1     -11.126   6.239  67.989  1.00  0.00    -0.265 C  
BRANCH   3   4
HETATM    4  C   UNL     1     -10.065   7.163  67.426  1.00  0.00    -0.260 A  
HETATM    5  C   UNL     1     -10.415   8.443  66.967  1.00  0.00    -0.375 A  
HETATM    6  C   UNL     1      -8.726   6.757  67.332  1.00  0.00    -0.119 A  
HETATM    7  C   UNL     1      -9.445   9.306  66.453  1.00  0.00    -0.277 A  
HETATM    8  C   UNL     1      -7.757   7.623  66.820  1.00  0.00    -0.102 A  
HETATM    9  C   UNL     1      -8.115   8.898  66.386  1.00  0.00    -0.110 A  
ENDBRANCH   3   4
ENDBRANCH   2   3
BRANCH   2  10
HETATM   10  C   UNL     1     -10.880   7.556  69.974  1.00  0.00    -0.249 C  
BRANCH  10  11
HETATM   11  C   UNL     1     -11.182   7.747  71.404  1.00  0.00    -0.276 C  
HETATM   12  C   UNL     1     -11.453   7.852  72.570  1.00  0.00    -0.455 C  
ENDBRANCH  10  11
ENDBRANCH   2  10
TORSDOF 4
ENDMDL
MODEL      187
REMARK 921   NORMALIZED FREE ENERGY PREDICTED BY IDOCK:   -2.03 KCAL/MOL
REMARK 922        TOTAL FREE ENERGY PREDICTED BY IDOCK:   -2.96 KCAL/MOL
REMARK 923 INTER-LIGAND FREE ENERGY PREDICTED BY IDOCK:   -2.62 KCAL/MOL
REMARK 924 INTRA-LIGAND FREE ENERGY PREDICTED BY IDOCK:   -0.33 KCAL/MOL
REMARK 927      BINDING AFFINITY PREDICTED BY RF-SCORE:    0.00 PKD
ROOT
HETATM    1  C   UNL     1      -6.995   7.636  73.953  1.00  0.00    -0.095 C  
HETATM    2  N   UNL     1      -7.961   7.113  72.978  1.00  0.00    -0.100 NA 
ENDROOT
BRANCH   2   3
HETATM    3  C   UNL     1      -9.281   6.895  73.612  1.00  0.00    -0.162 C  
BRANCH   3   4
HETATM    4  C   UNL     1     -10.473   7.321  72.778  1.00  0.00    -0.302 A  
HETATM    5  C   UNL     1     -11.476   6.394  72.455  1.00  0.00    -0.320 A  
HETATM    6  C   UNL     1     -10.588   8.634  72.297  1.00  0.00    -0.375 A  
HETATM    7  C   UNL     1     -12.582   6.777  71.694  1.00  0.00    -0.380 A  
HETATM    8  C   UNL     1     -11.698   9.015  71.538  1.00  0.00    -0.415 A  
HETATM    9  C   UNL     1     -12.695   8.089  71.241  1.00  0.00    -0.234 A  
ENDBRANCH   3   4
ENDBRANCH   2   3
BRANCH   2  10
HETATM   10  C   UNL     1      -7.498   5.824  72.423  1.00  0.00    -0.096 C  
BRANCH  10  11
HETATM   11  C   UNL     1      -7.402   4.745  73.423  1.00  0.00    -0.082 C  
HETATM   12  C   UNL     1      -7.283   3.843  74.207  1.00  0.00    -0.061 C  
ENDBRANCH  10  11
ENDBRANCH   2  10
TORSDOF 4
ENDMDL
MODEL      188
REMARK 921   NORMALIZED FREE ENERGY PREDICTED BY IDOCK:   -2.03 KCAL/MOL
REMARK 922        TOTAL FREE ENERGY PREDICTED BY IDOCK:   -2.96 KCAL/MOL
REMARK 923 INTER-LIGAND FREE ENERGY PREDICTED BY IDOCK:   -3.07 KCAL/MOL
REMARK 924 INTRA-LIGAND FREE ENERGY PREDICTED BY IDOCK:    0.11 KCAL/MOL
REMARK 927      BINDING AFFINITY PREDICTED BY RF-SCORE:    0.00 PKD
ROOT
HETATM    1  C   UNL     1      -8.122   9.264  68.995  1.00  0.00    -0.106 C  
HETATM    2  N   UNL     1      -9.074   9.968  69.863  1.00  0.00    -0.198 NA 
ENDROOT
BRANCH   2   3
HETATM    3  C   UNL     1      -9.528   9.091  70.965  1.00  0.00    -0.274 C  
BRANCH   3   4
HETATM    4  C   UNL     1      -9.641   7.621  70.612  1.00  0.00    -0.163 A  
HETATM    5  C   UNL     1      -8.629   6.724  70.989  1.00  0.00    -0.136 A  
HETATM    6  C   UNL     1     -10.739   7.132  69.888  1.00  0.00    -0.258 A  
HETATM    7  C   UNL     1      -8.725   5.367  70.675  1.00  0.00    -0.135 A  
HETATM    8  C   UNL     1     -10.834   5.773  69.578  1.00  0.00    -0.410 A  
HETATM    9  C   UNL     1      -9.831   4.891  69.975  1.00  0.00    -0.304 A  
ENDBRANCH   3   4
ENDBRANCH   2   3
BRANCH   2  10
HETATM   10  C   UNL     1     -10.262  10.397  69.097  1.00  0.00    -0.222 C  
BRANCH  10  11
HETATM   11  C   UNL     1     -11.338  10.961  69.931  1.00  0.00    -0.381 C  
HETATM   12  C   UNL     1     -12.251  11.383  70.588  1.00  0.00    -0.484 C  
ENDBRANCH  10  11
ENDBRANCH   2  10
TORSDOF 4
ENDMDL
MODEL      189
REMARK 921   NORMALIZED FREE ENERGY PREDICTED BY IDOCK:   -2.02 KCAL/MOL
REMARK 922        TOTAL FREE ENERGY PREDICTED BY IDOCK:   -2.94 KCAL/MOL
REMARK 923 INTER-LIGAND FREE ENERGY PREDICTED BY IDOCK:   -3.02 KCAL/MOL
REMARK 924 INTRA-LIGAND FREE ENERGY PREDICTED BY IDOCK:    0.08 KCAL/MOL
REMARK 927      BINDING AFFINITY PREDICTED BY RF-SCORE:    0.00 PKD
ROOT
HETATM    1  C   UNL     1      -8.796  13.673  67.962  1.00  0.00    -0.187 C  
HETATM    2  N   UNL     1     -10.145  13.243  67.570  1.00  0.00    -0.221 NA 
ENDROOT
BRANCH   2   3
HETATM    3  C   UNL     1     -10.135  11.835  67.113  1.00  0.00    -0.203 C  
BRANCH   3   4
HETATM    4  C   UNL     1     -10.312  10.802  68.209  1.00  0.00    -0.195 A  
HETATM    5  C   UNL     1      -9.750   9.523  68.070  1.00  0.00    -0.168 A  
HETATM    6  C   UNL     1     -11.053  11.092  69.364  1.00  0.00    -0.320 A  
HETATM    7  C   UNL     1      -9.901   8.566  69.075  1.00  0.00    -0.184 A  
HETATM    8  C   UNL     1     -11.201  10.133  70.370  1.00  0.00    -0.402 A  
HETATM    9  C   UNL     1     -10.621   8.874  70.228  1.00  0.00    -0.246 A  
ENDBRANCH   3   4
ENDBRANCH   2   3
BRANCH   2  10
HETATM   10  C   UNL     1     -10.661  14.081  66.469  1.00  0.00    -0.281 C  
BRANCH  10  11
HETATM   11  C   UNL     1      -9.782  15.210  66.116  1.00  0.00    -0.338 C  
HETATM   12  C   UNL     1      -9.079  16.155  65.877  1.00  0.00    -0.268 C  
ENDBRANCH  10  11
ENDBRANCH   2  10
TORSDOF 4
ENDMDL
MODEL      190
REMARK 921   NORMALIZED FREE ENERGY PREDICTED BY IDOCK:   -2.02 KCAL/MOL
REMARK 922        TOTAL FREE ENERGY PREDICTED BY IDOCK:   -2.94 KCAL/MOL
REMARK 923 INTER-LIGAND FREE ENERGY PREDICTED BY IDOCK:   -2.71 KCAL/MOL
REMARK 924 INTRA-LIGAND FREE ENERGY PREDICTED BY IDOCK:   -0.23 KCAL/MOL
REMARK 927      BINDING AFFINITY PREDICTED BY RF-SCORE:    0.00 PKD
ROOT
HETATM    1  C   UNL     1      -7.621  10.330  67.801  1.00  0.00    -0.089 C  
HETATM    2  N   UNL     1      -9.026  10.756  67.766  1.00  0.00    -0.136 NA 
ENDROOT
BRANCH   2   3
HETATM    3  C   UNL     1      -9.922   9.593  67.571  1.00  0.00    -0.183 C  
BRANCH   3   4
HETATM    4  C   UNL     1     -10.542   9.039  68.838  1.00  0.00    -0.203 A  
HETATM    5  C   UNL     1     -10.467   7.666  69.119  1.00  0.00    -0.220 A  
HETATM    6  C   UNL     1     -11.218   9.875  69.739  1.00  0.00    -0.279 A  
HETATM    7  C   UNL     1     -11.029   7.145  70.286  1.00  0.00    -0.288 A  
HETATM    8  C   UNL     1     -11.777   9.352  70.908  1.00  0.00    -0.378 A  
HETATM    9  C   UNL     1     -11.678   7.990  71.183  1.00  0.00    -0.307 A  
ENDBRANCH   3   4
ENDBRANCH   2   3
BRANCH   2  10
HETATM   10  C   UNL     1      -9.257  11.706  66.660  1.00  0.00    -0.191 C  
BRANCH  10  11
HETATM   11  C   UNL     1      -9.077  13.119  67.040  1.00  0.00    -0.231 C  
HETATM   12  C   UNL     1      -8.985  14.274  67.358  1.00  0.00    -0.205 C  
ENDBRANCH  10  11
ENDBRANCH   2  10
TORSDOF 4
ENDMDL
MODEL      191
REMARK 921   NORMALIZED FREE ENERGY PREDICTED BY IDOCK:   -1.99 KCAL/MOL
REMARK 922        TOTAL FREE ENERGY PREDICTED BY IDOCK:   -2.91 KCAL/MOL
REMARK 923 INTER-LIGAND FREE ENERGY PREDICTED BY IDOCK:   -2.76 KCAL/MOL
REMARK 924 INTRA-LIGAND FREE ENERGY PREDICTED BY IDOCK:   -0.15 KCAL/MOL
REMARK 927      BINDING AFFINITY PREDICTED BY RF-SCORE:    0.00 PKD
ROOT
HETATM    1  C   UNL     1      -8.134   8.328  66.033  1.00  0.00    -0.110 C  
HETATM    2  N   UNL     1      -7.722   9.354  65.066  1.00  0.00    -0.107 NA 
ENDROOT
BRANCH   2   3
HETATM    3  C   UNL     1      -8.796   9.608  64.080  1.00  0.00    -0.226 C  
BRANCH   3   4
HETATM    4  C   UNL     1      -9.639  10.839  64.349  1.00  0.00    -0.330 A  
HETATM    5  C   UNL     1     -10.358  11.443  63.306  1.00  0.00    -0.422 A  
HETATM    6  C   UNL     1      -9.700  11.409  65.630  1.00  0.00    -0.263 A  
HETATM    7  C   UNL     1     -11.143  12.573  63.543  1.00  0.00    -0.497 A  
HETATM    8  C   UNL     1     -10.488  12.539  65.864  1.00  0.00    -0.289 A  
HETATM    9  C   UNL     1     -11.213  13.116  64.824  1.00  0.00    -0.347 A  
ENDBRANCH   3   4
ENDBRANCH   2   3
BRANCH   2  10
HETATM   10  C   UNL     1      -6.514   8.926  64.332  1.00  0.00    -0.071 C  
BRANCH  10  11
HETATM   11  C   UNL     1      -6.687   7.670  63.580  1.00  0.00    -0.058 C  
HETATM   12  C   UNL     1      -6.884   6.654  62.970  1.00  0.00    -0.043 C  
ENDBRANCH  10  11
ENDBRANCH   2  10
TORSDOF 4
ENDMDL
MODEL      192
REMARK 921   NORMALIZED FREE ENERGY PREDICTED BY IDOCK:   -1.97 KCAL/MOL
REMARK 922        TOTAL FREE ENERGY PREDICTED BY IDOCK:   -2.88 KCAL/MOL
REMARK 923 INTER-LIGAND FREE ENERGY PREDICTED BY IDOCK:   -2.91 KCAL/MOL
REMARK 924 INTRA-LIGAND FREE ENERGY PREDICTED BY IDOCK:    0.03 KCAL/MOL
REMARK 927      BINDING AFFINITY PREDICTED BY RF-SCORE:    0.00 PKD
ROOT
HETATM    1  C   UNL     1      -7.538   9.744  64.804  1.00  0.00    -0.129 C  
HETATM    2  N   UNL     1      -8.885  10.168  65.206  1.00  0.00    -0.167 NA 
ENDROOT
BRANCH   2   3
HETATM    3  C   UNL     1      -8.816  11.287  66.173  1.00  0.00    -0.190 C  
BRANCH   3   4
HETATM    4  C   UNL     1      -9.864  12.367  65.983  1.00  0.00    -0.268 A  
HETATM    5  C   UNL     1     -10.610  12.827  67.079  1.00  0.00    -0.253 A  
HETATM    6  C   UNL     1     -10.123  12.909  64.715  1.00  0.00    -0.242 A  
HETATM    7  C   UNL     1     -11.572  13.825  66.918  1.00  0.00    -0.394 A  
HETATM    8  C   UNL     1     -11.085  13.910  64.557  1.00  0.00    -0.374 A  
HETATM    9  C   UNL     1     -11.805  14.371  65.657  1.00  0.00    -0.355 A  
ENDBRANCH   3   4
ENDBRANCH   2   3
BRANCH   2  10
HETATM   10  C   UNL     1      -9.615   9.054  65.844  1.00  0.00    -0.247 C  
BRANCH  10  11
HETATM   11  C   UNL     1      -8.773   7.880  66.138  1.00  0.00    -0.181 C  
HETATM   12  C   UNL     1      -8.089   6.910  66.324  1.00  0.00    -0.112 C  
ENDBRANCH  10  11
ENDBRANCH   2  10
TORSDOF 4
ENDMDL
MODEL      193
REMARK 921   NORMALIZED FREE ENERGY PREDICTED BY IDOCK:   -1.96 KCAL/MOL
REMARK 922        TOTAL FREE ENERGY PREDICTED BY IDOCK:   -2.87 KCAL/MOL
REMARK 923 INTER-LIGAND FREE ENERGY PREDICTED BY IDOCK:   -2.97 KCAL/MOL
REMARK 924 INTRA-LIGAND FREE ENERGY PREDICTED BY IDOCK:    0.09 KCAL/MOL
REMARK 927      BINDING AFFINITY PREDICTED BY RF-SCORE:    0.00 PKD
ROOT
HETATM    1  C   UNL     1     -10.557  16.116  65.908  1.00  0.00    -0.312 C  
HETATM    2  N   UNL     1      -9.871  15.663  67.125  1.00  0.00    -0.227 NA 
ENDROOT
BRANCH   2   3
HETATM    3  C   UNL     1      -8.527  15.133  66.803  1.00  0.00    -0.237 C  
BRANCH   3   4
HETATM    4  C   UNL     1      -7.372  16.042  67.172  1.00  0.00    -0.257 A  
HETATM    5  C   UNL     1      -6.310  15.554  67.950  1.00  0.00    -0.169 A  
HETATM    6  C   UNL     1      -7.348  17.385  66.766  1.00  0.00    -0.250 A  
HETATM    7  C   UNL     1      -5.237  16.380  68.290  1.00  0.00    -0.107 A  
HETATM    8  C   UNL     1      -6.272  18.209  67.106  1.00  0.00    -0.182 A  
HETATM    9  C   UNL     1      -5.215  17.705  67.862  1.00  0.00    -0.132 A  
ENDBRANCH   3   4
ENDBRANCH   2   3
BRANCH   2  10
HETATM   10  C   UNL     1     -10.640  14.594  67.792  1.00  0.00    -0.251 C  
BRANCH  10  11
HETATM   11  C   UNL     1     -11.580  13.890  66.901  1.00  0.00    -0.400 C  
HETATM   12  C   UNL     1     -12.343  13.360  66.138  1.00  0.00    -0.440 C  
ENDBRANCH  10  11
ENDBRANCH   2  10
TORSDOF 4
ENDMDL
MODEL      194
REMARK 921   NORMALIZED FREE ENERGY PREDICTED BY IDOCK:   -1.90 KCAL/MOL
REMARK 922        TOTAL FREE ENERGY PREDICTED BY IDOCK:   -2.80 KCAL/MOL
REMARK 923 INTER-LIGAND FREE ENERGY PREDICTED BY IDOCK:   -2.85 KCAL/MOL
REMARK 924 INTRA-LIGAND FREE ENERGY PREDICTED BY IDOCK:    0.05 KCAL/MOL
REMARK 927      BINDING AFFINITY PREDICTED BY RF-SCORE:    0.00 PKD
ROOT
HETATM    1  C   UNL     1     -11.492   5.162  72.898  1.00  0.00    -0.254 C  
HETATM    2  N   UNL     1     -10.107   5.062  73.377  1.00  0.00    -0.157 NA 
ENDROOT
BRANCH   2   3
HETATM    3  C   UNL     1      -9.265   6.118  72.770  1.00  0.00    -0.138 C  
BRANCH   3   4
HETATM    4  C   UNL     1     -10.015   7.139  71.937  1.00  0.00    -0.180 A  
HETATM    5  C   UNL     1     -10.690   8.200  72.561  1.00  0.00    -0.419 A  
HETATM    6  C   UNL     1     -10.069   7.035  70.539  1.00  0.00    -0.202 A  
HETATM    7  C   UNL     1     -11.379   9.150  71.805  1.00  0.00    -0.451 A  
HETATM    8  C   UNL     1     -10.756   7.989  69.784  1.00  0.00    -0.231 A  
HETATM    9  C   UNL     1     -11.405   9.048  70.416  1.00  0.00    -0.242 A  
ENDBRANCH   3   4
ENDBRANCH   2   3
BRANCH   2  10
HETATM   10  C   UNL     1      -9.526   3.751  73.026  1.00  0.00    -0.111 C  
BRANCH  10  11
HETATM   11  C   UNL     1      -9.425   3.513  71.574  1.00  0.00    -0.222 C  
HETATM   12  C   UNL     1      -9.391   3.344  70.385  1.00  0.00    -0.240 C  
ENDBRANCH  10  11
ENDBRANCH   2  10
TORSDOF 4
ENDMDL
MODEL      195
REMARK 921   NORMALIZED FREE ENERGY PREDICTED BY IDOCK:   -1.85 KCAL/MOL
REMARK 922        TOTAL FREE ENERGY PREDICTED BY IDOCK:   -2.73 KCAL/MOL
REMARK 923 INTER-LIGAND FREE ENERGY PREDICTED BY IDOCK:   -2.54 KCAL/MOL
REMARK 924 INTRA-LIGAND FREE ENERGY PREDICTED BY IDOCK:   -0.20 KCAL/MOL
REMARK 927      BINDING AFFINITY PREDICTED BY RF-SCORE:    0.00 PKD
ROOT
HETATM    1  C   UNL     1      -7.977   2.342  72.103  1.00  0.00    -0.053 C  
HETATM    2  N   UNL     1      -9.315   2.923  72.267  1.00  0.00    -0.100 NA 
ENDROOT
BRANCH   2   3
HETATM    3  C   UNL     1      -9.256   4.401  72.206  1.00  0.00    -0.122 C  
BRANCH   3   4
HETATM    4  C   UNL     1      -9.725   5.010  70.899  1.00  0.00    -0.256 A  
HETATM    5  C   UNL     1      -8.938   4.888  69.742  1.00  0.00    -0.138 A  
HETATM    6  C   UNL     1     -10.932   5.720  70.822  1.00  0.00    -0.312 A  
HETATM    7  C   UNL     1      -9.363   5.439  68.531  1.00  0.00    -0.144 A  
HETATM    8  C   UNL     1     -11.355   6.267  69.608  1.00  0.00    -0.492 A  
HETATM    9  C   UNL     1     -10.574   6.122  68.463  1.00  0.00    -0.327 A  
ENDBRANCH   3   4
ENDBRANCH   2   3
BRANCH   2  10
HETATM   10  C   UNL     1      -9.896   2.539  73.569  1.00  0.00    -0.097 C  
BRANCH  10  11
HETATM   11  C   UNL     1     -11.255   1.976  73.473  1.00  0.00    -0.305 C  
HETATM   12  C   UNL     1     -12.342   1.467  73.409  1.00  0.00    -0.190 C  
ENDBRANCH  10  11
ENDBRANCH   2  10
TORSDOF 4
ENDMDL
MODEL      196
REMARK 921   NORMALIZED FREE ENERGY PREDICTED BY IDOCK:   -1.85 KCAL/MOL
REMARK 922        TOTAL FREE ENERGY PREDICTED BY IDOCK:   -2.73 KCAL/MOL
REMARK 923 INTER-LIGAND FREE ENERGY PREDICTED BY IDOCK:   -2.48 KCAL/MOL
REMARK 924 INTRA-LIGAND FREE ENERGY PREDICTED BY IDOCK:   -0.25 KCAL/MOL
REMARK 927      BINDING AFFINITY PREDICTED BY RF-SCORE:    0.00 PKD
ROOT
HETATM    1  C   UNL     1      -9.690   5.091  66.369  1.00  0.00    -0.182 C  
HETATM    2  N   UNL     1      -9.550   6.239  67.273  1.00  0.00    -0.120 NA 
ENDROOT
BRANCH   2   3
HETATM    3  C   UNL     1      -9.792   5.834  68.676  1.00  0.00    -0.138 C  
BRANCH   3   4
HETATM    4  C   UNL     1      -9.423   6.872  69.718  1.00  0.00    -0.145 A  
HETATM    5  C   UNL     1     -10.424   7.638  70.337  1.00  0.00    -0.221 A  
HETATM    6  C   UNL     1      -8.084   7.103  70.068  1.00  0.00    -0.127 A  
HETATM    7  C   UNL     1     -10.097   8.592  71.302  1.00  0.00    -0.286 A  
HETATM    8  C   UNL     1      -7.760   8.057  71.037  1.00  0.00    -0.085 A  
HETATM    9  C   UNL     1      -8.765   8.796  71.657  1.00  0.00    -0.255 A  
ENDBRANCH   3   4
ENDBRANCH   2   3
BRANCH   2  10
HETATM   10  C   UNL     1     -10.518   7.299  66.927  1.00  0.00    -0.299 C  
BRANCH  10  11
HETATM   11  C   UNL     1      -9.901   8.499  66.332  1.00  0.00    -0.327 C  
HETATM   12  C   UNL     1      -9.349   9.459  65.865  1.00  0.00    -0.290 C  
ENDBRANCH  10  11
ENDBRANCH   2  10
TORSDOF 4
ENDMDL
MODEL      197
REMARK 921   NORMALIZED FREE ENERGY PREDICTED BY IDOCK:   -1.84 KCAL/MOL
REMARK 922        TOTAL FREE ENERGY PREDICTED BY IDOCK:   -2.72 KCAL/MOL
REMARK 923 INTER-LIGAND FREE ENERGY PREDICTED BY IDOCK:   -2.52 KCAL/MOL
REMARK 924 INTRA-LIGAND FREE ENERGY PREDICTED BY IDOCK:   -0.20 KCAL/MOL
REMARK 927      BINDING AFFINITY PREDICTED BY RF-SCORE:    0.00 PKD
ROOT
HETATM    1  C   UNL     1      -7.069  10.139  67.663  1.00  0.00    -0.086 C  
HETATM    2  N   UNL     1      -8.314  10.073  68.439  1.00  0.00    -0.109 NA 
ENDROOT
BRANCH   2   3
HETATM    3  C   UNL     1      -9.022   8.797  68.187  1.00  0.00    -0.141 C  
BRANCH   3   4
HETATM    4  C   UNL     1      -9.690   8.182  69.401  1.00  0.00    -0.170 A  
HETATM    5  C   UNL     1      -9.645   8.839  70.641  1.00  0.00    -0.240 A  
HETATM    6  C   UNL     1     -10.342   6.943  69.319  1.00  0.00    -0.212 A  
HETATM    7  C   UNL     1     -10.262   8.286  71.764  1.00  0.00    -0.297 A  
HETATM    8  C   UNL     1     -10.962   6.392  70.444  1.00  0.00    -0.367 A  
HETATM    9  C   UNL     1     -10.926   7.065  71.663  1.00  0.00    -0.258 A  
ENDBRANCH   3   4
ENDBRANCH   2   3
BRANCH   2  10
HETATM   10  C   UNL     1      -9.218  11.181  68.074  1.00  0.00    -0.159 C  
BRANCH  10  11
HETATM   11  C   UNL     1      -9.505  11.266  66.630  1.00  0.00    -0.204 C  
HETATM   12  C   UNL     1      -9.700  11.296  65.445  1.00  0.00    -0.271 C  
ENDBRANCH  10  11
ENDBRANCH   2  10
TORSDOF 4
ENDMDL
MODEL      198
REMARK 921   NORMALIZED FREE ENERGY PREDICTED BY IDOCK:   -1.82 KCAL/MOL
REMARK 922        TOTAL FREE ENERGY PREDICTED BY IDOCK:   -2.70 KCAL/MOL
REMARK 923 INTER-LIGAND FREE ENERGY PREDICTED BY IDOCK:   -2.30 KCAL/MOL
REMARK 924 INTRA-LIGAND FREE ENERGY PREDICTED BY IDOCK:   -0.40 KCAL/MOL
REMARK 927      BINDING AFFINITY PREDICTED BY RF-SCORE:    0.00 PKD
ROOT
HETATM    1  C   UNL     1     -11.569   7.531  72.431  1.00  0.00    -0.309 C  
HETATM    2  N   UNL     1     -11.006   6.685  71.371  1.00  0.00    -0.242 NA 
ENDROOT
BRANCH   2   3
HETATM    3  C   UNL     1      -9.670   6.177  71.758  1.00  0.00    -0.153 C  
BRANCH   3   4
HETATM    4  C   UNL     1      -9.100   5.107  70.848  1.00  0.00    -0.175 A  
HETATM    5  C   UNL     1      -9.760   3.876  70.708  1.00  0.00    -0.255 A  
HETATM    6  C   UNL     1      -7.901   5.314  70.150  1.00  0.00    -0.080 A  
HETATM    7  C   UNL     1      -9.248   2.885  69.868  1.00  0.00    -0.216 A  
HETATM    8  C   UNL     1      -7.393   4.321  69.307  1.00  0.00    -0.054 A  
HETATM    9  C   UNL     1      -8.068   3.111  69.163  1.00  0.00    -0.069 A  
ENDBRANCH   3   4
ENDBRANCH   2   3
BRANCH   2  10
HETATM   10  C   UNL     1     -10.862   7.448  70.115  1.00  0.00    -0.256 C  
BRANCH  10  11
HETATM   11  C   UNL     1      -9.912   8.572  70.205  1.00  0.00    -0.187 C  
HETATM   12  C   UNL     1      -9.182   9.523  70.283  1.00  0.00    -0.303 C  
ENDBRANCH  10  11
ENDBRANCH   2  10
TORSDOF 4
ENDMDL
MODEL      199
REMARK 921   NORMALIZED FREE ENERGY PREDICTED BY IDOCK:   -1.77 KCAL/MOL
REMARK 922        TOTAL FREE ENERGY PREDICTED BY IDOCK:   -2.63 KCAL/MOL
REMARK 923 INTER-LIGAND FREE ENERGY PREDICTED BY IDOCK:   -2.91 KCAL/MOL
REMARK 924 INTRA-LIGAND FREE ENERGY PREDICTED BY IDOCK:    0.28 KCAL/MOL
REMARK 927      BINDING AFFINITY PREDICTED BY RF-SCORE:    0.00 PKD
ROOT
HETATM    1  C   UNL     1     -10.252   8.386  70.128  1.00  0.00    -0.195 C  
HETATM    2  N   UNL     1     -10.481   7.588  68.916  1.00  0.00    -0.211 NA 
ENDROOT
BRANCH   2   3
HETATM    3  C   UNL     1     -11.231   6.352  69.236  1.00  0.00    -0.375 C  
BRANCH   3   4
HETATM    4  C   UNL     1     -10.887   5.718  70.570  1.00  0.00    -0.348 A  
HETATM    5  C   UNL     1      -9.930   4.693  70.639  1.00  0.00    -0.293 A  
HETATM    6  C   UNL     1     -11.527   6.123  71.751  1.00  0.00    -0.342 A  
HETATM    7  C   UNL     1      -9.600   4.107  71.862  1.00  0.00    -0.216 A  
HETATM    8  C   UNL     1     -11.193   5.536  72.974  1.00  0.00    -0.346 A  
HETATM    9  C   UNL     1     -10.228   4.534  73.030  1.00  0.00    -0.220 A  
ENDBRANCH   3   4
ENDBRANCH   2   3
BRANCH   2  10
HETATM   10  C   UNL     1      -9.198   7.200  68.296  1.00  0.00    -0.132 C  
BRANCH  10  11
HETATM   11  C   UNL     1      -8.468   8.325  67.684  1.00  0.00    -0.130 C  
HETATM   12  C   UNL     1      -7.833   9.236  67.224  1.00  0.00    -0.099 C  
ENDBRANCH  10  11
ENDBRANCH   2  10
TORSDOF 4
ENDMDL
MODEL      200
REMARK 921   NORMALIZED FREE ENERGY PREDICTED BY IDOCK:   -1.76 KCAL/MOL
REMARK 922        TOTAL FREE ENERGY PREDICTED BY IDOCK:   -2.62 KCAL/MOL
REMARK 923 INTER-LIGAND FREE ENERGY PREDICTED BY IDOCK:   -2.17 KCAL/MOL
REMARK 924 INTRA-LIGAND FREE ENERGY PREDICTED BY IDOCK:   -0.45 KCAL/MOL
REMARK 927      BINDING AFFINITY PREDICTED BY RF-SCORE:    0.00 PKD
ROOT
HETATM    1  C   UNL     1      -9.356   6.819  74.136  1.00  0.00    -0.223 C  
HETATM    2  N   UNL     1      -9.718   5.523  73.548  1.00  0.00    -0.146 NA 
ENDROOT
BRANCH   2   3
HETATM    3  C   UNL     1     -10.339   5.706  72.216  1.00  0.00    -0.206 C  
BRANCH   3   4
HETATM    4  C   UNL     1      -9.502   5.228  71.046  1.00  0.00    -0.211 A  
HETATM    5  C   UNL     1      -8.669   6.126  70.360  1.00  0.00    -0.142 A  
HETATM    6  C   UNL     1      -9.558   3.895  70.612  1.00  0.00    -0.259 A  
HETATM    7  C   UNL     1      -7.889   5.696  69.285  1.00  0.00    -0.089 A  
HETATM    8  C   UNL     1      -8.774   3.467  69.537  1.00  0.00    -0.129 A  
HETATM    9  C   UNL     1      -7.937   4.365  68.878  1.00  0.00    -0.073 A  
ENDBRANCH   3   4
ENDBRANCH   2   3
BRANCH   2  10
HETATM   10  C   UNL     1     -10.681   4.808  74.410  1.00  0.00    -0.132 C  
BRANCH  10  11
HETATM   11  C   UNL     1     -10.864   3.390  74.051  1.00  0.00    -0.270 C  
HETATM   12  C   UNL     1     -10.961   2.225  73.775  1.00  0.00    -0.286 C  
ENDBRANCH  10  11
ENDBRANCH   2  10
TORSDOF 4
ENDMDL
MODEL      201
REMARK 921   NORMALIZED FREE ENERGY PREDICTED BY IDOCK:   -1.76 KCAL/MOL
REMARK 922        TOTAL FREE ENERGY PREDICTED BY IDOCK:   -2.62 KCAL/MOL
REMARK 923 INTER-LIGAND FREE ENERGY PREDICTED BY IDOCK:   -2.40 KCAL/MOL
REMARK 924 INTRA-LIGAND FREE ENERGY PREDICTED BY IDOCK:   -0.22 KCAL/MOL
REMARK 927      BINDING AFFINITY PREDICTED BY RF-SCORE:    0.00 PKD
ROOT
HETATM    1  C   UNL     1      -9.426   9.864  69.664  1.00  0.00    -0.231 C  
HETATM    2  N   UNL     1      -8.577   8.745  69.235  1.00  0.00    -0.129 NA 
ENDROOT
BRANCH   2   3
HETATM    3  C   UNL     1      -9.122   8.111  68.013  1.00  0.00    -0.133 C  
BRANCH   3   4
HETATM    4  C   UNL     1      -8.948   8.914  66.739  1.00  0.00    -0.155 A  
HETATM    5  C   UNL     1     -10.056   9.529  66.135  1.00  0.00    -0.326 A  
HETATM    6  C   UNL     1      -7.691   9.042  66.129  1.00  0.00    -0.099 A  
HETATM    7  C   UNL     1      -9.907  10.277  64.966  1.00  0.00    -0.397 A  
HETATM    8  C   UNL     1      -7.544   9.793  64.960  1.00  0.00    -0.127 A  
HETATM    9  C   UNL     1      -8.650  10.414  64.383  1.00  0.00    -0.185 A  
ENDBRANCH   3   4
ENDBRANCH   2   3
BRANCH   2  10
HETATM   10  C   UNL     1      -8.495   7.715  70.290  1.00  0.00    -0.134 C  
BRANCH  10  11
HETATM   11  C   UNL     1      -9.794   7.109  70.633  1.00  0.00    -0.184 C  
HETATM   12  C   UNL     1     -10.858   6.600  70.860  1.00  0.00    -0.297 C  
ENDBRANCH  10  11
ENDBRANCH   2  10
TORSDOF 4
ENDMDL
MODEL      202
REMARK 921   NORMALIZED FREE ENERGY PREDICTED BY IDOCK:   -1.73 KCAL/MOL
REMARK 922        TOTAL FREE ENERGY PREDICTED BY IDOCK:   -2.59 KCAL/MOL
REMARK 923 INTER-LIGAND FREE ENERGY PREDICTED BY IDOCK:   -2.94 KCAL/MOL
REMARK 924 INTRA-LIGAND FREE ENERGY PREDICTED BY IDOCK:    0.35 KCAL/MOL
REMARK 927      BINDING AFFINITY PREDICTED BY RF-SCORE:    0.00 PKD
ROOT
HETATM    1  C   UNL     1     -10.929   7.766  69.845  1.00  0.00    -0.190 C  
HETATM    2  N   UNL     1     -11.067   6.408  69.304  1.00  0.00    -0.354 NA 
ENDROOT
BRANCH   2   3
HETATM    3  C   UNL     1     -10.695   5.398  70.321  1.00  0.00    -0.216 C  
BRANCH   3   4
HETATM    4  C   UNL     1     -10.147   5.963  71.617  1.00  0.00    -0.233 A  
HETATM    5  C   UNL     1     -10.996   6.154  72.719  1.00  0.00    -0.294 A  
HETATM    6  C   UNL     1      -8.797   6.324  71.736  1.00  0.00    -0.137 A  
HETATM    7  C   UNL     1     -10.502   6.666  73.919  1.00  0.00    -0.351 A  
HETATM    8  C   UNL     1      -8.304   6.835  72.940  1.00  0.00    -0.123 A  
HETATM    9  C   UNL     1      -9.154   7.000  74.031  1.00  0.00    -0.243 A  
ENDBRANCH   3   4
ENDBRANCH   2   3
BRANCH   2  10
HETATM   10  C   UNL     1     -10.193   6.221  68.129  1.00  0.00    -0.169 C  
BRANCH  10  11
HETATM   11  C   UNL     1     -10.090   7.413  67.267  1.00  0.00    -0.296 C  
HETATM   12  C   UNL     1      -9.975   8.354  66.529  1.00  0.00    -0.335 C  
ENDBRANCH  10  11
ENDBRANCH   2  10
TORSDOF 4
ENDMDL
MODEL      203
REMARK 921   NORMALIZED FREE ENERGY PREDICTED BY IDOCK:   -1.71 KCAL/MOL
REMARK 922        TOTAL FREE ENERGY PREDICTED BY IDOCK:   -2.56 KCAL/MOL
REMARK 923 INTER-LIGAND FREE ENERGY PREDICTED BY IDOCK:   -2.32 KCAL/MOL
REMARK 924 INTRA-LIGAND FREE ENERGY PREDICTED BY IDOCK:   -0.25 KCAL/MOL
REMARK 927      BINDING AFFINITY PREDICTED BY RF-SCORE:    0.00 PKD
ROOT
HETATM    1  C   UNL     1      -9.890   6.002  73.006  1.00  0.00    -0.168 C  
HETATM    2  N   UNL     1      -9.047   5.726  71.836  1.00  0.00    -0.139 NA 
ENDROOT
BRANCH   2   3
HETATM    3  C   UNL     1      -9.855   5.175  70.725  1.00  0.00    -0.202 C  
BRANCH   3   4
HETATM    4  C   UNL     1      -9.967   6.070  69.506  1.00  0.00    -0.225 A  
HETATM    5  C   UNL     1     -10.873   5.755  68.481  1.00  0.00    -0.257 A  
HETATM    6  C   UNL     1      -9.160   7.209  69.367  1.00  0.00    -0.145 A  
HETATM    7  C   UNL     1     -10.990   6.575  67.357  1.00  0.00    -0.458 A  
HETATM    8  C   UNL     1      -9.281   8.029  68.241  1.00  0.00    -0.134 A  
HETATM    9  C   UNL     1     -10.198   7.715  67.241  1.00  0.00    -0.342 A  
ENDBRANCH   3   4
ENDBRANCH   2   3
BRANCH   2  10
HETATM   10  C   UNL     1      -7.994   4.746  72.169  1.00  0.00    -0.106 C  
BRANCH  10  11
HETATM   11  C   UNL     1      -6.846   5.326  72.891  1.00  0.00    -0.081 C  
HETATM   12  C   UNL     1      -5.947   5.824  73.512  1.00  0.00    -0.059 C  
ENDBRANCH  10  11
ENDBRANCH   2  10
TORSDOF 4
ENDMDL
MODEL      204
REMARK 921   NORMALIZED FREE ENERGY PREDICTED BY IDOCK:   -1.70 KCAL/MOL
REMARK 922        TOTAL FREE ENERGY PREDICTED BY IDOCK:   -2.55 KCAL/MOL
REMARK 923 INTER-LIGAND FREE ENERGY PREDICTED BY IDOCK:   -2.49 KCAL/MOL
REMARK 924 INTRA-LIGAND FREE ENERGY PREDICTED BY IDOCK:   -0.06 KCAL/MOL
REMARK 927      BINDING AFFINITY PREDICTED BY RF-SCORE:    0.00 PKD
ROOT
HETATM    1  C   UNL     1     -10.548   7.559  70.564  1.00  0.00    -0.225 C  
HETATM    2  N   UNL     1     -10.058   6.375  69.847  1.00  0.00    -0.167 NA 
ENDROOT
BRANCH   2   3
HETATM    3  C   UNL     1      -9.024   5.672  70.640  1.00  0.00    -0.146 C  
BRANCH   3   4
HETATM    4  C   UNL     1      -9.397   4.272  71.086  1.00  0.00    -0.218 A  
HETATM    5  C   UNL     1      -9.979   4.065  72.347  1.00  0.00    -0.229 A  
HETATM    6  C   UNL     1      -9.151   3.161  70.266  1.00  0.00    -0.194 A  
HETATM    7  C   UNL     1     -10.333   2.781  72.767  1.00  0.00    -0.236 A  
HETATM    8  C   UNL     1      -9.509   1.877  70.688  1.00  0.00    -0.179 A  
HETATM    9  C   UNL     1     -10.104   1.689  71.934  1.00  0.00    -0.221 A  
ENDBRANCH   3   4
ENDBRANCH   2   3
BRANCH   2  10
HETATM   10  C   UNL     1      -9.463   6.757  68.551  1.00  0.00    -0.131 C  
BRANCH  10  11
HETATM   11  C   UNL     1     -10.076   7.952  67.943  1.00  0.00    -0.240 C  
HETATM   12  C   UNL     1     -10.602   8.893  67.412  1.00  0.00    -0.305 C  
ENDBRANCH  10  11
ENDBRANCH   2  10
TORSDOF 4
ENDMDL
MODEL      205
REMARK 921   NORMALIZED FREE ENERGY PREDICTED BY IDOCK:   -1.70 KCAL/MOL
REMARK 922        TOTAL FREE ENERGY PREDICTED BY IDOCK:   -2.55 KCAL/MOL
REMARK 923 INTER-LIGAND FREE ENERGY PREDICTED BY IDOCK:   -2.45 KCAL/MOL
REMARK 924 INTRA-LIGAND FREE ENERGY PREDICTED BY IDOCK:   -0.09 KCAL/MOL
REMARK 927      BINDING AFFINITY PREDICTED BY RF-SCORE:    0.00 PKD
ROOT
HETATM    1  C   UNL     1      -7.692  14.140  67.048  1.00  0.00     0.159 C  
HETATM    2  N   UNL     1      -7.879  14.994  68.228  1.00  0.00    -0.115 NA 
ENDROOT
BRANCH   2   3
HETATM    3  C   UNL     1      -7.202  16.297  68.046  1.00  0.00    -0.132 C  
BRANCH   3   4
HETATM    4  C   UNL     1      -8.128  17.488  67.894  1.00  0.00    -0.230 A  
HETATM    5  C   UNL     1      -9.320  17.553  68.634  1.00  0.00    -0.277 A  
HETATM    6  C   UNL     1      -7.829  18.530  67.004  1.00  0.00    -0.236 A  
HETATM    7  C   UNL     1     -10.177  18.648  68.508  1.00  0.00    -0.398 A  
HETATM    8  C   UNL     1      -8.688  19.625  66.882  1.00  0.00    -0.374 A  
HETATM    9  C   UNL     1      -9.857  19.686  67.637  1.00  0.00    -0.494 A  
ENDBRANCH   3   4
ENDBRANCH   2   3
BRANCH   2  10
HETATM   10  C   UNL     1      -7.321  14.349  69.434  1.00  0.00    -0.060 C  
BRANCH  10  11
HETATM   11  C   UNL     1      -6.243  15.122  70.078  1.00  0.00    -0.152 C  
HETATM   12  C   UNL     1      -5.337  15.705  70.609  1.00  0.00    -0.148 C  
ENDBRANCH  10  11
ENDBRANCH   2  10
TORSDOF 4
ENDMDL
MODEL      206
REMARK 921   NORMALIZED FREE ENERGY PREDICTED BY IDOCK:   -1.69 KCAL/MOL
REMARK 922        TOTAL FREE ENERGY PREDICTED BY IDOCK:   -2.54 KCAL/MOL
REMARK 923 INTER-LIGAND FREE ENERGY PREDICTED BY IDOCK:   -2.15 KCAL/MOL
REMARK 924 INTRA-LIGAND FREE ENERGY PREDICTED BY IDOCK:   -0.39 KCAL/MOL
REMARK 927      BINDING AFFINITY PREDICTED BY RF-SCORE:    0.00 PKD
ROOT
HETATM    1  C   UNL     1      -9.840   7.394  67.639  1.00  0.00    -0.154 C  
HETATM    2  N   UNL     1      -8.870   8.485  67.797  1.00  0.00    -0.136 NA 
ENDROOT
BRANCH   2   3
HETATM    3  C   UNL     1      -8.812   9.318  66.574  1.00  0.00    -0.133 C  
BRANCH   3   4
HETATM    4  C   UNL     1      -9.378  10.716  66.721  1.00  0.00    -0.179 A  
HETATM    5  C   UNL     1     -10.763  10.930  66.629  1.00  0.00    -0.289 A  
HETATM    6  C   UNL     1      -8.538  11.820  66.928  1.00  0.00    -0.177 A  
HETATM    7  C   UNL     1     -11.297  12.212  66.769  1.00  0.00    -0.398 A  
HETATM    8  C   UNL     1      -9.076  13.102  67.071  1.00  0.00    -0.231 A  
HETATM    9  C   UNL     1     -10.453  13.297  66.997  1.00  0.00    -0.249 A  
ENDBRANCH   3   4
ENDBRANCH   2   3
BRANCH   2  10
HETATM   10  C   UNL     1      -7.518   7.950  68.054  1.00  0.00    -0.108 C  
BRANCH  10  11
HETATM   11  C   UNL     1      -6.453   8.968  67.999  1.00  0.00    -0.060 C  
HETATM   12  C   UNL     1      -5.547   9.756  67.954  1.00  0.00    -0.040 C  
ENDBRANCH  10  11
ENDBRANCH   2  10
TORSDOF 4
ENDMDL
MODEL      207
REMARK 921   NORMALIZED FREE ENERGY PREDICTED BY IDOCK:   -1.68 KCAL/MOL
REMARK 922        TOTAL FREE ENERGY PREDICTED BY IDOCK:   -2.52 KCAL/MOL
REMARK 923 INTER-LIGAND FREE ENERGY PREDICTED BY IDOCK:   -2.71 KCAL/MOL
REMARK 924 INTRA-LIGAND FREE ENERGY PREDICTED BY IDOCK:    0.18 KCAL/MOL
REMARK 927      BINDING AFFINITY PREDICTED BY RF-SCORE:    0.00 PKD
ROOT
HETATM    1  C   UNL     1     -10.074   5.265  66.083  1.00  0.00    -0.172 C  
HETATM    2  N   UNL     1     -10.803   5.920  67.177  1.00  0.00    -0.308 NA 
ENDROOT
BRANCH   2   3
HETATM    3  C   UNL     1     -10.680   7.392  67.082  1.00  0.00    -0.330 C  
BRANCH   3   4
HETATM    4  C   UNL     1      -9.288   7.901  66.761  1.00  0.00    -0.232 A  
HETATM    5  C   UNL     1      -8.245   7.734  67.684  1.00  0.00    -0.125 A  
HETATM    6  C   UNL     1      -9.021   8.564  65.554  1.00  0.00    -0.182 A  
HETATM    7  C   UNL     1      -6.958   8.192  67.397  1.00  0.00    -0.075 A  
HETATM    8  C   UNL     1      -7.731   9.020  65.267  1.00  0.00    -0.100 A  
HETATM    9  C   UNL     1      -6.701   8.830  66.185  1.00  0.00    -0.073 A  
ENDBRANCH   3   4
ENDBRANCH   2   3
BRANCH   2  10
HETATM   10  C   UNL     1     -10.270   5.497  68.488  1.00  0.00    -0.184 C  
BRANCH  10  11
HETATM   11  C   UNL     1     -11.012   6.043  69.638  1.00  0.00    -0.470 C  
HETATM   12  C   UNL     1     -11.650   6.515  70.540  1.00  0.00    -0.455 C  
ENDBRANCH  10  11
ENDBRANCH   2  10
TORSDOF 4
ENDMDL
MODEL      208
REMARK 921   NORMALIZED FREE ENERGY PREDICTED BY IDOCK:   -1.67 KCAL/MOL
REMARK 922        TOTAL FREE ENERGY PREDICTED BY IDOCK:   -2.51 KCAL/MOL
REMARK 923 INTER-LIGAND FREE ENERGY PREDICTED BY IDOCK:   -2.52 KCAL/MOL
REMARK 924 INTRA-LIGAND FREE ENERGY PREDICTED BY IDOCK:    0.00 KCAL/MOL
REMARK 927      BINDING AFFINITY PREDICTED BY RF-SCORE:    0.00 PKD
ROOT
HETATM    1  C   UNL     1      -9.111   5.023  67.383  1.00  0.00    -0.115 C  
HETATM    2  N   UNL     1      -9.800   6.180  67.969  1.00  0.00    -0.123 NA 
ENDROOT
BRANCH   2   3
HETATM    3  C   UNL     1     -10.699   5.755  69.066  1.00  0.00    -0.284 C  
BRANCH   3   4
HETATM    4  C   UNL     1      -9.999   5.249  70.312  1.00  0.00    -0.310 A  
HETATM    5  C   UNL     1      -9.594   6.151  71.309  1.00  0.00    -0.189 A  
HETATM    6  C   UNL     1      -9.724   3.885  70.485  1.00  0.00    -0.247 A  
HETATM    7  C   UNL     1      -8.955   5.697  72.464  1.00  0.00    -0.133 A  
HETATM    8  C   UNL     1      -9.086   3.432  71.643  1.00  0.00    -0.171 A  
HETATM    9  C   UNL     1      -8.707   4.336  72.633  1.00  0.00    -0.110 A  
ENDBRANCH   3   4
ENDBRANCH   2   3
BRANCH   2  10
HETATM   10  C   UNL     1     -10.612   6.876  66.952  1.00  0.00    -0.302 C  
BRANCH  10  11
HETATM   11  C   UNL     1      -9.954   8.059  66.369  1.00  0.00    -0.215 C  
HETATM   12  C   UNL     1      -9.440   9.055  65.934  1.00  0.00    -0.317 C  
ENDBRANCH  10  11
ENDBRANCH   2  10
TORSDOF 4
ENDMDL
MODEL      209
REMARK 921   NORMALIZED FREE ENERGY PREDICTED BY IDOCK:   -1.67 KCAL/MOL
REMARK 922        TOTAL FREE ENERGY PREDICTED BY IDOCK:   -2.51 KCAL/MOL
REMARK 923 INTER-LIGAND FREE ENERGY PREDICTED BY IDOCK:   -2.36 KCAL/MOL
REMARK 924 INTRA-LIGAND FREE ENERGY PREDICTED BY IDOCK:   -0.15 KCAL/MOL
REMARK 927      BINDING AFFINITY PREDICTED BY RF-SCORE:    0.00 PKD
ROOT
HETATM    1  C   UNL     1      -9.758   4.732  71.172  1.00  0.00    -0.181 C  
HETATM    2  N   UNL     1      -9.805   5.705  70.073  1.00  0.00    -0.174 NA 
ENDROOT
BRANCH   2   3
HETATM    3  C   UNL     1     -10.045   7.071  70.591  1.00  0.00    -0.191 C  
BRANCH   3   4
HETATM    4  C   UNL     1      -9.068   7.537  71.652  1.00  0.00    -0.149 A  
HETATM    5  C   UNL     1      -7.734   7.810  71.311  1.00  0.00    -0.085 A  
HETATM    6  C   UNL     1      -9.465   7.684  72.989  1.00  0.00    -0.282 A  
HETATM    7  C   UNL     1      -6.826   8.247  72.278  1.00  0.00    -0.096 A  
HETATM    8  C   UNL     1      -8.555   8.124  73.954  1.00  0.00    -0.288 A  
HETATM    9  C   UNL     1      -7.239   8.410  73.598  1.00  0.00    -0.132 A  
ENDBRANCH   3   4
ENDBRANCH   2   3
BRANCH   2  10
HETATM   10  C   UNL     1     -10.890   5.374  69.127  1.00  0.00     0.026 C  
BRANCH  10  11
HETATM   11  C   UNL     1     -10.871   6.179  67.892  1.00  0.00    -0.406 C  
HETATM   12  C   UNL     1     -10.902   6.808  66.869  1.00  0.00    -0.402 C  
ENDBRANCH  10  11
ENDBRANCH   2  10
TORSDOF 4
ENDMDL
MODEL      210
REMARK 921   NORMALIZED FREE ENERGY PREDICTED BY IDOCK:   -1.63 KCAL/MOL
REMARK 922        TOTAL FREE ENERGY PREDICTED BY IDOCK:   -2.47 KCAL/MOL
REMARK 923 INTER-LIGAND FREE ENERGY PREDICTED BY IDOCK:   -2.31 KCAL/MOL
REMARK 924 INTRA-LIGAND FREE ENERGY PREDICTED BY IDOCK:   -0.15 KCAL/MOL
REMARK 927      BINDING AFFINITY PREDICTED BY RF-SCORE:    0.00 PKD
ROOT
HETATM    1  C   UNL     1      -9.606   9.937  70.126  1.00  0.00    -0.185 C  
HETATM    2  N   UNL     1     -10.180   9.896  68.775  1.00  0.00    -0.181 NA 
ENDROOT
BRANCH   2   3
HETATM    3  C   UNL     1      -9.465   8.912  67.931  1.00  0.00    -0.142 C  
BRANCH   3   4
HETATM    4  C   UNL     1      -9.397   7.508  68.498  1.00  0.00    -0.142 A  
HETATM    5  C   UNL     1      -8.159   6.954  68.863  1.00  0.00    -0.120 A  
HETATM    6  C   UNL     1     -10.554   6.730  68.648  1.00  0.00    -0.263 A  
HETATM    7  C   UNL     1      -8.084   5.665  69.393  1.00  0.00    -0.100 A  
HETATM    8  C   UNL     1     -10.476   5.441  69.181  1.00  0.00    -0.277 A  
HETATM    9  C   UNL     1      -9.244   4.911  69.557  1.00  0.00    -0.171 A  
ENDBRANCH   3   4
ENDBRANCH   2   3
BRANCH   2  10
HETATM   10  C   UNL     1     -10.082  11.218  68.124  1.00  0.00    -0.182 C  
BRANCH  10  11
HETATM   11  C   UNL     1     -10.543  11.230  66.724  1.00  0.00    -0.305 C  
HETATM   12  C   UNL     1     -10.865  11.242  65.567  1.00  0.00    -0.244 C  
ENDBRANCH  10  11
ENDBRANCH   2  10
TORSDOF 4
ENDMDL
MODEL      211
REMARK 921   NORMALIZED FREE ENERGY PREDICTED BY IDOCK:   -1.63 KCAL/MOL
REMARK 922        TOTAL FREE ENERGY PREDICTED BY IDOCK:   -2.46 KCAL/MOL
REMARK 923 INTER-LIGAND FREE ENERGY PREDICTED BY IDOCK:   -2.26 KCAL/MOL
REMARK 924 INTRA-LIGAND FREE ENERGY PREDICTED BY IDOCK:   -0.20 KCAL/MOL
REMARK 927      BINDING AFFINITY PREDICTED BY RF-SCORE:    0.00 PKD
ROOT
HETATM    1  C   UNL     1      -6.446  13.982  69.730  1.00  0.00    -0.115 C  
HETATM    2  N   UNL     1      -7.348  14.272  68.608  1.00  0.00    -0.118 NA 
ENDROOT
BRANCH   2   3
HETATM    3  C   UNL     1      -8.270  15.379  68.948  1.00  0.00    -0.192 C  
BRANCH   3   4
HETATM    4  C   UNL     1      -7.982  16.693  68.250  1.00  0.00    -0.192 A  
HETATM    5  C   UNL     1      -7.510  16.701  66.928  1.00  0.00    -0.264 A  
HETATM    6  C   UNL     1      -8.159  17.919  68.909  1.00  0.00    -0.161 A  
HETATM    7  C   UNL     1      -7.248  17.905  66.271  1.00  0.00    -0.324 A  
HETATM    8  C   UNL     1      -7.898  19.122  68.249  1.00  0.00    -0.351 A  
HETATM    9  C   UNL     1      -7.448  19.116  66.931  1.00  0.00    -0.230 A  
ENDBRANCH   3   4
ENDBRANCH   2   3
BRANCH   2  10
HETATM   10  C   UNL     1      -8.159  13.085  68.270  1.00  0.00    -0.151 C  
BRANCH  10  11
HETATM   11  C   UNL     1      -7.366  11.860  68.060  1.00  0.00    -0.100 C  
HETATM   12  C   UNL     1      -6.704  10.882  67.840  1.00  0.00    -0.064 C  
ENDBRANCH  10  11
ENDBRANCH   2  10
TORSDOF 4
ENDMDL
MODEL      212
REMARK 921   NORMALIZED FREE ENERGY PREDICTED BY IDOCK:   -1.54 KCAL/MOL
REMARK 922        TOTAL FREE ENERGY PREDICTED BY IDOCK:   -2.35 KCAL/MOL
REMARK 923 INTER-LIGAND FREE ENERGY PREDICTED BY IDOCK:   -2.61 KCAL/MOL
REMARK 924 INTRA-LIGAND FREE ENERGY PREDICTED BY IDOCK:    0.25 KCAL/MOL
REMARK 927      BINDING AFFINITY PREDICTED BY RF-SCORE:    0.00 PKD
ROOT
HETATM    1  C   UNL     1      -7.988   4.429  71.619  1.00  0.00    -0.091 C  
HETATM    2  N   UNL     1      -7.692   5.679  70.907  1.00  0.00    -0.094 NA 
ENDROOT
BRANCH   2   3
HETATM    3  C   UNL     1      -7.725   6.831  71.835  1.00  0.00    -0.096 C  
BRANCH   3   4
HETATM    4  C   UNL     1      -9.082   7.485  72.002  1.00  0.00    -0.157 A  
HETATM    5  C   UNL     1     -10.029   6.931  72.879  1.00  0.00    -0.204 A  
HETATM    6  C   UNL     1      -9.428   8.633  71.275  1.00  0.00    -0.289 A  
HETATM    7  C   UNL     1     -11.280   7.527  73.047  1.00  0.00    -0.373 A  
HETATM    8  C   UNL     1     -10.680   9.230  71.447  1.00  0.00    -0.432 A  
HETATM    9  C   UNL     1     -11.602   8.681  72.335  1.00  0.00    -0.385 A  
ENDBRANCH   3   4
ENDBRANCH   2   3
BRANCH   2  10
HETATM   10  C   UNL     1      -8.683   5.920  69.839  1.00  0.00    -0.129 C  
BRANCH  10  11
HETATM   11  C   UNL     1      -8.962   4.736  69.006  1.00  0.00    -0.139 C  
HETATM   12  C   UNL     1      -9.212   3.805  68.289  1.00  0.00    -0.215 C  
ENDBRANCH  10  11
ENDBRANCH   2  10
TORSDOF 4
ENDMDL
MODEL      213
REMARK 921   NORMALIZED FREE ENERGY PREDICTED BY IDOCK:   -1.51 KCAL/MOL
REMARK 922        TOTAL FREE ENERGY PREDICTED BY IDOCK:   -2.31 KCAL/MOL
REMARK 923 INTER-LIGAND FREE ENERGY PREDICTED BY IDOCK:   -1.92 KCAL/MOL
REMARK 924 INTRA-LIGAND FREE ENERGY PREDICTED BY IDOCK:   -0.39 KCAL/MOL
REMARK 927      BINDING AFFINITY PREDICTED BY RF-SCORE:    0.00 PKD
ROOT
HETATM    1  C   UNL     1     -10.644   7.548  70.081  1.00  0.00    -0.235 C  
HETATM    2  N   UNL     1      -9.849   6.325  69.914  1.00  0.00    -0.165 NA 
ENDROOT
BRANCH   2   3
HETATM    3  C   UNL     1      -9.089   6.020  71.148  1.00  0.00    -0.146 C  
BRANCH   3   4
HETATM    4  C   UNL     1      -9.599   4.833  71.940  1.00  0.00    -0.206 A  
HETATM    5  C   UNL     1      -9.876   3.618  71.292  1.00  0.00    -0.211 A  
HETATM    6  C   UNL     1      -9.825   4.926  73.322  1.00  0.00    -0.170 A  
HETATM    7  C   UNL     1     -10.339   2.516  72.013  1.00  0.00    -0.023 A  
HETATM    8  C   UNL     1     -10.286   3.820  74.040  1.00  0.00    -0.242 A  
HETATM    9  C   UNL     1     -10.538   2.616  73.388  1.00  0.00    -0.258 A  
ENDBRANCH   3   4
ENDBRANCH   2   3
BRANCH   2  10
HETATM   10  C   UNL     1      -8.885   6.474  68.805  1.00  0.00    -0.125 C  
BRANCH  10  11
HETATM   11  C   UNL     1      -7.886   5.393  68.733  1.00  0.00    -0.087 C  
HETATM   12  C   UNL     1      -7.046   4.539  68.634  1.00  0.00    -0.052 C  
ENDBRANCH  10  11
ENDBRANCH   2  10
TORSDOF 4
ENDMDL
MODEL      214
REMARK 921   NORMALIZED FREE ENERGY PREDICTED BY IDOCK:   -1.47 KCAL/MOL
REMARK 922        TOTAL FREE ENERGY PREDICTED BY IDOCK:   -2.26 KCAL/MOL
REMARK 923 INTER-LIGAND FREE ENERGY PREDICTED BY IDOCK:   -2.06 KCAL/MOL
REMARK 924 INTRA-LIGAND FREE ENERGY PREDICTED BY IDOCK:   -0.21 KCAL/MOL
REMARK 927      BINDING AFFINITY PREDICTED BY RF-SCORE:    0.00 PKD
ROOT
HETATM    1  C   UNL     1      -9.183   8.815  68.439  1.00  0.00    -0.137 C  
HETATM    2  N   UNL     1      -9.092   8.659  66.981  1.00  0.00    -0.134 NA 
ENDROOT
BRANCH   2   3
HETATM    3  C   UNL     1      -8.099   7.621  66.625  1.00  0.00    -0.119 C  
BRANCH   3   4
HETATM    4  C   UNL     1      -8.546   6.193  66.867  1.00  0.00    -0.109 A  
HETATM    5  C   UNL     1      -7.793   5.349  67.699  1.00  0.00    -0.100 A  
HETATM    6  C   UNL     1      -9.699   5.681  66.254  1.00  0.00    -0.162 A  
HETATM    7  C   UNL     1      -8.198   4.035  67.936  1.00  0.00    -0.094 A  
HETATM    8  C   UNL     1     -10.104   4.365  66.494  1.00  0.00    -0.217 A  
HETATM    9  C   UNL     1      -9.357   3.545  67.338  1.00  0.00    -0.246 A  
ENDBRANCH   3   4
ENDBRANCH   2   3
BRANCH   2  10
HETATM   10  C   UNL     1      -8.682   9.927  66.344  1.00  0.00    -0.132 C  
BRANCH  10  11
HETATM   11  C   UNL     1      -9.810  10.801  65.975  1.00  0.00    -0.285 C  
HETATM   12  C   UNL     1     -10.764  11.477  65.697  1.00  0.00    -0.323 C  
ENDBRANCH  10  11
ENDBRANCH   2  10
TORSDOF 4
ENDMDL
MODEL      215
REMARK 921   NORMALIZED FREE ENERGY PREDICTED BY IDOCK:   -1.42 KCAL/MOL
REMARK 922        TOTAL FREE ENERGY PREDICTED BY IDOCK:   -2.20 KCAL/MOL
REMARK 923 INTER-LIGAND FREE ENERGY PREDICTED BY IDOCK:   -1.76 KCAL/MOL
REMARK 924 INTRA-LIGAND FREE ENERGY PREDICTED BY IDOCK:   -0.44 KCAL/MOL
REMARK 927      BINDING AFFINITY PREDICTED BY RF-SCORE:    0.00 PKD
ROOT
HETATM    1  C   UNL     1      -9.630   5.088  65.986  1.00  0.00    -0.168 C  
HETATM    2  N   UNL     1      -9.427   6.522  66.227  1.00  0.00    -0.128 NA 
ENDROOT
BRANCH   2   3
HETATM    3  C   UNL     1      -8.016   6.900  65.987  1.00  0.00    -0.109 C  
BRANCH   3   4
HETATM    4  C   UNL     1      -7.807   7.971  64.935  1.00  0.00    -0.129 A  
HETATM    5  C   UNL     1      -6.526   8.203  64.409  1.00  0.00    -0.065 A  
HETATM    6  C   UNL     1      -8.874   8.761  64.483  1.00  0.00    -0.011 A  
HETATM    7  C   UNL     1      -6.322   9.182  63.434  1.00  0.00    -0.090 A  
HETATM    8  C   UNL     1      -8.668   9.738  63.506  1.00  0.00    -0.234 A  
HETATM    9  C   UNL     1      -7.395   9.944  62.979  1.00  0.00    -0.124 A  
ENDBRANCH   3   4
ENDBRANCH   2   3
BRANCH   2  10
HETATM   10  C   UNL     1      -9.767   6.872  67.621  1.00  0.00    -0.127 C  
BRANCH  10  11
HETATM   11  C   UNL     1     -10.193   8.272  67.798  1.00  0.00    -0.282 C  
HETATM   12  C   UNL     1     -10.520   9.424  67.892  1.00  0.00    -0.296 C  
ENDBRANCH  10  11
ENDBRANCH   2  10
TORSDOF 4
ENDMDL
MODEL      216
REMARK 921   NORMALIZED FREE ENERGY PREDICTED BY IDOCK:   -1.36 KCAL/MOL
REMARK 922        TOTAL FREE ENERGY PREDICTED BY IDOCK:   -2.13 KCAL/MOL
REMARK 923 INTER-LIGAND FREE ENERGY PREDICTED BY IDOCK:   -1.74 KCAL/MOL
REMARK 924 INTRA-LIGAND FREE ENERGY PREDICTED BY IDOCK:   -0.39 KCAL/MOL
REMARK 927      BINDING AFFINITY PREDICTED BY RF-SCORE:    0.00 PKD
ROOT
HETATM    1  C   UNL     1     -11.128   6.470  66.981  1.00  0.00    -0.339 C  
HETATM    2  N   UNL     1      -9.715   6.715  67.298  1.00  0.00    -0.129 NA 
ENDROOT
BRANCH   2   3
HETATM    3  C   UNL     1      -9.116   7.660  66.329  1.00  0.00    -0.162 C  
BRANCH   3   4
HETATM    4  C   UNL     1      -8.920   9.073  66.845  1.00  0.00    -0.144 A  
HETATM    5  C   UNL     1      -8.408  10.068  65.998  1.00  0.00    -0.126 A  
HETATM    6  C   UNL     1      -9.222   9.407  68.173  1.00  0.00    -0.135 A  
HETATM    7  C   UNL     1      -8.230  11.374  66.459  1.00  0.00    -0.152 A  
HETATM    8  C   UNL     1      -9.045  10.715  68.631  1.00  0.00    -0.170 A  
HETATM    9  C   UNL     1      -8.555  11.698  67.774  1.00  0.00    -0.144 A  
ENDBRANCH   3   4
ENDBRANCH   2   3
BRANCH   2  10
HETATM   10  C   UNL     1      -8.943   5.457  67.252  1.00  0.00    -0.111 C  
BRANCH  10  11
HETATM   11  C   UNL     1      -7.537   5.604  67.672  1.00  0.00    -0.089 C  
HETATM   12  C   UNL     1      -6.409   5.755  68.057  1.00  0.00    -0.041 C  
ENDBRANCH  10  11
ENDBRANCH   2  10
TORSDOF 4
ENDMDL
MODEL      217
REMARK 921   NORMALIZED FREE ENERGY PREDICTED BY IDOCK:   -1.36 KCAL/MOL
REMARK 922        TOTAL FREE ENERGY PREDICTED BY IDOCK:   -2.12 KCAL/MOL
REMARK 923 INTER-LIGAND FREE ENERGY PREDICTED BY IDOCK:   -2.42 KCAL/MOL
REMARK 924 INTRA-LIGAND FREE ENERGY PREDICTED BY IDOCK:    0.29 KCAL/MOL
REMARK 927      BINDING AFFINITY PREDICTED BY RF-SCORE:    0.00 PKD
ROOT
HETATM    1  C   UNL     1      -7.642   5.486  70.531  1.00  0.00    -0.084 C  
HETATM    2  N   UNL     1      -8.599   4.906  69.581  1.00  0.00    -0.082 NA 
ENDROOT
BRANCH   2   3
HETATM    3  C   UNL     1      -9.182   5.957  68.716  1.00  0.00    -0.115 C  
BRANCH   3   4
HETATM    4  C   UNL     1      -9.679   7.189  69.448  1.00  0.00    -0.160 A  
HETATM    5  C   UNL     1      -8.880   8.342  69.511  1.00  0.00    -0.149 A  
HETATM    6  C   UNL     1     -10.926   7.197  70.089  1.00  0.00    -0.293 A  
HETATM    7  C   UNL     1      -9.330   9.484  70.176  1.00  0.00    -0.286 A  
HETATM    8  C   UNL     1     -11.374   8.342  70.752  1.00  0.00    -0.290 A  
HETATM    9  C   UNL     1     -10.580   9.486  70.790  1.00  0.00    -0.387 A  
ENDBRANCH   3   4
ENDBRANCH   2   3
BRANCH   2  10
HETATM   10  C   UNL     1      -9.703   4.233  70.295  1.00  0.00    -0.210 C  
BRANCH  10  11
HETATM   11  C   UNL     1      -9.518   2.778  70.442  1.00  0.00    -0.193 C  
HETATM   12  C   UNL     1      -9.393   1.585  70.513  1.00  0.00    -0.168 C  
ENDBRANCH  10  11
ENDBRANCH   2  10
TORSDOF 4
ENDMDL
MODEL      218
REMARK 921   NORMALIZED FREE ENERGY PREDICTED BY IDOCK:   -1.32 KCAL/MOL
REMARK 922        TOTAL FREE ENERGY PREDICTED BY IDOCK:   -2.08 KCAL/MOL
REMARK 923 INTER-LIGAND FREE ENERGY PREDICTED BY IDOCK:   -1.79 KCAL/MOL
REMARK 924 INTRA-LIGAND FREE ENERGY PREDICTED BY IDOCK:   -0.28 KCAL/MOL
REMARK 927      BINDING AFFINITY PREDICTED BY RF-SCORE:    0.00 PKD
ROOT
HETATM    1  C   UNL     1      -6.226   8.806  71.895  1.00  0.00    -0.073 C  
HETATM    2  N   UNL     1      -6.986   7.970  70.957  1.00  0.00    -0.048 NA 
ENDROOT
BRANCH   2   3
HETATM    3  C   UNL     1      -7.233   6.628  71.531  1.00  0.00    -0.082 C  
BRANCH   3   4
HETATM    4  C   UNL     1      -8.652   6.383  72.007  1.00  0.00    -0.126 A  
HETATM    5  C   UNL     1      -9.275   7.299  72.868  1.00  0.00    -0.185 A  
HETATM    6  C   UNL     1      -9.358   5.235  71.618  1.00  0.00    -0.178 A  
HETATM    7  C   UNL     1     -10.584   7.088  73.307  1.00  0.00    -0.378 A  
HETATM    8  C   UNL     1     -10.668   5.027  72.057  1.00  0.00    -0.205 A  
HETATM    9  C   UNL     1     -11.282   5.955  72.896  1.00  0.00    -0.291 A  
ENDBRANCH   3   4
ENDBRANCH   2   3
BRANCH   2  10
HETATM   10  C   UNL     1      -6.246   7.799  69.690  1.00  0.00    -0.030 C  
BRANCH  10  11
HETATM   11  C   UNL     1      -7.089   7.366  68.561  1.00  0.00    -0.084 C  
HETATM   12  C   UNL     1      -7.814   7.050  67.657  1.00  0.00    -0.113 C  
ENDBRANCH  10  11
ENDBRANCH   2  10
TORSDOF 4
ENDMDL
MODEL      219
REMARK 921   NORMALIZED FREE ENERGY PREDICTED BY IDOCK:   -1.29 KCAL/MOL
REMARK 922        TOTAL FREE ENERGY PREDICTED BY IDOCK:   -2.04 KCAL/MOL
REMARK 923 INTER-LIGAND FREE ENERGY PREDICTED BY IDOCK:   -2.20 KCAL/MOL
REMARK 924 INTRA-LIGAND FREE ENERGY PREDICTED BY IDOCK:    0.16 KCAL/MOL
REMARK 927      BINDING AFFINITY PREDICTED BY RF-SCORE:    0.00 PKD
ROOT
HETATM    1  C   UNL     1     -11.641   5.718  72.716  1.00  0.00    -0.214 C  
HETATM    2  N   UNL     1     -10.534   5.015  72.054  1.00  0.00    -0.215 NA 
ENDROOT
BRANCH   2   3
HETATM    3  C   UNL     1      -9.407   4.810  72.991  1.00  0.00    -0.126 C  
BRANCH   3   4
HETATM    4  C   UNL     1      -8.518   6.020  73.202  1.00  0.00    -0.118 A  
HETATM    5  C   UNL     1      -8.922   7.049  74.068  1.00  0.00    -0.228 A  
HETATM    6  C   UNL     1      -7.296   6.148  72.527  1.00  0.00    -0.086 A  
HETATM    7  C   UNL     1      -8.109   8.165  74.276  1.00  0.00    -0.309 A  
HETATM    8  C   UNL     1      -6.483   7.265  72.739  1.00  0.00    -0.059 A  
HETATM    9  C   UNL     1      -6.887   8.269  73.616  1.00  0.00    -0.153 A  
ENDBRANCH   3   4
ENDBRANCH   2   3
BRANCH   2  10
HETATM   10  C   UNL     1     -10.038   5.790  70.899  1.00  0.00    -0.199 C  
BRANCH  10  11
HETATM   11  C   UNL     1      -9.729   4.966  69.716  1.00  0.00    -0.262 C  
HETATM   12  C   UNL     1      -9.499   4.251  68.778  1.00  0.00    -0.230 C  
ENDBRANCH  10  11
ENDBRANCH   2  10
TORSDOF 4
ENDMDL
MODEL      220
REMARK 921   NORMALIZED FREE ENERGY PREDICTED BY IDOCK:   -1.21 KCAL/MOL
REMARK 922        TOTAL FREE ENERGY PREDICTED BY IDOCK:   -1.95 KCAL/MOL
REMARK 923 INTER-LIGAND FREE ENERGY PREDICTED BY IDOCK:   -1.82 KCAL/MOL
REMARK 924 INTRA-LIGAND FREE ENERGY PREDICTED BY IDOCK:   -0.12 KCAL/MOL
REMARK 927      BINDING AFFINITY PREDICTED BY RF-SCORE:    0.00 PKD
ROOT
HETATM    1  C   UNL     1      -9.496   6.819  70.358  1.00  0.00    -0.166 C  
HETATM    2  N   UNL     1      -9.493   6.294  68.987  1.00  0.00    -0.128 NA 
ENDROOT
BRANCH   2   3
HETATM    3  C   UNL     1      -9.781   4.841  68.980  1.00  0.00    -0.178 C  
BRANCH   3   4
HETATM    4  C   UNL     1      -9.480   4.132  67.675  1.00  0.00    -0.225 A  
HETATM    5  C   UNL     1     -10.138   4.516  66.495  1.00  0.00    -0.257 A  
HETATM    6  C   UNL     1      -8.563   3.072  67.620  1.00  0.00    -0.117 A  
HETATM    7  C   UNL     1      -9.865   3.875  65.286  1.00  0.00    -0.178 A  
HETATM    8  C   UNL     1      -8.290   2.434  66.408  1.00  0.00    -0.093 A  
HETATM    9  C   UNL     1      -8.936   2.838  65.242  1.00  0.00    -0.137 A  
ENDBRANCH   3   4
ENDBRANCH   2   3
BRANCH   2  10
HETATM   10  C   UNL     1      -8.178   6.505  68.348  1.00  0.00    -0.114 C  
BRANCH  10  11
HETATM   11  C   UNL     1      -8.223   7.389  67.169  1.00  0.00    -0.118 C  
HETATM   12  C   UNL     1      -8.242   8.151  66.241  1.00  0.00    -0.114 C  
ENDBRANCH  10  11
ENDBRANCH   2  10
TORSDOF 4
ENDMDL
MODEL      221
REMARK 921   NORMALIZED FREE ENERGY PREDICTED BY IDOCK:   -1.13 KCAL/MOL
REMARK 922        TOTAL FREE ENERGY PREDICTED BY IDOCK:   -1.85 KCAL/MOL
REMARK 923 INTER-LIGAND FREE ENERGY PREDICTED BY IDOCK:   -1.94 KCAL/MOL
REMARK 924 INTRA-LIGAND FREE ENERGY PREDICTED BY IDOCK:    0.09 KCAL/MOL
REMARK 927      BINDING AFFINITY PREDICTED BY RF-SCORE:    0.00 PKD
ROOT
HETATM    1  C   UNL     1     -10.421   4.637  65.840  1.00  0.00    -0.268 C  
HETATM    2  N   UNL     1      -9.117   4.782  66.501  1.00  0.00    -0.118 NA 
ENDROOT
BRANCH   2   3
HETATM    3  C   UNL     1      -9.251   5.549  67.761  1.00  0.00    -0.107 C  
BRANCH   3   4
HETATM    4  C   UNL     1      -9.293   7.055  67.595  1.00  0.00    -0.128 A  
HETATM    5  C   UNL     1      -8.150   7.826  67.858  1.00  0.00    -0.126 A  
HETATM    6  C   UNL     1     -10.471   7.708  67.201  1.00  0.00    -0.412 A  
HETATM    7  C   UNL     1      -8.175   9.214  67.703  1.00  0.00    -0.108 A  
HETATM    8  C   UNL     1     -10.492   9.096  67.044  1.00  0.00    -0.311 A  
HETATM    9  C   UNL     1      -9.345   9.847  67.290  1.00  0.00    -0.167 A  
ENDBRANCH   3   4
ENDBRANCH   2   3
BRANCH   2  10
HETATM   10  C   UNL     1      -8.165   5.495  65.627  1.00  0.00    -0.127 C  
BRANCH  10  11
HETATM   11  C   UNL     1      -6.766   5.057  65.786  1.00  0.00    -0.053 C  
HETATM   12  C   UNL     1      -5.639   4.683  65.967  1.00  0.00    -0.017 C  
ENDBRANCH  10  11
ENDBRANCH   2  10
TORSDOF 4
ENDMDL
MODEL      222
REMARK 921   NORMALIZED FREE ENERGY PREDICTED BY IDOCK:   -1.03 KCAL/MOL
REMARK 922        TOTAL FREE ENERGY PREDICTED BY IDOCK:   -1.72 KCAL/MOL
REMARK 923 INTER-LIGAND FREE ENERGY PREDICTED BY IDOCK:   -1.56 KCAL/MOL
REMARK 924 INTRA-LIGAND FREE ENERGY PREDICTED BY IDOCK:   -0.16 KCAL/MOL
REMARK 927      BINDING AFFINITY PREDICTED BY RF-SCORE:    0.00 PKD
ROOT
HETATM    1  C   UNL     1      -9.519   5.427  66.104  1.00  0.00    -0.157 C  
HETATM    2  N   UNL     1      -8.719   6.423  66.828  1.00  0.00    -0.116 NA 
ENDROOT
BRANCH   2   3
HETATM    3  C   UNL     1      -7.301   6.363  66.406  1.00  0.00    -0.081 C  
BRANCH   3   4
HETATM    4  C   UNL     1      -6.827   7.540  65.577  1.00  0.00    -0.052 A  
HETATM    5  C   UNL     1      -7.453   7.843  64.357  1.00  0.00    -0.098 A  
HETATM    6  C   UNL     1      -5.747   8.333  65.995  1.00  0.00    -0.043 A  
HETATM    7  C   UNL     1      -7.030   8.928  63.588  1.00  0.00    -0.088 A  
HETATM    8  C   UNL     1      -5.327   9.420  65.224  1.00  0.00    -0.041 A  
HETATM    9  C   UNL     1      -5.971   9.720  64.026  1.00  0.00    -0.111 A  
ENDBRANCH   3   4
ENDBRANCH   2   3
BRANCH   2  10
HETATM   10  C   UNL     1      -8.777   6.183  68.284  1.00  0.00    -0.114 C  
BRANCH  10  11
HETATM   11  C   UNL     1     -10.132   6.292  68.853  1.00  0.00    -0.200 C  
HETATM   12  C   UNL     1     -11.215   6.405  69.362  1.00  0.00    -0.459 C  
ENDBRANCH  10  11
ENDBRANCH   2  10
TORSDOF 4
ENDMDL
MODEL      223
REMARK 921   NORMALIZED FREE ENERGY PREDICTED BY IDOCK:   -1.02 KCAL/MOL
REMARK 922        TOTAL FREE ENERGY PREDICTED BY IDOCK:   -1.70 KCAL/MOL
REMARK 923 INTER-LIGAND FREE ENERGY PREDICTED BY IDOCK:   -2.35 KCAL/MOL
REMARK 924 INTRA-LIGAND FREE ENERGY PREDICTED BY IDOCK:    0.65 KCAL/MOL
REMARK 927      BINDING AFFINITY PREDICTED BY RF-SCORE:    0.00 PKD
ROOT
HETATM    1  C   UNL     1      -6.334  13.938  69.599  1.00  0.00    -0.123 C  
HETATM    2  N   UNL     1      -6.772  14.424  68.284  1.00  0.00    -0.101 NA 
ENDROOT
BRANCH   2   3
HETATM    3  C   UNL     1      -7.952  15.307  68.418  1.00  0.00    -0.131 C  
BRANCH   3   4
HETATM    4  C   UNL     1      -9.115  14.970  67.506  1.00  0.00    -0.189 A  
HETATM    5  C   UNL     1      -9.807  13.758  67.664  1.00  0.00    -0.234 A  
HETATM    6  C   UNL     1      -9.508  15.842  66.480  1.00  0.00    -0.299 A  
HETATM    7  C   UNL     1     -10.884  13.439  66.834  1.00  0.00    -0.282 A  
HETATM    8  C   UNL     1     -10.588  15.522  65.653  1.00  0.00    -0.389 A  
HETATM    9  C   UNL     1     -11.277  14.325  65.833  1.00  0.00    -0.319 A  
ENDBRANCH   3   4
ENDBRANCH   2   3
BRANCH   2  10
HETATM   10  C   UNL     1      -7.139  13.295  67.406  1.00  0.00    -0.099 C  
BRANCH  10  11
HETATM   11  C   UNL     1      -6.036  12.349  67.158  1.00  0.00    -0.083 C  
HETATM   12  C   UNL     1      -5.140  11.591  66.902  1.00  0.00    -0.105 C  
ENDBRANCH  10  11
ENDBRANCH   2  10
TORSDOF 4
ENDMDL
MODEL      224
REMARK 921   NORMALIZED FREE ENERGY PREDICTED BY IDOCK:   -0.83 KCAL/MOL
REMARK 922        TOTAL FREE ENERGY PREDICTED BY IDOCK:   -1.48 KCAL/MOL
REMARK 923 INTER-LIGAND FREE ENERGY PREDICTED BY IDOCK:   -1.66 KCAL/MOL
REMARK 924 INTRA-LIGAND FREE ENERGY PREDICTED BY IDOCK:    0.18 KCAL/MOL
REMARK 927      BINDING AFFINITY PREDICTED BY RF-SCORE:    0.00 PKD
ROOT
HETATM    1  C   UNL     1      -9.085   7.100  68.574  1.00  0.00    -0.132 C  
HETATM    2  N   UNL     1      -9.071   5.667  68.253  1.00  0.00    -0.110 NA 
ENDROOT
BRANCH   2   3
HETATM    3  C   UNL     1      -9.730   5.415  66.951  1.00  0.00    -0.153 C  
BRANCH   3   4
HETATM    4  C   UNL     1      -8.862   5.661  65.733  1.00  0.00    -0.156 A  
HETATM    5  C   UNL     1      -8.140   6.859  65.611  1.00  0.00    -0.129 A  
HETATM    6  C   UNL     1      -8.778   4.715  64.700  1.00  0.00    -0.151 A  
HETATM    7  C   UNL     1      -7.332   7.093  64.497  1.00  0.00    -0.081 A  
HETATM    8  C   UNL     1      -7.966   4.951  63.588  1.00  0.00    -0.095 A  
HETATM    9  C   UNL     1      -7.241   6.136  63.489  1.00  0.00    -0.053 A  
ENDBRANCH   3   4
ENDBRANCH   2   3
BRANCH   2  10
HETATM   10  C   UNL     1      -9.785   4.892  69.288  1.00  0.00    -0.188 C  
BRANCH  10  11
HETATM   11  C   UNL     1      -9.321   3.499  69.416  1.00  0.00    -0.243 C  
HETATM   12  C   UNL     1      -8.992   2.346  69.503  1.00  0.00    -0.165 C  
ENDBRANCH  10  11
ENDBRANCH   2  10
TORSDOF 4
ENDMDL
MODEL      225
REMARK 921   NORMALIZED FREE ENERGY PREDICTED BY IDOCK:   -0.79 KCAL/MOL
REMARK 922        TOTAL FREE ENERGY PREDICTED BY IDOCK:   -1.43 KCAL/MOL
REMARK 923 INTER-LIGAND FREE ENERGY PREDICTED BY IDOCK:   -1.13 KCAL/MOL
REMARK 924 INTRA-LIGAND FREE ENERGY PREDICTED BY IDOCK:   -0.29 KCAL/MOL
REMARK 927      BINDING AFFINITY PREDICTED BY RF-SCORE:    0.00 PKD
ROOT
HETATM    1  C   UNL     1      -5.831  10.217  66.654  1.00  0.00    -0.061 C  
HETATM    2  N   UNL     1      -6.450   9.916  67.951  1.00  0.00    -0.059 NA 
ENDROOT
BRANCH   2   3
HETATM    3  C   UNL     1      -6.921   8.513  67.994  1.00  0.00    -0.074 C  
BRANCH   3   4
HETATM    4  C   UNL     1      -7.203   7.971  69.382  1.00  0.00    -0.071 A  
HETATM    5  C   UNL     1      -8.527   7.808  69.820  1.00  0.00    -0.133 A  
HETATM    6  C   UNL     1      -6.158   7.645  70.258  1.00  0.00    -0.030 A  
HETATM    7  C   UNL     1      -8.799   7.303  71.093  1.00  0.00    -0.140 A  
HETATM    8  C   UNL     1      -6.433   7.138  71.531  1.00  0.00    -0.041 A  
HETATM    9  C   UNL     1      -7.751   6.963  71.945  1.00  0.00    -0.094 A  
ENDBRANCH   3   4
ENDBRANCH   2   3
BRANCH   2  10
HETATM   10  C   UNL     1      -7.609  10.798  68.195  1.00  0.00    -0.093 C  
BRANCH  10  11
HETATM   11  C   UNL     1      -8.604  10.791  67.108  1.00  0.00    -0.128 C  
HETATM   12  C   UNL     1      -9.379  10.756  66.191  1.00  0.00    -0.209 C  
ENDBRANCH  10  11
ENDBRANCH   2  10
TORSDOF 4
ENDMDL
MODEL      226
REMARK 921   NORMALIZED FREE ENERGY PREDICTED BY IDOCK:    7.07 KCAL/MOL
REMARK 922        TOTAL FREE ENERGY PREDICTED BY IDOCK:    8.27 KCAL/MOL
REMARK 923 INTER-LIGAND FREE ENERGY PREDICTED BY IDOCK:    7.57 KCAL/MOL
REMARK 924 INTRA-LIGAND FREE ENERGY PREDICTED BY IDOCK:    0.70 KCAL/MOL
REMARK 927      BINDING AFFINITY PREDICTED BY RF-SCORE:    0.00 PKD
ROOT
HETATM    1  C   UNL     1      -9.024  14.843  69.832  1.00  0.00     0.364 C  
HETATM    2  N   UNL     1      -7.650  14.386  70.080  1.00  0.00     0.316 NA 
ENDROOT
BRANCH   2   3
HETATM    3  C   UNL     1      -7.408  13.077  69.432  1.00  0.00     0.350 C  
BRANCH   3   4
HETATM    4  C   UNL     1      -8.472  12.027  69.686  1.00  0.00     1.564 A  
HETATM    5  C   UNL     1      -8.115  10.771  70.202  1.00  0.00     0.883 A  
HETATM    6  C   UNL     1      -9.821  12.277  69.395  1.00  0.00     0.794 A  
HETATM    7  C   UNL     1      -9.086   9.799  70.447  1.00  0.00    -0.154 A  
HETATM    8  C   UNL     1     -10.792  11.303  69.643  1.00  0.00    -0.155 A  
HETATM    9  C   UNL     1     -10.425  10.068  70.174  1.00  0.00    -0.338 A  
ENDBRANCH   3   4
ENDBRANCH   2   3
BRANCH   2  10
HETATM   10  C   UNL     1      -7.402  14.236  71.528  1.00  0.00     3.175 C  
BRANCH  10  11
HETATM   11  C   UNL     1      -6.157  14.876  71.989  1.00  0.00     0.656 C  
HETATM   12  C   UNL     1      -5.148  15.372  72.414  1.00  0.00     0.112 C  
ENDBRANCH  10  11
ENDBRANCH   2  10
TORSDOF 4
ENDMDL
