MODEL        1
REMARK 921   NORMALIZED FREE ENERGY PREDICTED BY IDOCK:   -8.49 KCAL/MOL
REMARK 922        TOTAL FREE ENERGY PREDICTED BY IDOCK:   -9.43 KCAL/MOL
REMARK 923 INTER-LIGAND FREE ENERGY PREDICTED BY IDOCK:   -8.99 KCAL/MOL
REMARK 924 INTRA-LIGAND FREE ENERGY PREDICTED BY IDOCK:   -0.44 KCAL/MOL
REMARK 927      BINDING AFFINITY PREDICTED BY RF-SCORE:    0.00 PKD
ROOT
HETATM    1  C   UNL     1      -9.496   8.267  69.558  1.00  0.00    -0.162 C  
HETATM    2  C   UNL     1      -9.638   8.246  67.971  1.00  0.00    -0.171 C  
HETATM    3  C   UNL     1      -9.104   9.689  69.959  1.00  0.00    -0.269 C  
HETATM    4  C   UNL     1     -10.104   6.939  67.315  1.00  0.00    -0.256 C  
HETATM    5  C   UNL     1      -8.314   8.539  67.280  1.00  0.00    -0.115 C  
HETATM    6  C   UNL     1     -10.420  10.421  70.142  1.00  0.00    -0.185 C  
HETATM    7  C   UNL     1     -11.571   9.382  70.247  1.00  0.00    -0.181 C  
HETATM    8  C   UNL     1      -8.142   9.488  66.341  1.00  0.00    -0.111 C  
HETATM    9  C   UNL     1      -6.872   9.619  65.511  1.00  0.00    -0.089 C  
HETATM   10  C   UNL     1     -12.566   9.801  71.346  1.00  0.00    -0.482 C  
HETATM   11  C   UNL     1      -7.138   9.414  63.983  1.00  0.00    -0.102 C  
HETATM   12  C   UNL     1     -12.940  11.064  71.680  1.00  0.00    -0.561 C  
HETATM   13  C   UNL     1      -6.203  10.954  65.850  1.00  0.00    -0.089 C  
HETATM   14  C   UNL     1     -13.103   8.638  72.139  1.00  0.00    -0.423 C  
HETATM   15  C   UNL     1      -7.899   8.107  63.703  1.00  0.00    -0.151 C  
HETATM   16  C   UNL     1      -5.824   9.384  63.189  1.00  0.00    -0.089 C  
HETATM   17  C   UNL     1     -11.449   6.692  69.974  1.00  0.00    -0.434 C  
HETATM   18  C   UNL     1     -11.997   7.733  72.701  1.00  0.00    -0.257 C  
HETATM   19  O   UNL     1      -7.946  10.476  63.456  1.00  0.00    -0.276 OA 
HETATM   20  C   UNL     1     -10.801   8.014  70.435  1.00  0.00    -0.247 C  
HETATM   21  C   UNL     1     -10.622   7.843  71.977  1.00  0.00    -0.296 C  
HETATM   22  H   UNL     1      -8.107  10.351  62.529  1.00  0.00     0.000 HD 
ENDROOT
BRANCH  12  23
HETATM   23  C   UNL     1     -12.590  12.283  70.978  1.00  0.00    -0.352 C  
HETATM   24  C   UNL     1     -12.950  13.551  71.265  1.00  0.00    -0.384 C  
HETATM   25  C   UNL     1     -13.133  15.040  73.301  1.00  0.00    -0.490 C  
HETATM   26  C   UNL     1     -13.842  14.006  72.404  1.00  0.00    -0.653 C  
HETATM   27  O   UNL     1     -12.107  14.419  74.083  1.00  0.00    -0.350 OA 
HETATM   28  C   UNL     1     -12.530  16.198  72.506  1.00  0.00    -0.518 C  
HETATM   29  C   UNL     1     -11.635  15.708  71.368  1.00  0.00    -0.433 C  
HETATM   30  H   UNL     1     -11.670  15.056  74.635  1.00  0.00     0.000 HD 
HETATM   31  C   UNL     1     -12.383  14.715  70.464  1.00  0.00    -0.400 C  
HETATM   32  O   UNL     1     -11.205  16.817  70.598  1.00  0.00    -0.460 OA 
HETATM   33  H   UNL     1     -10.649  16.513  69.890  1.00  0.00     0.000 HD 
ENDBRANCH  12  23
TORSDOF 1
ENDMDL
MODEL        2
REMARK 921   NORMALIZED FREE ENERGY PREDICTED BY IDOCK:   -7.83 KCAL/MOL
REMARK 922        TOTAL FREE ENERGY PREDICTED BY IDOCK:   -8.73 KCAL/MOL
REMARK 923 INTER-LIGAND FREE ENERGY PREDICTED BY IDOCK:   -7.98 KCAL/MOL
REMARK 924 INTRA-LIGAND FREE ENERGY PREDICTED BY IDOCK:   -0.74 KCAL/MOL
REMARK 927      BINDING AFFINITY PREDICTED BY RF-SCORE:    0.00 PKD
ROOT
HETATM    1  C   UNL     1     -12.614  11.834  69.608  1.00  0.00     0.146 C  
HETATM    2  C   UNL     1     -11.789  13.184  69.794  1.00  0.00    -0.386 C  
HETATM    3  C   UNL     1     -11.897  11.008  68.540  1.00  0.00    -0.286 C  
HETATM    4  C   UNL     1     -12.262  14.165  70.876  1.00  0.00    -0.434 C  
HETATM    5  C   UNL     1     -11.788  14.026  68.526  1.00  0.00    -0.399 C  
HETATM    6  C   UNL     1     -10.871  10.190  69.301  1.00  0.00    -0.269 C  
HETATM    7  C   UNL     1     -11.224  10.210  70.815  1.00  0.00    -0.414 C  
HETATM    8  C   UNL     1     -10.679  14.501  67.931  1.00  0.00    -0.245 C  
HETATM    9  C   UNL     1     -10.710  15.516  66.795  1.00  0.00    -0.305 C  
HETATM   10  C   UNL     1     -11.023   8.811  71.426  1.00  0.00    -0.360 C  
HETATM   11  C   UNL     1     -10.001  16.857  67.179  1.00  0.00    -0.276 C  
HETATM   12  C   UNL     1     -10.069   7.899  71.103  1.00  0.00    -0.210 C  
HETATM   13  C   UNL     1     -10.146  14.855  65.534  1.00  0.00    -0.400 C  
HETATM   14  C   UNL     1     -12.070   8.451  72.449  1.00  0.00    -0.443 C  
HETATM   15  C   UNL     1     -10.533  17.430  68.503  1.00  0.00    -0.370 C  
HETATM   16  C   UNL     1     -10.192  17.919  66.086  1.00  0.00    -0.343 C  
HETATM   17  C   UNL     1     -13.186  11.585  72.073  1.00  0.00    -0.443 C  
HETATM   18  C   UNL     1     -13.503   8.636  71.932  1.00  0.00    -0.433 C  
HETATM   19  O   UNL     1      -8.592  16.659  67.359  1.00  0.00    -0.185 OA 
HETATM   20  C   UNL     1     -12.683  10.819  70.833  1.00  0.00    -0.478 C  
HETATM   21  C   UNL     1     -13.647   9.596  70.714  1.00  0.00     0.033 C  
HETATM   22  H   UNL     1      -8.162  17.473  67.592  1.00  0.00     0.000 HD 
ENDROOT
BRANCH  12  23
HETATM   23  C   UNL     1      -8.946   8.105  70.209  1.00  0.00    -0.146 C  
HETATM   24  C   UNL     1      -8.673   7.480  69.045  1.00  0.00    -0.136 C  
HETATM   25  C   UNL     1      -9.911   6.759  66.961  1.00  0.00    -0.167 C  
HETATM   26  C   UNL     1      -9.485   6.379  68.393  1.00  0.00    -0.119 C  
HETATM   27  O   UNL     1     -10.923   7.772  66.982  1.00  0.00    -0.478 OA 
HETATM   28  C   UNL     1      -8.739   7.234  66.103  1.00  0.00    -0.170 C  
HETATM   29  C   UNL     1      -7.941   8.345  66.785  1.00  0.00    -0.098 C  
HETATM   30  H   UNL     1     -11.185   8.007  66.100  1.00  0.00     0.000 HD 
HETATM   31  C   UNL     1      -7.491   7.920  68.192  1.00  0.00    -0.107 C  
HETATM   32  O   UNL     1      -6.804   8.658  65.998  1.00  0.00    -0.064 OA 
HETATM   33  H   UNL     1      -6.308   9.348  66.422  1.00  0.00     0.000 HD 
ENDBRANCH  12  23
TORSDOF 1
ENDMDL
MODEL        3
REMARK 921   NORMALIZED FREE ENERGY PREDICTED BY IDOCK:   -7.59 KCAL/MOL
REMARK 922        TOTAL FREE ENERGY PREDICTED BY IDOCK:   -8.47 KCAL/MOL
REMARK 923 INTER-LIGAND FREE ENERGY PREDICTED BY IDOCK:   -7.81 KCAL/MOL
REMARK 924 INTRA-LIGAND FREE ENERGY PREDICTED BY IDOCK:   -0.66 KCAL/MOL
REMARK 927      BINDING AFFINITY PREDICTED BY RF-SCORE:    0.00 PKD
ROOT
HETATM    1  C   UNL     1      -8.131   9.027  66.442  1.00  0.00    -0.110 C  
HETATM    2  C   UNL     1      -9.295   9.527  65.475  1.00  0.00    -0.317 C  
HETATM    3  C   UNL     1      -8.618   9.225  67.878  1.00  0.00    -0.120 C  
HETATM    4  C   UNL     1      -9.086   9.363  63.964  1.00  0.00    -0.110 C  
HETATM    5  C   UNL     1      -9.566  11.016  65.638  1.00  0.00    -0.265 C  
HETATM    6  C   UNL     1      -9.352   7.943  68.221  1.00  0.00    -0.145 C  
HETATM    7  C   UNL     1      -8.978   6.847  67.185  1.00  0.00    -0.121 C  
HETATM    8  C   UNL     1     -10.780  11.544  65.878  1.00  0.00    -0.325 C  
HETATM    9  C   UNL     1     -11.066  13.039  65.821  1.00  0.00    -0.302 C  
HETATM   10  C   UNL     1      -8.762   5.496  67.894  1.00  0.00    -0.106 C  
HETATM   11  C   UNL     1     -12.110  13.402  64.713  1.00  0.00    -0.406 C  
HETATM   12  C   UNL     1      -9.432   5.017  68.975  1.00  0.00    -0.194 C  
HETATM   13  C   UNL     1     -11.457  13.516  67.222  1.00  0.00    -0.369 C  
HETATM   14  C   UNL     1      -7.629   4.691  67.312  1.00  0.00    -0.086 C  
HETATM   15  C   UNL     1     -11.723  12.818  63.345  1.00  0.00    -0.556 C  
HETATM   16  C   UNL     1     -12.254  14.924  64.563  1.00  0.00    -0.396 C  
HETATM   17  C   UNL     1      -7.444   7.073  64.966  1.00  0.00    -0.093 C  
HETATM   18  C   UNL     1      -6.319   5.485  67.210  1.00  0.00    -0.039 C  
HETATM   19  O   UNL     1     -13.402  12.867  65.033  1.00  0.00    -0.682 OA 
HETATM   20  C   UNL     1      -7.747   7.482  66.423  1.00  0.00    -0.089 C  
HETATM   21  C   UNL     1      -6.483   7.034  67.223  1.00  0.00    -0.053 C  
HETATM   22  H   UNL     1     -14.036  13.088  64.361  1.00  0.00     0.000 HD 
ENDROOT
BRANCH  12  23
HETATM   23  C   UNL     1     -10.592   5.615  69.607  1.00  0.00    -0.401 C  
HETATM   24  C   UNL     1     -10.791   5.885  70.914  1.00  0.00    -0.347 C  
HETATM   25  C   UNL     1      -9.502   6.884  72.846  1.00  0.00    -0.140 C  
HETATM   26  C   UNL     1      -9.834   5.603  72.055  1.00  0.00    -0.197 C  
HETATM   27  O   UNL     1      -8.657   7.751  72.082  1.00  0.00    -0.115 OA 
HETATM   28  C   UNL     1     -10.751   7.651  73.279  1.00  0.00    -0.409 C  
HETATM   29  C   UNL     1     -11.694   7.922  72.108  1.00  0.00    -0.333 C  
HETATM   30  H   UNL     1      -8.452   8.539  72.569  1.00  0.00     0.000 HD 
HETATM   31  C   UNL     1     -12.044   6.622  71.367  1.00  0.00    -0.400 C  
HETATM   32  O   UNL     1     -12.882   8.527  72.591  1.00  0.00    -0.584 OA 
HETATM   33  H   UNL     1     -13.468   8.695  71.862  1.00  0.00     0.000 HD 
ENDBRANCH  12  23
TORSDOF 1
ENDMDL
MODEL        4
REMARK 921   NORMALIZED FREE ENERGY PREDICTED BY IDOCK:   -7.52 KCAL/MOL
REMARK 922        TOTAL FREE ENERGY PREDICTED BY IDOCK:   -8.40 KCAL/MOL
REMARK 923 INTER-LIGAND FREE ENERGY PREDICTED BY IDOCK:   -7.66 KCAL/MOL
REMARK 924 INTRA-LIGAND FREE ENERGY PREDICTED BY IDOCK:   -0.74 KCAL/MOL
REMARK 927      BINDING AFFINITY PREDICTED BY RF-SCORE:    0.00 PKD
ROOT
HETATM    1  C   UNL     1      -9.899  12.140  68.377  1.00  0.00    -0.200 C  
HETATM    2  C   UNL     1     -10.971  11.156  69.025  1.00  0.00    -0.286 C  
HETATM    3  C   UNL     1      -8.900  11.277  67.605  1.00  0.00    -0.138 C  
HETATM    4  C   UNL     1     -12.140  11.785  69.797  1.00  0.00    -0.338 C  
HETATM    5  C   UNL     1     -10.338  10.217  70.041  1.00  0.00    -0.301 C  
HETATM    6  C   UNL     1      -9.498  11.134  66.218  1.00  0.00    -0.220 C  
HETATM    7  C   UNL     1     -10.610  12.203  66.029  1.00  0.00    -0.292 C  
HETATM    8  C   UNL     1     -10.469   8.878  70.022  1.00  0.00    -0.227 C  
HETATM    9  C   UNL     1     -10.012   7.978  71.163  1.00  0.00    -0.206 C  
HETATM   10  C   UNL     1     -10.522  12.816  64.618  1.00  0.00    -0.373 C  
HETATM   11  C   UNL     1     -11.200   7.193  71.812  1.00  0.00    -0.246 C  
HETATM   12  C   UNL     1     -10.171  12.187  63.467  1.00  0.00    -0.453 C  
HETATM   13  C   UNL     1      -8.880   7.080  70.654  1.00  0.00    -0.150 C  
HETATM   14  C   UNL     1     -10.814  14.294  64.592  1.00  0.00    -0.384 C  
HETATM   15  C   UNL     1     -12.353   8.127  72.216  1.00  0.00    -0.371 C  
HETATM   16  C   UNL     1     -10.743   6.426  73.061  1.00  0.00    -0.286 C  
HETATM   17  C   UNL     1     -11.579  13.970  67.835  1.00  0.00    -0.377 C  
HETATM   18  C   UNL     1      -9.974  15.090  65.601  1.00  0.00    -0.387 C  
HETATM   19  O   UNL     1     -11.751   6.243  70.890  1.00  0.00    -0.333 OA 
HETATM   20  C   UNL     1     -10.393  13.166  67.264  1.00  0.00    -0.243 C  
HETATM   21  C   UNL     1      -9.384  14.253  66.775  1.00  0.00    -0.290 C  
HETATM   22  H   UNL     1     -12.471   5.766  71.284  1.00  0.00     0.000 HD 
ENDROOT
BRANCH  12  23
HETATM   23  C   UNL     1      -9.940  10.766  63.295  1.00  0.00    -0.369 C  
HETATM   24  C   UNL     1      -8.836  10.144  62.830  1.00  0.00    -0.231 C  
HETATM   25  C   UNL     1      -6.329  10.289  63.128  1.00  0.00    -0.134 C  
HETATM   26  C   UNL     1      -7.558  10.802  62.351  1.00  0.00    -0.153 C  
HETATM   27  O   UNL     1      -6.327  10.793  64.469  1.00  0.00    -0.370 OA 
HETATM   28  C   UNL     1      -6.247   8.763  63.164  1.00  0.00    -0.090 C  
HETATM   29  C   UNL     1      -7.549   8.130  63.653  1.00  0.00    -0.132 C  
HETATM   30  H   UNL     1      -5.570  10.477  64.948  1.00  0.00     0.000 HD 
HETATM   31  C   UNL     1      -8.749   8.624  62.829  1.00  0.00    -0.014 C  
HETATM   32  O   UNL     1      -7.453   6.719  63.549  1.00  0.00    -0.067 OA 
HETATM   33  H   UNL     1      -8.262   6.325  63.854  1.00  0.00     0.000 HD 
ENDBRANCH  12  23
TORSDOF 1
ENDMDL
MODEL        5
REMARK 921   NORMALIZED FREE ENERGY PREDICTED BY IDOCK:   -7.34 KCAL/MOL
REMARK 922        TOTAL FREE ENERGY PREDICTED BY IDOCK:   -8.21 KCAL/MOL
REMARK 923 INTER-LIGAND FREE ENERGY PREDICTED BY IDOCK:   -7.77 KCAL/MOL
REMARK 924 INTRA-LIGAND FREE ENERGY PREDICTED BY IDOCK:   -0.44 KCAL/MOL
REMARK 927      BINDING AFFINITY PREDICTED BY RF-SCORE:    0.00 PKD
ROOT
HETATM    1  C   UNL     1      -9.377   7.526  69.274  1.00  0.00    -0.151 C  
HETATM    2  C   UNL     1      -9.742   7.037  67.802  1.00  0.00    -0.156 C  
HETATM    3  C   UNL     1      -8.791   8.933  69.153  1.00  0.00    -0.136 C  
HETATM    4  C   UNL     1     -10.424   5.671  67.654  1.00  0.00    -0.284 C  
HETATM    5  C   UNL     1      -8.505   6.915  66.923  1.00  0.00    -0.115 C  
HETATM    6  C   UNL     1      -9.988   9.862  69.221  1.00  0.00    -0.217 C  
HETATM    7  C   UNL     1     -11.212   9.078  69.773  1.00  0.00    -0.041 C  
HETATM    8  C   UNL     1      -8.373   7.495  65.716  1.00  0.00    -0.144 C  
HETATM    9  C   UNL     1      -7.225   7.185  64.764  1.00  0.00    -0.072 C  
HETATM   10  C   UNL     1     -11.995   9.950  70.772  1.00  0.00    -0.410 C  
HETATM   11  C   UNL     1      -7.722   6.559  63.418  1.00  0.00    -0.106 C  
HETATM   12  C   UNL     1     -12.190  11.293  70.717  1.00  0.00    -0.479 C  
HETATM   13  C   UNL     1      -6.384   8.452  64.584  1.00  0.00    -0.065 C  
HETATM   14  C   UNL     1     -12.529   9.175  71.949  1.00  0.00    -0.459 C  
HETATM   15  C   UNL     1      -8.642   5.350  63.654  1.00  0.00    -0.004 C  
HETATM   16  C   UNL     1      -6.542   6.102  62.548  1.00  0.00    -0.037 C  
HETATM   17  C   UNL     1     -11.401   6.446  70.372  1.00  0.00    -0.453 C  
HETATM   18  C   UNL     1     -11.452   8.341  72.657  1.00  0.00    -0.423 C  
HETATM   19  O   UNL     1      -8.485   7.509  62.662  1.00  0.00    -0.364 OA 
HETATM   20  C   UNL     1     -10.565   7.741  70.313  1.00  0.00    -0.231 C  
HETATM   21  C   UNL     1     -10.189   8.029  71.801  1.00  0.00    -0.260 C  
HETATM   22  H   UNL     1      -8.786   7.129  61.846  1.00  0.00     0.000 HD 
ENDROOT
BRANCH  12  23
HETATM   23  C   UNL     1     -11.820  12.176  69.627  1.00  0.00    -0.391 C  
HETATM   24  C   UNL     1     -12.036  13.503  69.510  1.00  0.00    -0.390 C  
HETATM   25  C   UNL     1     -11.854  15.573  70.952  1.00  0.00    -0.371 C  
HETATM   26  C   UNL     1     -12.747  14.398  70.505  1.00  0.00    -0.401 C  
HETATM   27  O   UNL     1     -10.801  15.115  71.807  1.00  0.00    -0.491 OA 
HETATM   28  C   UNL     1     -11.251  16.337  69.774  1.00  0.00    -0.314 C  
HETATM   29  C   UNL     1     -10.539  15.409  68.790  1.00  0.00    -0.235 C  
HETATM   30  H   UNL     1     -10.250  15.839  72.082  1.00  0.00     0.000 HD 
HETATM   31  C   UNL     1     -11.469  14.275  68.327  1.00  0.00    -0.334 C  
HETATM   32  O   UNL     1     -10.108  16.157  67.666  1.00  0.00    -0.239 OA 
HETATM   33  H   UNL     1      -9.666  15.580  67.055  1.00  0.00     0.000 HD 
ENDBRANCH  12  23
TORSDOF 1
ENDMDL
MODEL        6
REMARK 921   NORMALIZED FREE ENERGY PREDICTED BY IDOCK:   -7.34 KCAL/MOL
REMARK 922        TOTAL FREE ENERGY PREDICTED BY IDOCK:   -8.20 KCAL/MOL
REMARK 923 INTER-LIGAND FREE ENERGY PREDICTED BY IDOCK:   -7.67 KCAL/MOL
REMARK 924 INTRA-LIGAND FREE ENERGY PREDICTED BY IDOCK:   -0.53 KCAL/MOL
REMARK 927      BINDING AFFINITY PREDICTED BY RF-SCORE:    0.00 PKD
ROOT
HETATM    1  C   UNL     1     -11.467  11.817  66.878  1.00  0.00    -0.364 C  
HETATM    2  C   UNL     1     -10.301  10.733  66.934  1.00  0.00    -0.290 C  
HETATM    3  C   UNL     1     -11.362  12.662  68.148  1.00  0.00    -0.334 C  
HETATM    4  C   UNL     1     -10.138   9.799  65.727  1.00  0.00    -0.308 C  
HETATM    5  C   UNL     1     -10.473   9.775  68.104  1.00  0.00    -0.258 C  
HETATM    6  C   UNL     1     -10.404  13.783  67.794  1.00  0.00    -0.241 C  
HETATM    7  C   UNL     1     -10.249  13.853  66.249  1.00  0.00    -0.299 C  
HETATM    8  C   UNL     1      -9.520   9.514  69.018  1.00  0.00    -0.158 C  
HETATM    9  C   UNL     1      -9.635   8.397  70.048  1.00  0.00    -0.168 C  
HETATM   10  C   UNL     1     -10.243  15.321  65.782  1.00  0.00    -0.372 C  
HETATM   11  C   UNL     1      -8.515   7.317  69.879  1.00  0.00    -0.140 C  
HETATM   12  C   UNL     1      -9.713  16.390  66.430  1.00  0.00    -0.308 C  
HETATM   13  C   UNL     1      -9.687   9.024  71.444  1.00  0.00    -0.369 C  
HETATM   14  C   UNL     1     -10.975  15.535  64.482  1.00  0.00    -0.226 C  
HETATM   15  C   UNL     1      -8.439   6.790  68.436  1.00  0.00    -0.122 C  
HETATM   16  C   UNL     1      -8.751   6.122  70.814  1.00  0.00    -0.136 C  
HETATM   17  C   UNL     1     -11.287  12.204  64.371  1.00  0.00    -0.407 C  
HETATM   18  C   UNL     1     -12.397  14.956  64.490  1.00  0.00    -0.330 C  
HETATM   19  O   UNL     1      -7.225   7.865  70.181  1.00  0.00    -0.056 OA 
HETATM   20  C   UNL     1     -11.416  12.920  65.731  1.00  0.00    -0.376 C  
HETATM   21  C   UNL     1     -12.655  13.856  65.562  1.00  0.00    -0.560 C  
HETATM   22  H   UNL     1      -6.546   7.210  70.079  1.00  0.00     0.000 HD 
ENDROOT
BRANCH  12  23
HETATM   23  C   UNL     1      -8.912  16.357  67.638  1.00  0.00    -0.198 C  
HETATM   24  C   UNL     1      -7.591  16.599  67.778  1.00  0.00    -0.172 C  
HETATM   25  C   UNL     1      -5.892  18.285  66.964  1.00  0.00    -0.145 C  
HETATM   26  C   UNL     1      -6.612  16.953  66.677  1.00  0.00    -0.252 C  
HETATM   27  O   UNL     1      -6.786  19.393  66.804  1.00  0.00    -0.195 OA 
HETATM   28  C   UNL     1      -5.274  18.334  68.361  1.00  0.00    -0.167 C  
HETATM   29  C   UNL     1      -6.286  17.975  69.449  1.00  0.00    -0.250 C  
HETATM   30  H   UNL     1      -6.342  20.214  66.981  1.00  0.00     0.000 HD 
HETATM   31  C   UNL     1      -6.953  16.621  69.160  1.00  0.00    -0.227 C  
HETATM   32  O   UNL     1      -5.627  17.920  70.703  1.00  0.00    -0.240 OA 
HETATM   33  H   UNL     1      -6.256  17.697  71.380  1.00  0.00     0.000 HD 
ENDBRANCH  12  23
TORSDOF 1
ENDMDL
MODEL        7
REMARK 921   NORMALIZED FREE ENERGY PREDICTED BY IDOCK:   -7.28 KCAL/MOL
REMARK 922        TOTAL FREE ENERGY PREDICTED BY IDOCK:   -8.14 KCAL/MOL
REMARK 923 INTER-LIGAND FREE ENERGY PREDICTED BY IDOCK:   -7.61 KCAL/MOL
REMARK 924 INTRA-LIGAND FREE ENERGY PREDICTED BY IDOCK:   -0.53 KCAL/MOL
REMARK 927      BINDING AFFINITY PREDICTED BY RF-SCORE:    0.00 PKD
ROOT
HETATM    1  C   UNL     1      -9.290   8.745  66.289  1.00  0.00    -0.283 C  
HETATM    2  C   UNL     1      -8.178   8.434  67.387  1.00  0.00    -0.120 C  
HETATM    3  C   UNL     1     -10.646   8.711  66.994  1.00  0.00    -0.293 C  
HETATM    4  C   UNL     1      -6.708   8.484  66.947  1.00  0.00    -0.062 C  
HETATM    5  C   UNL     1      -8.329   7.034  67.965  1.00  0.00    -0.119 C  
HETATM    6  C   UNL     1     -10.858  10.125  67.502  1.00  0.00    -0.349 C  
HETATM    7  C   UNL     1      -9.864  11.079  66.782  1.00  0.00    -0.229 C  
HETATM    8  C   UNL     1      -8.404   6.761  69.281  1.00  0.00    -0.125 C  
HETATM    9  C   UNL     1      -8.336   5.347  69.844  1.00  0.00    -0.100 C  
HETATM   10  C   UNL     1     -10.571  12.395  66.403  1.00  0.00    -0.271 C  
HETATM   11  C   UNL     1      -7.099   5.141  70.781  1.00  0.00    -0.060 C  
HETATM   12  C   UNL     1     -11.536  13.043  67.105  1.00  0.00    -0.411 C  
HETATM   13  C   UNL     1      -9.677   5.020  70.507  1.00  0.00    -0.273 C  
HETATM   14  C   UNL     1     -10.140  12.939  65.066  1.00  0.00    -0.235 C  
HETATM   15  C   UNL     1      -5.788   5.576  70.104  1.00  0.00    -0.021 C  
HETATM   16  C   UNL     1      -6.959   3.670  71.199  1.00  0.00    -0.032 C  
HETATM   17  C   UNL     1      -7.889  10.460  65.038  1.00  0.00    -0.109 C  
HETATM   18  C   UNL     1     -10.239  11.904  63.936  1.00  0.00    -0.420 C  
HETATM   19  O   UNL     1      -7.223   5.928  71.973  1.00  0.00    -0.087 OA 
HETATM   20  C   UNL     1      -9.296  10.185  65.609  1.00  0.00    -0.250 C  
HETATM   21  C   UNL     1     -10.259  10.418  64.401  1.00  0.00    -0.245 C  
HETATM   22  H   UNL     1      -6.472   5.803  72.541  1.00  0.00     0.000 HD 
ENDROOT
BRANCH  12  23
HETATM   23  C   UNL     1     -12.009  12.709  68.434  1.00  0.00    -0.268 C  
HETATM   24  C   UNL     1     -11.810  13.378  69.590  1.00  0.00    -0.394 C  
HETATM   25  C   UNL     1     -11.864  15.768  70.413  1.00  0.00    -0.368 C  
HETATM   26  C   UNL     1     -11.012  14.653  69.774  1.00  0.00    -0.232 C  
HETATM   27  O   UNL     1     -12.831  16.267  69.483  1.00  0.00    -0.347 OA 
HETATM   28  C   UNL     1     -12.577  15.311  71.686  1.00  0.00    -0.446 C  
HETATM   29  C   UNL     1     -13.374  14.026  71.467  1.00  0.00    -0.350 C  
HETATM   30  H   UNL     1     -13.356  16.954  69.876  1.00  0.00     0.000 HD 
HETATM   31  C   UNL     1     -12.488  12.919  70.873  1.00  0.00    -0.383 C  
HETATM   32  O   UNL     1     -13.911  13.590  72.705  1.00  0.00    -0.724 OA 
HETATM   33  H   UNL     1     -14.406  12.791  72.569  1.00  0.00     0.000 HD 
ENDBRANCH  12  23
TORSDOF 1
ENDMDL
MODEL        8
REMARK 921   NORMALIZED FREE ENERGY PREDICTED BY IDOCK:   -7.23 KCAL/MOL
REMARK 922        TOTAL FREE ENERGY PREDICTED BY IDOCK:   -8.09 KCAL/MOL
REMARK 923 INTER-LIGAND FREE ENERGY PREDICTED BY IDOCK:   -7.46 KCAL/MOL
REMARK 924 INTRA-LIGAND FREE ENERGY PREDICTED BY IDOCK:   -0.63 KCAL/MOL
REMARK 927      BINDING AFFINITY PREDICTED BY RF-SCORE:    0.00 PKD
ROOT
HETATM    1  C   UNL     1      -9.077   9.080  67.840  1.00  0.00    -0.141 C  
HETATM    2  C   UNL     1      -8.083   9.340  69.057  1.00  0.00    -0.106 C  
HETATM    3  C   UNL     1     -10.501   9.182  68.389  1.00  0.00    -0.241 C  
HETATM    4  C   UNL     1      -6.578   9.370  68.755  1.00  0.00    -0.052 C  
HETATM    5  C   UNL     1      -8.209   8.269  70.131  1.00  0.00    -0.118 C  
HETATM    6  C   UNL     1     -10.861  10.651  68.272  1.00  0.00    -0.287 C  
HETATM    7  C   UNL     1      -9.854  11.348  67.315  1.00  0.00    -0.209 C  
HETATM    8  C   UNL     1      -8.419   8.523  71.436  1.00  0.00    -0.218 C  
HETATM    9  C   UNL     1      -8.325   7.456  72.519  1.00  0.00    -0.128 C  
HETATM   10  C   UNL     1     -10.596  12.330  66.388  1.00  0.00    -0.272 C  
HETATM   11  C   UNL     1      -7.194   7.763  73.557  1.00  0.00    -0.108 C  
HETATM   12  C   UNL     1     -11.676  13.095  66.693  1.00  0.00    -0.427 C  
HETATM   13  C   UNL     1      -9.710   7.275  73.147  1.00  0.00    -0.254 C  
HETATM   14  C   UNL     1     -10.049  12.352  64.984  1.00  0.00    -0.269 C  
HETATM   15  C   UNL     1      -5.845   8.035  72.872  1.00  0.00    -0.050 C  
HETATM   16  C   UNL     1      -7.009   6.595  74.537  1.00  0.00    -0.092 C  
HETATM   17  C   UNL     1      -7.655  10.310  66.128  1.00  0.00    -0.124 C  
HETATM   18  C   UNL     1      -9.949  10.955  64.356  1.00  0.00    -0.381 C  
HETATM   19  O   UNL     1      -7.506   8.934  74.323  1.00  0.00    -0.419 OA 
HETATM   20  C   UNL     1      -9.097  10.133  66.645  1.00  0.00    -0.164 C  
HETATM   21  C   UNL     1      -9.927   9.774  65.371  1.00  0.00    -0.302 C  
HETATM   22  H   UNL     1      -6.820   9.119  74.953  1.00  0.00     0.000 HD 
ENDROOT
BRANCH  12  23
HETATM   23  C   UNL     1     -12.277  13.258  68.002  1.00  0.00    -0.118 C  
HETATM   24  C   UNL     1     -11.774  13.885  69.086  1.00  0.00    -0.382 C  
HETATM   25  C   UNL     1     -10.564  16.040  69.620  1.00  0.00    -0.311 C  
HETATM   26  C   UNL     1     -10.424  14.564  69.195  1.00  0.00    -0.224 C  
HETATM   27  O   UNL     1     -11.102  16.828  68.552  1.00  0.00    -0.342 OA 
HETATM   28  C   UNL     1     -11.433  16.217  70.864  1.00  0.00    -0.421 C  
HETATM   29  C   UNL     1     -12.788  15.523  70.722  1.00  0.00    -0.458 C  
HETATM   30  H   UNL     1     -11.189  17.737  68.813  1.00  0.00     0.000 HD 
HETATM   31  C   UNL     1     -12.614  14.043  70.345  1.00  0.00    -0.374 C  
HETATM   32  O   UNL     1     -13.496  15.620  71.947  1.00  0.00    -0.469 OA 
HETATM   33  H   UNL     1     -14.337  15.188  71.859  1.00  0.00     0.000 HD 
ENDBRANCH  12  23
TORSDOF 1
ENDMDL
MODEL        9
REMARK 921   NORMALIZED FREE ENERGY PREDICTED BY IDOCK:   -7.20 KCAL/MOL
REMARK 922        TOTAL FREE ENERGY PREDICTED BY IDOCK:   -8.06 KCAL/MOL
REMARK 923 INTER-LIGAND FREE ENERGY PREDICTED BY IDOCK:   -7.52 KCAL/MOL
REMARK 924 INTRA-LIGAND FREE ENERGY PREDICTED BY IDOCK:   -0.54 KCAL/MOL
REMARK 927      BINDING AFFINITY PREDICTED BY RF-SCORE:    0.00 PKD
ROOT
HETATM    1  C   UNL     1     -11.501  11.543  67.177  1.00  0.00    -0.313 C  
HETATM    2  C   UNL     1     -10.368  10.434  67.329  1.00  0.00    -0.278 C  
HETATM    3  C   UNL     1     -11.412  12.454  68.402  1.00  0.00    -0.356 C  
HETATM    4  C   UNL     1     -10.194   9.431  66.181  1.00  0.00    -0.264 C  
HETATM    5  C   UNL     1     -10.602   9.548  68.544  1.00  0.00    -0.247 C  
HETATM    6  C   UNL     1     -10.413  13.529  68.017  1.00  0.00    -0.245 C  
HETATM    7  C   UNL     1     -10.210  13.509  66.476  1.00  0.00    -0.283 C  
HETATM    8  C   UNL     1      -9.684   9.314  69.500  1.00  0.00    -0.179 C  
HETATM    9  C   UNL     1      -9.861   8.259  70.585  1.00  0.00    -0.203 C  
HETATM   10  C   UNL     1     -10.149  14.948  65.930  1.00  0.00    -0.348 C  
HETATM   11  C   UNL     1      -8.767   7.142  70.511  1.00  0.00    -0.149 C  
HETATM   12  C   UNL     1      -9.610  16.038  66.536  1.00  0.00    -0.283 C  
HETATM   13  C   UNL     1      -9.938   8.963  71.943  1.00  0.00    -0.384 C  
HETATM   14  C   UNL     1     -10.835  15.109  64.598  1.00  0.00    -0.285 C  
HETATM   15  C   UNL     1      -8.661   6.535  69.103  1.00  0.00    -0.129 C  
HETATM   16  C   UNL     1      -9.063   6.008  71.503  1.00  0.00    -0.148 C  
HETATM   17  C   UNL     1     -11.235  11.785  64.660  1.00  0.00    -0.349 C  
HETATM   18  C   UNL     1     -12.272  14.568  64.593  1.00  0.00    -0.474 C  
HETATM   19  O   UNL     1      -7.472   7.673  70.824  1.00  0.00    -0.069 OA 
HETATM   20  C   UNL     1     -11.385  12.580  65.973  1.00  0.00    -0.386 C  
HETATM   21  C   UNL     1     -12.593  13.536  65.715  1.00  0.00    -0.490 C  
HETATM   22  H   UNL     1      -6.808   6.996  70.779  1.00  0.00     0.000 HD 
ENDROOT
BRANCH  12  23
HETATM   23  C   UNL     1      -8.847  16.051  67.769  1.00  0.00    -0.177 C  
HETATM   24  C   UNL     1      -7.521  16.240  67.934  1.00  0.00    -0.142 C  
HETATM   25  C   UNL     1      -5.717  17.783  67.063  1.00  0.00    -0.142 C  
HETATM   26  C   UNL     1      -6.493  16.469  66.844  1.00  0.00    -0.190 C  
HETATM   27  O   UNL     1      -6.550  18.917  66.799  1.00  0.00    -0.188 OA 
HETATM   28  C   UNL     1      -5.139  17.899  68.473  1.00  0.00    -0.149 C  
HETATM   29  C   UNL     1      -6.198  17.666  69.549  1.00  0.00    -0.245 C  
HETATM   30  H   UNL     1      -6.072  19.727  66.934  1.00  0.00     0.000 HD 
HETATM   31  C   UNL     1      -6.923  16.328  69.332  1.00  0.00    -0.212 C  
HETATM   32  O   UNL     1      -5.580  17.667  70.825  1.00  0.00    -0.208 OA 
HETATM   33  H   UNL     1      -6.238  17.522  71.494  1.00  0.00     0.000 HD 
ENDBRANCH  12  23
TORSDOF 1
ENDMDL
MODEL       10
REMARK 921   NORMALIZED FREE ENERGY PREDICTED BY IDOCK:   -7.19 KCAL/MOL
REMARK 922        TOTAL FREE ENERGY PREDICTED BY IDOCK:   -8.04 KCAL/MOL
REMARK 923 INTER-LIGAND FREE ENERGY PREDICTED BY IDOCK:   -7.37 KCAL/MOL
REMARK 924 INTRA-LIGAND FREE ENERGY PREDICTED BY IDOCK:   -0.67 KCAL/MOL
REMARK 927      BINDING AFFINITY PREDICTED BY RF-SCORE:    0.00 PKD
ROOT
HETATM    1  C   UNL     1      -8.235   9.476  66.583  1.00  0.00    -0.116 C  
HETATM    2  C   UNL     1      -9.291  10.442  65.883  1.00  0.00    -0.224 C  
HETATM    3  C   UNL     1      -8.570   9.444  68.075  1.00  0.00    -0.120 C  
HETATM    4  C   UNL     1      -9.220  10.587  64.356  1.00  0.00    -0.281 C  
HETATM    5  C   UNL     1      -9.167  11.874  66.383  1.00  0.00    -0.218 C  
HETATM    6  C   UNL     1      -9.583   8.324  68.225  1.00  0.00    -0.158 C  
HETATM    7  C   UNL     1      -9.559   7.441  66.946  1.00  0.00    -0.240 C  
HETATM    8  C   UNL     1     -10.192  12.600  66.866  1.00  0.00    -0.242 C  
HETATM    9  C   UNL     1     -10.093  14.092  67.156  1.00  0.00    -0.258 C  
HETATM   10  C   UNL     1      -9.650   5.951  67.328  1.00  0.00    -0.122 C  
HETATM   11  C   UNL     1     -11.077  14.934  66.276  1.00  0.00    -0.340 C  
HETATM   12  C   UNL     1     -10.353   5.405  68.354  1.00  0.00    -0.216 C  
HETATM   13  C   UNL     1     -10.267  14.310  68.661  1.00  0.00    -0.246 C  
HETATM   14  C   UNL     1      -8.794   5.062  66.464  1.00  0.00    -0.112 C  
HETATM   15  C   UNL     1     -10.932  14.608  64.780  1.00  0.00    -0.399 C  
HETATM   16  C   UNL     1     -10.840  16.440  66.464  1.00  0.00    -0.073 C  
HETATM   17  C   UNL     1      -8.154   7.810  64.663  1.00  0.00    -0.123 C  
HETATM   18  C   UNL     1      -7.334   5.530  66.380  1.00  0.00    -0.079 C  
HETATM   19  O   UNL     1     -12.440  14.656  66.623  1.00  0.00    -0.412 OA 
HETATM   20  C   UNL     1      -8.256   7.931  66.197  1.00  0.00    -0.117 C  
HETATM   21  C   UNL     1      -7.100   7.029  66.736  1.00  0.00    -0.082 C  
HETATM   22  H   UNL     1     -13.036  15.167  66.089  1.00  0.00     0.000 HD 
ENDROOT
BRANCH  12  23
HETATM   23  C   UNL     1     -11.285   6.094  69.225  1.00  0.00    -0.438 C  
HETATM   24  C   UNL     1     -11.322   6.106  70.574  1.00  0.00    -0.381 C  
HETATM   25  C   UNL     1      -9.698   6.336  72.499  1.00  0.00    -0.156 C  
HETATM   26  C   UNL     1     -10.388   5.371  71.514  1.00  0.00    -0.289 C  
HETATM   27  O   UNL     1      -8.720   7.137  71.826  1.00  0.00    -0.118 OA 
HETATM   28  C   UNL     1     -10.687   7.250  73.221  1.00  0.00    -0.428 C  
HETATM   29  C   UNL     1     -11.612   7.979  72.248  1.00  0.00    -0.366 C  
HETATM   30  H   UNL     1      -8.295   7.732  72.432  1.00  0.00     0.000 HD 
HETATM   31  C   UNL     1     -12.322   6.987  71.311  1.00  0.00    -0.426 C  
HETATM   32  O   UNL     1     -12.580   8.713  72.979  1.00  0.00    -0.589 OA 
HETATM   33  H   UNL     1     -13.155   9.166  72.374  1.00  0.00     0.000 HD 
ENDBRANCH  12  23
TORSDOF 1
ENDMDL
MODEL       11
REMARK 921   NORMALIZED FREE ENERGY PREDICTED BY IDOCK:   -7.18 KCAL/MOL
REMARK 922        TOTAL FREE ENERGY PREDICTED BY IDOCK:   -8.03 KCAL/MOL
REMARK 923 INTER-LIGAND FREE ENERGY PREDICTED BY IDOCK:   -7.52 KCAL/MOL
REMARK 924 INTRA-LIGAND FREE ENERGY PREDICTED BY IDOCK:   -0.51 KCAL/MOL
REMARK 927      BINDING AFFINITY PREDICTED BY RF-SCORE:    0.00 PKD
ROOT
HETATM    1  C   UNL     1     -11.290  11.618  66.802  1.00  0.00    -0.354 C  
HETATM    2  C   UNL     1     -10.060  10.606  66.801  1.00  0.00    -0.272 C  
HETATM    3  C   UNL     1     -11.177  12.469  68.068  1.00  0.00    -0.316 C  
HETATM    4  C   UNL     1      -9.898   9.684  65.585  1.00  0.00    -0.369 C  
HETATM    5  C   UNL     1     -10.119   9.640  67.975  1.00  0.00    -0.213 C  
HETATM    6  C   UNL     1     -10.305  13.645  67.672  1.00  0.00    -0.239 C  
HETATM    7  C   UNL     1     -10.227  13.723  66.122  1.00  0.00    -0.305 C  
HETATM    8  C   UNL     1      -9.111   9.437  68.843  1.00  0.00    -0.140 C  
HETATM    9  C   UNL     1      -9.110   8.316  69.874  1.00  0.00    -0.147 C  
HETATM   10  C   UNL     1     -10.331  15.189  65.658  1.00  0.00    -0.379 C  
HETATM   11  C   UNL     1      -7.937   7.305  69.650  1.00  0.00    -0.127 C  
HETATM   12  C   UNL     1      -9.836  16.288  66.284  1.00  0.00    -0.334 C  
HETATM   13  C   UNL     1      -9.133   8.939  71.273  1.00  0.00    -0.323 C  
HETATM   14  C   UNL     1     -11.135  15.359  64.395  1.00  0.00    -0.149 C  
HETATM   15  C   UNL     1      -7.896   6.783  68.204  1.00  0.00    -0.113 C  
HETATM   16  C   UNL     1      -8.056   6.098  70.592  1.00  0.00    -0.116 C  
HETATM   17  C   UNL     1     -11.251  12.014  64.291  1.00  0.00    -0.421 C  
HETATM   18  C   UNL     1     -12.517  14.695  64.468  1.00  0.00    -0.312 C  
HETATM   19  O   UNL     1      -6.669   7.929  69.893  1.00  0.00    -0.037 OA 
HETATM   20  C   UNL     1     -11.359  12.723  65.657  1.00  0.00    -0.354 C  
HETATM   21  C   UNL     1     -12.659  13.582  65.549  1.00  0.00    -0.531 C  
HETATM   22  H   UNL     1      -5.957   7.316  69.757  1.00  0.00     0.000 HD 
ENDROOT
BRANCH  12  23
HETATM   23  C   UNL     1      -8.979  16.304  67.453  1.00  0.00    -0.197 C  
HETATM   24  C   UNL     1      -7.695  16.709  67.549  1.00  0.00    -0.186 C  
HETATM   25  C   UNL     1      -6.268  18.639  66.752  1.00  0.00    -0.174 C  
HETATM   26  C   UNL     1      -6.825  17.238  66.426  1.00  0.00    -0.300 C  
HETATM   27  O   UNL     1      -7.303  19.626  66.689  1.00  0.00    -0.226 OA 
HETATM   28  C   UNL     1      -5.593  18.702  68.122  1.00  0.00    -0.184 C  
HETATM   29  C   UNL     1      -6.496  18.164  69.232  1.00  0.00    -0.255 C  
HETATM   30  H   UNL     1      -6.960  20.489  66.890  1.00  0.00     0.000 HD 
HETATM   31  C   UNL     1      -6.997  16.749  68.901  1.00  0.00    -0.207 C  
HETATM   32  O   UNL     1      -5.774  18.137  70.452  1.00  0.00    -0.239 OA 
HETATM   33  H   UNL     1      -6.335  17.803  71.142  1.00  0.00     0.000 HD 
ENDBRANCH  12  23
TORSDOF 1
ENDMDL
MODEL       12
REMARK 921   NORMALIZED FREE ENERGY PREDICTED BY IDOCK:   -7.12 KCAL/MOL
REMARK 922        TOTAL FREE ENERGY PREDICTED BY IDOCK:   -7.97 KCAL/MOL
REMARK 923 INTER-LIGAND FREE ENERGY PREDICTED BY IDOCK:   -7.22 KCAL/MOL
REMARK 924 INTRA-LIGAND FREE ENERGY PREDICTED BY IDOCK:   -0.75 KCAL/MOL
REMARK 927      BINDING AFFINITY PREDICTED BY RF-SCORE:    0.00 PKD
ROOT
HETATM    1  C   UNL     1     -12.683  11.603  69.593  1.00  0.00     0.288 C  
HETATM    2  C   UNL     1     -11.793  12.923  69.524  1.00  0.00    -0.383 C  
HETATM    3  C   UNL     1     -12.140  10.635  68.542  1.00  0.00     0.215 C  
HETATM    4  C   UNL     1     -12.087  14.035  70.541  1.00  0.00    -0.424 C  
HETATM    5  C   UNL     1     -11.926  13.626  68.180  1.00  0.00    -0.390 C  
HETATM    6  C   UNL     1     -11.054   9.852  69.256  1.00  0.00    -0.220 C  
HETATM    7  C   UNL     1     -11.208  10.049  70.790  1.00  0.00    -0.428 C  
HETATM    8  C   UNL     1     -10.887  13.979  67.403  1.00  0.00    -0.288 C  
HETATM    9  C   UNL     1     -11.028  14.869  66.174  1.00  0.00    -0.334 C  
HETATM   10  C   UNL     1     -10.979   8.713  71.523  1.00  0.00    -0.360 C  
HETATM   11  C   UNL     1     -10.228  16.207  66.316  1.00  0.00    -0.320 C  
HETATM   12  C   UNL     1     -10.108   7.727  71.186  1.00  0.00    -0.206 C  
HETATM   13  C   UNL     1     -10.656  14.052  64.934  1.00  0.00    -0.442 C  
HETATM   14  C   UNL     1     -11.897   8.516  72.702  1.00  0.00    -0.311 C  
HETATM   15  C   UNL     1     -10.564  16.941  67.625  1.00  0.00    -0.325 C  
HETATM   16  C   UNL     1     -10.520  17.156  65.144  1.00  0.00     0.119 C  
HETATM   17  C   UNL     1     -12.940  11.645  72.123  1.00  0.00    -0.211 C  
HETATM   18  C   UNL     1     -13.378   8.716  72.350  1.00  0.00    -0.383 C  
HETATM   19  O   UNL     1      -8.816  15.959  66.340  1.00  0.00    -0.275 OA 
HETATM   20  C   UNL     1     -12.629  10.728  70.922  1.00  0.00    -0.498 C  
HETATM   21  C   UNL     1     -13.644   9.548  71.060  1.00  0.00    -0.143 C  
HETATM   22  H   UNL     1      -8.331  16.771  66.425  1.00  0.00     0.000 HD 
ENDROOT
BRANCH  12  23
HETATM   23  C   UNL     1      -9.104   7.782  70.142  1.00  0.00    -0.153 C  
HETATM   24  C   UNL     1      -8.960   6.974  69.070  1.00  0.00    -0.133 C  
HETATM   25  C   UNL     1     -10.424   5.923  67.297  1.00  0.00    -0.262 C  
HETATM   26  C   UNL     1      -9.824   5.782  68.710  1.00  0.00    -0.181 C  
HETATM   27  O   UNL     1     -11.444   6.928  67.274  1.00  0.00    -0.697 OA 
HETATM   28  C   UNL     1      -9.372   6.249  66.238  1.00  0.00    -0.155 C  
HETATM   29  C   UNL     1      -8.519   7.455  66.628  1.00  0.00    -0.124 C  
HETATM   30  H   UNL     1     -11.814   7.015  66.404  1.00  0.00     0.000 HD 
HETATM   31  C   UNL     1      -7.896   7.266  68.021  1.00  0.00    -0.118 C  
HETATM   32  O   UNL     1      -7.489   7.633  65.670  1.00  0.00    -0.074 OA 
HETATM   33  H   UNL     1      -6.959   8.383  65.913  1.00  0.00     0.000 HD 
ENDBRANCH  12  23
TORSDOF 1
ENDMDL
MODEL       13
REMARK 921   NORMALIZED FREE ENERGY PREDICTED BY IDOCK:   -7.10 KCAL/MOL
REMARK 922        TOTAL FREE ENERGY PREDICTED BY IDOCK:   -7.95 KCAL/MOL
REMARK 923 INTER-LIGAND FREE ENERGY PREDICTED BY IDOCK:   -7.32 KCAL/MOL
REMARK 924 INTRA-LIGAND FREE ENERGY PREDICTED BY IDOCK:   -0.63 KCAL/MOL
REMARK 927      BINDING AFFINITY PREDICTED BY RF-SCORE:    0.00 PKD
ROOT
HETATM    1  C   UNL     1     -11.210  10.612  68.099  1.00  0.00    -0.366 C  
HETATM    2  C   UNL     1     -10.009   9.803  68.762  1.00  0.00    -0.179 C  
HETATM    3  C   UNL     1     -11.971  11.303  69.231  1.00  0.00    -0.411 C  
HETATM    4  C   UNL     1      -9.036   9.076  67.824  1.00  0.00    -0.132 C  
HETATM    5  C   UNL     1     -10.509   8.699  69.683  1.00  0.00    -0.220 C  
HETATM    6  C   UNL     1     -11.273  12.637  69.415  1.00  0.00    -0.205 C  
HETATM    7  C   UNL     1     -10.381  12.921  68.174  1.00  0.00    -0.243 C  
HETATM    8  C   UNL     1     -10.118   8.541  70.960  1.00  0.00    -0.257 C  
HETATM    9  C   UNL     1     -10.460   7.311  71.792  1.00  0.00    -0.218 C  
HETATM   10  C   UNL     1     -10.499  14.401  67.763  1.00  0.00    -0.245 C  
HETATM   11  C   UNL     1      -9.184   6.523  72.238  1.00  0.00    -0.138 C  
HETATM   12  C   UNL     1     -10.648  15.474  68.583  1.00  0.00    -0.243 C  
HETATM   13  C   UNL     1     -11.361   7.742  72.952  1.00  0.00    -0.406 C  
HETATM   14  C   UNL     1     -10.501  14.607  66.271  1.00  0.00    -0.302 C  
HETATM   15  C   UNL     1      -8.264   6.199  71.050  1.00  0.00    -0.123 C  
HETATM   16  C   UNL     1      -9.560   5.202  72.927  1.00  0.00    -0.162 C  
HETATM   17  C   UNL     1      -9.889  11.323  66.046  1.00  0.00    -0.267 C  
HETATM   18  C   UNL     1     -11.540  13.741  65.546  1.00  0.00    -0.335 C  
HETATM   19  O   UNL     1      -8.403   7.294  73.161  1.00  0.00    -0.109 OA 
HETATM   20  C   UNL     1     -10.857  11.829  67.135  1.00  0.00    -0.303 C  
HETATM   21  C   UNL     1     -12.027  12.492  66.339  1.00  0.00    -0.386 C  
HETATM   22  H   UNL     1      -7.629   6.815  73.432  1.00  0.00     0.000 HD 
ENDROOT
BRANCH  12  23
HETATM   23  C   UNL     1     -10.587  15.470  70.032  1.00  0.00    -0.337 C  
HETATM   24  C   UNL     1     -11.577  15.715  70.916  1.00  0.00    -0.424 C  
HETATM   25  C   UNL     1     -14.006  15.092  71.239  1.00  0.00    -0.463 C  
HETATM   26  C   UNL     1     -13.012  16.078  70.593  1.00  0.00     0.443 C  
HETATM   27  O   UNL     1     -13.965  13.821  70.581  1.00  0.00     0.262 OA 
HETATM   28  C   UNL     1     -13.754  14.894  72.734  1.00  0.00    -0.501 C  
HETATM   29  C   UNL     1     -12.300  14.526  73.027  1.00  0.00    -0.166 C  
HETATM   30  H   UNL     1     -14.577  13.214  70.979  1.00  0.00     0.000 HD 
HETATM   31  C   UNL     1     -11.334  15.552  72.410  1.00  0.00    -0.349 C  
HETATM   32  O   UNL     1     -12.102  14.474  74.429  1.00  0.00    -0.536 OA 
HETATM   33  H   UNL     1     -11.198  14.246  74.611  1.00  0.00     0.000 HD 
ENDBRANCH  12  23
TORSDOF 1
ENDMDL
MODEL       14
REMARK 921   NORMALIZED FREE ENERGY PREDICTED BY IDOCK:   -6.95 KCAL/MOL
REMARK 922        TOTAL FREE ENERGY PREDICTED BY IDOCK:   -7.79 KCAL/MOL
REMARK 923 INTER-LIGAND FREE ENERGY PREDICTED BY IDOCK:   -7.33 KCAL/MOL
REMARK 924 INTRA-LIGAND FREE ENERGY PREDICTED BY IDOCK:   -0.46 KCAL/MOL
REMARK 927      BINDING AFFINITY PREDICTED BY RF-SCORE:    0.00 PKD
ROOT
HETATM    1  C   UNL     1     -10.664  12.121  66.456  1.00  0.00    -0.290 C  
HETATM    2  C   UNL     1      -9.289  11.343  66.246  1.00  0.00    -0.228 C  
HETATM    3  C   UNL     1     -10.547  12.903  67.765  1.00  0.00    -0.231 C  
HETATM    4  C   UNL     1      -9.118  10.536  64.952  1.00  0.00    -0.235 C  
HETATM    5  C   UNL     1      -9.046  10.316  67.342  1.00  0.00    -0.148 C  
HETATM    6  C   UNL     1      -9.939  14.235  67.371  1.00  0.00    -0.242 C  
HETATM    7  C   UNL     1     -10.059  14.416  65.832  1.00  0.00    -0.344 C  
HETATM    8  C   UNL     1      -7.923  10.243  68.079  1.00  0.00    -0.101 C  
HETATM    9  C   UNL     1      -7.612   9.082  69.014  1.00  0.00    -0.078 C  
HETATM   10  C   UNL     1     -10.463  15.865  65.498  1.00  0.00    -0.425 C  
HETATM   11  C   UNL     1      -6.319   8.308  68.589  1.00  0.00    -0.053 C  
HETATM   12  C   UNL     1     -10.090  16.996  66.151  1.00  0.00    -0.332 C  
HETATM   13  C   UNL     1      -7.575   9.609  70.451  1.00  0.00    -0.176 C  
HETATM   14  C   UNL     1     -11.427  15.963  64.343  1.00  0.00    -0.268 C  
HETATM   15  C   UNL     1      -6.362   7.887  67.111  1.00  0.00    -0.055 C  
HETATM   16  C   UNL     1      -6.121   7.047  69.443  1.00  0.00    -0.033 C  
HETATM   17  C   UNL     1     -10.989  12.663  63.993  1.00  0.00    -0.448 C  
HETATM   18  C   UNL     1     -12.659  15.063  64.511  1.00  0.00     0.004 C  
HETATM   19  O   UNL     1      -5.156   9.131  68.744  1.00  0.00    -0.033 OA 
HETATM   20  C   UNL     1     -11.052  13.260  65.413  1.00  0.00    -0.300 C  
HETATM   21  C   UNL     1     -12.482  13.881  65.511  1.00  0.00    -0.541 C  
HETATM   22  H   UNL     1      -4.371   8.662  68.487  1.00  0.00     0.000 HD 
ENDROOT
BRANCH  12  23
HETATM   23  C   UNL     1      -9.116  17.094  67.220  1.00  0.00    -0.227 C  
HETATM   24  C   UNL     1      -8.024  17.884  67.292  1.00  0.00    -0.222 C  
HETATM   25  C   UNL     1      -7.406  20.288  66.810  1.00  0.00    -0.281 C  
HETATM   26  C   UNL     1      -7.540  18.862  66.240  1.00  0.00    -0.293 C  
HETATM   27  O   UNL     1      -8.695  20.866  67.046  1.00  0.00    -0.577 OA 
HETATM   28  C   UNL     1      -6.588  20.335  68.100  1.00  0.00    -0.336 C  
HETATM   29  C   UNL     1      -7.101  19.341  69.141  1.00  0.00    -0.335 C  
HETATM   30  H   UNL     1      -8.612  21.744  67.397  1.00  0.00     0.000 HD 
HETATM   31  C   UNL     1      -7.180  17.920  68.559  1.00  0.00    -0.261 C  
HETATM   32  O   UNL     1      -6.234  19.345  70.262  1.00  0.00    -0.235 OA 
HETATM   33  H   UNL     1      -6.553  18.727  70.910  1.00  0.00     0.000 HD 
ENDBRANCH  12  23
TORSDOF 1
ENDMDL
MODEL       15
REMARK 921   NORMALIZED FREE ENERGY PREDICTED BY IDOCK:   -6.91 KCAL/MOL
REMARK 922        TOTAL FREE ENERGY PREDICTED BY IDOCK:   -7.75 KCAL/MOL
REMARK 923 INTER-LIGAND FREE ENERGY PREDICTED BY IDOCK:   -7.28 KCAL/MOL
REMARK 924 INTRA-LIGAND FREE ENERGY PREDICTED BY IDOCK:   -0.46 KCAL/MOL
REMARK 927      BINDING AFFINITY PREDICTED BY RF-SCORE:    0.00 PKD
ROOT
HETATM    1  C   UNL     1      -8.777   6.849  68.916  1.00  0.00    -0.130 C  
HETATM    2  C   UNL     1      -9.434   5.891  67.826  1.00  0.00    -0.114 C  
HETATM    3  C   UNL     1      -8.476   8.180  68.227  1.00  0.00    -0.130 C  
HETATM    4  C   UNL     1      -9.905   4.504  68.287  1.00  0.00    -0.153 C  
HETATM    5  C   UNL     1      -8.471   5.580  66.690  1.00  0.00    -0.112 C  
HETATM    6  C   UNL     1      -9.745   8.997  68.383  1.00  0.00    -0.170 C  
HETATM    7  C   UNL     1     -10.638   8.347  69.477  1.00  0.00    -0.217 C  
HETATM    8  C   UNL     1      -8.756   5.750  65.386  1.00  0.00    -0.122 C  
HETATM    9  C   UNL     1      -7.866   5.233  64.263  1.00  0.00    -0.101 C  
HETATM   10  C   UNL     1     -11.259   9.436  70.371  1.00  0.00    -0.309 C  
HETATM   11  C   UNL     1      -8.595   4.175  63.368  1.00  0.00    -0.104 C  
HETATM   12  C   UNL     1     -11.673  10.674  69.995  1.00  0.00    -0.405 C  
HETATM   13  C   UNL     1      -7.316   6.431  63.484  1.00  0.00    -0.066 C  
HETATM   14  C   UNL     1     -11.333   9.044  71.824  1.00  0.00    -0.447 C  
HETATM   15  C   UNL     1      -9.215   3.044  64.205  1.00  0.00    -0.119 C  
HETATM   16  C   UNL     1      -7.629   3.547  62.352  1.00  0.00    -0.053 C  
HETATM   17  C   UNL     1     -10.240   6.039  70.832  1.00  0.00    -0.259 C  
HETATM   18  C   UNL     1      -9.988   8.558  72.384  1.00  0.00    -0.365 C  
HETATM   19  O   UNL     1      -9.671   4.778  62.637  1.00  0.00    -0.350 OA 
HETATM   20  C   UNL     1      -9.667   7.302  70.157  1.00  0.00    -0.172 C  
HETATM   21  C   UNL     1      -8.962   8.077  71.315  1.00  0.00    -0.166 C  
HETATM   22  H   UNL     1     -10.113   4.136  62.094  1.00  0.00     0.000 HD 
ENDROOT
BRANCH  12  23
HETATM   23  C   UNL     1     -11.750  11.185  68.641  1.00  0.00    -0.389 C  
HETATM   24  C   UNL     1     -11.880  12.464  68.230  1.00  0.00    -0.364 C  
HETATM   25  C   UNL     1     -10.902  14.728  68.789  1.00  0.00    -0.255 C  
HETATM   26  C   UNL     1     -11.998  13.692  69.111  1.00  0.00    -0.394 C  
HETATM   27  O   UNL     1      -9.622  14.274  69.244  1.00  0.00    -0.411 OA 
HETATM   28  C   UNL     1     -10.820  15.057  67.299  1.00  0.00    -0.310 C  
HETATM   29  C   UNL     1     -10.700  13.800  66.438  1.00  0.00    -0.281 C  
HETATM   30  H   UNL     1      -8.947  14.911  69.046  1.00  0.00     0.000 HD 
HETATM   31  C   UNL     1     -11.832  12.807  66.748  1.00  0.00    -0.452 C  
HETATM   32  O   UNL     1     -10.749  14.162  65.069  1.00  0.00    -0.364 OA 
HETATM   33  H   UNL     1     -10.674  13.381  64.534  1.00  0.00     0.000 HD 
ENDBRANCH  12  23
TORSDOF 1
ENDMDL
MODEL       16
REMARK 921   NORMALIZED FREE ENERGY PREDICTED BY IDOCK:   -6.87 KCAL/MOL
REMARK 922        TOTAL FREE ENERGY PREDICTED BY IDOCK:   -7.71 KCAL/MOL
REMARK 923 INTER-LIGAND FREE ENERGY PREDICTED BY IDOCK:   -7.24 KCAL/MOL
REMARK 924 INTRA-LIGAND FREE ENERGY PREDICTED BY IDOCK:   -0.47 KCAL/MOL
REMARK 927      BINDING AFFINITY PREDICTED BY RF-SCORE:    0.00 PKD
ROOT
HETATM    1  C   UNL     1     -12.632  11.825  69.597  1.00  0.00     0.146 C  
HETATM    2  C   UNL     1     -11.791  13.168  69.762  1.00  0.00    -0.386 C  
HETATM    3  C   UNL     1     -11.940  10.986  68.523  1.00  0.00    -0.206 C  
HETATM    4  C   UNL     1     -12.236  14.159  70.846  1.00  0.00    -0.434 C  
HETATM    5  C   UNL     1     -11.801  14.003  68.490  1.00  0.00    -0.399 C  
HETATM    6  C   UNL     1     -10.912  10.161  69.273  1.00  0.00    -0.279 C  
HETATM    7  C   UNL     1     -11.240  10.194  70.792  1.00  0.00    -0.414 C  
HETATM    8  C   UNL     1     -10.696  14.463  67.875  1.00  0.00    -0.246 C  
HETATM    9  C   UNL     1     -10.734  15.471  66.734  1.00  0.00    -0.305 C  
HETATM   10  C   UNL     1     -11.044   8.796  71.408  1.00  0.00    -0.361 C  
HETATM   11  C   UNL     1     -10.006  16.808  67.100  1.00  0.00    -0.274 C  
HETATM   12  C   UNL     1     -10.105   7.873  71.074  1.00  0.00    -0.212 C  
HETATM   13  C   UNL     1     -10.197  14.798  65.468  1.00  0.00    -0.400 C  
HETATM   14  C   UNL     1     -12.078   8.453  72.449  1.00  0.00    -0.443 C  
HETATM   15  C   UNL     1     -10.512  17.393  68.429  1.00  0.00    -0.384 C  
HETATM   16  C   UNL     1     -10.203  17.865  66.003  1.00  0.00    -0.297 C  
HETATM   17  C   UNL     1     -13.168  11.596  72.073  1.00  0.00    -0.443 C  
HETATM   18  C   UNL     1     -13.518   8.649  71.953  1.00  0.00    -0.433 C  
HETATM   19  O   UNL     1      -8.597  16.596  67.258  1.00  0.00    -0.184 OA 
HETATM   20  C   UNL     1     -12.692  10.818  70.829  1.00  0.00    -0.451 C  
HETATM   21  C   UNL     1     -13.671   9.604  70.732  1.00  0.00     0.119 C  
HETATM   22  H   UNL     1      -8.155  17.406  67.479  1.00  0.00     0.000 HD 
ENDROOT
BRANCH  12  23
HETATM   23  C   UNL     1      -8.994   8.062  70.162  1.00  0.00    -0.150 C  
HETATM   24  C   UNL     1      -8.246   7.125  69.543  1.00  0.00    -0.132 C  
HETATM   25  C   UNL     1      -8.602   4.949  68.305  1.00  0.00    -0.101 C  
HETATM   26  C   UNL     1      -8.383   5.621  69.675  1.00  0.00    -0.107 C  
HETATM   27  O   UNL     1      -9.913   5.229  67.803  1.00  0.00    -0.147 OA 
HETATM   28  C   UNL     1      -7.563   5.373  67.267  1.00  0.00    -0.092 C  
HETATM   29  C   UNL     1      -7.450   6.893  67.155  1.00  0.00    -0.095 C  
HETATM   30  H   UNL     1     -10.048   4.815  66.959  1.00  0.00     0.000 HD 
HETATM   31  C   UNL     1      -7.185   7.530  68.529  1.00  0.00    -0.090 C  
HETATM   32  O   UNL     1      -6.393   7.221  66.270  1.00  0.00    -0.039 OA 
HETATM   33  H   UNL     1      -6.322   8.166  66.200  1.00  0.00     0.000 HD 
ENDBRANCH  12  23
TORSDOF 1
ENDMDL
MODEL       17
REMARK 921   NORMALIZED FREE ENERGY PREDICTED BY IDOCK:   -6.81 KCAL/MOL
REMARK 922        TOTAL FREE ENERGY PREDICTED BY IDOCK:   -7.65 KCAL/MOL
REMARK 923 INTER-LIGAND FREE ENERGY PREDICTED BY IDOCK:   -6.89 KCAL/MOL
REMARK 924 INTRA-LIGAND FREE ENERGY PREDICTED BY IDOCK:   -0.75 KCAL/MOL
REMARK 927      BINDING AFFINITY PREDICTED BY RF-SCORE:    0.00 PKD
ROOT
HETATM    1  C   UNL     1     -12.271  12.540  69.235  1.00  0.00    -0.087 C  
HETATM    2  C   UNL     1     -11.476  13.900  69.478  1.00  0.00    -0.332 C  
HETATM    3  C   UNL     1     -11.573  11.805  68.091  1.00  0.00    -0.391 C  
HETATM    4  C   UNL     1     -11.933  14.796  70.637  1.00  0.00    -0.371 C  
HETATM    5  C   UNL     1     -11.545  14.820  68.267  1.00  0.00    -0.348 C  
HETATM    6  C   UNL     1     -10.498  10.970  68.761  1.00  0.00    -0.222 C  
HETATM    7  C   UNL     1     -10.794  10.885  70.284  1.00  0.00     0.061 C  
HETATM    8  C   UNL     1     -10.471  15.363  67.665  1.00  0.00    -0.272 C  
HETATM    9  C   UNL     1     -10.572  16.446  66.598  1.00  0.00    -0.239 C  
HETATM   10  C   UNL     1     -10.533   9.455  70.797  1.00  0.00    -0.372 C  
HETATM   11  C   UNL     1      -9.885  17.781  67.042  1.00  0.00    -0.309 C  
HETATM   12  C   UNL     1      -9.568   8.594  70.381  1.00  0.00    -0.196 C  
HETATM   13  C   UNL     1     -10.039  15.883  65.278  1.00  0.00    -0.206 C  
HETATM   14  C   UNL     1     -11.530   9.002  71.831  1.00  0.00    -0.440 C  
HETATM   15  C   UNL     1     -10.382  18.253  68.419  1.00  0.00    -0.366 C  
HETATM   16  C   UNL     1     -10.145  18.903  66.027  1.00  0.00    -0.372 C  
HETATM   17  C   UNL     1     -12.743  12.120  71.698  1.00  0.00    -0.314 C  
HETATM   18  C   UNL     1     -12.987   9.177  71.379  1.00  0.00    -0.366 C  
HETATM   19  O   UNL     1      -8.466  17.612  67.158  1.00  0.00    -0.217 OA 
HETATM   20  C   UNL     1     -12.267  11.448  70.394  1.00  0.00    -0.450 C  
HETATM   21  C   UNL     1     -13.202  10.208  70.231  1.00  0.00     0.158 C  
HETATM   22  H   UNL     1      -8.049  18.422  67.427  1.00  0.00     0.000 HD 
ENDROOT
BRANCH  12  23
HETATM   23  C   UNL     1      -8.485   8.889  69.463  1.00  0.00    -0.128 C  
HETATM   24  C   UNL     1      -8.196   8.295  68.286  1.00  0.00    -0.128 C  
HETATM   25  C   UNL     1      -9.430   7.503  66.226  1.00  0.00    -0.096 C  
HETATM   26  C   UNL     1      -8.943   7.143  67.644  1.00  0.00    -0.125 C  
HETATM   27  O   UNL     1     -10.512   8.439  66.281  1.00  0.00    -0.356 OA 
HETATM   28  C   UNL     1      -8.317   8.069  65.345  1.00  0.00    -0.161 C  
HETATM   29  C   UNL     1      -7.586   9.229  66.018  1.00  0.00    -0.096 C  
HETATM   30  H   UNL     1     -10.812   8.661  65.408  1.00  0.00     0.000 HD 
HETATM   31  C   UNL     1      -7.071   8.826  67.409  1.00  0.00    -0.079 C  
HETATM   32  O   UNL     1      -6.494   9.630  65.207  1.00  0.00    -0.074 OA 
HETATM   33  H   UNL     1      -6.039  10.351  65.626  1.00  0.00     0.000 HD 
ENDBRANCH  12  23
TORSDOF 1
ENDMDL
MODEL       18
REMARK 921   NORMALIZED FREE ENERGY PREDICTED BY IDOCK:   -6.79 KCAL/MOL
REMARK 922        TOTAL FREE ENERGY PREDICTED BY IDOCK:   -7.62 KCAL/MOL
REMARK 923 INTER-LIGAND FREE ENERGY PREDICTED BY IDOCK:   -6.86 KCAL/MOL
REMARK 924 INTRA-LIGAND FREE ENERGY PREDICTED BY IDOCK:   -0.76 KCAL/MOL
REMARK 927      BINDING AFFINITY PREDICTED BY RF-SCORE:    0.00 PKD
ROOT
HETATM    1  C   UNL     1     -11.364   8.526  69.637  1.00  0.00     0.196 C  
HETATM    2  C   UNL     1     -11.466   9.634  70.777  1.00  0.00    -0.399 C  
HETATM    3  C   UNL     1     -10.506   9.108  68.513  1.00  0.00    -0.238 C  
HETATM    4  C   UNL     1     -12.218   9.266  72.063  1.00  0.00    -0.418 C  
HETATM    5  C   UNL     1     -12.185  10.884  70.289  1.00  0.00    -0.432 C  
HETATM    6  C   UNL     1      -9.080   8.751  68.885  1.00  0.00    -0.141 C  
HETATM    7  C   UNL     1      -9.099   7.643  69.976  1.00  0.00    -0.151 C  
HETATM    8  C   UNL     1     -11.690  12.131  70.389  1.00  0.00    -0.150 C  
HETATM    9  C   UNL     1     -12.511  13.381  70.096  1.00  0.00    -0.243 C  
HETATM   10  C   UNL     1      -8.013   6.591  69.683  1.00  0.00    -0.120 C  
HETATM   11  C   UNL     1     -12.664  14.299  71.354  1.00  0.00    -0.352 C  
HETATM   12  C   UNL     1      -6.784   6.803  69.144  1.00  0.00    -0.056 C  
HETATM   13  C   UNL     1     -11.906  14.089  68.881  1.00  0.00    -0.390 C  
HETATM   14  C   UNL     1      -8.448   5.183  69.997  1.00  0.00    -0.098 C  
HETATM   15  C   UNL     1     -13.181  13.519  72.574  1.00  0.00    -0.551 C  
HETATM   16  C   UNL     1     -13.631  15.460  71.080  1.00  0.00    -0.536 C  
HETATM   17  C   UNL     1     -11.229   6.564  71.250  1.00  0.00    -0.338 C  
HETATM   18  C   UNL     1      -9.784   4.806  69.341  1.00  0.00    -0.266 C  
HETATM   19  O   UNL     1     -11.400  14.859  71.735  1.00  0.00    -0.528 OA 
HETATM   20  C   UNL     1     -10.606   7.166  69.973  1.00  0.00    -0.248 C  
HETATM   21  C   UNL     1     -10.678   6.012  68.923  1.00  0.00    -0.384 C  
HETATM   22  H   UNL     1     -11.493  15.416  72.499  1.00  0.00     0.000 HD 
ENDROOT
BRANCH  12  23
HETATM   23  C   UNL     1      -6.176   8.087  68.860  1.00  0.00    -0.040 C  
HETATM   24  C   UNL     1      -5.763   8.578  67.672  1.00  0.00    -0.039 C  
HETATM   25  C   UNL     1      -6.610   8.704  65.293  1.00  0.00    -0.064 C  
HETATM   26  C   UNL     1      -5.825   7.876  66.330  1.00  0.00    -0.040 C  
HETATM   27  O   UNL     1      -8.011   8.696  65.590  1.00  0.00    -0.097 OA 
HETATM   28  C   UNL     1      -6.122  10.149  65.198  1.00  0.00    -0.120 C  
HETATM   29  C   UNL     1      -6.074  10.829  66.566  1.00  0.00    -0.103 C  
HETATM   30  H   UNL     1      -8.495   9.206  64.951  1.00  0.00     0.000 HD 
HETATM   31  C   UNL     1      -5.246  10.006  67.565  1.00  0.00    -0.038 C  
HETATM   32  O   UNL     1      -5.503  12.120  66.428  1.00  0.00    -0.473 OA 
HETATM   33  H   UNL     1      -5.472  12.543  67.278  1.00  0.00     0.000 HD 
ENDBRANCH  12  23
TORSDOF 1
ENDMDL
MODEL       19
REMARK 921   NORMALIZED FREE ENERGY PREDICTED BY IDOCK:   -6.70 KCAL/MOL
REMARK 922        TOTAL FREE ENERGY PREDICTED BY IDOCK:   -7.53 KCAL/MOL
REMARK 923 INTER-LIGAND FREE ENERGY PREDICTED BY IDOCK:   -6.85 KCAL/MOL
REMARK 924 INTRA-LIGAND FREE ENERGY PREDICTED BY IDOCK:   -0.68 KCAL/MOL
REMARK 927      BINDING AFFINITY PREDICTED BY RF-SCORE:    0.00 PKD
ROOT
HETATM    1  C   UNL     1      -8.922   6.741  67.294  1.00  0.00    -0.117 C  
HETATM    2  C   UNL     1      -8.425   6.988  68.787  1.00  0.00    -0.122 C  
HETATM    3  C   UNL     1     -10.343   7.295  67.191  1.00  0.00    -0.367 C  
HETATM    4  C   UNL     1      -6.984   6.588  69.134  1.00  0.00    -0.075 C  
HETATM    5  C   UNL     1      -9.262   6.215  69.797  1.00  0.00    -0.151 C  
HETATM    6  C   UNL     1     -10.169   8.753  66.814  1.00  0.00    -0.354 C  
HETATM    7  C   UNL     1      -8.718   8.979  66.307  1.00  0.00    -0.155 C  
HETATM    8  C   UNL     1      -9.855   6.767  70.871  1.00  0.00    -0.197 C  
HETATM    9  C   UNL     1     -10.502   5.947  71.981  1.00  0.00    -0.259 C  
HETATM   10  C   UNL     1      -8.724   9.908  65.077  1.00  0.00    -0.196 C  
HETATM   11  C   UNL     1      -9.805   6.169  73.364  1.00  0.00    -0.167 C  
HETATM   12  C   UNL     1      -9.552  10.958  64.842  1.00  0.00    -0.297 C  
HETATM   13  C   UNL     1     -12.005   6.238  71.990  1.00  0.00    -0.353 C  
HETATM   14  C   UNL     1      -7.713   9.516  64.030  1.00  0.00    -0.124 C  
HETATM   15  C   UNL     1      -8.284   5.961  73.281  1.00  0.00    -0.116 C  
HETATM   16  C   UNL     1     -10.363   5.210  74.426  1.00  0.00    -0.313 C  
HETATM   17  C   UNL     1      -6.662   7.221  66.230  1.00  0.00    -0.053 C  
HETATM   18  C   UNL     1      -7.816   8.041  63.618  1.00  0.00    -0.142 C  
HETATM   19  O   UNL     1     -10.008   7.509  73.832  1.00  0.00    -0.367 OA 
HETATM   20  C   UNL     1      -8.173   7.508  66.115  1.00  0.00    -0.125 C  
HETATM   21  C   UNL     1      -8.534   7.117  64.646  1.00  0.00     0.152 C  
HETATM   22  H   UNL     1      -9.586   7.643  74.672  1.00  0.00     0.000 HD 
ENDROOT
BRANCH  12  23
HETATM   23  C   UNL     1     -10.519  11.520  65.765  1.00  0.00    -0.308 C  
HETATM   24  C   UNL     1     -10.303  12.359  66.800  1.00  0.00    -0.239 C  
HETATM   25  C   UNL     1      -8.965  14.451  67.277  1.00  0.00    -0.212 C  
HETATM   26  C   UNL     1      -8.968  12.909  67.259  1.00  0.00    -0.208 C  
HETATM   27  O   UNL     1      -8.953  14.977  65.945  1.00  0.00    -0.471 OA 
HETATM   28  C   UNL     1     -10.154  15.035  68.039  1.00  0.00    -0.223 C  
HETATM   29  C   UNL     1     -11.485  14.463  67.552  1.00  0.00    -0.349 C  
HETATM   30  H   UNL     1      -8.952  15.926  65.956  1.00  0.00     0.000 HD 
HETATM   31  C   UNL     1     -11.475  12.927  67.589  1.00  0.00    -0.383 C  
HETATM   32  O   UNL     1     -12.534  14.950  68.373  1.00  0.00    -0.559 OA 
HETATM   33  H   UNL     1     -13.361  14.594  68.070  1.00  0.00     0.000 HD 
ENDBRANCH  12  23
TORSDOF 1
ENDMDL
MODEL       20
REMARK 921   NORMALIZED FREE ENERGY PREDICTED BY IDOCK:   -6.56 KCAL/MOL
REMARK 922        TOTAL FREE ENERGY PREDICTED BY IDOCK:   -7.38 KCAL/MOL
REMARK 923 INTER-LIGAND FREE ENERGY PREDICTED BY IDOCK:   -6.94 KCAL/MOL
REMARK 924 INTRA-LIGAND FREE ENERGY PREDICTED BY IDOCK:   -0.45 KCAL/MOL
REMARK 927      BINDING AFFINITY PREDICTED BY RF-SCORE:    0.00 PKD
ROOT
HETATM    1  C   UNL     1      -9.272   5.428  67.210  1.00  0.00    -0.111 C  
HETATM    2  C   UNL     1      -8.591   5.580  68.643  1.00  0.00    -0.103 C  
HETATM    3  C   UNL     1     -10.437   6.417  67.155  1.00  0.00    -0.342 C  
HETATM    4  C   UNL     1      -7.336   4.743  68.927  1.00  0.00    -0.057 C  
HETATM    5  C   UNL     1      -9.541   5.190  69.766  1.00  0.00    -0.242 C  
HETATM    6  C   UNL     1      -9.828   7.710  66.647  1.00  0.00    -0.283 C  
HETATM    7  C   UNL     1      -8.434   7.410  66.029  1.00  0.00    -0.152 C  
HETATM    8  C   UNL     1      -9.822   5.969  70.826  1.00  0.00    -0.221 C  
HETATM    9  C   UNL     1     -10.600   5.476  72.040  1.00  0.00    -0.284 C  
HETATM   10  C   UNL     1      -8.245   8.215  64.729  1.00  0.00    -0.137 C  
HETATM   11  C   UNL     1      -9.749   5.531  73.352  1.00  0.00    -0.151 C  
HETATM   12  C   UNL     1      -8.701   9.466  64.461  1.00  0.00    -0.233 C  
HETATM   13  C   UNL     1     -11.918   6.251  72.123  1.00  0.00    -0.338 C  
HETATM   14  C   UNL     1      -7.517   7.450  63.654  1.00  0.00    -0.104 C  
HETATM   15  C   UNL     1      -8.393   4.824  73.187  1.00  0.00    -0.100 C  
HETATM   16  C   UNL     1     -10.493   4.875  74.525  1.00  0.00    -0.291 C  
HETATM   17  C   UNL     1      -7.085   5.065  65.965  1.00  0.00    -0.072 C  
HETATM   18  C   UNL     1      -8.134   6.072  63.375  1.00  0.00    -0.084 C  
HETATM   19  O   UNL     1      -9.459   6.887  73.718  1.00  0.00    -0.168 OA 
HETATM   20  C   UNL     1      -8.422   5.833  65.925  1.00  0.00    -0.139 C  
HETATM   21  C   UNL     1      -9.020   5.501  64.521  1.00  0.00     0.168 C  
HETATM   22  H   UNL     1      -8.943   6.920  74.515  1.00  0.00     0.000 HD 
ENDROOT
BRANCH  12  23
HETATM   23  C   UNL     1      -9.343  10.370  65.396  1.00  0.00    -0.252 C  
HETATM   24  C   UNL     1      -9.909  11.570  65.150  1.00  0.00    -0.294 C  
HETATM   25  C   UNL     1     -11.450  12.607  63.434  1.00  0.00    -0.435 C  
HETATM   26  C   UNL     1      -9.992  12.278  63.813  1.00  0.00    -0.302 C  
HETATM   27  O   UNL     1     -12.165  11.419  63.079  1.00  0.00    -0.946 OA 
HETATM   28  C   UNL     1     -12.200  13.333  64.550  1.00  0.00    -0.456 C  
HETATM   29  C   UNL     1     -12.101  12.595  65.884  1.00  0.00    -0.396 C  
HETATM   30  H   UNL     1     -13.063  11.622  62.846  1.00  0.00     0.000 HD 
HETATM   31  C   UNL     1     -10.635  12.322  66.258  1.00  0.00    -0.282 C  
HETATM   32  O   UNL     1     -12.711  13.374  66.899  1.00  0.00    -0.130 OA 
HETATM   33  H   UNL     1     -12.649  12.915  67.728  1.00  0.00     0.000 HD 
ENDBRANCH  12  23
TORSDOF 1
ENDMDL
MODEL       21
REMARK 921   NORMALIZED FREE ENERGY PREDICTED BY IDOCK:   -6.42 KCAL/MOL
REMARK 922        TOTAL FREE ENERGY PREDICTED BY IDOCK:   -7.23 KCAL/MOL
REMARK 923 INTER-LIGAND FREE ENERGY PREDICTED BY IDOCK:   -6.49 KCAL/MOL
REMARK 924 INTRA-LIGAND FREE ENERGY PREDICTED BY IDOCK:   -0.75 KCAL/MOL
REMARK 927      BINDING AFFINITY PREDICTED BY RF-SCORE:    0.00 PKD
ROOT
HETATM    1  C   UNL     1     -12.071  10.630  69.535  1.00  0.00    -0.285 C  
HETATM    2  C   UNL     1     -11.585  12.145  69.612  1.00  0.00    -0.361 C  
HETATM    3  C   UNL     1     -11.078   9.880  68.647  1.00  0.00    -0.182 C  
HETATM    4  C   UNL     1     -12.376  13.102  70.514  1.00  0.00    -0.380 C  
HETATM    5  C   UNL     1     -11.626  12.824  68.250  1.00  0.00    -0.375 C  
HETATM    6  C   UNL     1      -9.990   9.405  69.591  1.00  0.00    -0.209 C  
HETATM    7  C   UNL     1     -10.505   9.507  71.054  1.00  0.00    -0.377 C  
HETATM    8  C   UNL     1     -10.587  13.472  67.694  1.00  0.00    -0.246 C  
HETATM    9  C   UNL     1     -10.711  14.325  66.438  1.00  0.00    -0.297 C  
HETATM   10  C   UNL     1     -10.074   8.265  71.857  1.00  0.00    -0.314 C  
HETATM   11  C   UNL     1     -10.357  15.827  66.703  1.00  0.00    -0.291 C  
HETATM   12  C   UNL     1      -8.915   7.566  71.735  1.00  0.00    -0.140 C  
HETATM   13  C   UNL     1      -9.881  13.679  65.325  1.00  0.00    -0.135 C  
HETATM   14  C   UNL     1     -11.125   7.788  72.826  1.00  0.00    -0.457 C  
HETATM   15  C   UNL     1     -11.145  16.401  67.892  1.00  0.00    -0.249 C  
HETATM   16  C   UNL     1     -10.652  16.692  65.469  1.00  0.00    -0.273 C  
HETATM   17  C   UNL     1     -12.846  10.524  71.955  1.00  0.00    -0.509 C  
HETATM   18  C   UNL     1     -12.498   7.583  72.171  1.00  0.00    -0.228 C  
HETATM   19  O   UNL     1      -8.968  15.976  67.024  1.00  0.00    -0.196 OA 
HETATM   20  C   UNL     1     -12.054   9.764  70.871  1.00  0.00    -0.407 C  
HETATM   21  C   UNL     1     -12.711   8.347  70.831  1.00  0.00     0.108 C  
HETATM   22  H   UNL     1      -8.753  16.887  67.184  1.00  0.00     0.000 HD 
ENDROOT
BRANCH  12  23
HETATM   23  C   UNL     1      -7.772   7.926  70.920  1.00  0.00    -0.083 C  
HETATM   24  C   UNL     1      -7.236   7.253  69.880  1.00  0.00    -0.081 C  
HETATM   25  C   UNL     1      -8.038   6.028  67.818  1.00  0.00    -0.109 C  
HETATM   26  C   UNL     1      -7.705   5.925  69.320  1.00  0.00    -0.094 C  
HETATM   27  O   UNL     1      -9.245   6.771  67.614  1.00  0.00    -0.120 OA 
HETATM   28  C   UNL     1      -6.911   6.663  67.005  1.00  0.00    -0.066 C  
HETATM   29  C   UNL     1      -6.463   8.001  67.592  1.00  0.00    -0.057 C  
HETATM   30  H   UNL     1      -9.451   6.834  66.689  1.00  0.00     0.000 HD 
HETATM   31  C   UNL     1      -6.092   7.857  69.077  1.00  0.00    -0.039 C  
HETATM   32  O   UNL     1      -5.341   8.479  66.869  1.00  0.00    -0.035 OA 
HETATM   33  H   UNL     1      -5.062   9.311  67.233  1.00  0.00     0.000 HD 
ENDBRANCH  12  23
TORSDOF 1
ENDMDL
MODEL       22
REMARK 921   NORMALIZED FREE ENERGY PREDICTED BY IDOCK:   -6.31 KCAL/MOL
REMARK 922        TOTAL FREE ENERGY PREDICTED BY IDOCK:   -7.11 KCAL/MOL
REMARK 923 INTER-LIGAND FREE ENERGY PREDICTED BY IDOCK:   -6.40 KCAL/MOL
REMARK 924 INTRA-LIGAND FREE ENERGY PREDICTED BY IDOCK:   -0.71 KCAL/MOL
REMARK 927      BINDING AFFINITY PREDICTED BY RF-SCORE:    0.00 PKD
ROOT
HETATM    1  C   UNL     1     -11.003   9.194  68.577  1.00  0.00     0.003 C  
HETATM    2  C   UNL     1     -10.527  10.679  68.249  1.00  0.00    -0.214 C  
HETATM    3  C   UNL     1     -10.778   8.357  67.318  1.00  0.00    -0.230 C  
HETATM    4  C   UNL     1     -10.577  11.711  69.384  1.00  0.00    -0.008 C  
HETATM    5  C   UNL     1     -11.371  11.314  67.153  1.00  0.00    -0.295 C  
HETATM    6  C   UNL     1      -9.354   7.848  67.435  1.00  0.00    -0.169 C  
HETATM    7  C   UNL     1      -8.867   8.028  68.900  1.00  0.00    -0.141 C  
HETATM    8  C   UNL     1     -10.868  11.881  66.040  1.00  0.00    -0.342 C  
HETATM    9  C   UNL     1     -11.709  12.698  65.068  1.00  0.00    -0.401 C  
HETATM   10  C   UNL     1      -8.072   6.788  69.351  1.00  0.00    -0.123 C  
HETATM   11  C   UNL     1     -11.225  14.183  64.969  1.00  0.00    -0.356 C  
HETATM   12  C   UNL     1      -7.248   6.018  68.595  1.00  0.00    -0.084 C  
HETATM   13  C   UNL     1     -11.748  11.968  63.723  1.00  0.00    -0.575 C  
HETATM   14  C   UNL     1      -8.326   6.407  70.787  1.00  0.00    -0.126 C  
HETATM   15  C   UNL     1     -11.107  14.842  66.353  1.00  0.00    -0.342 C  
HETATM   16  C   UNL     1     -12.185  15.025  64.116  1.00  0.00    -0.234 C  
HETATM   17  C   UNL     1     -10.143   9.214  70.971  1.00  0.00    -0.373 C  
HETATM   18  C   UNL     1      -9.819   6.265  71.115  1.00  0.00    -0.203 C  
HETATM   19  O   UNL     1      -9.924  14.259  64.370  1.00  0.00    -0.634 OA 
HETATM   20  C   UNL     1     -10.198   8.372  69.679  1.00  0.00    -0.209 C  
HETATM   21  C   UNL     1     -10.783   6.997  70.135  1.00  0.00    -0.265 C  
HETATM   22  H   UNL     1      -9.630  15.160  64.309  1.00  0.00     0.000 HD 
ENDROOT
BRANCH  12  23
HETATM   23  C   UNL     1      -6.829   6.281  67.232  1.00  0.00    -0.066 C  
HETATM   24  C   UNL     1      -7.090   5.564  66.119  1.00  0.00    -0.068 C  
HETATM   25  C   UNL     1      -9.066   4.403  65.050  1.00  0.00    -0.150 C  
HETATM   26  C   UNL     1      -7.886   4.277  66.034  1.00  0.00    -0.094 C  
HETATM   27  O   UNL     1     -10.094   5.242  65.590  1.00  0.00    -0.377 OA 
HETATM   28  C   UNL     1      -8.642   4.942  63.684  1.00  0.00    -0.124 C  
HETATM   29  C   UNL     1      -7.844   6.240  63.802  1.00  0.00    -0.111 C  
HETATM   30  H   UNL     1     -10.820   5.319  64.984  1.00  0.00     0.000 HD 
HETATM   31  C   UNL     1      -6.648   6.071  64.753  1.00  0.00    -0.038 C  
HETATM   32  O   UNL     1      -7.379   6.624  62.519  1.00  0.00    -0.054 OA 
HETATM   33  H   UNL     1      -6.883   7.431  62.593  1.00  0.00     0.000 HD 
ENDBRANCH  12  23
TORSDOF 1
ENDMDL
MODEL       23
REMARK 921   NORMALIZED FREE ENERGY PREDICTED BY IDOCK:   -6.13 KCAL/MOL
REMARK 922        TOTAL FREE ENERGY PREDICTED BY IDOCK:   -6.92 KCAL/MOL
REMARK 923 INTER-LIGAND FREE ENERGY PREDICTED BY IDOCK:   -6.18 KCAL/MOL
REMARK 924 INTRA-LIGAND FREE ENERGY PREDICTED BY IDOCK:   -0.75 KCAL/MOL
REMARK 927      BINDING AFFINITY PREDICTED BY RF-SCORE:    0.00 PKD
ROOT
HETATM    1  C   UNL     1     -11.277   9.000  69.235  1.00  0.00     0.151 C  
HETATM    2  C   UNL     1     -10.979  10.547  69.000  1.00  0.00    -0.289 C  
HETATM    3  C   UNL     1     -10.533   8.224  68.147  1.00  0.00    -0.226 C  
HETATM    4  C   UNL     1     -11.553  11.545  70.015  1.00  0.00    -0.364 C  
HETATM    5  C   UNL     1     -11.534  11.034  67.669  1.00  0.00    -0.303 C  
HETATM    6  C   UNL     1      -9.152   7.971  68.722  1.00  0.00    -0.144 C  
HETATM    7  C   UNL     1      -9.184   8.222  70.255  1.00  0.00    -0.155 C  
HETATM    8  C   UNL     1     -10.812  11.688  66.740  1.00  0.00    -0.322 C  
HETATM    9  C   UNL     1     -11.432  12.354  65.518  1.00  0.00    -0.404 C  
HETATM   10  C   UNL     1      -8.372   7.136  70.988  1.00  0.00    -0.124 C  
HETATM   11  C   UNL     1     -11.198  13.902  65.504  1.00  0.00    -0.307 C  
HETATM   12  C   UNL     1      -7.236   6.527  70.560  1.00  0.00    -0.074 C  
HETATM   13  C   UNL     1     -10.926  11.639  64.263  1.00  0.00    -0.418 C  
HETATM   14  C   UNL     1      -8.994   6.706  72.291  1.00  0.00    -0.134 C  
HETATM   15  C   UNL     1     -11.631  14.560  66.824  1.00  0.00    -0.388 C  
HETATM   16  C   UNL     1     -11.972  14.569  64.358  1.00  0.00    -0.467 C  
HETATM   17  C   UNL     1     -11.223   9.150  71.774  1.00  0.00    -0.451 C  
HETATM   18  C   UNL     1     -10.468   6.302  72.149  1.00  0.00    -0.228 C  
HETATM   19  O   UNL     1      -9.808  14.208  65.333  1.00  0.00    -0.502 OA 
HETATM   20  C   UNL     1     -10.730   8.322  70.569  1.00  0.00    -0.238 C  
HETATM   21  C   UNL     1     -11.188   6.863  70.886  1.00  0.00    -0.332 C  
HETATM   22  H   UNL     1      -9.666  15.147  65.323  1.00  0.00     0.000 HD 
ENDROOT
BRANCH  12  23
HETATM   23  C   UNL     1      -6.464   6.870  69.382  1.00  0.00    -0.044 C  
HETATM   24  C   UNL     1      -6.209   6.114  68.294  1.00  0.00    -0.032 C  
HETATM   25  C   UNL     1      -7.470   4.565  66.742  1.00  0.00    -0.082 C  
HETATM   26  C   UNL     1      -6.666   4.689  68.052  1.00  0.00    -0.054 C  
HETATM   27  O   UNL     1      -8.760   5.173  66.876  1.00  0.00    -0.109 OA 
HETATM   28  C   UNL     1      -6.745   5.180  65.545  1.00  0.00    -0.052 C  
HETATM   29  C   UNL     1      -6.300   6.616  65.818  1.00  0.00    -0.042 C  
HETATM   30  H   UNL     1      -9.255   5.097  66.069  1.00  0.00     0.000 HD 
HETATM   31  C   UNL     1      -5.462   6.700  67.104  1.00  0.00    -0.013 C  
HETATM   32  O   UNL     1      -5.533   7.086  64.722  1.00  0.00    -0.030 OA 
HETATM   33  H   UNL     1      -5.256   7.979  64.892  1.00  0.00     0.000 HD 
ENDBRANCH  12  23
TORSDOF 1
ENDMDL
MODEL       24
REMARK 921   NORMALIZED FREE ENERGY PREDICTED BY IDOCK:   -6.11 KCAL/MOL
REMARK 922        TOTAL FREE ENERGY PREDICTED BY IDOCK:   -6.91 KCAL/MOL
REMARK 923 INTER-LIGAND FREE ENERGY PREDICTED BY IDOCK:   -6.35 KCAL/MOL
REMARK 924 INTRA-LIGAND FREE ENERGY PREDICTED BY IDOCK:   -0.56 KCAL/MOL
REMARK 927      BINDING AFFINITY PREDICTED BY RF-SCORE:    0.00 PKD
ROOT
HETATM    1  C   UNL     1      -9.937  10.390  69.700  1.00  0.00    -0.209 C  
HETATM    2  C   UNL     1     -10.672   9.070  70.204  1.00  0.00    -0.258 C  
HETATM    3  C   UNL     1      -8.722   9.950  68.884  1.00  0.00    -0.140 C  
HETATM    4  C   UNL     1     -11.980   9.237  70.990  1.00  0.00    -0.369 C  
HETATM    5  C   UNL     1      -9.794   8.256  71.144  1.00  0.00    -0.219 C  
HETATM    6  C   UNL     1      -9.239   9.787  67.468  1.00  0.00    -0.145 C  
HETATM    7  C   UNL     1     -10.619  10.493  67.345  1.00  0.00    -0.313 C  
HETATM    8  C   UNL     1      -9.519   6.949  70.985  1.00  0.00    -0.163 C  
HETATM    9  C   UNL     1      -8.822   6.107  72.046  1.00  0.00    -0.139 C  
HETATM   10  C   UNL     1     -10.709  11.252  66.007  1.00  0.00    -0.301 C  
HETATM   11  C   UNL     1      -9.726   4.940  72.567  1.00  0.00    -0.150 C  
HETATM   12  C   UNL     1     -10.177  10.883  64.813  1.00  0.00    -0.398 C  
HETATM   13  C   UNL     1      -7.471   5.646  71.494  1.00  0.00    -0.096 C  
HETATM   14  C   UNL     1     -11.428  12.572  66.118  1.00  0.00    -0.426 C  
HETATM   15  C   UNL     1     -11.108   5.442  73.018  1.00  0.00    -0.368 C  
HETATM   16  C   UNL     1      -9.069   4.214  73.749  1.00  0.00    -0.094 C  
HETATM   17  C   UNL     1     -12.084  11.688  69.280  1.00  0.00    -0.323 C  
HETATM   18  C   UNL     1     -10.871  13.467  67.234  1.00  0.00    -0.285 C  
HETATM   19  O   UNL     1      -9.962   3.975  71.533  1.00  0.00    -0.183 OA 
HETATM   20  C   UNL     1     -10.708  11.338  68.678  1.00  0.00    -0.241 C  
HETATM   21  C   UNL     1     -10.067  12.721  68.340  1.00  0.00    -0.226 C  
HETATM   22  H   UNL     1     -10.510   3.267  71.849  1.00  0.00     0.000 HD 
ENDROOT
BRANCH  12  23
HETATM   23  C   UNL     1      -9.531   9.621  64.508  1.00  0.00    -0.182 C  
HETATM   24  C   UNL     1      -8.474   9.392  63.701  1.00  0.00    -0.203 C  
HETATM   25  C   UNL     1      -6.206  10.410  63.237  1.00  0.00    -0.107 C  
HETATM   26  C   UNL     1      -7.709  10.421  62.893  1.00  0.00    -0.134 C  
HETATM   27  O   UNL     1      -5.977  10.963  64.537  1.00  0.00    -0.374 OA 
HETATM   28  C   UNL     1      -5.595   9.011  63.169  1.00  0.00    -0.069 C  
HETATM   29  C   UNL     1      -6.386   7.998  63.995  1.00  0.00    -0.062 C  
HETATM   30  H   UNL     1      -5.052  10.957  64.750  1.00  0.00     0.000 HD 
HETATM   31  C   UNL     1      -7.871   7.998  63.598  1.00  0.00    -0.142 C  
HETATM   32  O   UNL     1      -5.843   6.703  63.797  1.00  0.00    -0.030 OA 
HETATM   33  H   UNL     1      -6.334   6.073  64.310  1.00  0.00     0.000 HD 
ENDBRANCH  12  23
TORSDOF 1
ENDMDL
MODEL       25
REMARK 921   NORMALIZED FREE ENERGY PREDICTED BY IDOCK:   -6.01 KCAL/MOL
REMARK 922        TOTAL FREE ENERGY PREDICTED BY IDOCK:   -6.80 KCAL/MOL
REMARK 923 INTER-LIGAND FREE ENERGY PREDICTED BY IDOCK:   -6.13 KCAL/MOL
REMARK 924 INTRA-LIGAND FREE ENERGY PREDICTED BY IDOCK:   -0.67 KCAL/MOL
REMARK 927      BINDING AFFINITY PREDICTED BY RF-SCORE:    0.00 PKD
ROOT
HETATM    1  C   UNL     1      -8.354  11.451  66.134  1.00  0.00    -0.071 C  
HETATM    2  C   UNL     1      -9.510  12.427  66.633  1.00  0.00    -0.232 C  
HETATM    3  C   UNL     1      -7.383  11.264  67.300  1.00  0.00    -0.122 C  
HETATM    4  C   UNL     1     -10.665  12.718  65.666  1.00  0.00    -0.297 C  
HETATM    5  C   UNL     1      -8.974  13.811  66.974  1.00  0.00    -0.247 C  
HETATM    6  C   UNL     1      -7.935  10.089  68.084  1.00  0.00    -0.100 C  
HETATM    7  C   UNL     1      -8.971   9.331  67.207  1.00  0.00    -0.136 C  
HETATM    8  C   UNL     1      -9.187  14.440  68.145  1.00  0.00    -0.199 C  
HETATM    9  C   UNL     1      -8.830  15.901  68.383  1.00  0.00    -0.184 C  
HETATM   10  C   UNL     1      -8.792   7.810  67.370  1.00  0.00    -0.128 C  
HETATM   11  C   UNL     1     -10.088  16.774  68.706  1.00  0.00    -0.286 C  
HETATM   12  C   UNL     1      -8.437   7.137  68.496  1.00  0.00    -0.125 C  
HETATM   13  C   UNL     1      -7.738  15.968  69.454  1.00  0.00    -0.173 C  
HETATM   14  C   UNL     1      -8.990   7.046  66.086  1.00  0.00    -0.162 C  
HETATM   15  C   UNL     1     -11.195  16.597  67.653  1.00  0.00    -0.007 C  
HETATM   16  C   UNL     1      -9.726  18.265  68.775  1.00  0.00    -0.348 C  
HETATM   17  C   UNL     1      -9.897   9.978  64.748  1.00  0.00    -0.325 C  
HETATM   18  C   UNL     1      -8.142   7.588  64.927  1.00  0.00    -0.121 C  
HETATM   19  O   UNL     1     -10.661  16.401  69.966  1.00  0.00    -0.319 OA 
HETATM   20  C   UNL     1      -8.742   9.949  65.770  1.00  0.00    -0.157 C  
HETATM   21  C   UNL     1      -7.650   9.056  65.100  1.00  0.00    -0.098 C  
HETATM   22  H   UNL     1     -11.424  16.931  70.162  1.00  0.00     0.000 HD 
ENDROOT
BRANCH  12  23
HETATM   23  C   UNL     1      -8.288   7.697  69.825  1.00  0.00    -0.133 C  
HETATM   24  C   UNL     1      -9.235   7.891  70.767  1.00  0.00    -0.159 C  
HETATM   25  C   UNL     1     -11.184   6.625  71.762  1.00  0.00    -0.260 C  
HETATM   26  C   UNL     1     -10.713   7.578  70.645  1.00  0.00    -0.239 C  
HETATM   27  O   UNL     1     -10.679   5.302  71.550  1.00  0.00    -0.221 OA 
HETATM   28  C   UNL     1     -10.779   7.102  73.156  1.00  0.00    -0.385 C  
HETATM   29  C   UNL     1      -9.285   7.407  73.247  1.00  0.00    -0.186 C  
HETATM   30  H   UNL     1     -10.969   4.715  72.238  1.00  0.00     0.000 HD 
HETATM   31  C   UNL     1      -8.853   8.395  72.152  1.00  0.00    -0.285 C  
HETATM   32  O   UNL     1      -8.994   7.956  74.521  1.00  0.00    -0.420 OA 
HETATM   33  H   UNL     1      -8.065   8.146  74.578  1.00  0.00     0.000 HD 
ENDBRANCH  12  23
TORSDOF 1
ENDMDL
MODEL       26
REMARK 921   NORMALIZED FREE ENERGY PREDICTED BY IDOCK:   -5.93 KCAL/MOL
REMARK 922        TOTAL FREE ENERGY PREDICTED BY IDOCK:   -6.72 KCAL/MOL
REMARK 923 INTER-LIGAND FREE ENERGY PREDICTED BY IDOCK:   -5.98 KCAL/MOL
REMARK 924 INTRA-LIGAND FREE ENERGY PREDICTED BY IDOCK:   -0.74 KCAL/MOL
REMARK 927      BINDING AFFINITY PREDICTED BY RF-SCORE:    0.00 PKD
ROOT
HETATM    1  C   UNL     1     -11.025   8.502  68.103  1.00  0.00     0.126 C  
HETATM    2  C   UNL     1     -10.841   9.677  69.163  1.00  0.00    -0.212 C  
HETATM    3  C   UNL     1     -10.259   8.905  66.843  1.00  0.00    -0.347 C  
HETATM    4  C   UNL     1     -11.455   9.482  70.556  1.00  0.00    -0.337 C  
HETATM    5  C   UNL     1     -11.463  10.979  68.679  1.00  0.00    -0.375 C  
HETATM    6  C   UNL     1      -8.849   8.389  67.060  1.00  0.00    -0.146 C  
HETATM    7  C   UNL     1      -8.857   7.357  68.222  1.00  0.00    -0.128 C  
HETATM    8  C   UNL     1     -10.813  12.156  68.625  1.00  0.00    -0.268 C  
HETATM    9  C   UNL     1     -11.510  13.482  68.346  1.00  0.00    -0.346 C  
HETATM   10  C   UNL     1      -7.953   6.158  67.875  1.00  0.00    -0.110 C  
HETATM   11  C   UNL     1     -11.384  14.482  69.543  1.00  0.00    -0.275 C  
HETATM   12  C   UNL     1      -6.790   6.180  67.174  1.00  0.00    -0.063 C  
HETATM   13  C   UNL     1     -10.990  14.037  67.017  1.00  0.00    -0.302 C  
HETATM   14  C   UNL     1      -8.509   4.838  68.342  1.00  0.00    -0.096 C  
HETATM   15  C   UNL     1     -11.825  13.846  70.872  1.00  0.00    -0.204 C  
HETATM   16  C   UNL     1     -12.232  15.740  69.308  1.00  0.00    -0.120 C  
HETATM   17  C   UNL     1     -10.914   6.634  69.825  1.00  0.00    -0.367 C  
HETATM   18  C   UNL     1      -9.955   4.600  67.885  1.00  0.00    -0.138 C  
HETATM   19  O   UNL     1     -10.023  14.896  69.723  1.00  0.00    -0.422 OA 
HETATM   20  C   UNL     1     -10.397   7.078  68.441  1.00  0.00    -0.216 C  
HETATM   21  C   UNL     1     -10.745   5.884  67.495  1.00  0.00    -0.359 C  
HETATM   22  H   UNL     1      -9.946  15.503  70.449  1.00  0.00     0.000 HD 
ENDROOT
BRANCH  12  23
HETATM   23  C   UNL     1      -6.074   7.358  66.723  1.00  0.00    -0.043 C  
HETATM   24  C   UNL     1      -5.809   7.748  65.459  1.00  0.00    -0.038 C  
HETATM   25  C   UNL     1      -7.024   7.914  63.248  1.00  0.00    -0.080 C  
HETATM   26  C   UNL     1      -6.190   7.019  64.186  1.00  0.00    -0.036 C  
HETATM   27  O   UNL     1      -8.343   8.112  63.771  1.00  0.00    -0.349 OA 
HETATM   28  C   UNL     1      -6.373   9.274  62.995  1.00  0.00    -0.090 C  
HETATM   29  C   UNL     1      -6.003   9.984  64.296  1.00  0.00    -0.130 C  
HETATM   30  H   UNL     1      -8.857   8.663  63.193  1.00  0.00     0.000 HD 
HETATM   31  C   UNL     1      -5.133   9.085  65.190  1.00  0.00    -0.037 C  
HETATM   32  O   UNL     1      -5.299  11.177  63.997  1.00  0.00    -0.468 OA 
HETATM   33  H   UNL     1      -5.069  11.619  64.806  1.00  0.00     0.000 HD 
ENDBRANCH  12  23
TORSDOF 1
ENDMDL
MODEL       27
REMARK 921   NORMALIZED FREE ENERGY PREDICTED BY IDOCK:   -5.93 KCAL/MOL
REMARK 922        TOTAL FREE ENERGY PREDICTED BY IDOCK:   -6.71 KCAL/MOL
REMARK 923 INTER-LIGAND FREE ENERGY PREDICTED BY IDOCK:   -6.11 KCAL/MOL
REMARK 924 INTRA-LIGAND FREE ENERGY PREDICTED BY IDOCK:   -0.60 KCAL/MOL
REMARK 927      BINDING AFFINITY PREDICTED BY RF-SCORE:    0.00 PKD
ROOT
HETATM    1  C   UNL     1     -10.877   8.342  68.230  1.00  0.00     0.024 C  
HETATM    2  C   UNL     1     -10.544   9.901  68.236  1.00  0.00    -0.269 C  
HETATM    3  C   UNL     1     -10.281   7.757  66.949  1.00  0.00    -0.373 C  
HETATM    4  C   UNL     1     -10.970  10.715  69.465  1.00  0.00    -0.321 C  
HETATM    5  C   UNL     1     -11.213  10.627  67.078  1.00  0.00    -0.117 C  
HETATM    6  C   UNL     1      -8.860   7.376  67.317  1.00  0.00    -0.124 C  
HETATM    7  C   UNL     1      -8.722   7.353  68.865  1.00  0.00    -0.132 C  
HETATM    8  C   UNL     1     -10.566  11.420  66.204  1.00  0.00    -0.316 C  
HETATM    9  C   UNL     1     -11.282  12.305  65.191  1.00  0.00    -0.369 C  
HETATM   10  C   UNL     1      -7.883   6.138  69.305  1.00  0.00    -0.104 C  
HETATM   11  C   UNL     1     -10.990  13.825  65.420  1.00  0.00    -0.309 C  
HETATM   12  C   UNL     1      -6.823   5.591  68.656  1.00  0.00    -0.059 C  
HETATM   13  C   UNL     1     -10.938  11.812  63.783  1.00  0.00    -0.500 C  
HETATM   14  C   UNL     1      -8.383   5.496  70.573  1.00  0.00    -0.116 C  
HETATM   15  C   UNL     1     -11.257  14.248  66.874  1.00  0.00    -0.333 C  
HETATM   16  C   UNL     1     -11.851  14.701  64.499  1.00  0.00    -0.442 C  
HETATM   17  C   UNL     1     -10.554   8.040  70.734  1.00  0.00    -0.228 C  
HETATM   18  C   UNL     1      -9.879   5.155  70.525  1.00  0.00    -0.285 C  
HETATM   19  O   UNL     1      -9.614  14.127  65.155  1.00  0.00    -0.542 OA 
HETATM   20  C   UNL     1     -10.222   7.428  69.358  1.00  0.00    -0.201 C  
HETATM   21  C   UNL     1     -10.703   5.946  69.464  1.00  0.00    -0.414 C  
HETATM   22  H   UNL     1      -9.436  15.050  65.293  1.00  0.00     0.000 HD 
ENDROOT
BRANCH  12  23
HETATM   23  C   UNL     1      -6.163   6.121  67.479  1.00  0.00    -0.032 C  
HETATM   24  C   UNL     1      -6.130   5.607  66.231  1.00  0.00    -0.033 C  
HETATM   25  C   UNL     1      -7.739   4.561  64.585  1.00  0.00    -0.081 C  
HETATM   26  C   UNL     1      -6.775   4.318  65.763  1.00  0.00    -0.052 C  
HETATM   27  O   UNL     1      -8.925   5.231  65.026  1.00  0.00    -0.238 OA 
HETATM   28  C   UNL     1      -7.098   5.362  63.452  1.00  0.00    -0.047 C  
HETATM   29  C   UNL     1      -6.460   6.657  63.955  1.00  0.00    -0.037 C  
HETATM   30  H   UNL     1      -9.518   5.381  64.301  1.00  0.00     0.000 HD 
HETATM   31  C   UNL     1      -5.469   6.378  65.097  1.00  0.00    -0.018 C  
HETATM   32  O   UNL     1      -5.781   7.292  62.885  1.00  0.00    -0.043 OA 
HETATM   33  H   UNL     1      -5.385   8.097  63.197  1.00  0.00     0.000 HD 
ENDBRANCH  12  23
TORSDOF 1
ENDMDL
MODEL       28
REMARK 921   NORMALIZED FREE ENERGY PREDICTED BY IDOCK:   -5.92 KCAL/MOL
REMARK 922        TOTAL FREE ENERGY PREDICTED BY IDOCK:   -6.70 KCAL/MOL
REMARK 923 INTER-LIGAND FREE ENERGY PREDICTED BY IDOCK:   -6.19 KCAL/MOL
REMARK 924 INTRA-LIGAND FREE ENERGY PREDICTED BY IDOCK:   -0.51 KCAL/MOL
REMARK 927      BINDING AFFINITY PREDICTED BY RF-SCORE:    0.00 PKD
ROOT
HETATM    1  C   UNL     1      -7.850   9.237  66.148  1.00  0.00    -0.099 C  
HETATM    2  C   UNL     1      -8.994  10.178  65.562  1.00  0.00    -0.202 C  
HETATM    3  C   UNL     1      -8.061   9.154  67.660  1.00  0.00    -0.104 C  
HETATM    4  C   UNL     1      -9.053  10.364  64.039  1.00  0.00    -0.271 C  
HETATM    5  C   UNL     1      -8.884  11.600  66.091  1.00  0.00    -0.139 C  
HETATM    6  C   UNL     1      -9.016   7.992  67.858  1.00  0.00    -0.129 C  
HETATM    7  C   UNL     1      -9.063   7.143  66.557  1.00  0.00    -0.182 C  
HETATM    8  C   UNL     1      -9.893  12.273  66.674  1.00  0.00    -0.230 C  
HETATM    9  C   UNL     1      -9.827  13.760  66.998  1.00  0.00    -0.251 C  
HETATM   10  C   UNL     1      -9.067   5.641  66.903  1.00  0.00    -0.116 C  
HETATM   11  C   UNL     1     -10.909  14.584  66.224  1.00  0.00    -0.317 C  
HETATM   12  C   UNL     1      -9.664   5.042  67.966  1.00  0.00    -0.197 C  
HETATM   13  C   UNL     1      -9.887  13.932  68.518  1.00  0.00    -0.214 C  
HETATM   14  C   UNL     1      -8.251   4.808  65.949  1.00  0.00    -0.112 C  
HETATM   15  C   UNL     1     -10.874  14.302  64.713  1.00  0.00    -0.420 C  
HETATM   16  C   UNL     1     -10.715  16.093  66.435  1.00  0.00    -0.211 C  
HETATM   17  C   UNL     1      -7.862   7.625  64.181  1.00  0.00    -0.133 C  
HETATM   18  C   UNL     1      -6.821   5.337  65.762  1.00  0.00    -0.064 C  
HETATM   19  O   UNL     1     -12.229  14.244  66.670  1.00  0.00    -0.449 OA 
HETATM   20  C   UNL     1      -7.844   7.702  65.721  1.00  0.00    -0.106 C  
HETATM   21  C   UNL     1      -6.615   6.833  66.140  1.00  0.00    -0.051 C  
HETATM   22  H   UNL     1     -12.885  14.744  66.201  1.00  0.00     0.000 HD 
ENDROOT
BRANCH  12  23
HETATM   23  C   UNL     1     -10.547   5.671  68.928  1.00  0.00    -0.303 C  
HETATM   24  C   UNL     1     -10.762   5.334  70.217  1.00  0.00    -0.221 C  
HETATM   25  C   UNL     1      -9.400   4.664  72.240  1.00  0.00    -0.128 C  
HETATM   26  C   UNL     1     -10.131   4.181  70.971  1.00  0.00    -0.130 C  
HETATM   27  O   UNL     1      -8.199   5.366  71.900  1.00  0.00    -0.115 OA 
HETATM   28  C   UNL     1     -10.274   5.557  73.120  1.00  0.00    -0.213 C  
HETATM   29  C   UNL     1     -10.894   6.711  72.333  1.00  0.00    -0.235 C  
HETATM   30  H   UNL     1      -7.749   5.665  72.681  1.00  0.00     0.000 HD 
HETATM   31  C   UNL     1     -11.655   6.194  71.101  1.00  0.00    -0.269 C  
HETATM   32  O   UNL     1     -11.783   7.428  73.172  1.00  0.00    -0.582 OA 
HETATM   33  H   UNL     1     -12.168   8.145  72.683  1.00  0.00     0.000 HD 
ENDBRANCH  12  23
TORSDOF 1
ENDMDL
MODEL       29
REMARK 921   NORMALIZED FREE ENERGY PREDICTED BY IDOCK:   -5.84 KCAL/MOL
REMARK 922        TOTAL FREE ENERGY PREDICTED BY IDOCK:   -6.61 KCAL/MOL
REMARK 923 INTER-LIGAND FREE ENERGY PREDICTED BY IDOCK:   -5.93 KCAL/MOL
REMARK 924 INTRA-LIGAND FREE ENERGY PREDICTED BY IDOCK:   -0.68 KCAL/MOL
REMARK 927      BINDING AFFINITY PREDICTED BY RF-SCORE:    0.00 PKD
ROOT
HETATM    1  C   UNL     1      -6.395   8.674  67.640  1.00  0.00    -0.053 C  
HETATM    2  C   UNL     1      -7.615   7.649  67.673  1.00  0.00    -0.109 C  
HETATM    3  C   UNL     1      -6.414   9.357  66.272  1.00  0.00    -0.070 C  
HETATM    4  C   UNL     1      -7.867   6.883  68.978  1.00  0.00    -0.111 C  
HETATM    5  C   UNL     1      -7.455   6.546  66.637  1.00  0.00    -0.079 C  
HETATM    6  C   UNL     1      -7.322  10.559  66.448  1.00  0.00    -0.129 C  
HETATM    7  C   UNL     1      -7.524  10.829  67.965  1.00  0.00    -0.090 C  
HETATM    8  C   UNL     1      -8.390   6.219  65.726  1.00  0.00    -0.145 C  
HETATM    9  C   UNL     1      -8.301   4.978  64.847  1.00  0.00    -0.142 C  
HETATM   10  C   UNL     1      -7.467  12.343  68.247  1.00  0.00    -0.124 C  
HETATM   11  C   UNL     1      -9.481   3.983  65.104  1.00  0.00    -0.172 C  
HETATM   12  C   UNL     1      -7.918  13.347  67.451  1.00  0.00    -0.170 C  
HETATM   13  C   UNL     1      -8.170   5.421  63.387  1.00  0.00    -0.117 C  
HETATM   14  C   UNL     1      -6.768  12.683  69.538  1.00  0.00     0.027 C  
HETATM   15  C   UNL     1      -9.633   3.645  66.597  1.00  0.00    -0.168 C  
HETATM   16  C   UNL     1      -9.279   2.670  64.333  1.00  0.00    -0.128 C  
HETATM   17  C   UNL     1      -6.637   9.380  70.071  1.00  0.00    -0.059 C  
HETATM   18  C   UNL     1      -5.380  12.038  69.657  1.00  0.00    -0.073 C  
HETATM   19  O   UNL     1     -10.730   4.551  64.686  1.00  0.00    -0.491 OA 
HETATM   20  C   UNL     1      -6.426   9.914  68.640  1.00  0.00    -0.046 C  
HETATM   21  C   UNL     1      -5.145  10.801  68.740  1.00  0.00    -0.041 C  
HETATM   22  H   UNL     1     -11.446   3.947  64.842  1.00  0.00     0.000 HD 
ENDROOT
BRANCH  12  23
HETATM   23  C   UNL     1      -8.680  13.202  66.226  1.00  0.00     0.321 C  
HETATM   24  C   UNL     1     -10.009  13.023  66.079  1.00  0.00    -0.277 C  
HETATM   25  C   UNL     1     -12.152  13.966  67.036  1.00  0.00    -0.415 C  
HETATM   26  C   UNL     1     -11.038  12.911  67.187  1.00  0.00    -0.309 C  
HETATM   27  O   UNL     1     -11.660  15.275  67.347  1.00  0.00    -0.303 OA 
HETATM   28  C   UNL     1     -12.768  13.979  65.637  1.00  0.00    -0.515 C  
HETATM   29  C   UNL     1     -11.707  14.095  64.543  1.00  0.00    -0.413 C  
HETATM   30  H   UNL     1     -12.345  15.925  67.254  1.00  0.00     0.000 HD 
HETATM   31  C   UNL     1     -10.636  13.002  64.692  1.00  0.00    -0.397 C  
HETATM   32  O   UNL     1     -12.327  13.981  63.273  1.00  0.00    -1.133 OA 
HETATM   33  H   UNL     1     -11.668  14.053  62.593  1.00  0.00     0.000 HD 
ENDBRANCH  12  23
TORSDOF 1
ENDMDL
MODEL       30
REMARK 921   NORMALIZED FREE ENERGY PREDICTED BY IDOCK:   -5.78 KCAL/MOL
REMARK 922        TOTAL FREE ENERGY PREDICTED BY IDOCK:   -6.55 KCAL/MOL
REMARK 923 INTER-LIGAND FREE ENERGY PREDICTED BY IDOCK:   -5.79 KCAL/MOL
REMARK 924 INTRA-LIGAND FREE ENERGY PREDICTED BY IDOCK:   -0.77 KCAL/MOL
REMARK 927      BINDING AFFINITY PREDICTED BY RF-SCORE:    0.00 PKD
ROOT
HETATM    1  C   UNL     1     -10.027  10.051  69.953  1.00  0.00    -0.280 C  
HETATM    2  C   UNL     1     -10.782   8.714  70.378  1.00  0.00    -0.248 C  
HETATM    3  C   UNL     1      -8.779   9.639  69.172  1.00  0.00    -0.151 C  
HETATM    4  C   UNL     1     -12.121   8.855  71.115  1.00  0.00    -0.326 C  
HETATM    5  C   UNL     1      -9.943   7.865  71.322  1.00  0.00    -0.206 C  
HETATM    6  C   UNL     1      -9.239   9.529  67.730  1.00  0.00    -0.136 C  
HETATM    7  C   UNL     1     -10.612  10.242  67.577  1.00  0.00    -0.320 C  
HETATM    8  C   UNL     1      -9.663   6.564  71.126  1.00  0.00    -0.188 C  
HETATM    9  C   UNL     1      -9.010   5.682  72.183  1.00  0.00    -0.140 C  
HETATM   10  C   UNL     1     -10.647  11.050  66.266  1.00  0.00    -0.295 C  
HETATM   11  C   UNL     1      -9.935   4.499  72.623  1.00  0.00    -0.165 C  
HETATM   12  C   UNL     1     -10.068  10.724  65.081  1.00  0.00    -0.363 C  
HETATM   13  C   UNL     1      -7.637   5.239  71.669  1.00  0.00    -0.103 C  
HETATM   14  C   UNL     1     -11.369  12.366  66.397  1.00  0.00    -0.392 C  
HETATM   15  C   UNL     1     -11.334   4.986  73.036  1.00  0.00    -0.374 C  
HETATM   16  C   UNL     1      -9.327   3.728  73.803  1.00  0.00    -0.110 C  
HETATM   17  C   UNL     1     -12.154  11.368  69.495  1.00  0.00    -0.370 C  
HETATM   18  C   UNL     1     -10.858  13.219  67.567  1.00  0.00    -0.276 C  
HETATM   19  O   UNL     1     -10.129   3.573  71.545  1.00  0.00    -0.142 OA 
HETATM   20  C   UNL     1     -10.755  11.037  68.936  1.00  0.00    -0.249 C  
HETATM   21  C   UNL     1     -10.099  12.431  68.676  1.00  0.00    -0.143 C  
HETATM   22  H   UNL     1     -10.690   2.855  71.812  1.00  0.00     0.000 HD 
ENDROOT
BRANCH  12  23
HETATM   23  C   UNL     1      -9.410   9.474  64.757  1.00  0.00    -0.235 C  
HETATM   24  C   UNL     1      -8.132   9.270  64.375  1.00  0.00    -0.142 C  
HETATM   25  C   UNL     1      -5.822  10.054  65.041  1.00  0.00    -0.105 C  
HETATM   26  C   UNL     1      -7.066  10.329  64.173  1.00  0.00    -0.053 C  
HETATM   27  O   UNL     1      -6.099  10.306  66.423  1.00  0.00    -0.064 OA 
HETATM   28  C   UNL     1      -5.296   8.627  64.885  1.00  0.00    -0.039 C  
HETATM   29  C   UNL     1      -6.392   7.584  65.096  1.00  0.00    -0.038 C  
HETATM   30  H   UNL     1      -5.333  10.136  66.958  1.00  0.00     0.000 HD 
HETATM   31  C   UNL     1      -7.599   7.857  64.184  1.00  0.00    -0.112 C  
HETATM   32  O   UNL     1      -5.873   6.294  64.820  1.00  0.00    -0.021 OA 
HETATM   33  H   UNL     1      -6.554   5.646  64.952  1.00  0.00     0.000 HD 
ENDBRANCH  12  23
TORSDOF 1
ENDMDL
MODEL       31
REMARK 921   NORMALIZED FREE ENERGY PREDICTED BY IDOCK:   -5.78 KCAL/MOL
REMARK 922        TOTAL FREE ENERGY PREDICTED BY IDOCK:   -6.55 KCAL/MOL
REMARK 923 INTER-LIGAND FREE ENERGY PREDICTED BY IDOCK:   -5.84 KCAL/MOL
REMARK 924 INTRA-LIGAND FREE ENERGY PREDICTED BY IDOCK:   -0.71 KCAL/MOL
REMARK 927      BINDING AFFINITY PREDICTED BY RF-SCORE:    0.00 PKD
ROOT
HETATM    1  C   UNL     1     -11.374   8.182  69.954  1.00  0.00     0.062 C  
HETATM    2  C   UNL     1     -10.957   9.703  69.725  1.00  0.00    -0.266 C  
HETATM    3  C   UNL     1     -10.520   7.332  69.013  1.00  0.00    -0.219 C  
HETATM    4  C   UNL     1     -11.621  10.765  70.613  1.00  0.00    -0.388 C  
HETATM    5  C   UNL     1     -11.276  10.171  68.312  1.00  0.00    -0.246 C  
HETATM    6  C   UNL     1      -9.258   7.027  69.798  1.00  0.00    -0.147 C  
HETATM    7  C   UNL     1      -9.507   7.333  71.302  1.00  0.00    -0.156 C  
HETATM    8  C   UNL     1     -10.386  10.754  67.488  1.00  0.00    -0.244 C  
HETATM    9  C   UNL     1     -10.776  11.408  66.168  1.00  0.00    -0.320 C  
HETATM   10  C   UNL     1      -8.878   6.234  72.178  1.00  0.00    -0.137 C  
HETATM   11  C   UNL     1     -10.455  12.940  66.148  1.00  0.00    -0.269 C  
HETATM   12  C   UNL     1      -7.726   5.552  71.945  1.00  0.00    -0.104 C  
HETATM   13  C   UNL     1     -10.128  10.624  65.024  1.00  0.00    -0.388 C  
HETATM   14  C   UNL     1      -9.713   5.881  73.382  1.00  0.00    -0.158 C  
HETATM   15  C   UNL     1     -11.045  13.666  67.369  1.00  0.00    -0.299 C  
HETATM   16  C   UNL     1     -11.009  13.606  64.880  1.00  0.00    -0.372 C  
HETATM   17  C   UNL     1     -11.695   8.418  72.465  1.00  0.00    -0.429 C  
HETATM   18  C   UNL     1     -11.169   5.550  73.028  1.00  0.00    -0.346 C  
HETATM   19  O   UNL     1      -9.040  13.167  66.183  1.00  0.00    -0.456 OA 
HETATM   20  C   UNL     1     -11.074   7.524  71.373  1.00  0.00    -0.262 C  
HETATM   21  C   UNL     1     -11.656   6.103  71.655  1.00  0.00    -0.317 C  
HETATM   22  H   UNL     1      -8.846  14.097  66.170  1.00  0.00     0.000 HD 
ENDROOT
BRANCH  12  23
HETATM   23  C   UNL     1      -6.766   5.813  70.890  1.00  0.00    -0.052 C  
HETATM   24  C   UNL     1      -6.421   5.021  69.853  1.00  0.00    -0.035 C  
HETATM   25  C   UNL     1      -7.569   3.558  68.140  1.00  0.00    -0.061 C  
HETATM   26  C   UNL     1      -6.955   3.635  69.552  1.00  0.00    -0.042 C  
HETATM   27  O   UNL     1      -8.811   4.270  68.084  1.00  0.00    -0.099 OA 
HETATM   28  C   UNL     1      -6.632   4.093  67.058  1.00  0.00    -0.046 C  
HETATM   29  C   UNL     1      -6.113   5.491  67.388  1.00  0.00    -0.030 C  
HETATM   30  H   UNL     1      -9.189   4.222  67.215  1.00  0.00     0.000 HD 
HETATM   31  C   UNL     1      -5.465   5.527  68.782  1.00  0.00    -0.007 C  
HETATM   32  O   UNL     1      -5.160   5.881  66.413  1.00  0.00    -0.005 OA 
HETATM   33  H   UNL     1      -4.837   6.751  66.619  1.00  0.00     0.000 HD 
ENDBRANCH  12  23
TORSDOF 1
ENDMDL
MODEL       32
REMARK 921   NORMALIZED FREE ENERGY PREDICTED BY IDOCK:   -5.73 KCAL/MOL
REMARK 922        TOTAL FREE ENERGY PREDICTED BY IDOCK:   -6.50 KCAL/MOL
REMARK 923 INTER-LIGAND FREE ENERGY PREDICTED BY IDOCK:   -5.81 KCAL/MOL
REMARK 924 INTRA-LIGAND FREE ENERGY PREDICTED BY IDOCK:   -0.68 KCAL/MOL
REMARK 927      BINDING AFFINITY PREDICTED BY RF-SCORE:    0.00 PKD
ROOT
HETATM    1  C   UNL     1     -10.007  12.093  67.825  1.00  0.00    -0.198 C  
HETATM    2  C   UNL     1      -9.733  11.903  66.267  1.00  0.00    -0.247 C  
HETATM    3  C   UNL     1      -8.723  12.641  68.448  1.00  0.00    -0.118 C  
HETATM    4  C   UNL     1     -10.901  11.432  65.389  1.00  0.00    -0.292 C  
HETATM    5  C   UNL     1      -8.650  10.867  66.004  1.00  0.00    -0.179 C  
HETATM    6  C   UNL     1      -8.838  14.148  68.320  1.00  0.00    -0.187 C  
HETATM    7  C   UNL     1     -10.313  14.522  68.003  1.00  0.00    -0.229 C  
HETATM    8  C   UNL     1      -7.562  11.082  65.242  1.00  0.00     0.308 C  
HETATM    9  C   UNL     1      -6.608   9.973  64.817  1.00  0.00    -0.127 C  
HETATM   10  C   UNL     1     -10.732  15.764  68.812  1.00  0.00    -0.253 C  
HETATM   11  C   UNL     1      -6.563   9.793  63.263  1.00  0.00    -0.118 C  
HETATM   12  C   UNL     1      -9.959  16.831  69.142  1.00  0.00    -0.252 C  
HETATM   13  C   UNL     1      -5.239  10.237  65.450  1.00  0.00    -0.080 C  
HETATM   14  C   UNL     1     -12.151  15.698  69.314  1.00  0.00    -0.263 C  
HETATM   15  C   UNL     1      -7.969   9.630  62.663  1.00  0.00    -0.128 C  
HETATM   16  C   UNL     1      -5.729   8.565  62.870  1.00  0.00    -0.074 C  
HETATM   17  C   UNL     1     -12.409  12.876  67.531  1.00  0.00     0.177 C  
HETATM   18  C   UNL     1     -12.459  14.402  70.078  1.00  0.00    -0.353 C  
HETATM   19  O   UNL     1      -5.981  10.941  62.630  1.00  0.00    -0.285 OA 
HETATM   20  C   UNL     1     -11.090  13.171  68.273  1.00  0.00    -0.295 C  
HETATM   21  C   UNL     1     -11.493  13.216  69.781  1.00  0.00    -0.216 C  
HETATM   22  H   UNL     1      -5.954  10.831  61.688  1.00  0.00     0.000 HD 
ENDROOT
BRANCH  12  23
HETATM   23  C   UNL     1      -8.610  17.096  68.681  1.00  0.00    -0.260 C  
HETATM   24  C   UNL     1      -8.214  17.667  67.524  1.00  0.00    -0.221 C  
HETATM   25  C   UNL     1      -8.855  19.648  66.088  1.00  0.00    -0.332 C  
HETATM   26  C   UNL     1      -9.107  18.160  66.403  1.00  0.00    -0.255 C  
HETATM   27  O   UNL     1      -9.363  20.483  67.134  1.00  0.00    -0.456 OA 
HETATM   28  C   UNL     1      -7.376  19.962  65.866  1.00  0.00    -0.335 C  
HETATM   29  C   UNL     1      -6.502  19.456  67.013  1.00  0.00    -0.193 C  
HETATM   30  H   UNL     1      -9.208  21.400  66.941  1.00  0.00     0.000 HD 
HETATM   31  C   UNL     1      -6.741  17.959  67.273  1.00  0.00    -0.192 C  
HETATM   32  O   UNL     1      -5.138  19.668  66.694  1.00  0.00    -0.161 OA 
HETATM   33  H   UNL     1      -4.595  19.354  67.407  1.00  0.00     0.000 HD 
ENDBRANCH  12  23
TORSDOF 1
ENDMDL
MODEL       33
REMARK 921   NORMALIZED FREE ENERGY PREDICTED BY IDOCK:   -5.56 KCAL/MOL
REMARK 922        TOTAL FREE ENERGY PREDICTED BY IDOCK:   -6.33 KCAL/MOL
REMARK 923 INTER-LIGAND FREE ENERGY PREDICTED BY IDOCK:   -5.91 KCAL/MOL
REMARK 924 INTRA-LIGAND FREE ENERGY PREDICTED BY IDOCK:   -0.41 KCAL/MOL
REMARK 927      BINDING AFFINITY PREDICTED BY RF-SCORE:    0.00 PKD
ROOT
HETATM    1  C   UNL     1      -9.603  10.002  69.307  1.00  0.00    -0.227 C  
HETATM    2  C   UNL     1      -9.029  11.086  68.290  1.00  0.00    -0.155 C  
HETATM    3  C   UNL     1     -10.568   9.111  68.523  1.00  0.00    -0.209 C  
HETATM    4  C   UNL     1      -7.969  12.064  68.814  1.00  0.00    -0.014 C  
HETATM    5  C   UNL     1     -10.124  12.000  67.758  1.00  0.00    -0.199 C  
HETATM    6  C   UNL     1      -9.701   8.006  67.949  1.00  0.00    -0.189 C  
HETATM    7  C   UNL     1      -8.335   7.994  68.689  1.00  0.00    -0.127 C  
HETATM    8  C   UNL     1     -10.354  12.230  66.452  1.00  0.00    -0.250 C  
HETATM    9  C   UNL     1     -11.305  13.307  65.949  1.00  0.00    -0.333 C  
HETATM   10  C   UNL     1      -7.898   6.544  68.974  1.00  0.00    -0.110 C  
HETATM   11  C   UNL     1     -10.571  14.396  65.097  1.00  0.00    -0.410 C  
HETATM   12  C   UNL     1      -8.103   5.453  68.191  1.00  0.00    -0.095 C  
HETATM   13  C   UNL     1     -12.469  12.630  65.221  1.00  0.00    -0.483 C  
HETATM   14  C   UNL     1      -7.227   6.375  70.312  1.00  0.00    -0.080 C  
HETATM   15  C   UNL     1      -9.352  14.976  65.833  1.00  0.00    -0.249 C  
HETATM   16  C   UNL     1     -11.515  15.555  64.745  1.00  0.00    -0.314 C  
HETATM   17  C   UNL     1      -7.416   9.708  70.571  1.00  0.00    -0.147 C  
HETATM   18  C   UNL     1      -8.050   6.951  71.474  1.00  0.00    -0.109 C  
HETATM   19  O   UNL     1     -10.080  13.840  63.870  1.00  0.00    -0.513 OA 
HETATM   20  C   UNL     1      -8.590   8.942  69.928  1.00  0.00    -0.137 C  
HETATM   21  C   UNL     1      -9.117   8.010  71.066  1.00  0.00    -0.166 C  
HETATM   22  H   UNL     1      -9.635  14.501  63.353  1.00  0.00     0.000 HD 
ENDROOT
BRANCH  12  23
HETATM   23  C   UNL     1      -8.654   5.444  66.849  1.00  0.00    -0.109 C  
HETATM   24  C   UNL     1      -8.500   4.513  65.884  1.00  0.00    -0.114 C  
HETATM   25  C   UNL     1      -8.539   1.993  65.677  1.00  0.00    -0.110 C  
HETATM   26  C   UNL     1      -7.682   3.241  65.973  1.00  0.00    -0.081 C  
HETATM   27  O   UNL     1      -9.444   1.729  66.755  1.00  0.00    -0.355 OA 
HETATM   28  C   UNL     1      -9.330   2.115  64.374  1.00  0.00    -0.132 C  
HETATM   29  C   UNL     1     -10.145   3.406  64.316  1.00  0.00    -0.176 C  
HETATM   30  H   UNL     1      -9.972   0.961  66.573  1.00  0.00     0.000 HD 
HETATM   31  C   UNL     1      -9.256   4.635  64.568  1.00  0.00    -0.105 C  
HETATM   32  O   UNL     1     -10.757   3.519  63.042  1.00  0.00    -0.209 OA 
HETATM   33  H   UNL     1     -11.264   4.321  63.006  1.00  0.00     0.000 HD 
ENDBRANCH  12  23
TORSDOF 1
ENDMDL
MODEL       34
REMARK 921   NORMALIZED FREE ENERGY PREDICTED BY IDOCK:   -5.52 KCAL/MOL
REMARK 922        TOTAL FREE ENERGY PREDICTED BY IDOCK:   -6.27 KCAL/MOL
REMARK 923 INTER-LIGAND FREE ENERGY PREDICTED BY IDOCK:   -5.83 KCAL/MOL
REMARK 924 INTRA-LIGAND FREE ENERGY PREDICTED BY IDOCK:   -0.44 KCAL/MOL
REMARK 927      BINDING AFFINITY PREDICTED BY RF-SCORE:    0.00 PKD
ROOT
HETATM    1  C   UNL     1      -9.720   7.247  70.363  1.00  0.00    -0.172 C  
HETATM    2  C   UNL     1      -9.676   6.370  69.034  1.00  0.00    -0.145 C  
HETATM    3  C   UNL     1      -8.738   8.403  70.176  1.00  0.00    -0.136 C  
HETATM    4  C   UNL     1     -10.638   5.178  68.934  1.00  0.00    -0.047 C  
HETATM    5  C   UNL     1      -8.307   5.741  68.815  1.00  0.00    -0.104 C  
HETATM    6  C   UNL     1      -9.548   9.501  69.513  1.00  0.00    -0.198 C  
HETATM    7  C   UNL     1     -11.061   9.179  69.662  1.00  0.00    -0.103 C  
HETATM    8  C   UNL     1      -7.594   5.852  67.679  1.00  0.00    -0.089 C  
HETATM    9  C   UNL     1      -6.334   5.041  67.402  1.00  0.00    -0.040 C  
HETATM   10  C   UNL     1     -11.846  10.460  70.002  1.00  0.00    -0.351 C  
HETATM   11  C   UNL     1      -6.493   4.103  66.160  1.00  0.00    -0.037 C  
HETATM   12  C   UNL     1     -11.599  11.720  69.558  1.00  0.00    -0.398 C  
HETATM   13  C   UNL     1      -5.147   6.003  67.305  1.00  0.00    -0.005 C  
HETATM   14  C   UNL     1     -12.963  10.231  70.987  1.00  0.00    -0.488 C  
HETATM   15  C   UNL     1      -7.754   3.227  66.260  1.00  0.00    -0.078 C  
HETATM   16  C   UNL     1      -5.277   3.178  66.004  1.00  0.00    -0.009 C  
HETATM   17  C   UNL     1     -12.223   6.976  70.720  1.00  0.00    -0.343 C  
HETATM   18  C   UNL     1     -12.503   9.502  72.258  1.00  0.00    -0.299 C  
HETATM   19  O   UNL     1      -6.623   4.867  64.954  1.00  0.00    -0.041 OA 
HETATM   20  C   UNL     1     -11.074   8.005  70.720  1.00  0.00    -0.269 C  
HETATM   21  C   UNL     1     -11.174   8.701  72.115  1.00  0.00    -0.438 C  
HETATM   22  H   UNL     1      -6.719   4.297  64.200  1.00  0.00     0.000 HD 
ENDROOT
BRANCH  12  23
HETATM   23  C   UNL     1     -10.627  12.107  68.554  1.00  0.00    -0.252 C  
HETATM   24  C   UNL     1     -10.288  13.348  68.147  1.00  0.00    -0.249 C  
HETATM   25  C   UNL     1      -9.774  15.595  69.188  1.00  0.00    -0.249 C  
HETATM   26  C   UNL     1     -10.870  14.657  68.643  1.00  0.00    -0.261 C  
HETATM   27  O   UNL     1      -9.266  15.113  70.438  1.00  0.00    -0.219 OA 
HETATM   28  C   UNL     1      -8.615  15.781  68.210  1.00  0.00    -0.170 C  
HETATM   29  C   UNL     1      -8.048  14.445  67.731  1.00  0.00    -0.168 C  
HETATM   30  H   UNL     1      -8.592  15.690  70.774  1.00  0.00     0.000 HD 
HETATM   31  C   UNL     1      -9.155  13.550  67.150  1.00  0.00    -0.232 C  
HETATM   32  O   UNL     1      -7.062  14.681  66.740  1.00  0.00    -0.239 OA 
HETATM   33  H   UNL     1      -6.710  13.851  66.442  1.00  0.00     0.000 HD 
ENDBRANCH  12  23
TORSDOF 1
ENDMDL
MODEL       35
REMARK 921   NORMALIZED FREE ENERGY PREDICTED BY IDOCK:   -5.47 KCAL/MOL
REMARK 922        TOTAL FREE ENERGY PREDICTED BY IDOCK:   -6.23 KCAL/MOL
REMARK 923 INTER-LIGAND FREE ENERGY PREDICTED BY IDOCK:   -5.87 KCAL/MOL
REMARK 924 INTRA-LIGAND FREE ENERGY PREDICTED BY IDOCK:   -0.36 KCAL/MOL
REMARK 927      BINDING AFFINITY PREDICTED BY RF-SCORE:    0.00 PKD
ROOT
HETATM    1  C   UNL     1      -9.184   8.657  68.831  1.00  0.00    -0.145 C  
HETATM    2  C   UNL     1      -9.312   8.031  67.371  1.00  0.00    -0.173 C  
HETATM    3  C   UNL     1      -8.374   9.948  68.701  1.00  0.00    -0.110 C  
HETATM    4  C   UNL     1     -10.154   6.757  67.214  1.00  0.00    -0.237 C  
HETATM    5  C   UNL     1      -7.957   7.634  66.804  1.00  0.00    -0.111 C  
HETATM    6  C   UNL     1      -9.401  11.026  68.410  1.00  0.00    -0.179 C  
HETATM    7  C   UNL     1     -10.818  10.487  68.753  1.00  0.00    -0.269 C  
HETATM    8  C   UNL     1      -7.492   8.028  65.604  1.00  0.00    -0.081 C  
HETATM    9  C   UNL     1      -6.236   7.449  64.965  1.00  0.00    -0.038 C  
HETATM   10  C   UNL     1     -11.643  11.578  69.461  1.00  0.00    -0.400 C  
HETATM   11  C   UNL     1      -6.540   6.721  63.613  1.00  0.00    -0.042 C  
HETATM   12  C   UNL     1     -11.611  12.916  69.230  1.00  0.00    -0.368 C  
HETATM   13  C   UNL     1      -5.190   8.561  64.849  1.00  0.00    -0.035 C  
HETATM   14  C   UNL     1     -12.520  11.040  70.563  1.00  0.00    -0.432 C  
HETATM   15  C   UNL     1      -7.666   5.683  63.760  1.00  0.00    -0.098 C  
HETATM   16  C   UNL     1      -5.293   6.004  63.076  1.00  0.00    -0.017 C  
HETATM   17  C   UNL     1     -11.532   8.003  69.557  1.00  0.00     0.409 C  
HETATM   18  C   UNL     1     -11.754  10.174  71.572  1.00  0.00    -0.290 C  
HETATM   19  O   UNL     1      -6.975   7.655  62.615  1.00  0.00    -0.073 OA 
HETATM   20  C   UNL     1     -10.511   9.159  69.554  1.00  0.00    -0.226 C  
HETATM   21  C   UNL     1     -10.406   9.590  71.052  1.00  0.00    -0.353 C  
HETATM   22  H   UNL     1      -7.159   7.213  61.795  1.00  0.00     0.000 HD 
ENDROOT
BRANCH  12  23
HETATM   23  C   UNL     1     -10.895  13.591  68.166  1.00  0.00    -0.271 C  
HETATM   24  C   UNL     1     -11.012  13.419  66.832  1.00  0.00    -0.295 C  
HETATM   25  C   UNL     1     -12.858  13.164  65.123  1.00  0.00    -0.300 C  
HETATM   26  C   UNL     1     -11.927  12.444  66.120  1.00  0.00    -0.397 C  
HETATM   27  O   UNL     1     -13.861  13.916  65.815  1.00  0.00    -0.117 OA 
HETATM   28  C   UNL     1     -12.101  14.089  64.171  1.00  0.00    -0.456 C  
HETATM   29  C   UNL     1     -11.189  15.061  64.918  1.00  0.00    -0.416 C  
HETATM   30  H   UNL     1     -14.434  14.360  65.201  1.00  0.00     0.000 HD 
HETATM   31  C   UNL     1     -10.241  14.312  65.869  1.00  0.00    -0.338 C  
HETATM   32  O   UNL     1     -10.428  15.805  63.982  1.00  0.00    -0.008 OA 
HETATM   33  H   UNL     1      -9.861  16.410  64.446  1.00  0.00     0.000 HD 
ENDBRANCH  12  23
TORSDOF 1
ENDMDL
MODEL       36
REMARK 921   NORMALIZED FREE ENERGY PREDICTED BY IDOCK:   -5.42 KCAL/MOL
REMARK 922        TOTAL FREE ENERGY PREDICTED BY IDOCK:   -6.17 KCAL/MOL
REMARK 923 INTER-LIGAND FREE ENERGY PREDICTED BY IDOCK:   -5.49 KCAL/MOL
REMARK 924 INTRA-LIGAND FREE ENERGY PREDICTED BY IDOCK:   -0.68 KCAL/MOL
REMARK 927      BINDING AFFINITY PREDICTED BY RF-SCORE:    0.00 PKD
ROOT
HETATM    1  C   UNL     1      -9.749   9.765  70.350  1.00  0.00    -0.244 C  
HETATM    2  C   UNL     1      -9.030  10.590  69.192  1.00  0.00    -0.171 C  
HETATM    3  C   UNL     1     -11.005   9.135  69.746  1.00  0.00    -0.195 C  
HETATM    4  C   UNL     1      -7.691  11.262  69.523  1.00  0.00     0.184 C  
HETATM    5  C   UNL     1      -9.894  11.741  68.696  1.00  0.00    -0.153 C  
HETATM    6  C   UNL     1     -10.543   7.803  69.186  1.00  0.00    -0.193 C  
HETATM    7  C   UNL     1      -9.152   7.453  69.785  1.00  0.00    -0.141 C  
HETATM    8  C   UNL     1     -10.207  11.952  67.404  1.00  0.00    -0.214 C  
HETATM    9  C   UNL     1     -10.885  13.222  66.908  1.00  0.00    -0.286 C  
HETATM   10  C   UNL     1      -9.092   5.957  70.148  1.00  0.00    -0.155 C  
HETATM   11  C   UNL     1      -9.992  14.016  65.897  1.00  0.00    -0.307 C  
HETATM   12  C   UNL     1      -9.676   4.924  69.486  1.00  0.00    -0.266 C  
HETATM   13  C   UNL     1     -12.267  12.855  66.360  1.00  0.00    -0.301 C  
HETATM   14  C   UNL     1      -8.337   5.683  71.422  1.00  0.00    -0.127 C  
HETATM   15  C   UNL     1      -8.583  14.274  66.455  1.00  0.00     0.098 C  
HETATM   16  C   UNL     1     -10.624  15.370  65.542  1.00  0.00    -0.400 C  
HETATM   17  C   UNL     1      -7.588   8.946  71.411  1.00  0.00    -0.118 C  
HETATM   18  C   UNL     1      -8.829   6.527  72.606  1.00  0.00    -0.126 C  
HETATM   19  O   UNL     1      -9.819  13.279  64.679  1.00  0.00    -0.598 OA 
HETATM   20  C   UNL     1      -8.993   8.501  70.957  1.00  0.00    -0.219 C  
HETATM   21  C   UNL     1      -9.612   7.817  72.217  1.00  0.00    -0.231 C  
HETATM   22  H   UNL     1      -9.277  13.760  64.065  1.00  0.00     0.000 HD 
ENDROOT
BRANCH  12  23
HETATM   23  C   UNL     1     -10.364   4.994  68.212  1.00  0.00    -0.089 C  
HETATM   24  C   UNL     1      -9.834   5.077  66.973  1.00  0.00    -0.205 C  
HETATM   25  C   UNL     1      -7.965   4.004  65.651  1.00  0.00    -0.093 C  
HETATM   26  C   UNL     1      -8.362   5.137  66.618  1.00  0.00    -0.108 C  
HETATM   27  O   UNL     1      -7.961   2.739  66.322  1.00  0.00    -0.080 OA 
HETATM   28  C   UNL     1      -8.879   3.924  64.429  1.00  0.00    -0.124 C  
HETATM   29  C   UNL     1     -10.355   3.862  64.819  1.00  0.00    -0.173 C  
HETATM   30  H   UNL     1      -7.716   2.041  65.726  1.00  0.00     0.000 HD 
HETATM   31  C   UNL     1     -10.733   5.029  65.745  1.00  0.00    -0.132 C  
HETATM   32  O   UNL     1     -11.153   3.910  63.648  1.00  0.00    -0.321 OA 
HETATM   33  H   UNL     1     -12.071   3.872  63.890  1.00  0.00     0.000 HD 
ENDBRANCH  12  23
TORSDOF 1
ENDMDL
MODEL       37
REMARK 921   NORMALIZED FREE ENERGY PREDICTED BY IDOCK:   -5.39 KCAL/MOL
REMARK 922        TOTAL FREE ENERGY PREDICTED BY IDOCK:   -6.14 KCAL/MOL
REMARK 923 INTER-LIGAND FREE ENERGY PREDICTED BY IDOCK:   -5.72 KCAL/MOL
REMARK 924 INTRA-LIGAND FREE ENERGY PREDICTED BY IDOCK:   -0.42 KCAL/MOL
REMARK 927      BINDING AFFINITY PREDICTED BY RF-SCORE:    0.00 PKD
ROOT
HETATM    1  C   UNL     1      -8.086   6.160  70.314  1.00  0.00    -0.112 C  
HETATM    2  C   UNL     1      -8.463   5.057  69.228  1.00  0.00    -0.091 C  
HETATM    3  C   UNL     1      -7.587   7.390  69.556  1.00  0.00    -0.099 C  
HETATM    4  C   UNL     1      -9.069   3.739  69.730  1.00  0.00    -0.192 C  
HETATM    5  C   UNL     1      -7.247   4.608  68.430  1.00  0.00    -0.064 C  
HETATM    6  C   UNL     1      -8.833   8.205  69.270  1.00  0.00    -0.144 C  
HETATM    7  C   UNL     1      -9.993   7.697  70.171  1.00  0.00    -0.186 C  
HETATM    8  C   UNL     1      -7.181   4.599  67.086  1.00  0.00    -0.073 C  
HETATM    9  C   UNL     1      -6.044   3.947  66.310  1.00  0.00    -0.031 C  
HETATM   10  C   UNL     1     -10.798   8.890  70.723  1.00  0.00    -0.294 C  
HETATM   11  C   UNL     1      -6.542   2.771  65.405  1.00  0.00    -0.035 C  
HETATM   12  C   UNL     1     -11.072  10.061  70.092  1.00  0.00    -0.371 C  
HETATM   13  C   UNL     1      -5.284   5.036  65.549  1.00  0.00    -0.012 C  
HETATM   14  C   UNL     1     -11.253   8.694  72.146  1.00  0.00    -0.438 C  
HETATM   15  C   UNL     1      -7.383   1.755  66.195  1.00  0.00    -0.060 C  
HETATM   16  C   UNL     1      -5.362   2.024  64.766  1.00  0.00    -0.008 C  
HETATM   17  C   UNL     1     -10.012   5.596  71.876  1.00  0.00    -0.223 C  
HETATM   18  C   UNL     1     -10.111   8.303  73.093  1.00  0.00    -0.072 C  
HETATM   19  O   UNL     1      -7.379   3.258  64.348  1.00  0.00    -0.064 OA 
HETATM   20  C   UNL     1      -9.255   6.764  71.211  1.00  0.00    -0.154 C  
HETATM   21  C   UNL     1      -8.855   7.695  72.399  1.00  0.00    -0.176 C  
HETATM   22  H   UNL     1      -7.681   2.545  63.798  1.00  0.00     0.000 HD 
ENDROOT
BRANCH  12  23
HETATM   23  C   UNL     1     -10.785  10.385  68.709  1.00  0.00    -0.255 C  
HETATM   24  C   UNL     1     -11.139  11.486  68.012  1.00  0.00    -0.313 C  
HETATM   25  C   UNL     1     -11.196  13.991  68.353  1.00  0.00    -0.266 C  
HETATM   26  C   UNL     1     -11.954  12.658  68.520  1.00  0.00    -0.258 C  
HETATM   27  O   UNL     1     -10.110  14.079  69.283  1.00  0.00    -0.429 OA 
HETATM   28  C   UNL     1     -10.663  14.193  66.935  1.00  0.00    -0.286 C  
HETATM   29  C   UNL     1      -9.844  12.996  66.452  1.00  0.00    -0.270 C  
HETATM   30  H   UNL     1      -9.643  14.900  69.180  1.00  0.00     0.000 HD 
HETATM   31  C   UNL     1     -10.642  11.689  66.587  1.00  0.00    -0.281 C  
HETATM   32  O   UNL     1      -9.481  13.192  65.096  1.00  0.00    -0.459 OA 
HETATM   33  H   UNL     1      -8.972  12.448  64.796  1.00  0.00     0.000 HD 
ENDBRANCH  12  23
TORSDOF 1
ENDMDL
MODEL       38
REMARK 921   NORMALIZED FREE ENERGY PREDICTED BY IDOCK:   -5.32 KCAL/MOL
REMARK 922        TOTAL FREE ENERGY PREDICTED BY IDOCK:   -6.06 KCAL/MOL
REMARK 923 INTER-LIGAND FREE ENERGY PREDICTED BY IDOCK:   -5.60 KCAL/MOL
REMARK 924 INTRA-LIGAND FREE ENERGY PREDICTED BY IDOCK:   -0.47 KCAL/MOL
REMARK 927      BINDING AFFINITY PREDICTED BY RF-SCORE:    0.00 PKD
ROOT
HETATM    1  C   UNL     1      -7.477   9.991  65.163  1.00  0.00    -0.139 C  
HETATM    2  C   UNL     1      -8.982  10.333  64.768  1.00  0.00    -0.232 C  
HETATM    3  C   UNL     1      -7.241  10.541  66.570  1.00  0.00    -0.124 C  
HETATM    4  C   UNL     1      -9.500   9.815  63.418  1.00  0.00     0.007 C  
HETATM    5  C   UNL     1      -9.220  11.834  64.688  1.00  0.00     0.201 C  
HETATM    6  C   UNL     1      -7.663   9.423  67.503  1.00  0.00    -0.091 C  
HETATM    7  C   UNL     1      -7.765   8.097  66.698  1.00  0.00    -0.094 C  
HETATM    8  C   UNL     1     -10.204  12.482  65.338  1.00  0.00    -0.303 C  
HETATM    9  C   UNL     1     -10.557  13.941  65.077  1.00  0.00    -0.418 C  
HETATM   10  C   UNL     1      -7.174   6.933  67.515  1.00  0.00    -0.090 C  
HETATM   11  C   UNL     1     -12.016  14.110  64.537  1.00  0.00    -0.458 C  
HETATM   12  C   UNL     1      -7.232   6.758  68.861  1.00  0.00    -0.091 C  
HETATM   13  C   UNL     1     -10.267  14.748  66.345  1.00  0.00    -0.299 C  
HETATM   14  C   UNL     1      -6.408   5.943  66.675  1.00  0.00    -0.041 C  
HETATM   15  C   UNL     1     -12.289  13.205  63.324  1.00  0.00    -0.366 C  
HETATM   16  C   UNL     1     -12.290  15.563  64.124  1.00  0.00     0.049 C  
HETATM   17  C   UNL     1      -7.468   7.711  64.036  1.00  0.00    -0.107 C  
HETATM   18  C   UNL     1      -5.342   6.605  65.791  1.00  0.00    -0.018 C  
HETATM   19  O   UNL     1     -12.977  13.749  65.538  1.00  0.00    -0.651 OA 
HETATM   20  C   UNL     1      -7.070   8.459  65.325  1.00  0.00    -0.075 C  
HETATM   21  C   UNL     1      -5.557   8.123  65.520  1.00  0.00    -0.040 C  
HETATM   22  H   UNL     1     -13.863  13.852  65.211  1.00  0.00     0.000 HD 
ENDROOT
BRANCH  12  23
HETATM   23  C   UNL     1      -7.987   7.559  69.804  1.00  0.00    -0.124 C  
HETATM   24  C   UNL     1      -9.322   7.751  69.865  1.00  0.00    -0.157 C  
HETATM   25  C   UNL     1     -11.431   6.366  69.694  1.00  0.00    -0.378 C  
HETATM   26  C   UNL     1     -10.364   7.175  68.928  1.00  0.00    -0.202 C  
HETATM   27  O   UNL     1     -10.887   5.132  70.175  1.00  0.00    -0.173 OA 
HETATM   28  C   UNL     1     -12.032   7.143  70.865  1.00  0.00    -0.375 C  
HETATM   29  C   UNL     1     -10.957   7.708  71.792  1.00  0.00    -0.239 C  
HETATM   30  H   UNL     1     -11.543   4.634  70.647  1.00  0.00     0.000 HD 
HETATM   31  C   UNL     1      -9.935   8.547  71.008  1.00  0.00    -0.255 C  
HETATM   32  O   UNL     1     -11.569   8.514  72.785  1.00  0.00    -0.312 OA 
HETATM   33  H   UNL     1     -10.900   8.865  73.361  1.00  0.00     0.000 HD 
ENDBRANCH  12  23
TORSDOF 1
ENDMDL
MODEL       39
REMARK 921   NORMALIZED FREE ENERGY PREDICTED BY IDOCK:   -5.29 KCAL/MOL
REMARK 922        TOTAL FREE ENERGY PREDICTED BY IDOCK:   -6.04 KCAL/MOL
REMARK 923 INTER-LIGAND FREE ENERGY PREDICTED BY IDOCK:   -5.36 KCAL/MOL
REMARK 924 INTRA-LIGAND FREE ENERGY PREDICTED BY IDOCK:   -0.68 KCAL/MOL
REMARK 927      BINDING AFFINITY PREDICTED BY RF-SCORE:    0.00 PKD
ROOT
HETATM    1  C   UNL     1      -7.698   7.117  67.061  1.00  0.00    -0.107 C  
HETATM    2  C   UNL     1      -6.996   7.744  68.347  1.00  0.00    -0.072 C  
HETATM    3  C   UNL     1      -9.203   7.340  67.212  1.00  0.00    -0.148 C  
HETATM    4  C   UNL     1      -5.463   7.719  68.405  1.00  0.00    -0.028 C  
HETATM    5  C   UNL     1      -7.412   7.029  69.625  1.00  0.00    -0.098 C  
HETATM    6  C   UNL     1      -9.460   8.702  66.596  1.00  0.00    -0.267 C  
HETATM    7  C   UNL     1      -8.230   9.114  65.739  1.00  0.00    -0.115 C  
HETATM    8  C   UNL     1      -7.903   7.647  70.715  1.00  0.00    -0.096 C  
HETATM    9  C   UNL     1      -8.107   6.945  72.051  1.00  0.00    -0.099 C  
HETATM   10  C   UNL     1      -8.696   9.765  64.422  1.00  0.00    -0.228 C  
HETATM   11  C   UNL     1      -7.230   7.567  73.189  1.00  0.00    -0.077 C  
HETATM   12  C   UNL     1      -9.781  10.560  64.234  1.00  0.00    -0.391 C  
HETATM   13  C   UNL     1      -9.606   6.921  72.366  1.00  0.00    -0.167 C  
HETATM   14  C   UNL     1      -7.842   9.391  63.238  1.00  0.00    -0.131 C  
HETATM   15  C   UNL     1      -5.749   7.660  72.786  1.00  0.00    -0.040 C  
HETATM   16  C   UNL     1      -7.326   6.740  74.479  1.00  0.00    -0.105 C  
HETATM   17  C   UNL     1      -5.868   7.828  65.445  1.00  0.00    -0.038 C  
HETATM   18  C   UNL     1      -7.665   7.874  63.081  1.00  0.00    -0.136 C  
HETATM   19  O   UNL     1      -7.655   8.903  73.490  1.00  0.00    -0.378 OA 
HETATM   20  C   UNL     1      -7.397   7.775  65.643  1.00  0.00    -0.073 C  
HETATM   21  C   UNL     1      -7.929   7.041  64.371  1.00  0.00    -0.101 C  
HETATM   22  H   UNL     1      -7.123   9.280  74.180  1.00  0.00     0.000 HD 
ENDROOT
BRANCH  12  23
HETATM   23  C   UNL     1     -10.657  11.083  65.265  1.00  0.00    -0.283 C  
HETATM   24  C   UNL     1     -10.446  12.121  66.100  1.00  0.00    -0.281 C  
HETATM   25  C   UNL     1      -9.550  14.483  65.977  1.00  0.00    -0.275 C  
HETATM   26  C   UNL     1      -9.207  12.992  66.171  1.00  0.00    -0.010 C  
HETATM   27  O   UNL     1      -9.909  14.751  64.617  1.00  0.00    -0.466 OA 
HETATM   28  C   UNL     1     -10.675  14.955  66.898  1.00  0.00    -0.308 C  
HETATM   29  C   UNL     1     -11.909  14.059  66.803  1.00  0.00    -0.424 C  
HETATM   30  H   UNL     1     -10.120  15.669  64.498  1.00  0.00     0.000 HD 
HETATM   31  C   UNL     1     -11.545  12.586  67.047  1.00  0.00    -0.437 C  
HETATM   32  O   UNL     1     -12.866  14.475  67.763  1.00  0.00     0.022 OA 
HETATM   33  H   UNL     1     -13.634  13.918  67.704  1.00  0.00     0.000 HD 
ENDBRANCH  12  23
TORSDOF 1
ENDMDL
MODEL       40
REMARK 921   NORMALIZED FREE ENERGY PREDICTED BY IDOCK:   -5.28 KCAL/MOL
REMARK 922        TOTAL FREE ENERGY PREDICTED BY IDOCK:   -6.03 KCAL/MOL
REMARK 923 INTER-LIGAND FREE ENERGY PREDICTED BY IDOCK:   -5.54 KCAL/MOL
REMARK 924 INTRA-LIGAND FREE ENERGY PREDICTED BY IDOCK:   -0.49 KCAL/MOL
REMARK 927      BINDING AFFINITY PREDICTED BY RF-SCORE:    0.00 PKD
ROOT
HETATM    1  C   UNL     1      -6.375  10.018  68.601  1.00  0.00    -0.048 C  
HETATM    2  C   UNL     1      -7.082   9.008  69.610  1.00  0.00    -0.059 C  
HETATM    3  C   UNL     1      -7.332  10.231  67.428  1.00  0.00    -0.093 C  
HETATM    4  C   UNL     1      -6.355   8.686  70.923  1.00  0.00    -0.044 C  
HETATM    5  C   UNL     1      -7.302   7.640  68.980  1.00  0.00    -0.086 C  
HETATM    6  C   UNL     1      -8.218  11.388  67.849  1.00  0.00    -0.132 C  
HETATM    7  C   UNL     1      -7.564  12.117  69.056  1.00  0.00     0.081 C  
HETATM    8  C   UNL     1      -8.487   7.003  68.945  1.00  0.00    -0.125 C  
HETATM    9  C   UNL     1      -8.641   5.552  68.508  1.00  0.00    -0.102 C  
HETATM   10  C   UNL     1      -7.701  13.643  68.892  1.00  0.00     0.005 C  
HETATM   11  C   UNL     1      -9.194   4.642  69.655  1.00  0.00    -0.124 C  
HETATM   12  C   UNL     1      -8.741  14.323  68.344  1.00  0.00    -0.181 C  
HETATM   13  C   UNL     1      -9.479   5.514  67.227  1.00  0.00    -0.119 C  
HETATM   14  C   UNL     1      -6.485  14.403  69.356  1.00  0.00    -0.132 C  
HETATM   15  C   UNL     1      -8.377   4.790  70.949  1.00  0.00    -0.101 C  
HETATM   16  C   UNL     1      -9.181   3.162  69.245  1.00  0.00    -0.218 C  
HETATM   17  C   UNL     1      -5.326  11.449  70.423  1.00  0.00    -0.113 C  
HETATM   18  C   UNL     1      -5.180  13.888  68.734  1.00  0.00    -0.083 C  
HETATM   19  O   UNL     1     -10.544   4.996  69.983  1.00  0.00    -0.245 OA 
HETATM   20  C   UNL     1      -6.105  11.509  69.093  1.00  0.00    -0.064 C  
HETATM   21  C   UNL     1      -5.243  12.434  68.177  1.00  0.00    -0.065 C  
HETATM   22  H   UNL     1     -10.880   4.444  70.679  1.00  0.00     0.000 HD 
ENDROOT
BRANCH  12  23
HETATM   23  C   UNL     1     -10.012  13.765  67.924  1.00  0.00    -0.240 C  
HETATM   24  C   UNL     1     -10.899  14.267  67.040  1.00  0.00    -0.297 C  
HETATM   25  C   UNL     1     -10.871  15.345  64.753  1.00  0.00    -0.364 C  
HETATM   26  C   UNL     1     -10.780  15.570  66.276  1.00  0.00    -0.307 C  
HETATM   27  O   UNL     1      -9.685  14.712  64.260  1.00  0.00    -0.119 OA 
HETATM   28  C   UNL     1     -12.090  14.517  64.350  1.00  0.00    -0.492 C  
HETATM   29  C   UNL     1     -12.181  13.209  65.135  1.00  0.00    -0.450 C  
HETATM   30  H   UNL     1      -9.741  14.573  63.322  1.00  0.00     0.000 HD 
HETATM   31  C   UNL     1     -12.136  13.468  66.650  1.00  0.00    -0.447 C  
HETATM   32  O   UNL     1     -13.390  12.546  64.805  1.00  0.00    -0.773 OA 
HETATM   33  H   UNL     1     -13.446  11.733  65.293  1.00  0.00     0.000 HD 
ENDBRANCH  12  23
TORSDOF 1
ENDMDL
MODEL       41
REMARK 921   NORMALIZED FREE ENERGY PREDICTED BY IDOCK:   -5.27 KCAL/MOL
REMARK 922        TOTAL FREE ENERGY PREDICTED BY IDOCK:   -6.02 KCAL/MOL
REMARK 923 INTER-LIGAND FREE ENERGY PREDICTED BY IDOCK:   -5.42 KCAL/MOL
REMARK 924 INTRA-LIGAND FREE ENERGY PREDICTED BY IDOCK:   -0.60 KCAL/MOL
REMARK 927      BINDING AFFINITY PREDICTED BY RF-SCORE:    0.00 PKD
ROOT
HETATM    1  C   UNL     1      -9.933   8.124  66.565  1.00  0.00    -0.302 C  
HETATM    2  C   UNL     1      -8.576   7.288  66.534  1.00  0.00    -0.134 C  
HETATM    3  C   UNL     1     -11.026   7.196  67.095  1.00  0.00    -0.342 C  
HETATM    4  C   UNL     1      -7.297   8.021  66.108  1.00  0.00    -0.074 C  
HETATM    5  C   UNL     1      -8.655   6.117  65.565  1.00  0.00    -0.133 C  
HETATM    6  C   UNL     1     -10.978   7.358  68.602  1.00  0.00     0.009 C  
HETATM    7  C   UNL     1     -10.168   8.637  68.953  1.00  0.00    -0.221 C  
HETATM    8  C   UNL     1      -8.367   4.843  65.890  1.00  0.00    -0.114 C  
HETATM    9  C   UNL     1      -8.241   3.728  64.860  1.00  0.00    -0.093 C  
HETATM   10  C   UNL     1     -10.857   9.404  70.098  1.00  0.00    -0.287 C  
HETATM   11  C   UNL     1      -6.805   3.107  64.829  1.00  0.00    -0.041 C  
HETATM   12  C   UNL     1     -11.529   8.879  71.155  1.00  0.00    -0.364 C  
HETATM   13  C   UNL     1      -9.354   2.706  65.109  1.00  0.00    -0.100 C  
HETATM   14  C   UNL     1     -10.793  10.901  69.935  1.00  0.00    -0.205 C  
HETATM   15  C   UNL     1      -5.718   4.183  64.676  1.00  0.00    -0.014 C  
HETATM   16  C   UNL     1      -6.657   2.107  63.674  1.00  0.00    -0.026 C  
HETATM   17  C   UNL     1      -8.832  10.300  67.288  1.00  0.00    -0.136 C  
HETATM   18  C   UNL     1     -11.289  11.378  68.563  1.00  0.00    -0.333 C  
HETATM   19  O   UNL     1      -6.521   2.413  66.052  1.00  0.00    -0.027 OA 
HETATM   20  C   UNL     1     -10.030   9.366  67.558  1.00  0.00    -0.250 C  
HETATM   21  C   UNL     1     -11.281  10.294  67.444  1.00  0.00    -0.145 C  
HETATM   22  H   UNL     1      -5.650   2.036  66.033  1.00  0.00     0.000 HD 
ENDROOT
BRANCH  12  23
HETATM   23  C   UNL     1     -11.621   7.476  71.509  1.00  0.00    -0.301 C  
HETATM   24  C   UNL     1     -10.641   6.651  71.936  1.00  0.00    -0.237 C  
HETATM   25  C   UNL     1      -8.714   6.709  73.572  1.00  0.00    -0.123 C  
HETATM   26  C   UNL     1      -9.180   7.003  72.132  1.00  0.00    -0.142 C  
HETATM   27  O   UNL     1      -9.275   7.652  74.492  1.00  0.00    -0.416 OA 
HETATM   28  C   UNL     1      -9.062   5.292  74.028  1.00  0.00    -0.118 C  
HETATM   29  C   UNL     1     -10.541   4.968  73.820  1.00  0.00    -0.279 C  
HETATM   30  H   UNL     1      -8.988   7.471  75.379  1.00  0.00     0.000 HD 
HETATM   31  C   UNL     1     -10.965   5.227  72.365  1.00  0.00    -0.273 C  
HETATM   32  O   UNL     1     -10.775   3.609  74.147  1.00  0.00    -0.197 OA 
HETATM   33  H   UNL     1     -11.695   3.408  74.018  1.00  0.00     0.000 HD 
ENDBRANCH  12  23
TORSDOF 1
ENDMDL
MODEL       42
REMARK 921   NORMALIZED FREE ENERGY PREDICTED BY IDOCK:   -5.24 KCAL/MOL
REMARK 922        TOTAL FREE ENERGY PREDICTED BY IDOCK:   -5.98 KCAL/MOL
REMARK 923 INTER-LIGAND FREE ENERGY PREDICTED BY IDOCK:   -5.55 KCAL/MOL
REMARK 924 INTRA-LIGAND FREE ENERGY PREDICTED BY IDOCK:   -0.44 KCAL/MOL
REMARK 927      BINDING AFFINITY PREDICTED BY RF-SCORE:    0.00 PKD
ROOT
HETATM    1  C   UNL     1     -10.705   8.636  68.916  1.00  0.00    -0.109 C  
HETATM    2  C   UNL     1     -10.018   7.275  69.379  1.00  0.00    -0.170 C  
HETATM    3  C   UNL     1     -10.375   9.692  69.971  1.00  0.00    -0.298 C  
HETATM    4  C   UNL     1     -10.135   6.064  68.443  1.00  0.00    -0.198 C  
HETATM    5  C   UNL     1     -10.594   6.767  70.692  1.00  0.00    -0.257 C  
HETATM    6  C   UNL     1      -9.056  10.293  69.524  1.00  0.00    -0.187 C  
HETATM    7  C   UNL     1      -8.797   9.907  68.041  1.00  0.00    -0.125 C  
HETATM    8  C   UNL     1      -9.856   6.444  71.770  1.00  0.00    -0.178 C  
HETATM    9  C   UNL     1     -10.428   5.737  72.992  1.00  0.00    -0.248 C  
HETATM   10  C   UNL     1      -8.231  11.114  67.268  1.00  0.00    -0.136 C  
HETATM   11  C   UNL     1      -9.769   4.337  73.230  1.00  0.00    -0.126 C  
HETATM   12  C   UNL     1      -7.388  12.070  67.737  1.00  0.00    -0.113 C  
HETATM   13  C   UNL     1     -10.330   6.680  74.194  1.00  0.00    -0.347 C  
HETATM   14  C   UNL     1      -8.758  11.221  65.861  1.00  0.00    -0.146 C  
HETATM   15  C   UNL     1      -9.805   3.463  71.965  1.00  0.00    -0.239 C  
HETATM   16  C   UNL     1     -10.477   3.575  74.360  1.00  0.00    -0.258 C  
HETATM   17  C   UNL     1     -10.251   8.281  66.439  1.00  0.00    -0.142 C  
HETATM   18  C   UNL     1     -10.291  11.178  65.788  1.00  0.00    -0.316 C  
HETATM   19  O   UNL     1      -8.388   4.476  73.590  1.00  0.00    -0.100 OA 
HETATM   20  C   UNL     1     -10.190   9.323  67.575  1.00  0.00    -0.300 C  
HETATM   21  C   UNL     1     -10.993  10.545  67.026  1.00  0.00    -0.247 C  
HETATM   22  H   UNL     1      -7.989   3.627  73.734  1.00  0.00     0.000 HD 
ENDROOT
BRANCH  12  23
HETATM   23  C   UNL     1      -6.725  12.080  69.027  1.00  0.00    -0.100 C  
HETATM   24  C   UNL     1      -5.883  13.006  69.532  1.00  0.00    -0.103 C  
HETATM   25  C   UNL     1      -5.730  15.526  69.683  1.00  0.00    -0.119 C  
HETATM   26  C   UNL     1      -5.409  14.272  68.846  1.00  0.00    -0.087 C  
HETATM   27  O   UNL     1      -7.135  15.802  69.669  1.00  0.00    -0.200 OA 
HETATM   28  C   UNL     1      -5.254  15.407  71.131  1.00  0.00    -0.112 C  
HETATM   29  C   UNL     1      -5.750  14.124  71.796  1.00  0.00    -0.173 C  
HETATM   30  H   UNL     1      -7.333  16.574  70.185  1.00  0.00     0.000 HD 
HETATM   31  C   UNL     1      -5.374  12.888  70.962  1.00  0.00    -0.181 C  
HETATM   32  O   UNL     1      -5.179  14.014  73.089  1.00  0.00    -0.233 OA 
HETATM   33  H   UNL     1      -5.488  13.216  73.502  1.00  0.00     0.000 HD 
ENDBRANCH  12  23
TORSDOF 1
ENDMDL
MODEL       43
REMARK 921   NORMALIZED FREE ENERGY PREDICTED BY IDOCK:   -5.13 KCAL/MOL
REMARK 922        TOTAL FREE ENERGY PREDICTED BY IDOCK:   -5.87 KCAL/MOL
REMARK 923 INTER-LIGAND FREE ENERGY PREDICTED BY IDOCK:   -5.40 KCAL/MOL
REMARK 924 INTRA-LIGAND FREE ENERGY PREDICTED BY IDOCK:   -0.47 KCAL/MOL
REMARK 927      BINDING AFFINITY PREDICTED BY RF-SCORE:    0.00 PKD
ROOT
HETATM    1  C   UNL     1      -7.357   9.021  65.864  1.00  0.00    -0.093 C  
HETATM    2  C   UNL     1      -8.751   9.649  65.415  1.00  0.00    -0.183 C  
HETATM    3  C   UNL     1      -7.151   9.383  67.335  1.00  0.00    -0.086 C  
HETATM    4  C   UNL     1      -9.234   9.362  63.986  1.00  0.00    -0.010 C  
HETATM    5  C   UNL     1      -8.737  11.169  65.487  1.00  0.00    -0.098 C  
HETATM    6  C   UNL     1      -7.820   8.264  68.111  1.00  0.00    -0.118 C  
HETATM    7  C   UNL     1      -8.068   7.061  67.158  1.00  0.00    -0.118 C  
HETATM    8  C   UNL     1      -9.654  11.906  66.142  1.00  0.00    -0.250 C  
HETATM    9  C   UNL     1      -9.746  13.422  66.022  1.00  0.00    -0.228 C  
HETATM   10  C   UNL     1      -7.740   5.738  67.877  1.00  0.00    -0.097 C  
HETATM   11  C   UNL     1     -11.111  13.886  65.413  1.00  0.00    -0.310 C  
HETATM   12  C   UNL     1      -7.934   5.443  69.189  1.00  0.00    -0.094 C  
HETATM   13  C   UNL     1      -9.434  14.039  67.388  1.00  0.00    -0.225 C  
HETATM   14  C   UNL     1      -7.077   4.722  66.983  1.00  0.00    -0.072 C  
HETATM   15  C   UNL     1     -11.426  13.165  64.092  1.00  0.00    -0.449 C  
HETATM   16  C   UNL     1     -11.114  15.399  65.146  1.00  0.00    -0.402 C  
HETATM   17  C   UNL     1      -7.622   6.895  64.494  1.00  0.00    -0.107 C  
HETATM   18  C   UNL     1      -5.851   5.279  66.247  1.00  0.00    -0.018 C  
HETATM   19  O   UNL     1     -12.195  13.594  66.305  1.00  0.00    -0.424 OA 
HETATM   20  C   UNL     1      -7.216   7.435  65.881  1.00  0.00    -0.066 C  
HETATM   21  C   UNL     1      -5.797   6.832  66.133  1.00  0.00    -0.030 C  
HETATM   22  H   UNL     1     -13.023  13.877  65.935  1.00  0.00     0.000 HD 
ENDROOT
BRANCH  12  23
HETATM   23  C   UNL     1      -8.625   6.262  70.165  1.00  0.00    -0.134 C  
HETATM   24  C   UNL     1      -9.691   5.942  70.929  1.00  0.00    -0.211 C  
HETATM   25  C   UNL     1     -10.479   3.994  72.336  1.00  0.00    -0.086 C  
HETATM   26  C   UNL     1     -10.443   4.626  70.930  1.00  0.00    -0.028 C  
HETATM   27  O   UNL     1      -9.189   3.491  72.702  1.00  0.00    -0.100 OA 
HETATM   28  C   UNL     1     -10.962   4.969  73.409  1.00  0.00    -0.393 C  
HETATM   29  C   UNL     1     -10.184   6.283  73.384  1.00  0.00    -0.222 C  
HETATM   30  H   UNL     1      -9.210   3.102  73.568  1.00  0.00     0.000 HD 
HETATM   31  C   UNL     1     -10.205   6.913  71.982  1.00  0.00    -0.206 C  
HETATM   32  O   UNL     1     -10.755   7.185  74.317  1.00  0.00    -0.540 OA 
HETATM   33  H   UNL     1     -10.272   8.003  74.301  1.00  0.00     0.000 HD 
ENDBRANCH  12  23
TORSDOF 1
ENDMDL
MODEL       44
REMARK 921   NORMALIZED FREE ENERGY PREDICTED BY IDOCK:   -5.08 KCAL/MOL
REMARK 922        TOTAL FREE ENERGY PREDICTED BY IDOCK:   -5.82 KCAL/MOL
REMARK 923 INTER-LIGAND FREE ENERGY PREDICTED BY IDOCK:   -5.31 KCAL/MOL
REMARK 924 INTRA-LIGAND FREE ENERGY PREDICTED BY IDOCK:   -0.50 KCAL/MOL
REMARK 927      BINDING AFFINITY PREDICTED BY RF-SCORE:    0.00 PKD
ROOT
HETATM    1  C   UNL     1     -11.121  10.584  66.393  1.00  0.00     0.099 C  
HETATM    2  C   UNL     1      -9.710  10.185  67.018  1.00  0.00    -0.224 C  
HETATM    3  C   UNL     1     -11.819  11.501  67.397  1.00  0.00    -0.108 C  
HETATM    4  C   UNL     1      -8.771   9.322  66.164  1.00  0.00    -0.169 C  
HETATM    5  C   UNL     1      -9.866   9.381  68.300  1.00  0.00    -0.180 C  
HETATM    6  C   UNL     1     -11.350  12.899  67.041  1.00  0.00    -0.355 C  
HETATM    7  C   UNL     1     -10.714  12.878  65.623  1.00  0.00    -0.295 C  
HETATM    8  C   UNL     1      -9.270   9.691  69.467  1.00  0.00    -0.214 C  
HETATM    9  C   UNL     1      -9.264   8.760  70.673  1.00  0.00    -0.233 C  
HETATM   10  C   UNL     1     -11.152  14.123  64.827  1.00  0.00    -0.393 C  
HETATM   11  C   UNL     1      -7.816   8.320  71.075  1.00  0.00    -0.096 C  
HETATM   12  C   UNL     1     -11.369  15.374  65.308  1.00  0.00    -0.243 C  
HETATM   13  C   UNL     1     -10.047   9.425  71.808  1.00  0.00     0.085 C  
HETATM   14  C   UNL     1     -11.409  13.837  63.370  1.00  0.00     0.673 C  
HETATM   15  C   UNL     1      -7.036   7.750  69.878  1.00  0.00    -0.062 C  
HETATM   16  C   UNL     1      -7.846   7.255  72.180  1.00  0.00    -0.092 C  
HETATM   17  C   UNL     1     -10.262  10.757  64.005  1.00  0.00    -0.390 C  
HETATM   18  C   UNL     1     -12.372  12.663  63.148  1.00  0.00    -0.291 C  
HETATM   19  O   UNL     1      -7.058   9.437  71.560  1.00  0.00    -0.319 OA 
HETATM   20  C   UNL     1     -11.135  11.461  65.064  1.00  0.00    -0.215 C  
HETATM   21  C   UNL     1     -12.507  11.683  64.351  1.00  0.00     0.120 C  
HETATM   22  H   UNL     1      -6.180   9.170  71.804  1.00  0.00     0.000 HD 
ENDROOT
BRANCH  12  23
HETATM   23  C   UNL     1     -11.097  15.842  66.653  1.00  0.00    -0.099 C  
HETATM   24  C   UNL     1     -10.205  16.771  67.055  1.00  0.00    -0.292 C  
HETATM   25  C   UNL     1      -9.431  19.070  66.340  1.00  0.00    -0.347 C  
HETATM   26  C   UNL     1      -9.245  17.548  66.177  1.00  0.00    -0.162 C  
HETATM   27  O   UNL     1     -10.655  19.501  65.734  1.00  0.00    -0.508 OA 
HETATM   28  C   UNL     1      -9.408  19.515  67.802  1.00  0.00    -0.405 C  
HETATM   29  C   UNL     1     -10.387  18.716  68.661  1.00  0.00    -0.209 C  
HETATM   30  H   UNL     1     -10.769  20.439  65.834  1.00  0.00     0.000 HD 
HETATM   31  C   UNL     1     -10.147  17.204  68.514  1.00  0.00    -0.329 C  
HETATM   32  O   UNL     1     -10.234  19.090  70.019  1.00  0.00    -0.062 OA 
HETATM   33  H   UNL     1     -10.843  18.593  70.553  1.00  0.00     0.000 HD 
ENDBRANCH  12  23
TORSDOF 1
ENDMDL
MODEL       45
REMARK 921   NORMALIZED FREE ENERGY PREDICTED BY IDOCK:   -4.96 KCAL/MOL
REMARK 922        TOTAL FREE ENERGY PREDICTED BY IDOCK:   -5.68 KCAL/MOL
REMARK 923 INTER-LIGAND FREE ENERGY PREDICTED BY IDOCK:   -5.04 KCAL/MOL
REMARK 924 INTRA-LIGAND FREE ENERGY PREDICTED BY IDOCK:   -0.65 KCAL/MOL
REMARK 927      BINDING AFFINITY PREDICTED BY RF-SCORE:    0.00 PKD
ROOT
HETATM    1  C   UNL     1      -7.728   8.878  64.491  1.00  0.00    -0.119 C  
HETATM    2  C   UNL     1      -9.043   9.539  63.880  1.00  0.00    -0.172 C  
HETATM    3  C   UNL     1      -7.917   8.810  66.006  1.00  0.00    -0.107 C  
HETATM    4  C   UNL     1      -9.141   9.652  62.352  1.00  0.00    -0.290 C  
HETATM    5  C   UNL     1      -9.230  10.972  64.356  1.00  0.00    -0.179 C  
HETATM    6  C   UNL     1      -8.609   7.484  66.256  1.00  0.00    -0.153 C  
HETATM    7  C   UNL     1      -8.480   6.595  64.987  1.00  0.00    -0.007 C  
HETATM    8  C   UNL     1     -10.356  11.443  64.923  1.00  0.00    -0.347 C  
HETATM    9  C   UNL     1     -10.600  12.922  65.191  1.00  0.00    -0.321 C  
HETATM   10  C   UNL     1      -8.172   5.140  65.387  1.00  0.00    -0.124 C  
HETATM   11  C   UNL     1     -11.830  13.474  64.396  1.00  0.00    -0.414 C  
HETATM   12  C   UNL     1      -8.631   4.470  66.476  1.00  0.00    -0.112 C  
HETATM   13  C   UNL     1     -10.693  13.135  66.704  1.00  0.00    -0.286 C  
HETATM   14  C   UNL     1      -7.202   4.459  64.457  1.00  0.00    -0.066 C  
HETATM   15  C   UNL     1     -11.738  13.149  62.896  1.00  0.00     0.647 C  
HETATM   16  C   UNL     1     -11.953  14.997  64.551  1.00  0.00    -0.379 C  
HETATM   17  C   UNL     1      -7.407   7.226  62.584  1.00  0.00    -0.085 C  
HETATM   18  C   UNL     1      -5.913   5.264  64.239  1.00  0.00    -0.022 C  
HETATM   19  O   UNL     1     -13.050  12.885  64.866  1.00  0.00    -0.799 OA 
HETATM   20  C   UNL     1      -7.404   7.363  64.120  1.00  0.00    -0.091 C  
HETATM   21  C   UNL     1      -6.022   6.784  64.561  1.00  0.00    -0.035 C  
HETATM   22  H   UNL     1     -13.796  13.220  64.384  1.00  0.00     0.000 HD 
ENDROOT
BRANCH  12  23
HETATM   23  C   UNL     1      -9.625   4.938  67.423  1.00  0.00    -0.175 C  
HETATM   24  C   UNL     1      -9.572   4.927  68.771  1.00  0.00    -0.219 C  
HETATM   25  C   UNL     1      -7.905   5.472  70.593  1.00  0.00    -0.095 C  
HETATM   26  C   UNL     1      -8.444   4.394  69.631  1.00  0.00    -0.089 C  
HETATM   27  O   UNL     1      -7.164   6.468  69.879  1.00  0.00    -0.072 OA 
HETATM   28  C   UNL     1      -9.012   6.150  71.400  1.00  0.00    -0.143 C  
HETATM   29  C   UNL     1     -10.133   6.678  70.506  1.00  0.00    -0.187 C  
HETATM   30  H   UNL     1      -6.832   7.132  70.472  1.00  0.00     0.000 HD 
HETATM   31  C   UNL     1     -10.682   5.571  69.592  1.00  0.00    -0.349 C  
HETATM   32  O   UNL     1     -11.181   7.185  71.316  1.00  0.00    -0.248 OA 
HETATM   33  H   UNL     1     -11.877   7.514  70.760  1.00  0.00     0.000 HD 
ENDBRANCH  12  23
TORSDOF 1
ENDMDL
MODEL       46
REMARK 921   NORMALIZED FREE ENERGY PREDICTED BY IDOCK:   -4.94 KCAL/MOL
REMARK 922        TOTAL FREE ENERGY PREDICTED BY IDOCK:   -5.67 KCAL/MOL
REMARK 923 INTER-LIGAND FREE ENERGY PREDICTED BY IDOCK:   -4.99 KCAL/MOL
REMARK 924 INTRA-LIGAND FREE ENERGY PREDICTED BY IDOCK:   -0.68 KCAL/MOL
REMARK 927      BINDING AFFINITY PREDICTED BY RF-SCORE:    0.00 PKD
ROOT
HETATM    1  C   UNL     1      -7.870   9.368  66.926  1.00  0.00    -0.105 C  
HETATM    2  C   UNL     1      -8.468  10.841  67.019  1.00  0.00    -0.128 C  
HETATM    3  C   UNL     1      -7.572   8.908  68.353  1.00  0.00    -0.091 C  
HETATM    4  C   UNL     1      -8.927  11.508  65.715  1.00  0.00    -0.120 C  
HETATM    5  C   UNL     1      -7.458  11.828  67.588  1.00  0.00    -0.123 C  
HETATM    6  C   UNL     1      -8.862   8.274  68.837  1.00  0.00    -0.140 C  
HETATM    7  C   UNL     1      -9.780   7.990  67.616  1.00  0.00    -0.198 C  
HETATM    8  C   UNL     1      -7.700  12.645  68.629  1.00  0.00    -0.066 C  
HETATM    9  C   UNL     1      -6.760  13.770  69.042  1.00  0.00    -0.111 C  
HETATM   10  C   UNL     1     -10.455   6.613  67.767  1.00  0.00    -0.275 C  
HETATM   11  C   UNL     1      -7.434  15.178  68.929  1.00  0.00    -0.143 C  
HETATM   12  C   UNL     1     -10.880   6.026  68.916  1.00  0.00    -0.400 C  
HETATM   13  C   UNL     1      -6.206  13.458  70.435  1.00  0.00    -0.006 C  
HETATM   14  C   UNL     1     -10.573   5.862  66.466  1.00  0.00    -0.266 C  
HETATM   15  C   UNL     1      -8.060  15.405  67.543  1.00  0.00    -0.187 C  
HETATM   16  C   UNL     1      -6.420  16.302  69.187  1.00  0.00    -0.175 C  
HETATM   17  C   UNL     1      -9.384   8.636  65.018  1.00  0.00     0.280 C  
HETATM   18  C   UNL     1      -9.240   5.752  65.713  1.00  0.00    -0.086 C  
HETATM   19  O   UNL     1      -8.495  15.316  69.883  1.00  0.00    -0.350 OA 
HETATM   20  C   UNL     1      -8.813   8.204  66.384  1.00  0.00    -0.182 C  
HETATM   21  C   UNL     1      -8.167   6.808  66.112  1.00  0.00    -0.124 C  
HETATM   22  H   UNL     1      -8.904  16.170  69.814  1.00  0.00     0.000 HD 
ENDROOT
BRANCH  12  23
HETATM   23  C   UNL     1     -10.919   6.631  70.232  1.00  0.00    -0.355 C  
HETATM   24  C   UNL     1     -10.414   6.157  71.391  1.00  0.00    -0.273 C  
HETATM   25  C   UNL     1      -8.289   5.054  72.205  1.00  0.00    -0.121 C  
HETATM   26  C   UNL     1      -9.688   4.842  71.593  1.00  0.00    -0.231 C  
HETATM   27  O   UNL     1      -7.396   5.633  71.246  1.00  0.00    -0.080 OA 
HETATM   28  C   UNL     1      -8.318   5.929  73.458  1.00  0.00    -0.113 C  
HETATM   29  C   UNL     1      -9.054   7.247  73.222  1.00  0.00    -0.159 C  
HETATM   30  H   UNL     1      -6.534   5.764  71.623  1.00  0.00     0.000 HD 
HETATM   31  C   UNL     1     -10.462   7.002  72.656  1.00  0.00    -0.254 C  
HETATM   32  O   UNL     1      -9.152   7.956  74.445  1.00  0.00    -0.405 OA 
HETATM   33  H   UNL     1      -9.609   8.776  74.299  1.00  0.00     0.000 HD 
ENDBRANCH  12  23
TORSDOF 1
ENDMDL
MODEL       47
REMARK 921   NORMALIZED FREE ENERGY PREDICTED BY IDOCK:   -4.88 KCAL/MOL
REMARK 922        TOTAL FREE ENERGY PREDICTED BY IDOCK:   -5.61 KCAL/MOL
REMARK 923 INTER-LIGAND FREE ENERGY PREDICTED BY IDOCK:   -4.96 KCAL/MOL
REMARK 924 INTRA-LIGAND FREE ENERGY PREDICTED BY IDOCK:   -0.64 KCAL/MOL
REMARK 927      BINDING AFFINITY PREDICTED BY RF-SCORE:    0.00 PKD
ROOT
HETATM    1  C   UNL     1     -10.830   7.480  71.061  1.00  0.00    -0.249 C  
HETATM    2  C   UNL     1      -9.703   8.474  70.531  1.00  0.00    -0.202 C  
HETATM    3  C   UNL     1     -11.384   6.734  69.846  1.00  0.00    -0.374 C  
HETATM    4  C   UNL     1      -8.929   9.293  71.573  1.00  0.00     0.091 C  
HETATM    5  C   UNL     1     -10.275   9.533  69.600  1.00  0.00    -0.234 C  
HETATM    6  C   UNL     1     -10.489   5.519  69.691  1.00  0.00    -0.379 C  
HETATM    7  C   UNL     1      -9.676   5.314  71.000  1.00  0.00    -0.242 C  
HETATM    8  C   UNL     1      -9.802   9.794  68.367  1.00  0.00    -0.168 C  
HETATM    9  C   UNL     1     -10.244  10.996  67.541  1.00  0.00    -0.219 C  
HETATM   10  C   UNL     1      -9.616   3.817  71.359  1.00  0.00    -0.236 C  
HETATM   11  C   UNL     1      -9.060  11.972  67.234  1.00  0.00    -0.178 C  
HETATM   12  C   UNL     1      -9.540   2.767  70.501  1.00  0.00    -0.158 C  
HETATM   13  C   UNL     1     -10.970  10.489  66.292  1.00  0.00     0.031 C  
HETATM   14  C   UNL     1      -9.717   3.554  72.839  1.00  0.00    -0.188 C  
HETATM   15  C   UNL     1      -8.301  12.374  68.509  1.00  0.00    -0.081 C  
HETATM   16  C   UNL     1      -9.559  13.252  66.549  1.00  0.00    -0.267 C  
HETATM   17  C   UNL     1      -9.603   6.880  73.206  1.00  0.00    -0.193 C  
HETATM   18  C   UNL     1     -10.928   4.238  73.490  1.00  0.00    -0.373 C  
HETATM   19  O   UNL     1      -8.100  11.355  66.366  1.00  0.00    -0.218 OA 
HETATM   20  C   UNL     1     -10.391   6.287  72.021  1.00  0.00    -0.231 C  
HETATM   21  C   UNL     1     -11.518   5.437  72.689  1.00  0.00    -0.305 C  
HETATM   22  H   UNL     1      -7.381  11.947  66.179  1.00  0.00     0.000 HD 
ENDROOT
BRANCH  12  23
HETATM   23  C   UNL     1      -9.355   2.837  69.064  1.00  0.00    -0.211 C  
HETATM   24  C   UNL     1      -8.254   3.203  68.375  1.00  0.00    -0.082 C  
HETATM   25  C   UNL     1      -5.762   2.784  68.451  1.00  0.00    -0.023 C  
HETATM   26  C   UNL     1      -6.929   3.656  68.956  1.00  0.00    -0.046 C  
HETATM   27  O   UNL     1      -5.807   1.480  69.040  1.00  0.00    -0.021 OA 
HETATM   28  C   UNL     1      -5.741   2.649  66.928  1.00  0.00    -0.022 C  
HETATM   29  C   UNL     1      -7.089   2.190  66.374  1.00  0.00    -0.052 C  
HETATM   30  H   UNL     1      -5.088   0.943  68.729  1.00  0.00     0.000 HD 
HETATM   31  C   UNL     1      -8.227   3.104  66.856  1.00  0.00    -0.088 C  
HETATM   32  O   UNL     1      -7.042   2.200  64.957  1.00  0.00    -0.050 OA 
HETATM   33  H   UNL     1      -7.880   1.914  64.612  1.00  0.00     0.000 HD 
ENDBRANCH  12  23
TORSDOF 1
ENDMDL
MODEL       48
REMARK 921   NORMALIZED FREE ENERGY PREDICTED BY IDOCK:   -4.87 KCAL/MOL
REMARK 922        TOTAL FREE ENERGY PREDICTED BY IDOCK:   -5.59 KCAL/MOL
REMARK 923 INTER-LIGAND FREE ENERGY PREDICTED BY IDOCK:   -5.03 KCAL/MOL
REMARK 924 INTRA-LIGAND FREE ENERGY PREDICTED BY IDOCK:   -0.56 KCAL/MOL
REMARK 927      BINDING AFFINITY PREDICTED BY RF-SCORE:    0.00 PKD
ROOT
HETATM    1  C   UNL     1      -9.419  15.553  65.458  1.00  0.00    -0.168 C  
HETATM    2  C   UNL     1      -9.450  16.763  66.494  1.00  0.00    -0.287 C  
HETATM    3  C   UNL     1      -8.575  14.442  66.084  1.00  0.00     0.580 C  
HETATM    4  C   UNL     1     -10.304  17.987  66.135  1.00  0.00    -0.368 C  
HETATM    5  C   UNL     1      -8.064  17.351  66.719  1.00  0.00    -0.282 C  
HETATM    6  C   UNL     1      -9.554  13.621  66.902  1.00  0.00    -0.262 C  
HETATM    7  C   UNL     1     -11.004  13.972  66.466  1.00  0.00    -0.306 C  
HETATM    8  C   UNL     1      -7.501  17.524  67.929  1.00  0.00    -0.206 C  
HETATM    9  C   UNL     1      -6.213  18.308  68.146  1.00  0.00    -0.183 C  
HETATM   10  C   UNL     1     -11.857  12.693  66.381  1.00  0.00    -0.466 C  
HETATM   11  C   UNL     1      -6.429  19.564  69.054  1.00  0.00    -0.307 C  
HETATM   12  C   UNL     1     -11.780  11.596  67.179  1.00  0.00    -0.215 C  
HETATM   13  C   UNL     1      -5.138  17.347  68.662  1.00  0.00    -0.143 C  
HETATM   14  C   UNL     1     -12.826  12.698  65.227  1.00  0.00    -0.025 C  
HETATM   15  C   UNL     1      -7.584  20.445  68.550  1.00  0.00     0.068 C  
HETATM   16  C   UNL     1      -5.160  20.427  69.119  1.00  0.00    -0.262 C  
HETATM   17  C   UNL     1     -11.829  15.851  64.702  1.00  0.00    -0.027 C  
HETATM   18  C   UNL     1     -12.157  13.015  63.882  1.00  0.00    -0.541 C  
HETATM   19  O   UNL     1      -6.767  19.177  70.393  1.00  0.00     0.156 OA 
HETATM   20  C   UNL     1     -10.786  14.801  65.138  1.00  0.00    -0.417 C  
HETATM   21  C   UNL     1     -10.787  13.749  63.983  1.00  0.00     0.076 C  
HETATM   22  H   UNL     1      -6.897  19.939  70.943  1.00  0.00     0.000 HD 
ENDROOT
BRANCH  12  23
HETATM   23  C   UNL     1     -10.970  11.452  68.373  1.00  0.00    -0.263 C  
HETATM   24  C   UNL     1     -10.335  10.353  68.830  1.00  0.00    -0.227 C  
HETATM   25  C   UNL     1      -8.901   8.487  67.905  1.00  0.00    -0.137 C  
HETATM   26  C   UNL     1     -10.334   8.976  68.197  1.00  0.00    -0.262 C  
HETATM   27  O   UNL     1      -8.328   9.213  66.811  1.00  0.00    -0.120 OA 
HETATM   28  C   UNL     1      -7.980   8.595  69.119  1.00  0.00    -0.110 C  
HETATM   29  C   UNL     1      -8.001   9.994  69.733  1.00  0.00    -0.180 C  
HETATM   30  H   UNL     1      -7.446   8.912  66.631  1.00  0.00     0.000 HD 
HETATM   31  C   UNL     1      -9.437  10.436  70.058  1.00  0.00     0.179 C  
HETATM   32  O   UNL     1      -7.225   9.998  70.920  1.00  0.00    -0.328 OA 
HETATM   33  H   UNL     1      -7.238  10.868  71.302  1.00  0.00     0.000 HD 
ENDBRANCH  12  23
TORSDOF 1
ENDMDL
MODEL       49
REMARK 921   NORMALIZED FREE ENERGY PREDICTED BY IDOCK:   -4.87 KCAL/MOL
REMARK 922        TOTAL FREE ENERGY PREDICTED BY IDOCK:   -5.59 KCAL/MOL
REMARK 923 INTER-LIGAND FREE ENERGY PREDICTED BY IDOCK:   -4.83 KCAL/MOL
REMARK 924 INTRA-LIGAND FREE ENERGY PREDICTED BY IDOCK:   -0.76 KCAL/MOL
REMARK 927      BINDING AFFINITY PREDICTED BY RF-SCORE:    0.00 PKD
ROOT
HETATM    1  C   UNL     1      -7.490   8.228  65.264  1.00  0.00    -0.083 C  
HETATM    2  C   UNL     1      -8.905   8.952  65.375  1.00  0.00    -0.234 C  
HETATM    3  C   UNL     1      -7.367   7.287  66.463  1.00  0.00    -0.080 C  
HETATM    4  C   UNL     1      -9.311   9.901  64.239  1.00  0.00    -0.313 C  
HETATM    5  C   UNL     1      -9.000   9.824  66.618  1.00  0.00    -0.161 C  
HETATM    6  C   UNL     1      -7.987   5.982  66.002  1.00  0.00    -0.109 C  
HETATM    7  C   UNL     1      -8.113   5.997  64.453  1.00  0.00    -0.119 C  
HETATM    8  C   UNL     1      -9.990   9.746  67.526  1.00  0.00    -0.230 C  
HETATM    9  C   UNL     1     -10.182  10.767  68.641  1.00  0.00    -0.198 C  
HETATM   10  C   UNL     1      -7.723   4.624  63.875  1.00  0.00    -0.073 C  
HETATM   11  C   UNL     1     -11.551  11.517  68.528  1.00  0.00    -0.313 C  
HETATM   12  C   UNL     1      -7.947   3.403  64.428  1.00  0.00    -0.086 C  
HETATM   13  C   UNL     1      -9.967  10.068  69.986  1.00  0.00    -0.273 C  
HETATM   14  C   UNL     1      -6.957   4.718  62.581  1.00  0.00    -0.031 C  
HETATM   15  C   UNL     1     -11.763  12.117  67.128  1.00  0.00    -0.372 C  
HETATM   16  C   UNL     1     -11.648  12.653  69.557  1.00  0.00    -0.348 C  
HETATM   17  C   UNL     1      -7.554   8.009  62.731  1.00  0.00    -0.123 C  
HETATM   18  C   UNL     1      -5.744   5.655  62.667  1.00  0.00    -0.014 C  
HETATM   19  O   UNL     1     -12.647  10.621  68.757  1.00  0.00    -0.733 OA 
HETATM   20  C   UNL     1      -7.240   7.247  64.035  1.00  0.00    -0.077 C  
HETATM   21  C   UNL     1      -5.794   6.695  63.825  1.00  0.00    -0.031 C  
HETATM   22  H   UNL     1     -13.477  11.076  68.689  1.00  0.00     0.000 HD 
ENDROOT
BRANCH  12  23
HETATM   23  C   UNL     1      -8.731   3.124  65.615  1.00  0.00    -0.126 C  
HETATM   24  C   UNL     1      -8.333   2.546  66.768  1.00  0.00    -0.090 C  
HETATM   25  C   UNL     1      -6.376   2.684  68.364  1.00  0.00    -0.029 C  
HETATM   26  C   UNL     1      -6.946   2.026  67.091  1.00  0.00    -0.040 C  
HETATM   27  O   UNL     1      -6.028   4.051  68.118  1.00  0.00    -0.025 OA 
HETATM   28  C   UNL     1      -7.340   2.614  69.548  1.00  0.00    -0.044 C  
HETATM   29  C   UNL     1      -8.727   3.147  69.192  1.00  0.00    -0.085 C  
HETATM   30  H   UNL     1      -5.676   4.457  68.902  1.00  0.00     0.000 HD 
HETATM   31  C   UNL     1      -9.289   2.440  67.948  1.00  0.00    -0.237 C  
HETATM   32  O   UNL     1      -9.603   2.945  70.288  1.00  0.00    -0.148 OA 
HETATM   33  H   UNL     1     -10.465   3.276  70.067  1.00  0.00     0.000 HD 
ENDBRANCH  12  23
TORSDOF 1
ENDMDL
MODEL       50
REMARK 921   NORMALIZED FREE ENERGY PREDICTED BY IDOCK:   -4.85 KCAL/MOL
REMARK 922        TOTAL FREE ENERGY PREDICTED BY IDOCK:   -5.57 KCAL/MOL
REMARK 923 INTER-LIGAND FREE ENERGY PREDICTED BY IDOCK:   -4.81 KCAL/MOL
REMARK 924 INTRA-LIGAND FREE ENERGY PREDICTED BY IDOCK:   -0.76 KCAL/MOL
REMARK 927      BINDING AFFINITY PREDICTED BY RF-SCORE:    0.00 PKD
ROOT
HETATM    1  C   UNL     1      -8.178   8.913  67.549  1.00  0.00    -0.109 C  
HETATM    2  C   UNL     1      -9.700   9.250  67.881  1.00  0.00    -0.180 C  
HETATM    3  C   UNL     1      -7.972   7.424  67.828  1.00  0.00    -0.118 C  
HETATM    4  C   UNL     1     -10.189  10.678  67.608  1.00  0.00    -0.229 C  
HETATM    5  C   UNL     1     -10.018   9.040  69.354  1.00  0.00    -0.191 C  
HETATM    6  C   UNL     1      -8.332   6.728  66.529  1.00  0.00    -0.121 C  
HETATM    7  C   UNL     1      -8.363   7.776  65.381  1.00  0.00    -0.141 C  
HETATM    8  C   UNL     1     -11.035   8.286  69.811  1.00  0.00    -0.132 C  
HETATM    9  C   UNL     1     -11.466   8.264  71.272  1.00  0.00    -0.314 C  
HETATM   10  C   UNL     1      -7.710   7.193  64.113  1.00  0.00    -0.120 C  
HETATM   11  C   UNL     1     -12.932   8.776  71.465  1.00  0.00    -0.319 C  
HETATM   12  C   UNL     1      -7.758   5.907  63.678  1.00  0.00    -0.099 C  
HETATM   13  C   UNL     1     -11.219   6.861  71.833  1.00  0.00    -0.287 C  
HETATM   14  C   UNL     1      -6.892   8.201  63.347  1.00  0.00    -0.084 C  
HETATM   15  C   UNL     1     -13.156  10.143  70.799  1.00  0.00    -0.351 C  
HETATM   16  C   UNL     1     -13.284   8.903  72.955  1.00  0.00    -0.018 C  
HETATM   17  C   UNL     1      -8.046  10.459  65.534  1.00  0.00    -0.156 C  
HETATM   18  C   UNL     1      -5.864   8.930  64.223  1.00  0.00    -0.069 C  
HETATM   19  O   UNL     1     -13.872   7.873  70.867  1.00  0.00    -0.578 OA 
HETATM   20  C   UNL     1      -7.690   9.046  66.039  1.00  0.00    -0.095 C  
HETATM   21  C   UNL     1      -6.161   8.904  65.752  1.00  0.00    -0.052 C  
HETATM   22  H   UNL     1     -14.762   8.183  70.985  1.00  0.00     0.000 HD 
ENDROOT
BRANCH  12  23
HETATM   23  C   UNL     1      -8.555   4.834  64.241  1.00  0.00    -0.141 C  
HETATM   24  C   UNL     1      -8.136   3.672  64.783  1.00  0.00    -0.090 C  
HETATM   25  C   UNL     1      -6.346   2.879  66.383  1.00  0.00    -0.028 C  
HETATM   26  C   UNL     1      -6.703   3.197  64.917  1.00  0.00    -0.040 C  
HETATM   27  O   UNL     1      -6.234   4.082  67.153  1.00  0.00    -0.033 OA 
HETATM   28  C   UNL     1      -7.357   1.947  67.049  1.00  0.00    -0.059 C  
HETATM   29  C   UNL     1      -8.791   2.453  66.899  1.00  0.00    -0.132 C  
HETATM   30  H   UNL     1      -6.014   3.886  68.055  1.00  0.00     0.000 HD 
HETATM   31  C   UNL     1      -9.134   2.716  65.423  1.00  0.00    -0.129 C  
HETATM   32  O   UNL     1      -9.687   1.490  67.428  1.00  0.00    -0.390 OA 
HETATM   33  H   UNL     1     -10.578   1.805  67.335  1.00  0.00     0.000 HD 
ENDBRANCH  12  23
TORSDOF 1
ENDMDL
MODEL       51
REMARK 921   NORMALIZED FREE ENERGY PREDICTED BY IDOCK:   -4.81 KCAL/MOL
REMARK 922        TOTAL FREE ENERGY PREDICTED BY IDOCK:   -5.53 KCAL/MOL
REMARK 923 INTER-LIGAND FREE ENERGY PREDICTED BY IDOCK:   -4.85 KCAL/MOL
REMARK 924 INTRA-LIGAND FREE ENERGY PREDICTED BY IDOCK:   -0.68 KCAL/MOL
REMARK 927      BINDING AFFINITY PREDICTED BY RF-SCORE:    0.00 PKD
ROOT
HETATM    1  C   UNL     1      -8.099   8.342  65.656  1.00  0.00    -0.125 C  
HETATM    2  C   UNL     1      -7.504   6.864  65.693  1.00  0.00    -0.085 C  
HETATM    3  C   UNL     1      -9.591   8.239  65.972  1.00  0.00    -0.151 C  
HETATM    4  C   UNL     1      -5.993   6.699  65.482  1.00  0.00    -0.034 C  
HETATM    5  C   UNL     1      -8.113   5.981  64.614  1.00  0.00    -0.132 C  
HETATM    6  C   UNL     1      -9.677   8.322  67.485  1.00  0.00    -0.212 C  
HETATM    7  C   UNL     1      -8.331   8.865  68.043  1.00  0.00    -0.121 C  
HETATM    8  C   UNL     1      -8.678   4.782  64.844  1.00  0.00    -0.148 C  
HETATM    9  C   UNL     1      -9.084   3.823  63.731  1.00  0.00    -0.116 C  
HETATM   10  C   UNL     1      -8.596   9.877  69.174  1.00  0.00    -0.157 C  
HETATM   11  C   UNL     1      -8.299   2.471  63.798  1.00  0.00    -0.082 C  
HETATM   12  C   UNL     1      -9.592   9.840  70.096  1.00  0.00    -0.287 C  
HETATM   13  C   UNL     1     -10.606   3.659  63.759  1.00  0.00    -0.284 C  
HETATM   14  C   UNL     1      -7.643  11.044  69.163  1.00  0.00    -0.113 C  
HETATM   15  C   UNL     1      -6.779   2.692  63.869  1.00  0.00    -0.032 C  
HETATM   16  C   UNL     1      -8.600   1.593  62.575  1.00  0.00    -0.068 C  
HETATM   17  C   UNL     1      -6.050   9.429  66.701  1.00  0.00    -0.064 C  
HETATM   18  C   UNL     1      -7.559  11.740  67.798  1.00  0.00    -0.127 C  
HETATM   19  O   UNL     1      -8.657   1.729  64.972  1.00  0.00    -0.091 OA 
HETATM   20  C   UNL     1      -7.591   9.386  66.747  1.00  0.00    -0.097 C  
HETATM   21  C   UNL     1      -8.027  10.877  66.588  1.00  0.00    -0.148 C  
HETATM   22  H   UNL     1      -8.181   0.908  65.012  1.00  0.00     0.000 HD 
ENDROOT
BRANCH  12  23
HETATM   23  C   UNL     1     -10.540   8.762  70.302  1.00  0.00    -0.239 C  
HETATM   24  C   UNL     1     -10.348   7.583  70.930  1.00  0.00    -0.203 C  
HETATM   25  C   UNL     1      -9.264   6.737  73.052  1.00  0.00    -0.127 C  
HETATM   26  C   UNL     1      -9.063   7.092  71.565  1.00  0.00    -0.143 C  
HETATM   27  O   UNL     1      -9.441   7.920  73.840  1.00  0.00    -0.351 OA 
HETATM   28  C   UNL     1     -10.449   5.798  73.280  1.00  0.00    -0.255 C  
HETATM   29  C   UNL     1     -11.729   6.321  72.630  1.00  0.00    -0.125 C  
HETATM   30  H   UNL     1      -9.566   7.701  74.755  1.00  0.00     0.000 HD 
HETATM   31  C   UNL     1     -11.510   6.622  71.138  1.00  0.00    -0.370 C  
HETATM   32  O   UNL     1     -12.757   5.355  72.772  1.00  0.00    -0.358 OA 
HETATM   33  H   UNL     1     -13.553   5.680  72.368  1.00  0.00     0.000 HD 
ENDBRANCH  12  23
TORSDOF 1
ENDMDL
MODEL       52
REMARK 921   NORMALIZED FREE ENERGY PREDICTED BY IDOCK:   -4.79 KCAL/MOL
REMARK 922        TOTAL FREE ENERGY PREDICTED BY IDOCK:   -5.50 KCAL/MOL
REMARK 923 INTER-LIGAND FREE ENERGY PREDICTED BY IDOCK:   -5.50 KCAL/MOL
REMARK 924 INTRA-LIGAND FREE ENERGY PREDICTED BY IDOCK:   -0.01 KCAL/MOL
REMARK 927      BINDING AFFINITY PREDICTED BY RF-SCORE:    0.00 PKD
ROOT
HETATM    1  C   UNL     1      -7.321  14.064  68.602  1.00  0.00    -0.120 C  
HETATM    2  C   UNL     1      -6.587  15.271  67.865  1.00  0.00    -0.174 C  
HETATM    3  C   UNL     1      -8.700  13.912  67.959  1.00  0.00    -0.183 C  
HETATM    4  C   UNL     1      -5.141  15.583  68.275  1.00  0.00    -0.107 C  
HETATM    5  C   UNL     1      -7.312  16.591  68.079  1.00  0.00    -0.151 C  
HETATM    6  C   UNL     1      -8.484  12.968  66.791  1.00  0.00    -0.009 C  
HETATM    7  C   UNL     1      -7.115  12.253  66.960  1.00  0.00    -0.040 C  
HETATM    8  C   UNL     1      -7.695  17.417  67.088  1.00  0.00    -0.229 C  
HETATM    9  C   UNL     1      -8.220  18.826  67.331  1.00  0.00    -0.278 C  
HETATM   10  C   UNL     1      -7.244  10.764  66.582  1.00  0.00    -0.134 C  
HETATM   11  C   UNL     1      -7.307  19.919  66.684  1.00  0.00    -0.250 C  
HETATM   12  C   UNL     1      -8.023  10.225  65.609  1.00  0.00    -0.150 C  
HETATM   13  C   UNL     1      -9.681  18.888  66.876  1.00  0.00    -0.356 C  
HETATM   14  C   UNL     1      -6.434   9.853  67.468  1.00  0.00    -0.068 C  
HETATM   15  C   UNL     1      -5.834  19.754  67.094  1.00  0.00    -0.181 C  
HETATM   16  C   UNL     1      -7.761  21.331  67.084  1.00  0.00     0.164 C  
HETATM   17  C   UNL     1      -5.223  12.650  68.853  1.00  0.00    -0.062 C  
HETATM   18  C   UNL     1      -6.701  10.077  68.963  1.00  0.00    -0.053 C  
HETATM   19  O   UNL     1      -7.342  19.835  65.253  1.00  0.00    -0.386 OA 
HETATM   20  C   UNL     1      -6.710  12.602  68.447  1.00  0.00    -0.082 C  
HETATM   21  C   UNL     1      -7.316  11.461  69.325  1.00  0.00    -0.042 C  
HETATM   22  H   UNL     1      -6.789  20.498  64.860  1.00  0.00     0.000 HD 
ENDROOT
BRANCH  12  23
HETATM   23  C   UNL     1      -8.796  10.952  64.620  1.00  0.00    -0.096 C  
HETATM   24  C   UNL     1     -10.131  11.137  64.568  1.00  0.00    -0.364 C  
HETATM   25  C   UNL     1     -12.011  11.736  66.150  1.00  0.00     0.304 C  
HETATM   26  C   UNL     1     -11.161  10.602  65.543  1.00  0.00     0.273 C  
HETATM   27  O   UNL     1     -11.240  12.511  67.075  1.00  0.00    -0.270 OA 
HETATM   28  C   UNL     1     -12.606  12.661  65.089  1.00  0.00    -0.459 C  
HETATM   29  C   UNL     1     -11.544  13.186  64.124  1.00  0.00    -0.410 C  
HETATM   30  H   UNL     1     -11.764  13.210  67.449  1.00  0.00     0.000 HD 
HETATM   31  C   UNL     1     -10.745  12.031  63.499  1.00  0.00    -0.513 C  
HETATM   32  O   UNL     1     -12.172  13.937  63.098  1.00  0.00    -1.071 OA 
HETATM   33  H   UNL     1     -11.512  14.263  62.498  1.00  0.00     0.000 HD 
ENDBRANCH  12  23
TORSDOF 1
ENDMDL
MODEL       53
REMARK 921   NORMALIZED FREE ENERGY PREDICTED BY IDOCK:   -4.77 KCAL/MOL
REMARK 922        TOTAL FREE ENERGY PREDICTED BY IDOCK:   -5.49 KCAL/MOL
REMARK 923 INTER-LIGAND FREE ENERGY PREDICTED BY IDOCK:   -4.99 KCAL/MOL
REMARK 924 INTRA-LIGAND FREE ENERGY PREDICTED BY IDOCK:   -0.50 KCAL/MOL
REMARK 927      BINDING AFFINITY PREDICTED BY RF-SCORE:    0.00 PKD
ROOT
HETATM    1  C   UNL     1      -7.215   7.652  66.580  1.00  0.00    -0.087 C  
HETATM    2  C   UNL     1      -8.063   6.309  66.701  1.00  0.00    -0.110 C  
HETATM    3  C   UNL     1      -7.897   8.527  65.528  1.00  0.00    -0.104 C  
HETATM    4  C   UNL     1      -7.628   5.284  67.757  1.00  0.00    -0.087 C  
HETATM    5  C   UNL     1      -8.050   5.513  65.404  1.00  0.00    -0.123 C  
HETATM    6  C   UNL     1      -8.926   9.334  66.297  1.00  0.00    -0.193 C  
HETATM    7  C   UNL     1      -8.605   9.254  67.816  1.00  0.00    -0.117 C  
HETATM    8  C   UNL     1      -9.154   5.077  64.770  1.00  0.00    -0.056 C  
HETATM    9  C   UNL     1      -9.114   4.103  63.599  1.00  0.00    -0.136 C  
HETATM   10  C   UNL     1      -8.798  10.634  68.472  1.00  0.00    -0.148 C  
HETATM   11  C   UNL     1      -9.851   2.760  63.921  1.00  0.00    -0.149 C  
HETATM   12  C   UNL     1      -9.731  11.571  68.162  1.00  0.00    -0.192 C  
HETATM   13  C   UNL     1      -9.641   4.816  62.352  1.00  0.00     0.020 C  
HETATM   14  C   UNL     1      -7.768  10.940  69.529  1.00  0.00    -0.022 C  
HETATM   15  C   UNL     1      -9.355   2.133  65.234  1.00  0.00    -0.014 C  
HETATM   16  C   UNL     1      -9.653   1.735  62.794  1.00  0.00    -0.089 C  
HETATM   17  C   UNL     1      -6.691   7.804  69.065  1.00  0.00    -0.049 C  
HETATM   18  C   UNL     1      -6.327  10.751  69.035  1.00  0.00    -0.048 C  
HETATM   19  O   UNL     1     -11.260   2.974  64.078  1.00  0.00    -0.599 OA 
HETATM   20  C   UNL     1      -7.156   8.622  67.842  1.00  0.00    -0.083 C  
HETATM   21  C   UNL     1      -6.171   9.833  67.786  1.00  0.00    -0.052 C  
HETATM   22  H   UNL     1     -11.707   2.159  64.273  1.00  0.00     0.000 HD 
ENDROOT
BRANCH  12  23
HETATM   23  C   UNL     1     -10.838  11.415  67.238  1.00  0.00    -0.311 C  
HETATM   24  C   UNL     1     -11.477  12.365  66.524  1.00  0.00    -0.427 C  
HETATM   25  C   UNL     1     -10.883  14.382  65.121  1.00  0.00    -0.386 C  
HETATM   26  C   UNL     1     -11.193  13.853  66.536  1.00  0.00    -0.327 C  
HETATM   27  O   UNL     1      -9.597  13.934  64.680  1.00  0.00    -0.437 OA 
HETATM   28  C   UNL     1     -11.938  13.976  64.093  1.00  0.00    -0.439 C  
HETATM   29  C   UNL     1     -12.201  12.470  64.104  1.00  0.00    -0.467 C  
HETATM   30  H   UNL     1      -9.405  14.259  63.808  1.00  0.00     0.000 HD 
HETATM   31  C   UNL     1     -12.553  11.980  65.518  1.00  0.00     0.859 C  
HETATM   32  O   UNL     1     -13.269  12.173  63.221  1.00  0.00    -0.620 OA 
HETATM   33  H   UNL     1     -13.432  11.237  63.228  1.00  0.00     0.000 HD 
ENDBRANCH  12  23
TORSDOF 1
ENDMDL
MODEL       54
REMARK 921   NORMALIZED FREE ENERGY PREDICTED BY IDOCK:   -4.77 KCAL/MOL
REMARK 922        TOTAL FREE ENERGY PREDICTED BY IDOCK:   -5.49 KCAL/MOL
REMARK 923 INTER-LIGAND FREE ENERGY PREDICTED BY IDOCK:   -4.82 KCAL/MOL
REMARK 924 INTRA-LIGAND FREE ENERGY PREDICTED BY IDOCK:   -0.66 KCAL/MOL
REMARK 927      BINDING AFFINITY PREDICTED BY RF-SCORE:    0.00 PKD
ROOT
HETATM    1  C   UNL     1     -10.044   9.638  66.359  1.00  0.00    -0.317 C  
HETATM    2  C   UNL     1      -8.517   9.285  66.073  1.00  0.00    -0.144 C  
HETATM    3  C   UNL     1     -10.717   8.364  66.870  1.00  0.00    -0.163 C  
HETATM    4  C   UNL     1      -7.594  10.424  65.620  1.00  0.00    -0.150 C  
HETATM    5  C   UNL     1      -8.373   8.249  64.968  1.00  0.00    -0.158 C  
HETATM    6  C   UNL     1     -10.507   8.386  68.372  1.00  0.00    -0.208 C  
HETATM    7  C   UNL     1     -10.083   9.816  68.807  1.00  0.00    -0.187 C  
HETATM    8  C   UNL     1      -7.668   7.108  65.084  1.00  0.00    -0.116 C  
HETATM    9  C   UNL     1      -7.358   6.195  63.905  1.00  0.00    -0.067 C  
HETATM   10  C   UNL     1     -10.803  10.211  70.111  1.00  0.00    -0.368 C  
HETATM   11  C   UNL     1      -5.820   6.070  63.641  1.00  0.00    -0.022 C  
HETATM   12  C   UNL     1     -11.126   9.399  71.151  1.00  0.00    -0.432 C  
HETATM   13  C   UNL     1      -8.060   4.853  64.128  1.00  0.00    -0.115 C  
HETATM   14  C   UNL     1     -11.220  11.658  70.147  1.00  0.00     0.056 C  
HETATM   15  C   UNL     1      -5.144   7.446  63.522  1.00  0.00    -0.033 C  
HETATM   16  C   UNL     1      -5.540   5.285  62.351  1.00  0.00    -0.014 C  
HETATM   17  C   UNL     1      -9.566  11.971  67.253  1.00  0.00    -0.185 C  
HETATM   18  C   UNL     1     -12.026  12.082  68.912  1.00  0.00    -0.303 C  
HETATM   19  O   UNL     1      -5.169   5.388  64.721  1.00  0.00    -0.009 OA 
HETATM   20  C   UNL     1     -10.372  10.682  67.516  1.00  0.00    -0.254 C  
HETATM   21  C   UNL     1     -11.849  11.170  67.662  1.00  0.00    -0.025 C  
HETATM   22  H   UNL     1      -4.236   5.312  64.560  1.00  0.00     0.000 HD 
ENDROOT
BRANCH  12  23
HETATM   23  C   UNL     1     -10.736   8.013  71.319  1.00  0.00    -0.265 C  
HETATM   24  C   UNL     1      -9.525   7.514  71.646  1.00  0.00    -0.170 C  
HETATM   25  C   UNL     1      -7.673   8.003  73.296  1.00  0.00    -0.157 C  
HETATM   26  C   UNL     1      -8.257   8.304  71.902  1.00  0.00    -0.195 C  
HETATM   27  O   UNL     1      -8.484   8.582  74.325  1.00  0.00    -0.353 OA 
HETATM   28  C   UNL     1      -7.517   6.506  73.560  1.00  0.00    -0.088 C  
HETATM   29  C   UNL     1      -8.811   5.737  73.296  1.00  0.00    -0.124 C  
HETATM   30  H   UNL     1      -8.124   8.396  75.184  1.00  0.00     0.000 HD 
HETATM   31  C   UNL     1      -9.344   6.021  71.882  1.00  0.00    -0.160 C  
HETATM   32  O   UNL     1      -8.571   4.348  73.441  1.00  0.00    -0.097 OA 
HETATM   33  H   UNL     1      -9.375   3.870  73.277  1.00  0.00     0.000 HD 
ENDBRANCH  12  23
TORSDOF 1
ENDMDL
MODEL       55
REMARK 921   NORMALIZED FREE ENERGY PREDICTED BY IDOCK:   -4.74 KCAL/MOL
REMARK 922        TOTAL FREE ENERGY PREDICTED BY IDOCK:   -5.45 KCAL/MOL
REMARK 923 INTER-LIGAND FREE ENERGY PREDICTED BY IDOCK:   -4.99 KCAL/MOL
REMARK 924 INTRA-LIGAND FREE ENERGY PREDICTED BY IDOCK:   -0.46 KCAL/MOL
REMARK 927      BINDING AFFINITY PREDICTED BY RF-SCORE:    0.00 PKD
ROOT
HETATM    1  C   UNL     1      -9.599  12.036  68.310  1.00  0.00    -0.204 C  
HETATM    2  C   UNL     1      -9.625  11.251  66.924  1.00  0.00    -0.210 C  
HETATM    3  C   UNL     1      -8.401  12.985  68.272  1.00  0.00    -0.158 C  
HETATM    4  C   UNL     1     -10.789  10.282  66.675  1.00  0.00    -0.115 C  
HETATM    5  C   UNL     1      -8.391  10.379  66.744  1.00  0.00    -0.126 C  
HETATM    6  C   UNL     1      -8.931  14.260  67.644  1.00  0.00    -0.194 C  
HETATM    7  C   UNL     1     -10.485  14.235  67.674  1.00  0.00    -0.248 C  
HETATM    8  C   UNL     1      -7.586  10.415  65.666  1.00  0.00    -0.150 C  
HETATM    9  C   UNL     1      -6.490   9.390  65.408  1.00  0.00    -0.070 C  
HETATM   10  C   UNL     1     -11.030  15.623  68.060  1.00  0.00    -0.318 C  
HETATM   11  C   UNL     1      -6.733   8.580  64.091  1.00  0.00    -0.075 C  
HETATM   12  C   UNL     1     -10.512  16.834  67.728  1.00  0.00    -0.335 C  
HETATM   13  C   UNL     1      -5.135  10.102  65.457  1.00  0.00    -0.057 C  
HETATM   14  C   UNL     1     -12.242  15.560  68.954  1.00  0.00    -0.097 C  
HETATM   15  C   UNL     1      -8.142   7.967  64.046  1.00  0.00    -0.078 C  
HETATM   16  C   UNL     1      -5.710   7.444  63.942  1.00  0.00    -0.037 C  
HETATM   17  C   UNL     1     -12.127  12.246  68.490  1.00  0.00    -0.124 C  
HETATM   18  C   UNL     1     -12.028  14.677  70.192  1.00  0.00    -0.372 C  
HETATM   19  O   UNL     1      -6.620   9.427  62.940  1.00  0.00    -0.097 OA 
HETATM   20  C   UNL     1     -10.804  13.025  68.638  1.00  0.00    -0.287 C  
HETATM   21  C   UNL     1     -10.873  13.639  70.073  1.00  0.00     0.490 C  
HETATM   22  H   UNL     1      -6.767   8.935  62.142  1.00  0.00     0.000 HD 
ENDROOT
BRANCH  12  23
HETATM   23  C   UNL     1      -9.410  17.082  66.819  1.00  0.00    -0.268 C  
HETATM   24  C   UNL     1      -8.701  18.217  66.646  1.00  0.00    -0.289 C  
HETATM   25  C   UNL     1      -7.624  19.999  68.081  1.00  0.00    -0.253 C  
HETATM   26  C   UNL     1      -8.909  19.535  67.366  1.00  0.00    -0.363 C  
HETATM   27  O   UNL     1      -7.354  19.182  69.226  1.00  0.00    -0.306 OA 
HETATM   28  C   UNL     1      -6.403  19.998  67.162  1.00  0.00    -0.214 C  
HETATM   29  C   UNL     1      -6.219  18.657  66.453  1.00  0.00    -0.176 C  
HETATM   30  H   UNL     1      -6.563  19.467  69.666  1.00  0.00     0.000 HD 
HETATM   31  C   UNL     1      -7.501  18.243  65.711  1.00  0.00    -0.126 C  
HETATM   32  O   UNL     1      -5.149  18.756  65.529  1.00  0.00    -0.134 OA 
HETATM   33  H   UNL     1      -5.034  17.923  65.088  1.00  0.00     0.000 HD 
ENDBRANCH  12  23
TORSDOF 1
ENDMDL
MODEL       56
REMARK 921   NORMALIZED FREE ENERGY PREDICTED BY IDOCK:   -4.70 KCAL/MOL
REMARK 922        TOTAL FREE ENERGY PREDICTED BY IDOCK:   -5.42 KCAL/MOL
REMARK 923 INTER-LIGAND FREE ENERGY PREDICTED BY IDOCK:   -4.65 KCAL/MOL
REMARK 924 INTRA-LIGAND FREE ENERGY PREDICTED BY IDOCK:   -0.76 KCAL/MOL
REMARK 927      BINDING AFFINITY PREDICTED BY RF-SCORE:    0.00 PKD
ROOT
HETATM    1  C   UNL     1      -9.801   8.282  70.799  1.00  0.00    -0.205 C  
HETATM    2  C   UNL     1     -10.599   6.947  71.144  1.00  0.00    -0.246 C  
HETATM    3  C   UNL     1      -8.582   7.879  69.969  1.00  0.00    -0.135 C  
HETATM    4  C   UNL     1     -11.920   7.085  71.913  1.00  0.00    -0.355 C  
HETATM    5  C   UNL     1      -9.779   6.004  72.012  1.00  0.00    -0.174 C  
HETATM    6  C   UNL     1      -9.067   7.887  68.532  1.00  0.00    -0.132 C  
HETATM    7  C   UNL     1     -10.414   8.659  68.453  1.00  0.00    -0.220 C  
HETATM    8  C   UNL     1      -9.551   4.710  71.722  1.00  0.00    -0.216 C  
HETATM    9  C   UNL     1      -8.915   3.734  72.703  1.00  0.00    -0.119 C  
HETATM   10  C   UNL     1     -10.439   9.557  67.201  1.00  0.00    -0.322 C  
HETATM   11  C   UNL     1      -9.878   2.557  73.077  1.00  0.00    -0.112 C  
HETATM   12  C   UNL     1      -9.891   9.293  65.987  1.00  0.00    -0.363 C  
HETATM   13  C   UNL     1      -7.569   3.277  72.136  1.00  0.00    -0.057 C  
HETATM   14  C   UNL     1     -11.109  10.886  67.435  1.00  0.00    -0.373 C  
HETATM   15  C   UNL     1     -11.250   3.066  73.548  1.00  0.00    -0.293 C  
HETATM   16  C   UNL     1      -9.281   1.684  74.191  1.00  0.00    -0.070 C  
HETATM   17  C   UNL     1     -11.883   9.704  70.471  1.00  0.00    -0.284 C  
HETATM   18  C   UNL     1     -10.548  11.636  68.652  1.00  0.00    -0.236 C  
HETATM   19  O   UNL     1     -10.123   1.716  71.942  1.00  0.00    -0.146 OA 
HETATM   20  C   UNL     1     -10.506   9.362  69.865  1.00  0.00    -0.257 C  
HETATM   21  C   UNL     1      -9.803  10.746  69.690  1.00  0.00     0.041 C  
HETATM   22  H   UNL     1     -10.706   1.002  72.169  1.00  0.00     0.000 HD 
ENDROOT
BRANCH  12  23
HETATM   23  C   UNL     1      -9.286   8.045  65.565  1.00  0.00     0.092 C  
HETATM   24  C   UNL     1      -8.017   7.819  65.164  1.00  0.00    -0.129 C  
HETATM   25  C   UNL     1      -5.676   8.452  65.881  1.00  0.00    -0.043 C  
HETATM   26  C   UNL     1      -6.908   8.844  65.040  1.00  0.00    -0.073 C  
HETATM   27  O   UNL     1      -5.943   8.609  67.279  1.00  0.00    -0.049 OA 
HETATM   28  C   UNL     1      -5.210   7.021  65.613  1.00  0.00    -0.023 C  
HETATM   29  C   UNL     1      -6.349   6.011  65.748  1.00  0.00    -0.042 C  
HETATM   30  H   UNL     1      -5.184   8.367  67.797  1.00  0.00     0.000 HD 
HETATM   31  C   UNL     1      -7.544   6.403  64.863  1.00  0.00    -0.093 C  
HETATM   32  O   UNL     1      -5.884   4.726  65.372  1.00  0.00    -0.017 OA 
HETATM   33  H   UNL     1      -6.591   4.098  65.456  1.00  0.00     0.000 HD 
ENDBRANCH  12  23
TORSDOF 1
ENDMDL
MODEL       57
REMARK 921   NORMALIZED FREE ENERGY PREDICTED BY IDOCK:   -4.65 KCAL/MOL
REMARK 922        TOTAL FREE ENERGY PREDICTED BY IDOCK:   -5.36 KCAL/MOL
REMARK 923 INTER-LIGAND FREE ENERGY PREDICTED BY IDOCK:   -5.02 KCAL/MOL
REMARK 924 INTRA-LIGAND FREE ENERGY PREDICTED BY IDOCK:   -0.34 KCAL/MOL
REMARK 927      BINDING AFFINITY PREDICTED BY RF-SCORE:    0.00 PKD
ROOT
HETATM    1  C   UNL     1      -6.935  13.757  69.197  1.00  0.00    -0.082 C  
HETATM    2  C   UNL     1      -6.600  14.829  68.067  1.00  0.00    -0.157 C  
HETATM    3  C   UNL     1      -8.452  13.755  69.386  1.00  0.00     0.715 C  
HETATM    4  C   UNL     1      -5.136  14.971  67.630  1.00  0.00     0.046 C  
HETATM    5  C   UNL     1      -6.982  16.239  68.493  1.00  0.00    -0.143 C  
HETATM    6  C   UNL     1      -8.971  12.746  68.379  1.00  0.00    -0.120 C  
HETATM    7  C   UNL     1      -7.788  11.869  67.880  1.00  0.00    -0.138 C  
HETATM    8  C   UNL     1      -7.759  17.066  67.770  1.00  0.00    -0.181 C  
HETATM    9  C   UNL     1      -7.950  18.539  68.108  1.00  0.00    -0.308 C  
HETATM   10  C   UNL     1      -8.226  10.396  67.777  1.00  0.00    -0.110 C  
HETATM   11  C   UNL     1      -7.427  19.481  66.972  1.00  0.00    -0.228 C  
HETATM   12  C   UNL     1      -9.447   9.923  67.413  1.00  0.00    -0.173 C  
HETATM   13  C   UNL     1      -9.418  18.769  68.476  1.00  0.00    -0.400 C  
HETATM   14  C   UNL     1      -7.154   9.425  68.198  1.00  0.00    -0.076 C  
HETATM   15  C   UNL     1      -5.981  19.146  66.569  1.00  0.00    -0.178 C  
HETATM   16  C   UNL     1      -7.475  20.954  67.406  1.00  0.00    -0.339 C  
HETATM   17  C   UNL     1      -5.154  12.097  68.458  1.00  0.00    -0.050 C  
HETATM   18  C   UNL     1      -6.568   9.740  69.582  1.00  0.00    -0.052 C  
HETATM   19  O   UNL     1      -8.222  19.345  65.787  1.00  0.00    -0.439 OA 
HETATM   20  C   UNL     1      -6.628  12.223  68.894  1.00  0.00    -0.094 C  
HETATM   21  C   UNL     1      -6.775  11.204  70.069  1.00  0.00    -0.058 C  
HETATM   22  H   UNL     1      -7.905  19.917  65.098  1.00  0.00     0.000 HD 
ENDROOT
BRANCH  12  23
HETATM   23  C   UNL     1     -10.559  10.702  66.905  1.00  0.00    -0.311 C  
HETATM   24  C   UNL     1     -10.599  11.499  65.817  1.00  0.00    -0.315 C  
HETATM   25  C   UNL     1      -9.835  11.432  63.407  1.00  0.00    -0.396 C  
HETATM   26  C   UNL     1      -9.459  11.786  64.860  1.00  0.00    -0.054 C  
HETATM   27  O   UNL     1      -9.896  10.012  63.228  1.00  0.00    -0.509 OA 
HETATM   28  C   UNL     1     -11.161  12.053  62.972  1.00  0.00    -0.062 C  
HETATM   29  C   UNL     1     -12.290  11.744  63.954  1.00  0.00    -0.288 C  
HETATM   30  H   UNL     1     -10.128   9.794  62.334  1.00  0.00     0.000 HD 
HETATM   31  C   UNL     1     -11.905  12.151  65.386  1.00  0.00    -0.357 C  
HETATM   32  O   UNL     1     -13.459  12.443  63.561  1.00  0.00    -0.164 OA 
HETATM   33  H   UNL     1     -14.161  12.251  64.172  1.00  0.00     0.000 HD 
ENDBRANCH  12  23
TORSDOF 1
ENDMDL
MODEL       58
REMARK 921   NORMALIZED FREE ENERGY PREDICTED BY IDOCK:   -4.51 KCAL/MOL
REMARK 922        TOTAL FREE ENERGY PREDICTED BY IDOCK:   -5.21 KCAL/MOL
REMARK 923 INTER-LIGAND FREE ENERGY PREDICTED BY IDOCK:   -4.58 KCAL/MOL
REMARK 924 INTRA-LIGAND FREE ENERGY PREDICTED BY IDOCK:   -0.63 KCAL/MOL
REMARK 927      BINDING AFFINITY PREDICTED BY RF-SCORE:    0.00 PKD
ROOT
HETATM    1  C   UNL     1     -10.862  11.599  65.183  1.00  0.00    -0.346 C  
HETATM    2  C   UNL     1      -9.792  10.907  64.226  1.00  0.00    -0.365 C  
HETATM    3  C   UNL     1     -10.108  12.105  66.413  1.00  0.00    -0.242 C  
HETATM    4  C   UNL     1     -10.285  10.378  62.872  1.00  0.00     0.349 C  
HETATM    5  C   UNL     1      -9.157   9.685  64.875  1.00  0.00    -0.284 C  
HETATM    6  C   UNL     1      -9.647  13.502  66.042  1.00  0.00    -0.179 C  
HETATM    7  C   UNL     1     -10.436  13.984  64.793  1.00  0.00    -0.445 C  
HETATM    8  C   UNL     1      -7.831   9.490  64.989  1.00  0.00    -0.117 C  
HETATM    9  C   UNL     1      -7.217   8.171  65.442  1.00  0.00    -0.068 C  
HETATM   10  C   UNL     1     -10.838  15.462  64.957  1.00  0.00    -0.462 C  
HETATM   11  C   UNL     1      -6.318   7.524  64.337  1.00  0.00    -0.044 C  
HETATM   12  C   UNL     1     -10.128  16.447  65.566  1.00  0.00    -0.238 C  
HETATM   13  C   UNL     1      -6.496   8.400  66.773  1.00  0.00    -0.056 C  
HETATM   14  C   UNL     1     -12.210  15.770  64.413  1.00  0.00     0.075 C  
HETATM   15  C   UNL     1      -7.056   7.406  62.993  1.00  0.00    -0.074 C  
HETATM   16  C   UNL     1      -5.850   6.122  64.752  1.00  0.00    -0.025 C  
HETATM   17  C   UNL     1     -12.224  12.615  63.292  1.00  0.00    -0.512 C  
HETATM   18  C   UNL     1     -13.296  14.830  64.955  1.00  0.00     1.026 C  
HETATM   19  O   UNL     1      -5.152   8.323  64.092  1.00  0.00    -0.039 OA 
HETATM   20  C   UNL     1     -11.594  12.916  64.667  1.00  0.00    -0.392 C  
HETATM   21  C   UNL     1     -12.775  13.476  65.522  1.00  0.00    -0.493 C  
HETATM   22  H   UNL     1      -4.607   7.930  63.422  1.00  0.00     0.000 HD 
ENDROOT
BRANCH  12  23
HETATM   23  C   UNL     1      -8.771  16.349  66.067  1.00  0.00    -0.274 C  
HETATM   24  C   UNL     1      -8.342  16.401  67.346  1.00  0.00    -0.183 C  
HETATM   25  C   UNL     1      -9.003  15.448  69.593  1.00  0.00    -0.156 C  
HETATM   26  C   UNL     1      -9.196  16.597  68.582  1.00  0.00    -0.248 C  
HETATM   27  O   UNL     1      -9.611  14.242  69.115  1.00  0.00    -0.399 OA 
HETATM   28  C   UNL     1      -7.532  15.180  69.909  1.00  0.00    -0.032 C  
HETATM   29  C   UNL     1      -6.699  14.984  68.644  1.00  0.00    -0.093 C  
HETATM   30  H   UNL     1      -9.493  13.535  69.737  1.00  0.00     0.000 HD 
HETATM   31  C   UNL     1      -6.874  16.167  67.677  1.00  0.00    -0.176 C  
HETATM   32  O   UNL     1      -5.331  14.860  68.996  1.00  0.00    -0.092 OA 
HETATM   33  H   UNL     1      -4.813  14.739  68.209  1.00  0.00     0.000 HD 
ENDBRANCH  12  23
TORSDOF 1
ENDMDL
MODEL       59
REMARK 921   NORMALIZED FREE ENERGY PREDICTED BY IDOCK:   -4.39 KCAL/MOL
REMARK 922        TOTAL FREE ENERGY PREDICTED BY IDOCK:   -5.08 KCAL/MOL
REMARK 923 INTER-LIGAND FREE ENERGY PREDICTED BY IDOCK:   -4.38 KCAL/MOL
REMARK 924 INTRA-LIGAND FREE ENERGY PREDICTED BY IDOCK:   -0.70 KCAL/MOL
REMARK 927      BINDING AFFINITY PREDICTED BY RF-SCORE:    0.00 PKD
ROOT
HETATM    1  C   UNL     1      -8.156  10.618  65.999  1.00  0.00    -0.159 C  
HETATM    2  C   UNL     1      -9.404  11.604  66.071  1.00  0.00    -0.241 C  
HETATM    3  C   UNL     1      -7.729  10.321  67.437  1.00  0.00    -0.095 C  
HETATM    4  C   UNL     1     -10.078  11.999  64.749  1.00  0.00    -0.286 C  
HETATM    5  C   UNL     1      -9.034  12.942  66.694  1.00  0.00    -0.141 C  
HETATM    6  C   UNL     1      -8.559   9.122  67.853  1.00  0.00    -0.121 C  
HETATM    7  C   UNL     1      -9.169   8.460  66.585  1.00  0.00    -0.226 C  
HETATM    8  C   UNL     1      -9.688  13.505  67.727  1.00  0.00    -0.226 C  
HETATM    9  C   UNL     1      -9.440  14.934  68.193  1.00  0.00    -0.202 C  
HETATM   10  C   UNL     1      -9.085   6.926  66.695  1.00  0.00    -0.172 C  
HETATM   11  C   UNL     1     -10.714  15.832  68.054  1.00  0.00    -0.296 C  
HETATM   12  C   UNL     1      -9.213   6.172  67.817  1.00  0.00    -0.111 C  
HETATM   13  C   UNL     1      -8.862  14.892  69.610  1.00  0.00     0.106 C  
HETATM   14  C   UNL     1      -8.765   6.251  65.386  1.00  0.00    -0.055 C  
HETATM   15  C   UNL     1     -11.314  15.763  66.640  1.00  0.00     0.109 C  
HETATM   16  C   UNL     1     -10.394  17.301  68.368  1.00  0.00    -0.366 C  
HETATM   17  C   UNL     1      -9.036   9.294  64.014  1.00  0.00    -0.107 C  
HETATM   18  C   UNL     1      -7.521   6.833  64.699  1.00  0.00    -0.097 C  
HETATM   19  O   UNL     1     -11.744  15.403  68.955  1.00  0.00    -0.338 OA 
HETATM   20  C   UNL     1      -8.382   9.157  65.405  1.00  0.00    -0.147 C  
HETATM   21  C   UNL     1      -7.123   8.267  65.158  1.00  0.00    -0.075 C  
HETATM   22  H   UNL     1     -12.517  15.949  68.870  1.00  0.00     0.000 HD 
ENDROOT
BRANCH  12  23
HETATM   23  C   UNL     1      -9.598   6.641  69.134  1.00  0.00    -0.136 C  
HETATM   24  C   UNL     1      -8.951   6.477  70.307  1.00  0.00    -0.155 C  
HETATM   25  C   UNL     1      -6.586   6.631  71.189  1.00  0.00    -0.053 C  
HETATM   26  C   UNL     1      -7.651   5.731  70.530  1.00  0.00    -0.090 C  
HETATM   27  O   UNL     1      -6.102   7.610  70.262  1.00  0.00    -0.030 OA 
HETATM   28  C   UNL     1      -7.102   7.335  72.443  1.00  0.00    -0.067 C  
HETATM   29  C   UNL     1      -8.412   8.080  72.186  1.00  0.00    -0.146 C  
HETATM   30  H   UNL     1      -5.447   8.164  70.668  1.00  0.00     0.000 HD 
HETATM   31  C   UNL     1      -9.468   7.147  71.573  1.00  0.00    -0.161 C  
HETATM   32  O   UNL     1      -8.899   8.609  73.408  1.00  0.00    -0.297 OA 
HETATM   33  H   UNL     1      -9.713   9.072  73.248  1.00  0.00     0.000 HD 
ENDBRANCH  12  23
TORSDOF 1
ENDMDL
MODEL       60
REMARK 921   NORMALIZED FREE ENERGY PREDICTED BY IDOCK:   -4.36 KCAL/MOL
REMARK 922        TOTAL FREE ENERGY PREDICTED BY IDOCK:   -5.05 KCAL/MOL
REMARK 923 INTER-LIGAND FREE ENERGY PREDICTED BY IDOCK:   -4.56 KCAL/MOL
REMARK 924 INTRA-LIGAND FREE ENERGY PREDICTED BY IDOCK:   -0.49 KCAL/MOL
REMARK 927      BINDING AFFINITY PREDICTED BY RF-SCORE:    0.00 PKD
ROOT
HETATM    1  C   UNL     1      -5.505   9.822  68.644  1.00  0.00    -0.036 C  
HETATM    2  C   UNL     1      -6.255   8.527  69.191  1.00  0.00    -0.043 C  
HETATM    3  C   UNL     1      -5.760   9.891  67.138  1.00  0.00    -0.046 C  
HETATM    4  C   UNL     1      -6.219   8.268  70.704  1.00  0.00    -0.036 C  
HETATM    5  C   UNL     1      -5.682   7.248  68.598  1.00  0.00    -0.022 C  
HETATM    6  C   UNL     1      -7.053  10.671  66.996  1.00  0.00    -0.100 C  
HETATM    7  C   UNL     1      -7.360  11.399  68.335  1.00  0.00    -0.095 C  
HETATM    8  C   UNL     1      -6.416   6.299  67.988  1.00  0.00    -0.052 C  
HETATM    9  C   UNL     1      -5.859   4.936  67.597  1.00  0.00    -0.022 C  
HETATM   10  C   UNL     1      -7.875  12.824  68.058  1.00  0.00    -0.150 C  
HETATM   11  C   UNL     1      -6.586   3.764  68.337  1.00  0.00    -0.045 C  
HETATM   12  C   UNL     1      -8.659  13.231  67.025  1.00  0.00    -0.169 C  
HETATM   13  C   UNL     1      -5.885   4.817  66.071  1.00  0.00    -0.022 C  
HETATM   14  C   UNL     1      -7.370  13.843  69.046  1.00  0.00    -0.055 C  
HETATM   15  C   UNL     1      -6.619   3.979  69.859  1.00  0.00    -0.033 C  
HETATM   16  C   UNL     1      -5.899   2.419  68.056  1.00  0.00    -0.023 C  
HETATM   17  C   UNL     1      -6.023  11.252  70.683  1.00  0.00    -0.059 C  
HETATM   18  C   UNL     1      -5.843  13.821  69.204  1.00  0.00    -0.083 C  
HETATM   19  O   UNL     1      -7.951   3.658  67.910  1.00  0.00    -0.079 OA 
HETATM   20  C   UNL     1      -6.008  11.249  69.140  1.00  0.00    -0.049 C  
HETATM   21  C   UNL     1      -5.152  12.498  68.757  1.00  0.00    -0.055 C  
HETATM   22  H   UNL     1      -8.392   2.947  68.359  1.00  0.00     0.000 HD 
ENDROOT
BRANCH  12  23
HETATM   23  C   UNL     1      -9.296  12.381  66.038  1.00  0.00    -0.116 C  
HETATM   24  C   UNL     1     -10.614  12.215  65.798  1.00  0.00    -0.295 C  
HETATM   25  C   UNL     1     -12.681  13.653  65.568  1.00  0.00    -0.466 C  
HETATM   26  C   UNL     1     -11.761  12.878  66.533  1.00  0.00    -0.453 C  
HETATM   27  O   UNL     1     -12.035  14.838  65.089  1.00  0.00    -0.346 OA 
HETATM   28  C   UNL     1     -13.132  12.809  64.376  1.00  0.00    -0.015 C  
HETATM   29  C   UNL     1     -11.954  12.156  63.655  1.00  0.00    -0.534 C  
HETATM   30  H   UNL     1     -12.601  15.315  64.495  1.00  0.00     0.000 HD 
HETATM   31  C   UNL     1     -11.082  11.352  64.633  1.00  0.00    -0.277 C  
HETATM   32  O   UNL     1     -12.442  11.296  62.640  1.00  0.00    -0.783 OA 
HETATM   33  H   UNL     1     -11.710  10.890  62.191  1.00  0.00     0.000 HD 
ENDBRANCH  12  23
TORSDOF 1
ENDMDL
MODEL       61
REMARK 921   NORMALIZED FREE ENERGY PREDICTED BY IDOCK:   -4.32 KCAL/MOL
REMARK 922        TOTAL FREE ENERGY PREDICTED BY IDOCK:   -5.01 KCAL/MOL
REMARK 923 INTER-LIGAND FREE ENERGY PREDICTED BY IDOCK:   -4.53 KCAL/MOL
REMARK 924 INTRA-LIGAND FREE ENERGY PREDICTED BY IDOCK:   -0.48 KCAL/MOL
REMARK 927      BINDING AFFINITY PREDICTED BY RF-SCORE:    0.00 PKD
ROOT
HETATM    1  C   UNL     1      -9.103  10.976  68.020  1.00  0.00    -0.152 C  
HETATM    2  C   UNL     1      -9.534   9.806  69.013  1.00  0.00    -0.173 C  
HETATM    3  C   UNL     1      -7.647  10.723  67.627  1.00  0.00    -0.096 C  
HETATM    4  C   UNL     1     -10.990   9.784  69.498  1.00  0.00    -0.256 C  
HETATM    5  C   UNL     1      -8.729   9.834  70.304  1.00  0.00    -0.172 C  
HETATM    6  C   UNL     1      -7.721   9.819  66.412  1.00  0.00    -0.102 C  
HETATM    7  C   UNL     1      -9.166   9.850  65.840  1.00  0.00    -0.223 C  
HETATM    8  C   UNL     1      -8.063   8.777  70.805  1.00  0.00    -0.156 C  
HETATM    9  C   UNL     1      -7.447   8.764  72.199  1.00  0.00     0.010 C  
HETATM   10  C   UNL     1      -9.126   9.907  64.301  1.00  0.00    -0.297 C  
HETATM   11  C   UNL     1      -8.083   7.667  73.117  1.00  0.00    -0.123 C  
HETATM   12  C   UNL     1      -8.228   9.307  63.477  1.00  0.00    -0.173 C  
HETATM   13  C   UNL     1      -5.927   8.651  72.060  1.00  0.00    -0.065 C  
HETATM   14  C   UNL     1     -10.195  10.790  63.709  1.00  0.00    -0.354 C  
HETATM   15  C   UNL     1      -9.618   7.761  73.145  1.00  0.00    -0.337 C  
HETATM   16  C   UNL     1      -7.569   7.784  74.559  1.00  0.00    -0.219 C  
HETATM   17  C   UNL     1     -11.351  11.098  66.836  1.00  0.00    -0.168 C  
HETATM   18  C   UNL     1     -10.217  12.197  64.321  1.00  0.00    -0.351 C  
HETATM   19  O   UNL     1      -7.765   6.353  72.641  1.00  0.00    -0.102 OA 
HETATM   20  C   UNL     1      -9.826  11.066  66.604  1.00  0.00    -0.235 C  
HETATM   21  C   UNL     1      -9.541  12.321  65.719  1.00  0.00    -0.185 C  
HETATM   22  H   UNL     1      -8.150   5.688  73.199  1.00  0.00     0.000 HD 
ENDROOT
BRANCH  12  23
HETATM   23  C   UNL     1      -7.194   8.367  63.864  1.00  0.00    -0.094 C  
HETATM   24  C   UNL     1      -7.334   7.153  64.437  1.00  0.00    -0.082 C  
HETATM   25  C   UNL     1      -8.785   5.101  64.164  1.00  0.00    -0.059 C  
HETATM   26  C   UNL     1      -8.633   6.481  64.834  1.00  0.00     0.105 C  
HETATM   27  O   UNL     1      -9.049   5.240  62.764  1.00  0.00    -0.336 OA 
HETATM   28  C   UNL     1      -7.559   4.210  64.360  1.00  0.00    -0.076 C  
HETATM   29  C   UNL     1      -6.266   4.914  63.949  1.00  0.00    -0.022 C  
HETATM   30  H   UNL     1      -9.143   4.390  62.351  1.00  0.00     0.000 HD 
HETATM   31  C   UNL     1      -6.119   6.265  64.668  1.00  0.00    -0.030 C  
HETATM   32  O   UNL     1      -5.160   4.087  64.265  1.00  0.00    -0.008 OA 
HETATM   33  H   UNL     1      -4.356   4.524  64.009  1.00  0.00     0.000 HD 
ENDBRANCH  12  23
TORSDOF 1
ENDMDL
MODEL       62
REMARK 921   NORMALIZED FREE ENERGY PREDICTED BY IDOCK:   -4.30 KCAL/MOL
REMARK 922        TOTAL FREE ENERGY PREDICTED BY IDOCK:   -4.99 KCAL/MOL
REMARK 923 INTER-LIGAND FREE ENERGY PREDICTED BY IDOCK:   -4.35 KCAL/MOL
REMARK 924 INTRA-LIGAND FREE ENERGY PREDICTED BY IDOCK:   -0.64 KCAL/MOL
REMARK 927      BINDING AFFINITY PREDICTED BY RF-SCORE:    0.00 PKD
ROOT
HETATM    1  C   UNL     1      -8.126  10.236  68.435  1.00  0.00    -0.109 C  
HETATM    2  C   UNL     1      -9.698   9.979  68.468  1.00  0.00    -0.164 C  
HETATM    3  C   UNL     1      -7.454   9.016  69.065  1.00  0.00    -0.074 C  
HETATM    4  C   UNL     1     -10.606  11.031  67.817  1.00  0.00    -0.250 C  
HETATM    5  C   UNL     1     -10.227   9.884  69.892  1.00  0.00    -0.298 C  
HETATM    6  C   UNL     1      -7.245   8.047  67.917  1.00  0.00    -0.091 C  
HETATM    7  C   UNL     1      -7.409   8.808  66.572  1.00  0.00    -0.081 C  
HETATM    8  C   UNL     1     -10.970   8.863  70.359  1.00  0.00    -0.275 C  
HETATM    9  C   UNL     1     -11.667   8.891  71.713  1.00  0.00    -0.432 C  
HETATM   10  C   UNL     1      -6.331   8.352  65.569  1.00  0.00    -0.048 C  
HETATM   11  C   UNL     1     -13.224   8.792  71.580  1.00  0.00    -0.357 C  
HETATM   12  C   UNL     1      -5.810   7.106  65.430  1.00  0.00    -0.037 C  
HETATM   13  C   UNL     1     -11.051   7.807  72.602  1.00  0.00    -0.433 C  
HETATM   14  C   UNL     1      -5.796   9.476  64.719  1.00  0.00    -0.072 C  
HETATM   15  C   UNL     1     -13.784   9.838  70.602  1.00  0.00     0.250 C  
HETATM   16  C   UNL     1     -13.910   8.991  72.940  1.00  0.00    -0.116 C  
HETATM   17  C   UNL     1      -8.139  11.381  66.164  1.00  0.00    -0.011 C  
HETATM   18  C   UNL     1      -5.321  10.680  65.545  1.00  0.00    -0.134 C  
HETATM   19  O   UNL     1     -13.614   7.509  71.073  1.00  0.00    -0.612 OA 
HETATM   20  C   UNL     1      -7.407  10.324  67.016  1.00  0.00    -0.092 C  
HETATM   21  C   UNL     1      -5.910  10.768  66.984  1.00  0.00    -0.058 C  
HETATM   22  H   UNL     1     -14.559   7.450  70.994  1.00  0.00     0.000 HD 
ENDROOT
BRANCH  12  23
HETATM   23  C   UNL     1      -6.259   5.902  66.101  1.00  0.00    -0.040 C  
HETATM   24  C   UNL     1      -7.408   5.217  65.919  1.00  0.00    -0.081 C  
HETATM   25  C   UNL     1      -8.829   4.406  63.991  1.00  0.00    -0.142 C  
HETATM   26  C   UNL     1      -8.530   5.566  64.962  1.00  0.00    -0.147 C  
HETATM   27  O   UNL     1      -7.779   4.263  63.029  1.00  0.00    -0.063 OA 
HETATM   28  C   UNL     1      -9.039   3.073  64.710  1.00  0.00    -0.142 C  
HETATM   29  C   UNL     1      -7.890   2.749  65.665  1.00  0.00    -0.081 C  
HETATM   30  H   UNL     1      -7.963   3.549  62.431  1.00  0.00     0.000 HD 
HETATM   31  C   UNL     1      -7.646   3.903  66.650  1.00  0.00    -0.088 C  
HETATM   32  O   UNL     1      -8.198   1.568  66.386  1.00  0.00    -0.073 OA 
HETATM   33  H   UNL     1      -7.485   1.366  66.979  1.00  0.00     0.000 HD 
ENDBRANCH  12  23
TORSDOF 1
ENDMDL
MODEL       63
REMARK 921   NORMALIZED FREE ENERGY PREDICTED BY IDOCK:   -4.30 KCAL/MOL
REMARK 922        TOTAL FREE ENERGY PREDICTED BY IDOCK:   -4.99 KCAL/MOL
REMARK 923 INTER-LIGAND FREE ENERGY PREDICTED BY IDOCK:   -4.38 KCAL/MOL
REMARK 924 INTRA-LIGAND FREE ENERGY PREDICTED BY IDOCK:   -0.60 KCAL/MOL
REMARK 927      BINDING AFFINITY PREDICTED BY RF-SCORE:    0.00 PKD
ROOT
HETATM    1  C   UNL     1     -10.098   8.325  67.452  1.00  0.00    -0.298 C  
HETATM    2  C   UNL     1      -9.333   7.542  68.610  1.00  0.00    -0.143 C  
HETATM    3  C   UNL     1     -10.853   9.481  68.108  1.00  0.00    -0.208 C  
HETATM    4  C   UNL     1      -8.429   6.371  68.202  1.00  0.00    -0.115 C  
HETATM    5  C   UNL     1     -10.299   6.917  69.606  1.00  0.00    -0.224 C  
HETATM    6  C   UNL     1      -9.864  10.631  68.130  1.00  0.00    -0.170 C  
HETATM    7  C   UNL     1      -8.693  10.315  67.158  1.00  0.00    -0.131 C  
HETATM    8  C   UNL     1     -10.240   7.099  70.938  1.00  0.00    -0.207 C  
HETATM    9  C   UNL     1     -11.075   6.297  71.927  1.00  0.00    -0.315 C  
HETATM   10  C   UNL     1      -8.306  11.578  66.364  1.00  0.00    -0.118 C  
HETATM   11  C   UNL     1     -10.190   5.449  72.900  1.00  0.00    -0.186 C  
HETATM   12  C   UNL     1      -8.317  12.863  66.804  1.00  0.00     0.033 C  
HETATM   13  C   UNL     1     -12.040   7.250  72.638  1.00  0.00     0.019 C  
HETATM   14  C   UNL     1      -7.943  11.292  64.930  1.00  0.00     0.670 C  
HETATM   15  C   UNL     1      -9.171   4.582  72.142  1.00  0.00    -0.165 C  
HETATM   16  C   UNL     1     -11.052   4.524  73.773  1.00  0.00    -0.330 C  
HETATM   17  C   UNL     1      -8.238   8.056  65.739  1.00  0.00    -0.132 C  
HETATM   18  C   UNL     1      -9.010  10.471  64.192  1.00  0.00    -0.237 C  
HETATM   19  O   UNL     1      -9.432   6.297  73.774  1.00  0.00    -0.141 OA 
HETATM   20  C   UNL     1      -9.229   9.070  66.345  1.00  0.00    -0.239 C  
HETATM   21  C   UNL     1      -9.978   9.668  65.111  1.00  0.00    -0.082 C  
HETATM   22  H   UNL     1      -8.895   5.783  74.364  1.00  0.00     0.000 HD 
ENDROOT
BRANCH  12  23
HETATM   23  C   UNL     1      -8.559  13.309  68.162  1.00  0.00    -0.177 C  
HETATM   24  C   UNL     1      -9.303  14.354  68.584  1.00  0.00    -0.188 C  
HETATM   25  C   UNL     1     -11.557  15.383  68.081  1.00  0.00    -0.319 C  
HETATM   26  C   UNL     1     -10.060  15.338  67.715  1.00  0.00    -0.230 C  
HETATM   27  O   UNL     1     -12.221  14.186  67.659  1.00  0.00    -0.550 OA 
HETATM   28  C   UNL     1     -11.794  15.589  69.577  1.00  0.00    -0.390 C  
HETATM   29  C   UNL     1     -11.019  14.582  70.426  1.00  0.00     0.090 C  
HETATM   30  H   UNL     1     -13.143  14.214  67.885  1.00  0.00     0.000 HD 
HETATM   31  C   UNL     1      -9.523  14.593  70.071  1.00  0.00     0.648 C  
HETATM   32  O   UNL     1     -11.183  14.899  71.798  1.00  0.00    -0.548 OA 
HETATM   33  H   UNL     1     -10.702  14.272  72.325  1.00  0.00     0.000 HD 
ENDBRANCH  12  23
TORSDOF 1
ENDMDL
MODEL       64
REMARK 921   NORMALIZED FREE ENERGY PREDICTED BY IDOCK:   -4.29 KCAL/MOL
REMARK 922        TOTAL FREE ENERGY PREDICTED BY IDOCK:   -4.98 KCAL/MOL
REMARK 923 INTER-LIGAND FREE ENERGY PREDICTED BY IDOCK:   -4.76 KCAL/MOL
REMARK 924 INTRA-LIGAND FREE ENERGY PREDICTED BY IDOCK:   -0.22 KCAL/MOL
REMARK 927      BINDING AFFINITY PREDICTED BY RF-SCORE:    0.00 PKD
ROOT
HETATM    1  C   UNL     1     -10.931  13.685  70.452  1.00  0.00     0.813 C  
HETATM    2  C   UNL     1     -12.047  12.548  70.427  1.00  0.00    -0.380 C  
HETATM    3  C   UNL     1      -9.719  13.148  69.691  1.00  0.00     1.517 C  
HETATM    4  C   UNL     1     -13.406  12.870  71.063  1.00  0.00     0.201 C  
HETATM    5  C   UNL     1     -11.596  11.296  71.165  1.00  0.00     0.591 C  
HETATM    6  C   UNL     1      -9.966  13.526  68.243  1.00  0.00    -0.237 C  
HETATM    7  C   UNL     1     -11.082  14.606  68.182  1.00  0.00    -0.285 C  
HETATM    8  C   UNL     1     -11.617  10.057  70.640  1.00  0.00    -0.422 C  
HETATM    9  C   UNL     1     -11.369   8.799  71.462  1.00  0.00    -0.375 C  
HETATM   10  C   UNL     1     -10.718  15.687  67.147  1.00  0.00    -0.314 C  
HETATM   11  C   UNL     1     -12.612   7.848  71.481  1.00  0.00    -0.321 C  
HETATM   12  C   UNL     1     -10.063  15.514  65.969  1.00  0.00    -0.354 C  
HETATM   13  C   UNL     1     -10.086   8.132  70.959  1.00  0.00    -0.221 C  
HETATM   14  C   UNL     1     -11.107  17.078  67.577  1.00  0.00    -0.004 C  
HETATM   15  C   UNL     1     -13.894   8.587  71.897  1.00  0.00    -0.473 C  
HETATM   16  C   UNL     1     -12.399   6.674  72.448  1.00  0.00    -0.025 C  
HETATM   17  C   UNL     1     -12.575  15.610  70.203  1.00  0.00    -0.243 C  
HETATM   18  C   UNL     1     -10.586  17.443  68.974  1.00  0.00    -0.207 C  
HETATM   19  O   UNL     1     -12.860   7.304  70.177  1.00  0.00    -0.159 OA 
HETATM   20  C   UNL     1     -11.231  15.052  69.691  1.00  0.00    -0.296 C  
HETATM   21  C   UNL     1     -10.222  16.229  69.880  1.00  0.00    -0.092 C  
HETATM   22  H   UNL     1     -13.614   6.727  70.188  1.00  0.00     0.000 HD 
ENDROOT
BRANCH  12  23
HETATM   23  C   UNL     1      -9.691  14.249  65.366  1.00  0.00    -0.135 C  
HETATM   24  C   UNL     1     -10.482  13.201  65.056  1.00  0.00    -0.358 C  
HETATM   25  C   UNL     1     -12.733  12.797  63.978  1.00  0.00    -0.206 C  
HETATM   26  C   UNL     1     -11.976  13.091  65.288  1.00  0.00    -0.446 C  
HETATM   27  O   UNL     1     -12.744  13.948  63.126  1.00  0.00    -0.924 OA 
HETATM   28  C   UNL     1     -12.151  11.609  63.213  1.00  0.00    -0.255 C  
HETATM   29  C   UNL     1     -10.645  11.749  62.993  1.00  0.00    -0.138 C  
HETATM   30  H   UNL     1     -13.210  13.767  62.319  1.00  0.00     0.000 HD 
HETATM   31  C   UNL     1      -9.912  11.995  64.321  1.00  0.00    -0.266 C  
HETATM   32  O   UNL     1     -10.146  10.568  62.388  1.00  0.00    -0.746 OA 
HETATM   33  H   UNL     1      -9.210  10.656  62.251  1.00  0.00     0.000 HD 
ENDBRANCH  12  23
TORSDOF 1
ENDMDL
MODEL       65
REMARK 921   NORMALIZED FREE ENERGY PREDICTED BY IDOCK:   -4.28 KCAL/MOL
REMARK 922        TOTAL FREE ENERGY PREDICTED BY IDOCK:   -4.97 KCAL/MOL
REMARK 923 INTER-LIGAND FREE ENERGY PREDICTED BY IDOCK:   -4.22 KCAL/MOL
REMARK 924 INTRA-LIGAND FREE ENERGY PREDICTED BY IDOCK:   -0.75 KCAL/MOL
REMARK 927      BINDING AFFINITY PREDICTED BY RF-SCORE:    0.00 PKD
ROOT
HETATM    1  C   UNL     1     -11.293   7.177  70.834  1.00  0.00    -0.319 C  
HETATM    2  C   UNL     1     -11.116   8.755  70.961  1.00  0.00    -0.328 C  
HETATM    3  C   UNL     1     -10.425   6.716  69.663  1.00  0.00    -0.249 C  
HETATM    4  C   UNL     1     -11.830   9.462  72.122  1.00  0.00    -0.180 C  
HETATM    5  C   UNL     1     -11.632   9.484  69.729  1.00  0.00     0.035 C  
HETATM    6  C   UNL     1      -9.063   6.440  70.270  1.00  0.00    -0.155 C  
HETATM    7  C   UNL     1      -9.204   6.343  71.815  1.00  0.00    -0.143 C  
HETATM    8  C   UNL     1     -10.917  10.377  69.020  1.00  0.00    -0.282 C  
HETATM    9  C   UNL     1     -11.520  11.251  67.928  1.00  0.00    -0.360 C  
HETATM   10  C   UNL     1      -8.346   5.182  72.355  1.00  0.00    -0.121 C  
HETATM   11  C   UNL     1     -11.419  12.776  68.265  1.00  0.00    -0.314 C  
HETATM   12  C   UNL     1      -7.139   4.765  71.891  1.00  0.00    -0.062 C  
HETATM   13  C   UNL     1     -10.885  10.868  66.589  1.00  0.00    -0.258 C  
HETATM   14  C   UNL     1      -9.002   4.431  73.484  1.00  0.00    -0.100 C  
HETATM   15  C   UNL     1     -11.981  13.094  69.660  1.00  0.00    -0.370 C  
HETATM   16  C   UNL     1     -12.180  13.624  67.236  1.00  0.00    -0.317 C  
HETATM   17  C   UNL     1     -11.398   6.766  73.342  1.00  0.00     0.205 C  
HETATM   18  C   UNL     1     -10.426   3.966  73.149  1.00  0.00    -0.254 C  
HETATM   19  O   UNL     1     -10.052  13.210  68.268  1.00  0.00    -0.237 OA 
HETATM   20  C   UNL     1     -10.768   6.262  72.027  1.00  0.00    -0.268 C  
HETATM   21  C   UNL     1     -11.117   4.740  71.986  1.00  0.00     0.141 C  
HETATM   22  H   UNL     1      -9.991  14.135  68.472  1.00  0.00     0.000 HD 
ENDROOT
BRANCH  12  23
HETATM   23  C   UNL     1      -6.333   5.413  70.876  1.00  0.00    -0.031 C  
HETATM   24  C   UNL     1      -5.952   4.936  69.672  1.00  0.00    -0.017 C  
HETATM   25  C   UNL     1      -6.984   3.683  67.733  1.00  0.00    -0.051 C  
HETATM   26  C   UNL     1      -6.271   3.571  69.096  1.00  0.00    -0.028 C  
HETATM   27  O   UNL     1      -8.327   4.152  67.898  1.00  0.00    -0.093 OA 
HETATM   28  C   UNL     1      -6.248   4.596  66.754  1.00  0.00    -0.032 C  
HETATM   29  C   UNL     1      -5.943   5.964  67.363  1.00  0.00    -0.018 C  
HETATM   30  H   UNL     1      -8.767   4.221  67.060  1.00  0.00     0.000 HD 
HETATM   31  C   UNL     1      -5.190   5.822  68.696  1.00  0.00     0.000 C  
HETATM   32  O   UNL     1      -5.158   6.718  66.455  1.00  0.00    -0.015 OA 
HETATM   33  H   UNL     1      -4.968   7.569  66.833  1.00  0.00     0.000 HD 
ENDBRANCH  12  23
TORSDOF 1
ENDMDL
MODEL       66
REMARK 921   NORMALIZED FREE ENERGY PREDICTED BY IDOCK:   -4.25 KCAL/MOL
REMARK 922        TOTAL FREE ENERGY PREDICTED BY IDOCK:   -4.93 KCAL/MOL
REMARK 923 INTER-LIGAND FREE ENERGY PREDICTED BY IDOCK:   -4.52 KCAL/MOL
REMARK 924 INTRA-LIGAND FREE ENERGY PREDICTED BY IDOCK:   -0.42 KCAL/MOL
REMARK 927      BINDING AFFINITY PREDICTED BY RF-SCORE:    0.00 PKD
ROOT
HETATM    1  C   UNL     1      -9.406   8.781  68.776  1.00  0.00    -0.141 C  
HETATM    2  C   UNL     1      -9.520   8.129  67.326  1.00  0.00    -0.196 C  
HETATM    3  C   UNL     1      -8.451   9.969  68.664  1.00  0.00    -0.118 C  
HETATM    4  C   UNL     1     -10.489   6.951  67.149  1.00  0.00    -0.373 C  
HETATM    5  C   UNL     1      -8.188   7.568  66.851  1.00  0.00    -0.124 C  
HETATM    6  C   UNL     1      -9.332  11.145  68.286  1.00  0.00    -0.176 C  
HETATM    7  C   UNL     1     -10.817  10.776  68.556  1.00  0.00    -0.270 C  
HETATM    8  C   UNL     1      -7.614   7.871  65.672  1.00  0.00    -0.084 C  
HETATM    9  C   UNL     1      -6.397   7.137  65.123  1.00  0.00    -0.037 C  
HETATM   10  C   UNL     1     -11.554  11.973  69.188  1.00  0.00    -0.370 C  
HETATM   11  C   UNL     1      -6.703   6.407  63.773  1.00  0.00    -0.040 C  
HETATM   12  C   UNL     1     -11.359  13.292  68.927  1.00  0.00    -0.333 C  
HETATM   13  C   UNL     1      -5.228   8.123  65.044  1.00  0.00    -0.032 C  
HETATM   14  C   UNL     1     -12.547  11.569  70.247  1.00  0.00    -0.193 C  
HETATM   15  C   UNL     1      -7.944   5.505  63.877  1.00  0.00    -0.116 C  
HETATM   16  C   UNL     1      -5.516   5.540  63.329  1.00  0.00    -0.014 C  
HETATM   17  C   UNL     1     -11.850   8.413  69.375  1.00  0.00     1.196 C  
HETATM   18  C   UNL     1     -11.941  10.655  71.321  1.00  0.00    -0.344 C  
HETATM   19  O   UNL     1      -6.973   7.352  62.729  1.00  0.00    -0.067 OA 
HETATM   20  C   UNL     1     -10.707   9.448  69.406  1.00  0.00    -0.234 C  
HETATM   21  C   UNL     1     -10.640   9.910  70.897  1.00  0.00    -0.254 C  
HETATM   22  H   UNL     1      -7.159   6.909  61.910  1.00  0.00     0.000 HD 
ENDROOT
BRANCH  12  23
HETATM   23  C   UNL     1     -10.512  13.851  67.892  1.00  0.00    -0.242 C  
HETATM   24  C   UNL     1     -10.607  15.054  67.287  1.00  0.00    -0.279 C  
HETATM   25  C   UNL     1     -11.016  17.462  67.943  1.00  0.00    -0.155 C  
HETATM   26  C   UNL     1     -11.656  16.118  67.542  1.00  0.00     0.227 C  
HETATM   27  O   UNL     1     -10.471  17.393  69.266  1.00  0.00    -0.343 OA 
HETATM   28  C   UNL     1      -9.924  17.909  66.971  1.00  0.00    -0.324 C  
HETATM   29  C   UNL     1      -8.881  16.817  66.737  1.00  0.00    -0.230 C  
HETATM   30  H   UNL     1     -10.076  18.221  69.513  1.00  0.00     0.000 HD 
HETATM   31  C   UNL     1      -9.545  15.504  66.293  1.00  0.00    -0.338 C  
HETATM   32  O   UNL     1      -7.968  17.246  65.740  1.00  0.00    -0.511 OA 
HETATM   33  H   UNL     1      -7.320  16.567  65.595  1.00  0.00     0.000 HD 
ENDBRANCH  12  23
TORSDOF 1
ENDMDL
MODEL       67
REMARK 921   NORMALIZED FREE ENERGY PREDICTED BY IDOCK:   -4.24 KCAL/MOL
REMARK 922        TOTAL FREE ENERGY PREDICTED BY IDOCK:   -4.92 KCAL/MOL
REMARK 923 INTER-LIGAND FREE ENERGY PREDICTED BY IDOCK:   -4.21 KCAL/MOL
REMARK 924 INTRA-LIGAND FREE ENERGY PREDICTED BY IDOCK:   -0.72 KCAL/MOL
REMARK 927      BINDING AFFINITY PREDICTED BY RF-SCORE:    0.00 PKD
ROOT
HETATM    1  C   UNL     1     -10.165   9.763  67.211  1.00  0.00    -0.289 C  
HETATM    2  C   UNL     1      -8.835   9.171  67.859  1.00  0.00    -0.128 C  
HETATM    3  C   UNL     1     -10.816  10.666  68.258  1.00  0.00    -0.287 C  
HETATM    4  C   UNL     1      -7.945   8.285  66.976  1.00  0.00    -0.100 C  
HETATM    5  C   UNL     1      -9.135   8.288  69.061  1.00  0.00    -0.147 C  
HETATM    6  C   UNL     1     -10.192  12.031  68.042  1.00  0.00    -0.203 C  
HETATM    7  C   UNL     1      -9.491  12.057  66.655  1.00  0.00    -0.222 C  
HETATM    8  C   UNL     1      -8.571   8.440  70.274  1.00  0.00    -0.128 C  
HETATM    9  C   UNL     1      -8.719   7.421  71.396  1.00  0.00    -0.127 C  
HETATM   10  C   UNL     1      -9.760  13.399  65.948  1.00  0.00    -0.197 C  
HETATM   11  C   UNL     1      -7.345   6.802  71.820  1.00  0.00    -0.085 C  
HETATM   12  C   UNL     1      -9.874  14.625  66.523  1.00  0.00    -0.288 C  
HETATM   13  C   UNL     1      -9.488   8.072  72.549  1.00  0.00    -0.297 C  
HETATM   14  C   UNL     1      -9.970  13.259  64.463  1.00  0.00    -0.117 C  
HETATM   15  C   UNL     1      -6.567   6.251  70.614  1.00  0.00    -0.045 C  
HETATM   16  C   UNL     1      -7.538   5.662  72.830  1.00  0.00    -0.097 C  
HETATM   17  C   UNL     1      -9.173  10.035  64.885  1.00  0.00    -0.291 C  
HETATM   18  C   UNL     1     -11.034  12.213  64.102  1.00  0.00    -0.416 C  
HETATM   19  O   UNL     1      -6.504   7.792  72.429  1.00  0.00    -0.053 OA 
HETATM   20  C   UNL     1     -10.023  10.740  65.961  1.00  0.00    -0.295 C  
HETATM   21  C   UNL     1     -11.328  11.160  65.212  1.00  0.00     0.118 C  
HETATM   22  H   UNL     1      -5.671   7.416  72.686  1.00  0.00     0.000 HD 
ENDROOT
BRANCH  12  23
HETATM   23  C   UNL     1      -9.625  14.953  67.913  1.00  0.00    -0.205 C  
HETATM   24  C   UNL     1     -10.448  15.558  68.795  1.00  0.00    -0.234 C  
HETATM   25  C   UNL     1     -12.876  15.434  69.492  1.00  0.00     0.315 C  
HETATM   26  C   UNL     1     -11.852  16.063  68.527  1.00  0.00    -0.126 C  
HETATM   27  O   UNL     1     -13.093  14.054  69.176  1.00  0.00     0.288 OA 
HETATM   28  C   UNL     1     -12.459  15.556  70.958  1.00  0.00    -0.492 C  
HETATM   29  C   UNL     1     -11.041  15.037  71.197  1.00  0.00    -0.152 C  
HETATM   30  H   UNL     1     -13.724  13.666  69.771  1.00  0.00     0.000 HD 
HETATM   31  C   UNL     1     -10.036  15.716  70.252  1.00  0.00    -0.021 C  
HETATM   32  O   UNL     1     -10.670  15.286  72.542  1.00  0.00     0.119 OA 
HETATM   33  H   UNL     1      -9.789  14.963  72.690  1.00  0.00     0.000 HD 
ENDBRANCH  12  23
TORSDOF 1
ENDMDL
MODEL       68
REMARK 921   NORMALIZED FREE ENERGY PREDICTED BY IDOCK:   -4.14 KCAL/MOL
REMARK 922        TOTAL FREE ENERGY PREDICTED BY IDOCK:   -4.82 KCAL/MOL
REMARK 923 INTER-LIGAND FREE ENERGY PREDICTED BY IDOCK:   -4.06 KCAL/MOL
REMARK 924 INTRA-LIGAND FREE ENERGY PREDICTED BY IDOCK:   -0.76 KCAL/MOL
REMARK 927      BINDING AFFINITY PREDICTED BY RF-SCORE:    0.00 PKD
ROOT
HETATM    1  C   UNL     1     -10.517   8.102  68.928  1.00  0.00    -0.202 C  
HETATM    2  C   UNL     1      -9.410   8.958  68.167  1.00  0.00    -0.151 C  
HETATM    3  C   UNL     1     -10.083   6.638  68.863  1.00  0.00    -0.178 C  
HETATM    4  C   UNL     1      -9.572  10.484  68.155  1.00  0.00    -0.163 C  
HETATM    5  C   UNL     1      -9.332   8.597  66.690  1.00  0.00    -0.246 C  
HETATM    6  C   UNL     1      -9.199   6.437  70.079  1.00  0.00    -0.159 C  
HETATM    7  C   UNL     1      -9.415   7.618  71.067  1.00  0.00    -0.164 C  
HETATM    8  C   UNL     1      -8.198   8.252  66.053  1.00  0.00    -0.119 C  
HETATM    9  C   UNL     1      -8.103   8.107  64.539  1.00  0.00    -0.142 C  
HETATM   10  C   UNL     1      -9.469   7.095  72.515  1.00  0.00    -0.167 C  
HETATM   11  C   UNL     1      -7.094   9.124  63.908  1.00  0.00    -0.093 C  
HETATM   12  C   UNL     1      -8.763   6.063  73.046  1.00  0.00    -0.122 C  
HETATM   13  C   UNL     1      -7.798   6.644  64.207  1.00  0.00    -0.115 C  
HETATM   14  C   UNL     1     -10.482   7.812  73.370  1.00  0.00    -0.271 C  
HETATM   15  C   UNL     1      -7.382  10.568  64.351  1.00  0.00     0.094 C  
HETATM   16  C   UNL     1      -7.141   9.074  62.374  1.00  0.00    -0.098 C  
HETATM   17  C   UNL     1     -10.927   9.838  70.742  1.00  0.00    -0.406 C  
HETATM   18  C   UNL     1     -11.880   7.855  72.736  1.00  0.00    -0.287 C  
HETATM   19  O   UNL     1      -5.751   8.833  64.317  1.00  0.00    -0.063 OA 
HETATM   20  C   UNL     1     -10.703   8.332  70.493  1.00  0.00    -0.238 C  
HETATM   21  C   UNL     1     -11.913   7.638  71.194  1.00  0.00    -0.319 C  
HETATM   22  H   UNL     1      -5.139   9.450  63.934  1.00  0.00     0.000 HD 
ENDROOT
BRANCH  12  23
HETATM   23  C   UNL     1      -7.698   5.322  72.398  1.00  0.00    -0.101 C  
HETATM   24  C   UNL     1      -7.642   4.003  72.119  1.00  0.00    -0.070 C  
HETATM   25  C   UNL     1      -9.159   2.213  71.175  1.00  0.00    -0.095 C  
HETATM   26  C   UNL     1      -8.694   2.961  72.441  1.00  0.00    -0.093 C  
HETATM   27  O   UNL     1      -9.960   3.062  70.346  1.00  0.00     0.034 OA 
HETATM   28  C   UNL     1      -7.993   1.662  70.354  1.00  0.00    -0.050 C  
HETATM   29  C   UNL     1      -6.951   2.735  70.043  1.00  0.00    -0.034 C  
HETATM   30  H   UNL     1     -10.246   2.601  69.567  1.00  0.00     0.000 HD 
HETATM   31  C   UNL     1      -6.473   3.431  71.328  1.00  0.00    -0.019 C  
HETATM   32  O   UNL     1      -5.844   2.139  69.388  1.00  0.00    -0.021 OA 
HETATM   33  H   UNL     1      -5.196   2.806  69.195  1.00  0.00     0.000 HD 
ENDBRANCH  12  23
TORSDOF 1
ENDMDL
MODEL       69
REMARK 921   NORMALIZED FREE ENERGY PREDICTED BY IDOCK:   -4.07 KCAL/MOL
REMARK 922        TOTAL FREE ENERGY PREDICTED BY IDOCK:   -4.75 KCAL/MOL
REMARK 923 INTER-LIGAND FREE ENERGY PREDICTED BY IDOCK:   -4.42 KCAL/MOL
REMARK 924 INTRA-LIGAND FREE ENERGY PREDICTED BY IDOCK:   -0.33 KCAL/MOL
REMARK 927      BINDING AFFINITY PREDICTED BY RF-SCORE:    0.00 PKD
ROOT
HETATM    1  C   UNL     1      -8.745   8.417  68.959  1.00  0.00    -0.142 C  
HETATM    2  C   UNL     1      -9.744   7.340  69.577  1.00  0.00    -0.158 C  
HETATM    3  C   UNL     1      -7.447   7.686  68.615  1.00  0.00    -0.103 C  
HETATM    4  C   UNL     1     -11.160   7.807  69.939  1.00  0.00    -0.142 C  
HETATM    5  C   UNL     1      -9.216   6.761  70.882  1.00  0.00    -0.157 C  
HETATM    6  C   UNL     1      -7.650   7.172  67.202  1.00  0.00    -0.103 C  
HETATM    7  C   UNL     1      -8.859   7.909  66.560  1.00  0.00    -0.175 C  
HETATM    8  C   UNL     1      -9.089   5.445  71.132  1.00  0.00    -0.163 C  
HETATM    9  C   UNL     1      -8.767   4.885  72.512  1.00  0.00    -0.121 C  
HETATM   10  C   UNL     1      -8.544   8.272  65.097  1.00  0.00    -0.132 C  
HETATM   11  C   UNL     1      -9.913   3.973  73.064  1.00  0.00    -0.139 C  
HETATM   12  C   UNL     1      -7.812   7.551  64.208  1.00  0.00    -0.133 C  
HETATM   13  C   UNL     1      -7.400   4.198  72.453  1.00  0.00    -0.067 C  
HETATM   14  C   UNL     1      -9.087   9.617  64.687  1.00  0.00    -0.286 C  
HETATM   15  C   UNL     1     -11.281   4.672  73.010  1.00  0.00    -0.312 C  
HETATM   16  C   UNL     1      -9.641   3.559  74.518  1.00  0.00    -0.140 C  
HETATM   17  C   UNL     1     -10.549   9.690  67.698  1.00  0.00    -0.334 C  
HETATM   18  C   UNL     1      -8.682  10.746  65.644  1.00  0.00    -0.198 C  
HETATM   19  O   UNL     1     -10.036   2.777  72.282  1.00  0.00    -0.153 OA 
HETATM   20  C   UNL     1      -9.133   9.094  67.570  1.00  0.00    -0.137 C  
HETATM   21  C   UNL     1      -8.253  10.283  67.068  1.00  0.00    -0.122 C  
HETATM   22  H   UNL     1     -10.731   2.223  72.617  1.00  0.00     0.000 HD 
ENDROOT
BRANCH  12  23
HETATM   23  C   UNL     1      -7.288   6.214  64.405  1.00  0.00    -0.069 C  
HETATM   24  C   UNL     1      -7.962   5.082  64.697  1.00  0.00    -0.102 C  
HETATM   25  C   UNL     1     -10.073   3.904  63.955  1.00  0.00    -0.195 C  
HETATM   26  C   UNL     1      -9.456   4.944  64.911  1.00  0.00    -0.001 C  
HETATM   27  O   UNL     1     -10.105   4.401  62.613  1.00  0.00    -0.328 OA 
HETATM   28  C   UNL     1      -9.332   2.567  63.979  1.00  0.00    -0.123 C  
HETATM   29  C   UNL     1      -7.830   2.738  63.758  1.00  0.00    -0.080 C  
HETATM   30  H   UNL     1     -10.485   3.761  62.024  1.00  0.00     0.000 HD 
HETATM   31  C   UNL     1      -7.235   3.745  64.756  1.00  0.00    -0.067 C  
HETATM   32  O   UNL     1      -7.187   1.484  63.911  1.00  0.00    -0.041 OA 
HETATM   33  H   UNL     1      -6.253   1.590  63.774  1.00  0.00     0.000 HD 
ENDBRANCH  12  23
TORSDOF 1
ENDMDL
MODEL       70
REMARK 921   NORMALIZED FREE ENERGY PREDICTED BY IDOCK:   -3.92 KCAL/MOL
REMARK 922        TOTAL FREE ENERGY PREDICTED BY IDOCK:   -4.58 KCAL/MOL
REMARK 923 INTER-LIGAND FREE ENERGY PREDICTED BY IDOCK:   -3.83 KCAL/MOL
REMARK 924 INTRA-LIGAND FREE ENERGY PREDICTED BY IDOCK:   -0.75 KCAL/MOL
REMARK 927      BINDING AFFINITY PREDICTED BY RF-SCORE:    0.00 PKD
ROOT
HETATM    1  C   UNL     1      -7.917   9.332  66.843  1.00  0.00    -0.105 C  
HETATM    2  C   UNL     1      -9.307   9.228  67.616  1.00  0.00    -0.146 C  
HETATM    3  C   UNL     1      -7.315   7.927  66.803  1.00  0.00    -0.089 C  
HETATM    4  C   UNL     1     -10.157  10.501  67.727  1.00  0.00    -0.205 C  
HETATM    5  C   UNL     1      -9.119   8.799  69.064  1.00  0.00    -0.141 C  
HETATM    6  C   UNL     1      -7.882   7.294  65.547  1.00  0.00    -0.115 C  
HETATM    7  C   UNL     1      -8.482   8.406  64.642  1.00  0.00    -0.094 C  
HETATM    8  C   UNL     1      -9.762   7.766  69.639  1.00  0.00    -0.172 C  
HETATM    9  C   UNL     1      -9.725   7.489  71.136  1.00  0.00    -0.168 C  
HETATM   10  C   UNL     1      -8.123   8.140  63.167  1.00  0.00    -0.127 C  
HETATM   11  C   UNL     1     -11.143   7.581  71.792  1.00  0.00    -0.241 C  
HETATM   12  C   UNL     1      -8.014   6.936  62.549  1.00  0.00    -0.109 C  
HETATM   13  C   UNL     1      -9.020   6.149  71.368  1.00  0.00    -0.143 C  
HETATM   14  C   UNL     1      -7.813   9.396  62.394  1.00  0.00    -0.122 C  
HETATM   15  C   UNL     1     -11.850   8.903  71.449  1.00  0.00    -0.383 C  
HETATM   16  C   UNL     1     -11.056   7.465  73.321  1.00  0.00    -0.303 C  
HETATM   17  C   UNL     1      -8.733  11.050  65.156  1.00  0.00    -0.068 C  
HETATM   18  C   UNL     1      -6.757  10.277  63.078  1.00  0.00    -0.126 C  
HETATM   19  O   UNL     1     -11.995   6.529  71.319  1.00  0.00    -0.336 OA 
HETATM   20  C   UNL     1      -7.941   9.735  65.303  1.00  0.00    -0.123 C  
HETATM   21  C   UNL     1      -6.574  10.024  64.604  1.00  0.00    -0.128 C  
HETATM   22  H   UNL     1     -12.855   6.585  71.717  1.00  0.00     0.000 HD 
ENDROOT
BRANCH  12  23
HETATM   23  C   UNL     1      -8.351   5.643  63.112  1.00  0.00    -0.056 C  
HETATM   24  C   UNL     1      -7.541   4.587  63.338  1.00  0.00    -0.059 C  
HETATM   25  C   UNL     1      -5.240   4.151  64.291  1.00  0.00    -0.009 C  
HETATM   26  C   UNL     1      -6.060   4.498  63.032  1.00  0.00    -0.018 C  
HETATM   27  O   UNL     1      -5.194   5.264  65.192  1.00  0.00    -0.009 OA 
HETATM   28  C   UNL     1      -5.780   2.927  65.029  1.00  0.00    -0.017 C  
HETATM   29  C   UNL     1      -7.274   3.047  65.325  1.00  0.00    -0.066 C  
HETATM   30  H   UNL     1      -4.690   5.050  65.967  1.00  0.00     0.000 HD 
HETATM   31  C   UNL     1      -8.070   3.346  64.045  1.00  0.00    -0.086 C  
HETATM   32  O   UNL     1      -7.738   1.837  65.899  1.00  0.00    -0.065 OA 
HETATM   33  H   UNL     1      -8.667   1.912  66.084  1.00  0.00     0.000 HD 
ENDBRANCH  12  23
TORSDOF 1
ENDMDL
MODEL       71
REMARK 921   NORMALIZED FREE ENERGY PREDICTED BY IDOCK:   -3.88 KCAL/MOL
REMARK 922        TOTAL FREE ENERGY PREDICTED BY IDOCK:   -4.54 KCAL/MOL
REMARK 923 INTER-LIGAND FREE ENERGY PREDICTED BY IDOCK:   -3.94 KCAL/MOL
REMARK 924 INTRA-LIGAND FREE ENERGY PREDICTED BY IDOCK:   -0.60 KCAL/MOL
REMARK 927      BINDING AFFINITY PREDICTED BY RF-SCORE:    0.00 PKD
ROOT
HETATM    1  C   UNL     1      -8.259   9.453  66.142  1.00  0.00    -0.111 C  
HETATM    2  C   UNL     1      -9.385  10.369  66.799  1.00  0.00    -0.181 C  
HETATM    3  C   UNL     1      -6.927   9.840  66.785  1.00  0.00    -0.085 C  
HETATM    4  C   UNL     1     -10.840  10.123  66.377  1.00  0.00     0.006 C  
HETATM    5  C   UNL     1      -9.169  11.843  66.488  1.00  0.00    -0.216 C  
HETATM    6  C   UNL     1      -6.818   8.962  68.017  1.00  0.00    -0.070 C  
HETATM    7  C   UNL     1      -7.843   7.800  67.908  1.00  0.00    -0.127 C  
HETATM    8  C   UNL     1      -9.119  12.815  67.417  1.00  0.00    -0.192 C  
HETATM    9  C   UNL     1      -9.120  14.299  67.073  1.00  0.00    -0.246 C  
HETATM   10  C   UNL     1      -7.206   6.482  68.387  1.00  0.00    -0.085 C  
HETATM   11  C   UNL     1     -10.372  15.041  67.649  1.00  0.00    -0.243 C  
HETATM   12  C   UNL     1      -6.304   6.319  69.390  1.00  0.00    -0.035 C  
HETATM   13  C   UNL     1      -7.784  14.903  67.514  1.00  0.00    -0.214 C  
HETATM   14  C   UNL     1      -7.625   5.286  67.571  1.00  0.00    -0.088 C  
HETATM   15  C   UNL     1     -11.684  14.339  67.261  1.00  0.00    -0.422 C  
HETATM   16  C   UNL     1     -10.437  16.491  67.149  1.00  0.00    -0.300 C  
HETATM   17  C   UNL     1      -9.719   7.376  66.004  1.00  0.00     0.145 C  
HETATM   18  C   UNL     1      -7.427   5.488  66.062  1.00  0.00    -0.082 C  
HETATM   19  O   UNL     1     -10.335  15.071  69.083  1.00  0.00    -0.234 OA 
HETATM   20  C   UNL     1      -8.318   7.883  66.402  1.00  0.00    -0.129 C  
HETATM   21  C   UNL     1      -7.333   6.973  65.602  1.00  0.00    -0.079 C  
HETATM   22  H   UNL     1     -11.094  15.521  69.432  1.00  0.00     0.000 HD 
ENDROOT
BRANCH  12  23
HETATM   23  C   UNL     1      -5.855   7.336  70.321  1.00  0.00    -0.024 C  
HETATM   24  C   UNL     1      -6.563   7.967  71.281  1.00  0.00    -0.042 C  
HETATM   25  C   UNL     1      -8.234   7.373  73.083  1.00  0.00    -0.114 C  
HETATM   26  C   UNL     1      -8.029   7.768  71.607  1.00  0.00    -0.104 C  
HETATM   27  O   UNL     1      -7.790   6.032  73.318  1.00  0.00    -0.104 OA 
HETATM   28  C   UNL     1      -7.522   8.317  74.052  1.00  0.00    -0.223 C  
HETATM   29  C   UNL     1      -6.046   8.495  73.699  1.00  0.00    -0.119 C  
HETATM   30  H   UNL     1      -7.916   5.789  74.227  1.00  0.00     0.000 HD 
HETATM   31  C   UNL     1      -5.875   8.934  72.236  1.00  0.00    -0.074 C  
HETATM   32  O   UNL     1      -5.472   9.469  74.555  1.00  0.00    -0.149 OA 
HETATM   33  H   UNL     1      -4.555   9.579  74.336  1.00  0.00     0.000 HD 
ENDBRANCH  12  23
TORSDOF 1
ENDMDL
MODEL       72
REMARK 921   NORMALIZED FREE ENERGY PREDICTED BY IDOCK:   -3.73 KCAL/MOL
REMARK 922        TOTAL FREE ENERGY PREDICTED BY IDOCK:   -4.39 KCAL/MOL
REMARK 923 INTER-LIGAND FREE ENERGY PREDICTED BY IDOCK:   -4.75 KCAL/MOL
REMARK 924 INTRA-LIGAND FREE ENERGY PREDICTED BY IDOCK:    0.36 KCAL/MOL
REMARK 927      BINDING AFFINITY PREDICTED BY RF-SCORE:    0.00 PKD
ROOT
HETATM    1  C   UNL     1      -7.945  13.535  69.039  1.00  0.00     0.199 C  
HETATM    2  C   UNL     1      -6.914  14.689  68.662  1.00  0.00    -0.111 C  
HETATM    3  C   UNL     1      -9.277  13.881  68.374  1.00  0.00    -0.194 C  
HETATM    4  C   UNL     1      -5.466  14.537  69.148  1.00  0.00    -0.084 C  
HETATM    5  C   UNL     1      -7.340  16.036  69.227  1.00  0.00    -0.231 C  
HETATM    6  C   UNL     1      -9.199  13.259  66.993  1.00  0.00    -0.237 C  
HETATM    7  C   UNL     1      -8.037  12.227  66.964  1.00  0.00    -0.141 C  
HETATM    8  C   UNL     1      -7.464  17.160  68.498  1.00  0.00    -0.238 C  
HETATM    9  C   UNL     1      -7.678  18.536  69.116  1.00  0.00    -0.088 C  
HETATM   10  C   UNL     1      -8.467  10.964  66.193  1.00  0.00    -0.171 C  
HETATM   11  C   UNL     1      -6.504  19.520  68.795  1.00  0.00    -0.272 C  
HETATM   12  C   UNL     1      -9.280  10.898  65.107  1.00  0.00    -0.240 C  
HETATM   13  C   UNL     1      -9.055  19.054  68.690  1.00  0.00    -0.401 C  
HETATM   14  C   UNL     1      -7.941   9.688  66.799  1.00  0.00    -0.105 C  
HETATM   15  C   UNL     1      -5.135  18.915  69.150  1.00  0.00    -0.190 C  
HETATM   16  C   UNL     1      -6.659  20.840  69.565  1.00  0.00     0.424 C  
HETATM   17  C   UNL     1      -6.234  11.658  68.900  1.00  0.00    -0.057 C  
HETATM   18  C   UNL     1      -8.251   9.563  68.298  1.00  0.00    -0.113 C  
HETATM   19  O   UNL     1      -6.462  19.828  67.396  1.00  0.00    -0.193 OA 
HETATM   20  C   UNL     1      -7.665  12.065  68.492  1.00  0.00    -0.127 C  
HETATM   21  C   UNL     1      -8.566  10.905  69.022  1.00  0.00    -0.110 C  
HETATM   22  H   UNL     1      -5.750  20.426  67.201  1.00  0.00     0.000 HD 
ENDROOT
BRANCH  12  23
HETATM   23  C   UNL     1      -9.805  12.020  64.352  1.00  0.00    -0.180 C  
HETATM   24  C   UNL     1     -11.047  12.547  64.384  1.00  0.00    -0.383 C  
HETATM   25  C   UNL     1     -12.773  13.193  66.115  1.00  0.00     0.161 C  
HETATM   26  C   UNL     1     -12.215  12.067  65.221  1.00  0.00    -0.027 C  
HETATM   27  O   UNL     1     -11.867  13.492  67.183  1.00  0.00    -0.354 OA 
HETATM   28  C   UNL     1     -13.072  14.473  65.335  1.00  0.00     0.125 C  
HETATM   29  C   UNL     1     -11.876  14.932  64.503  1.00  0.00    -0.396 C  
HETATM   30  H   UNL     1     -12.210  14.185  67.733  1.00  0.00     0.000 HD 
HETATM   31  C   UNL     1     -11.371  13.804  63.589  1.00  0.00     0.259 C  
HETATM   32  O   UNL     1     -12.252  16.048  63.714  1.00  0.00    -1.269 OA 
HETATM   33  H   UNL     1     -11.509  16.334  63.197  1.00  0.00     0.000 HD 
ENDBRANCH  12  23
TORSDOF 1
ENDMDL
MODEL       73
REMARK 921   NORMALIZED FREE ENERGY PREDICTED BY IDOCK:   -3.70 KCAL/MOL
REMARK 922        TOTAL FREE ENERGY PREDICTED BY IDOCK:   -4.35 KCAL/MOL
REMARK 923 INTER-LIGAND FREE ENERGY PREDICTED BY IDOCK:   -3.72 KCAL/MOL
REMARK 924 INTRA-LIGAND FREE ENERGY PREDICTED BY IDOCK:   -0.64 KCAL/MOL
REMARK 927      BINDING AFFINITY PREDICTED BY RF-SCORE:    0.00 PKD
ROOT
HETATM    1  C   UNL     1     -10.401  13.330  66.080  1.00  0.00    -0.290 C  
HETATM    2  C   UNL     1     -11.632  13.314  67.092  1.00  0.00    -0.402 C  
HETATM    3  C   UNL     1      -9.165  12.884  66.862  1.00  0.00    -0.234 C  
HETATM    4  C   UNL     1     -13.020  13.651  66.532  1.00  0.00     0.556 C  
HETATM    5  C   UNL     1     -11.450  14.319  68.221  1.00  0.00    -0.334 C  
HETATM    6  C   UNL     1      -9.150  11.372  66.740  1.00  0.00    -0.181 C  
HETATM    7  C   UNL     1     -10.104  10.944  65.591  1.00  0.00    -0.318 C  
HETATM    8  C   UNL     1     -11.546  14.016  69.529  1.00  0.00    -0.350 C  
HETATM    9  C   UNL     1     -11.576  15.069  70.629  1.00  0.00    -0.358 C  
HETATM   10  C   UNL     1      -9.463   9.815  64.761  1.00  0.00    -0.318 C  
HETATM   11  C   UNL     1     -12.916  15.042  71.439  1.00  0.00    -0.371 C  
HETATM   12  C   UNL     1      -8.668   8.810  65.213  1.00  0.00    -0.216 C  
HETATM   13  C   UNL     1     -10.324  14.907  71.495  1.00  0.00     1.459 C  
HETATM   14  C   UNL     1      -9.737   9.932  63.284  1.00  0.00     0.227 C  
HETATM   15  C   UNL     1     -14.145  15.108  70.518  1.00  0.00     0.456 C  
HETATM   16  C   UNL     1     -12.992  16.216  72.426  1.00  0.00    -0.290 C  
HETATM   17  C   UNL     1     -11.743  12.488  64.091  1.00  0.00    -0.471 C  
HETATM   18  C   UNL     1      -9.387  11.314  62.715  1.00  0.00    -0.362 C  
HETATM   19  O   UNL     1     -13.034  13.827  72.191  1.00  0.00    -0.352 OA 
HETATM   20  C   UNL     1     -10.417  12.309  64.858  1.00  0.00    -0.321 C  
HETATM   21  C   UNL     1      -9.311  12.461  63.766  1.00  0.00     0.596 C  
HETATM   22  H   UNL     1     -13.847  13.811  72.682  1.00  0.00     0.000 HD 
ENDROOT
BRANCH  12  23
HETATM   23  C   UNL     1      -8.369   8.501  66.597  1.00  0.00    -0.112 C  
HETATM   24  C   UNL     1      -9.189   7.994  67.542  1.00  0.00    -0.153 C  
HETATM   25  C   UNL     1     -10.923   6.164  67.742  1.00  0.00    -0.303 C  
HETATM   26  C   UNL     1     -10.653   7.637  67.376  1.00  0.00    -0.356 C  
HETATM   27  O   UNL     1     -10.386   5.285  66.746  1.00  0.00    -0.224 OA 
HETATM   28  C   UNL     1     -10.358   5.781  69.109  1.00  0.00    -0.316 C  
HETATM   29  C   UNL     1      -8.881   6.151  69.244  1.00  0.00    -0.124 C  
HETATM   30  H   UNL     1     -10.552   4.378  66.971  1.00  0.00     0.000 HD 
HETATM   31  C   UNL     1      -8.650   7.636  68.920  1.00  0.00    -0.129 C  
HETATM   32  O   UNL     1      -8.449   5.883  70.568  1.00  0.00    -0.124 OA 
HETATM   33  H   UNL     1      -7.531   6.113  70.652  1.00  0.00     0.000 HD 
ENDBRANCH  12  23
TORSDOF 1
ENDMDL
MODEL       74
REMARK 921   NORMALIZED FREE ENERGY PREDICTED BY IDOCK:   -3.68 KCAL/MOL
REMARK 922        TOTAL FREE ENERGY PREDICTED BY IDOCK:   -4.33 KCAL/MOL
REMARK 923 INTER-LIGAND FREE ENERGY PREDICTED BY IDOCK:   -3.66 KCAL/MOL
REMARK 924 INTRA-LIGAND FREE ENERGY PREDICTED BY IDOCK:   -0.67 KCAL/MOL
REMARK 927      BINDING AFFINITY PREDICTED BY RF-SCORE:    0.00 PKD
ROOT
HETATM    1  C   UNL     1      -9.693  12.750  67.722  1.00  0.00    -0.207 C  
HETATM    2  C   UNL     1     -11.149  12.840  68.364  1.00  0.00    -0.293 C  
HETATM    3  C   UNL     1      -8.730  12.344  68.838  1.00  0.00     0.287 C  
HETATM    4  C   UNL     1     -12.322  13.159  67.427  1.00  0.00    -0.027 C  
HETATM    5  C   UNL     1     -11.234  13.928  69.424  1.00  0.00    -0.273 C  
HETATM    6  C   UNL     1      -8.744  10.827  68.834  1.00  0.00    -0.154 C  
HETATM    7  C   UNL     1      -9.374  10.327  67.504  1.00  0.00    -0.164 C  
HETATM    8  C   UNL     1     -11.686  13.734  70.677  1.00  0.00    -0.158 C  
HETATM    9  C   UNL     1     -11.967  14.873  71.649  1.00  0.00    -0.427 C  
HETATM   10  C   UNL     1      -8.581   9.122  66.961  1.00  0.00    -0.127 C  
HETATM   11  C   UNL     1     -13.473  14.937  72.068  1.00  0.00    -0.388 C  
HETATM   12  C   UNL     1      -7.978   8.141  67.681  1.00  0.00    -0.122 C  
HETATM   13  C   UNL     1     -10.999  14.756  72.829  1.00  0.00     1.391 C  
HETATM   14  C   UNL     1      -8.447   9.125  65.460  1.00  0.00    -0.160 C  
HETATM   15  C   UNL     1     -14.409  14.953  70.848  1.00  0.00     0.022 C  
HETATM   16  C   UNL     1     -13.762  16.189  72.911  1.00  0.00    -0.292 C  
HETATM   17  C   UNL     1     -10.489  11.778  65.511  1.00  0.00    -0.311 C  
HETATM   18  C   UNL     1      -7.902  10.450  64.908  1.00  0.00    -0.099 C  
HETATM   19  O   UNL     1     -13.838  13.789  72.846  1.00  0.00    -0.668 OA 
HETATM   20  C   UNL     1      -9.424  11.634  66.618  1.00  0.00    -0.213 C  
HETATM   21  C   UNL     1      -8.062  11.676  65.856  1.00  0.00     0.319 C  
HETATM   22  H   UNL     1     -14.752  13.829  73.101  1.00  0.00     0.000 HD 
ENDROOT
BRANCH  12  23
HETATM   23  C   UNL     1      -8.071   7.939  69.114  1.00  0.00    -0.124 C  
HETATM   24  C   UNL     1      -9.105   7.445  69.827  1.00  0.00    -0.141 C  
HETATM   25  C   UNL     1     -10.753   5.533  69.675  1.00  0.00    -0.278 C  
HETATM   26  C   UNL     1     -10.447   6.994  69.286  1.00  0.00    -0.223 C  
HETATM   27  O   UNL     1      -9.923   4.626  68.940  1.00  0.00    -0.164 OA 
HETATM   28  C   UNL     1     -10.584   5.272  71.171  1.00  0.00    -0.243 C  
HETATM   29  C   UNL     1      -9.222   5.735  71.685  1.00  0.00    -0.146 C  
HETATM   30  H   UNL     1     -10.111   3.727  69.179  1.00  0.00     0.000 HD 
HETATM   31  C   UNL     1      -8.965   7.207  71.324  1.00  0.00    -0.147 C  
HETATM   32  O   UNL     1      -9.173   5.577  73.093  1.00  0.00    -0.133 OA 
HETATM   33  H   UNL     1      -8.326   5.865  73.413  1.00  0.00     0.000 HD 
ENDBRANCH  12  23
TORSDOF 1
ENDMDL
MODEL       75
REMARK 921   NORMALIZED FREE ENERGY PREDICTED BY IDOCK:   -3.58 KCAL/MOL
REMARK 922        TOTAL FREE ENERGY PREDICTED BY IDOCK:   -4.22 KCAL/MOL
REMARK 923 INTER-LIGAND FREE ENERGY PREDICTED BY IDOCK:   -3.48 KCAL/MOL
REMARK 924 INTRA-LIGAND FREE ENERGY PREDICTED BY IDOCK:   -0.75 KCAL/MOL
REMARK 927      BINDING AFFINITY PREDICTED BY RF-SCORE:    0.00 PKD
ROOT
HETATM    1  C   UNL     1      -7.384   6.686  66.820  1.00  0.00    -0.078 C  
HETATM    2  C   UNL     1      -8.414   7.853  66.481  1.00  0.00    -0.134 C  
HETATM    3  C   UNL     1      -7.132   6.726  68.327  1.00  0.00    -0.086 C  
HETATM    4  C   UNL     1      -8.896   7.980  65.030  1.00  0.00     0.126 C  
HETATM    5  C   UNL     1      -7.834   9.226  66.785  1.00  0.00    -0.104 C  
HETATM    6  C   UNL     1      -8.212   5.846  68.928  1.00  0.00    -0.103 C  
HETATM    7  C   UNL     1      -8.845   4.977  67.805  1.00  0.00    -0.106 C  
HETATM    8  C   UNL     1      -8.438  10.153  67.551  1.00  0.00    -0.118 C  
HETATM    9  C   UNL     1      -7.947  11.591  67.665  1.00  0.00    -0.126 C  
HETATM   10  C   UNL     1      -9.075   3.540  68.311  1.00  0.00    -0.201 C  
HETATM   11  C   UNL     1      -9.004  12.621  67.144  1.00  0.00    -0.205 C  
HETATM   12  C   UNL     1      -9.433   3.155  69.563  1.00  0.00    -0.190 C  
HETATM   13  C   UNL     1      -7.496  11.840  69.106  1.00  0.00     0.035 C  
HETATM   14  C   UNL     1      -8.799   2.489  67.267  1.00  0.00    -0.158 C  
HETATM   15  C   UNL     1      -9.499  12.271  65.731  1.00  0.00    -0.128 C  
HETATM   16  C   UNL     1      -8.424  14.043  67.111  1.00  0.00    -0.207 C  
HETATM   17  C   UNL     1      -8.359   5.040  65.143  1.00  0.00    -0.138 C  
HETATM   18  C   UNL     1      -7.417   2.639  66.615  1.00  0.00    -0.070 C  
HETATM   19  O   UNL     1     -10.162  12.638  67.989  1.00  0.00    -0.217 OA 
HETATM   20  C   UNL     1      -7.850   5.180  66.593  1.00  0.00    -0.100 C  
HETATM   21  C   UNL     1      -6.778   4.054  66.739  1.00  0.00    -0.047 C  
HETATM   22  H   UNL     1     -10.803  13.263  67.673  1.00  0.00     0.000 HD 
ENDROOT
BRANCH  12  23
HETATM   23  C   UNL     1      -9.814   4.026  70.659  1.00  0.00    -0.229 C  
HETATM   24  C   UNL     1      -9.261   4.124  71.886  1.00  0.00    -0.176 C  
HETATM   25  C   UNL     1      -6.949   4.223  72.905  1.00  0.00    -0.062 C  
HETATM   26  C   UNL     1      -8.098   3.315  72.424  1.00  0.00    -0.064 C  
HETATM   27  O   UNL     1      -6.278   4.828  71.794  1.00  0.00    -0.020 OA 
HETATM   28  C   UNL     1      -7.421   5.316  73.864  1.00  0.00    -0.087 C  
HETATM   29  C   UNL     1      -8.592   6.115  73.293  1.00  0.00    -0.123 C  
HETATM   30  H   UNL     1      -5.571   5.388  72.090  1.00  0.00     0.000 HD 
HETATM   31  C   UNL     1      -9.740   5.186  72.865  1.00  0.00    -0.169 C  
HETATM   32  O   UNL     1      -9.060   7.027  74.271  1.00  0.00    -0.193 OA 
HETATM   33  H   UNL     1      -9.788   7.524  73.916  1.00  0.00     0.000 HD 
ENDBRANCH  12  23
TORSDOF 1
ENDMDL
MODEL       76
REMARK 921   NORMALIZED FREE ENERGY PREDICTED BY IDOCK:   -3.37 KCAL/MOL
REMARK 922        TOTAL FREE ENERGY PREDICTED BY IDOCK:   -4.00 KCAL/MOL
REMARK 923 INTER-LIGAND FREE ENERGY PREDICTED BY IDOCK:   -5.21 KCAL/MOL
REMARK 924 INTRA-LIGAND FREE ENERGY PREDICTED BY IDOCK:    1.21 KCAL/MOL
REMARK 927      BINDING AFFINITY PREDICTED BY RF-SCORE:    0.00 PKD
ROOT
HETATM    1  C   UNL     1     -11.775  12.114  67.479  1.00  0.00    -0.385 C  
HETATM    2  C   UNL     1     -11.007  10.759  67.814  1.00  0.00    -0.354 C  
HETATM    3  C   UNL     1     -11.746  12.977  68.741  1.00  0.00    -0.363 C  
HETATM    4  C   UNL     1     -10.826   9.742  66.679  1.00  0.00    -0.011 C  
HETATM    5  C   UNL     1     -11.715   9.961  68.899  1.00  0.00     0.240 C  
HETATM    6  C   UNL     1     -10.456  13.770  68.642  1.00  0.00    -0.245 C  
HETATM    7  C   UNL     1      -9.923  13.698  67.184  1.00  0.00    -0.247 C  
HETATM    8  C   UNL     1     -11.121   9.508  70.018  1.00  0.00    -0.268 C  
HETATM    9  C   UNL     1     -11.787   8.532  70.980  1.00  0.00    -0.290 C  
HETATM   10  C   UNL     1      -9.395  15.076  66.743  1.00  0.00    -0.271 C  
HETATM   11  C   UNL     1     -11.007   7.179  71.086  1.00  0.00    -0.248 C  
HETATM   12  C   UNL     1      -8.759  15.999  67.510  1.00  0.00    -0.193 C  
HETATM   13  C   UNL     1     -11.994   9.236  72.324  1.00  0.00    -0.204 C  
HETATM   14  C   UNL     1      -9.704  15.400  65.304  1.00  0.00    -0.145 C  
HETATM   15  C   UNL     1     -10.737   6.562  69.704  1.00  0.00    -0.323 C  
HETATM   16  C   UNL     1     -11.784   6.155  71.926  1.00  0.00    -0.337 C  
HETATM   17  C   UNL     1     -10.898  12.279  65.097  1.00  0.00    -0.340 C  
HETATM   18  C   UNL     1     -11.190  15.231  64.956  1.00  0.00    -0.409 C  
HETATM   19  O   UNL     1      -9.727   7.373  71.703  1.00  0.00    -0.155 OA 
HETATM   20  C   UNL     1     -11.144  13.087  66.387  1.00  0.00    -0.313 C  
HETATM   21  C   UNL     1     -11.995  14.312  65.923  1.00  0.00    -0.400 C  
HETATM   22  H   UNL     1      -9.254   6.552  71.768  1.00  0.00     0.000 HD 
ENDROOT
BRANCH  12  23
HETATM   23  C   UNL     1      -8.313  15.825  68.878  1.00  0.00    -0.213 C  
HETATM   24  C   UNL     1      -7.765  14.733  69.452  1.00  0.00    -0.104 C  
HETATM   25  C   UNL     1      -6.016  12.994  68.896  1.00  0.00    -0.079 C  
HETATM   26  C   UNL     1      -7.500  13.397  68.788  1.00  0.00    -0.061 C  
HETATM   27  O   UNL     1      -5.203  13.809  68.043  1.00  0.00    -0.104 OA 
HETATM   28  C   UNL     1      -5.484  13.076  70.327  1.00  0.00    -0.132 C  
HETATM   29  C   UNL     1      -5.764  14.434  70.967  1.00  0.00    -0.188 C  
HETATM   30  H   UNL     1      -4.289  13.562  68.110  1.00  0.00     0.000 HD 
HETATM   31  C   UNL     1      -7.258  14.787  70.886  1.00  0.00     1.108 C  
HETATM   32  O   UNL     1      -5.358  14.407  72.325  1.00  0.00    -0.179 OA 
HETATM   33  H   UNL     1      -5.532  15.251  72.723  1.00  0.00     0.000 HD 
ENDBRANCH  12  23
TORSDOF 1
ENDMDL
MODEL       77
REMARK 921   NORMALIZED FREE ENERGY PREDICTED BY IDOCK:   -3.22 KCAL/MOL
REMARK 922        TOTAL FREE ENERGY PREDICTED BY IDOCK:   -3.85 KCAL/MOL
REMARK 923 INTER-LIGAND FREE ENERGY PREDICTED BY IDOCK:   -3.69 KCAL/MOL
REMARK 924 INTRA-LIGAND FREE ENERGY PREDICTED BY IDOCK:   -0.16 KCAL/MOL
REMARK 927      BINDING AFFINITY PREDICTED BY RF-SCORE:    0.00 PKD
ROOT
HETATM    1  C   UNL     1      -8.513   6.906  66.385  1.00  0.00    -0.130 C  
HETATM    2  C   UNL     1      -9.545   7.933  67.031  1.00  0.00    -0.247 C  
HETATM    3  C   UNL     1      -7.123   7.270  66.907  1.00  0.00    -0.086 C  
HETATM    4  C   UNL     1     -11.036   7.734  66.725  1.00  0.00     0.315 C  
HETATM    5  C   UNL     1      -9.277   9.363  66.583  1.00  0.00    -0.193 C  
HETATM    6  C   UNL     1      -6.974   6.491  68.200  1.00  0.00    -0.077 C  
HETATM    7  C   UNL     1      -8.062   5.382  68.256  1.00  0.00    -0.095 C  
HETATM    8  C   UNL     1      -9.117  10.403  67.421  1.00  0.00    -0.144 C  
HETATM    9  C   UNL     1      -9.067  11.852  66.952  1.00  0.00    -0.196 C  
HETATM   10  C   UNL     1      -7.459   4.075  68.804  1.00  0.00    -0.055 C  
HETATM   11  C   UNL     1     -10.239  12.707  67.540  1.00  0.00    -0.215 C  
HETATM   12  C   UNL     1      -6.501   3.946  69.758  1.00  0.00    -0.033 C  
HETATM   13  C   UNL     1      -7.676  12.416  67.254  1.00  0.00    -0.158 C  
HETATM   14  C   UNL     1      -7.992   2.841  68.122  1.00  0.00    -0.063 C  
HETATM   15  C   UNL     1     -11.607  12.049  67.297  1.00  0.00    -0.383 C  
HETATM   16  C   UNL     1     -10.265  14.113  66.923  1.00  0.00    -0.267 C  
HETATM   17  C   UNL     1     -10.081   4.908  66.517  1.00  0.00    -0.285 C  
HETATM   18  C   UNL     1      -7.887   2.908  66.592  1.00  0.00    -0.076 C  
HETATM   19  O   UNL     1     -10.103  12.851  68.961  1.00  0.00    -0.422 OA 
HETATM   20  C   UNL     1      -8.633   5.368  66.782  1.00  0.00    -0.110 C  
HETATM   21  C   UNL     1      -7.750   4.343  66.001  1.00  0.00    -0.094 C  
HETATM   22  H   UNL     1     -10.814  13.370  69.317  1.00  0.00     0.000 HD 
ENDROOT
BRANCH  12  23
HETATM   23  C   UNL     1      -5.940   5.009  70.569  1.00  0.00    -0.018 C  
HETATM   24  C   UNL     1      -6.586   5.900  71.350  1.00  0.00    -0.050 C  
HETATM   25  C   UNL     1      -8.464   5.903  73.044  1.00  0.00    -0.117 C  
HETATM   26  C   UNL     1      -8.084   6.011  71.554  1.00  0.00    -0.114 C  
HETATM   27  O   UNL     1      -8.293   4.562  73.518  1.00  0.00    -0.101 OA 
HETATM   28  C   UNL     1      -7.661   6.856  73.929  1.00  0.00    -0.106 C  
HETATM   29  C   UNL     1      -6.156   6.719  73.703  1.00  0.00    -0.063 C  
HETATM   30  H   UNL     1      -8.526   4.496  74.436  1.00  0.00     0.000 HD 
HETATM   31  C   UNL     1      -5.802   6.878  72.215  1.00  0.00    -0.038 C  
HETATM   32  O   UNL     1      -5.475   7.707  74.458  1.00  0.00    -0.065 OA 
HETATM   33  H   UNL     1      -4.540   7.622  74.318  1.00  0.00     0.000 HD 
ENDBRANCH  12  23
TORSDOF 1
ENDMDL
MODEL       78
REMARK 921   NORMALIZED FREE ENERGY PREDICTED BY IDOCK:   -3.22 KCAL/MOL
REMARK 922        TOTAL FREE ENERGY PREDICTED BY IDOCK:   -3.84 KCAL/MOL
REMARK 923 INTER-LIGAND FREE ENERGY PREDICTED BY IDOCK:   -3.41 KCAL/MOL
REMARK 924 INTRA-LIGAND FREE ENERGY PREDICTED BY IDOCK:   -0.43 KCAL/MOL
REMARK 927      BINDING AFFINITY PREDICTED BY RF-SCORE:    0.00 PKD
ROOT
HETATM    1  C   UNL     1     -10.815  10.133  67.674  1.00  0.00    -0.346 C  
HETATM    2  C   UNL     1      -9.308  10.395  67.228  1.00  0.00    -0.164 C  
HETATM    3  C   UNL     1     -10.994   8.620  67.801  1.00  0.00     0.080 C  
HETATM    4  C   UNL     1      -8.844  11.853  67.103  1.00  0.00    -0.180 C  
HETATM    5  C   UNL     1      -9.014   9.809  65.854  1.00  0.00    -0.189 C  
HETATM    6  C   UNL     1     -10.593   8.297  69.228  1.00  0.00    -0.191 C  
HETATM    7  C   UNL     1     -10.563   9.610  70.059  1.00  0.00    -0.300 C  
HETATM    8  C   UNL     1      -7.990   8.978  65.586  1.00  0.00    -0.104 C  
HETATM    9  C   UNL     1      -7.587   8.579  64.173  1.00  0.00    -0.123 C  
HETATM   10  C   UNL     1     -11.178   9.372  71.451  1.00  0.00    -0.452 C  
HETATM   11  C   UNL     1      -6.136   9.045  63.816  1.00  0.00    -0.083 C  
HETATM   12  C   UNL     1     -11.093   8.247  72.208  1.00  0.00    -0.429 C  
HETATM   13  C   UNL     1      -7.814   7.074  64.006  1.00  0.00    -0.109 C  
HETATM   14  C   UNL     1     -12.002  10.533  71.945  1.00  0.00     0.389 C  
HETATM   15  C   UNL     1      -5.929  10.543  64.093  1.00  0.00    -0.046 C  
HETATM   16  C   UNL     1      -5.816   8.781  62.337  1.00  0.00    -0.087 C  
HETATM   17  C   UNL     1     -10.941  12.153  69.214  1.00  0.00    -0.168 C  
HETATM   18  C   UNL     1     -13.064  10.989  70.934  1.00  0.00    -0.199 C  
HETATM   19  O   UNL     1      -5.165   8.347  64.607  1.00  0.00    -0.035 OA 
HETATM   20  C   UNL     1     -11.276  10.651  69.108  1.00  0.00    -0.324 C  
HETATM   21  C   UNL     1     -12.796  10.566  69.459  1.00  0.00     0.544 C  
HETATM   22  H   UNL     1      -4.285   8.629  64.390  1.00  0.00     0.000 HD 
ENDROOT
BRANCH  12  23
HETATM   23  C   UNL     1     -10.284   7.077  71.928  1.00  0.00    -0.205 C  
HETATM   24  C   UNL     1     -10.112   5.973  72.685  1.00  0.00    -0.198 C  
HETATM   25  C   UNL     1     -11.532   4.389  74.052  1.00  0.00     0.413 C  
HETATM   26  C   UNL     1     -10.723   5.701  74.045  1.00  0.00    -0.177 C  
HETATM   27  O   UNL     1     -12.747   4.535  73.308  1.00  0.00    -0.033 OA 
HETATM   28  C   UNL     1     -10.741   3.205  73.496  1.00  0.00    -0.298 C  
HETATM   29  C   UNL     1     -10.139   3.508  72.125  1.00  0.00    -0.135 C  
HETATM   30  H   UNL     1     -13.245   3.727  73.312  1.00  0.00     0.000 HD 
HETATM   31  C   UNL     1      -9.301   4.796  72.161  1.00  0.00    -0.171 C  
HETATM   32  O   UNL     1      -9.323   2.423  71.719  1.00  0.00    -0.089 OA 
HETATM   33  H   UNL     1      -8.949   2.612  70.867  1.00  0.00     0.000 HD 
ENDBRANCH  12  23
TORSDOF 1
ENDMDL
MODEL       79
REMARK 921   NORMALIZED FREE ENERGY PREDICTED BY IDOCK:   -3.22 KCAL/MOL
REMARK 922        TOTAL FREE ENERGY PREDICTED BY IDOCK:   -3.84 KCAL/MOL
REMARK 923 INTER-LIGAND FREE ENERGY PREDICTED BY IDOCK:   -3.20 KCAL/MOL
REMARK 924 INTRA-LIGAND FREE ENERGY PREDICTED BY IDOCK:   -0.64 KCAL/MOL
REMARK 927      BINDING AFFINITY PREDICTED BY RF-SCORE:    0.00 PKD
ROOT
HETATM    1  C   UNL     1     -10.808   9.910  68.215  1.00  0.00    -0.275 C  
HETATM    2  C   UNL     1      -9.272  10.171  67.881  1.00  0.00    -0.144 C  
HETATM    3  C   UNL     1     -11.078   8.424  67.977  1.00  0.00     0.317 C  
HETATM    4  C   UNL     1      -8.722  11.585  68.115  1.00  0.00    -0.157 C  
HETATM    5  C   UNL     1      -8.958   9.905  66.416  1.00  0.00    -0.169 C  
HETATM    6  C   UNL     1     -10.753   7.752  69.298  1.00  0.00    -0.156 C  
HETATM    7  C   UNL     1     -10.682   8.830  70.415  1.00  0.00    -0.254 C  
HETATM    8  C   UNL     1      -7.972   9.095  65.987  1.00  0.00    -0.103 C  
HETATM    9  C   UNL     1      -7.536   9.012  64.529  1.00  0.00    -0.108 C  
HETATM   10  C   UNL     1     -11.365   8.313  71.696  1.00  0.00    -0.329 C  
HETATM   11  C   UNL     1      -6.048   9.453  64.329  1.00  0.00    -0.079 C  
HETATM   12  C   UNL     1     -11.374   7.040  72.168  1.00  0.00    -0.302 C  
HETATM   13  C   UNL     1      -7.842   7.605  64.008  1.00  0.00    -0.127 C  
HETATM   14  C   UNL     1     -12.141   9.378  72.428  1.00  0.00    -0.030 C  
HETATM   15  C   UNL     1      -5.768  10.829  64.956  1.00  0.00    -0.037 C  
HETATM   16  C   UNL     1      -5.685   9.522  62.839  1.00  0.00    -0.085 C  
HETATM   17  C   UNL     1     -10.881  11.519  70.184  1.00  0.00     0.510 C  
HETATM   18  C   UNL     1     -13.133  10.125  71.526  1.00  0.00    -0.529 C  
HETATM   19  O   UNL     1      -5.151   8.529  64.958  1.00  0.00    -0.034 OA 
HETATM   20  C   UNL     1     -11.296  10.108  69.718  1.00  0.00    -0.312 C  
HETATM   21  C   UNL     1     -12.831  10.042  70.001  1.00  0.00     0.254 C  
HETATM   22  H   UNL     1      -4.248   8.797  64.837  1.00  0.00     0.000 HD 
ENDROOT
BRANCH  12  23
HETATM   23  C   UNL     1     -10.622   5.918  71.641  1.00  0.00    -0.295 C  
HETATM   24  C   UNL     1      -9.290   5.703  71.685  1.00  0.00    -0.164 C  
HETATM   25  C   UNL     1      -7.409   5.887  73.365  1.00  0.00    -0.086 C  
HETATM   26  C   UNL     1      -8.244   6.616  72.292  1.00  0.00    -0.104 C  
HETATM   27  O   UNL     1      -8.187   5.656  74.545  1.00  0.00    -0.106 OA 
HETATM   28  C   UNL     1      -6.839   4.559  72.868  1.00  0.00    -0.058 C  
HETATM   29  C   UNL     1      -7.918   3.661  72.264  1.00  0.00    -0.068 C  
HETATM   30  H   UNL     1      -7.673   5.207  75.206  1.00  0.00     0.000 HD 
HETATM   31  C   UNL     1      -8.702   4.399  71.166  1.00  0.00    -0.136 C  
HETATM   32  O   UNL     1      -7.312   2.503  71.715  1.00  0.00    -0.038 OA 
HETATM   33  H   UNL     1      -7.982   1.944  71.340  1.00  0.00     0.000 HD 
ENDBRANCH  12  23
TORSDOF 1
ENDMDL
MODEL       80
REMARK 921   NORMALIZED FREE ENERGY PREDICTED BY IDOCK:   -2.99 KCAL/MOL
REMARK 922        TOTAL FREE ENERGY PREDICTED BY IDOCK:   -3.60 KCAL/MOL
REMARK 923 INTER-LIGAND FREE ENERGY PREDICTED BY IDOCK:   -4.41 KCAL/MOL
REMARK 924 INTRA-LIGAND FREE ENERGY PREDICTED BY IDOCK:    0.81 KCAL/MOL
REMARK 927      BINDING AFFINITY PREDICTED BY RF-SCORE:    0.00 PKD
ROOT
HETATM    1  C   UNL     1      -7.643  12.588  69.426  1.00  0.00     0.513 C  
HETATM    2  C   UNL     1      -7.024  14.007  69.049  1.00  0.00    -0.112 C  
HETATM    3  C   UNL     1      -8.423  12.095  68.207  1.00  0.00    -0.176 C  
HETATM    4  C   UNL     1      -6.121  14.689  70.086  1.00  0.00    -0.158 C  
HETATM    5  C   UNL     1      -8.105  15.044  68.781  1.00  0.00    -0.166 C  
HETATM    6  C   UNL     1      -7.405  11.345  67.368  1.00  0.00    -0.119 C  
HETATM    7  C   UNL     1      -6.152  11.043  68.237  1.00  0.00    -0.049 C  
HETATM    8  C   UNL     1      -8.175  15.797  67.668  1.00  0.00    -0.166 C  
HETATM    9  C   UNL     1      -9.132  16.973  67.515  1.00  0.00    -0.223 C  
HETATM   10  C   UNL     1      -5.647   9.614  67.961  1.00  0.00    -0.040 C  
HETATM   11  C   UNL     1      -8.377  18.329  67.312  1.00  0.00    -0.246 C  
HETATM   12  C   UNL     1      -5.661   8.949  66.776  1.00  0.00    -0.040 C  
HETATM   13  C   UNL     1     -10.132  16.647  66.403  1.00  0.00    -0.325 C  
HETATM   14  C   UNL     1      -5.149   8.908  69.196  1.00  0.00    -0.036 C  
HETATM   15  C   UNL     1      -7.315  18.563  68.399  1.00  0.00    -0.301 C  
HETATM   16  C   UNL     1      -9.352  19.515  67.330  1.00  0.00    -0.403 C  
HETATM   17  C   UNL     1      -5.628  11.822  70.775  1.00  0.00    -0.115 C  
HETATM   18  C   UNL     1      -6.162   8.931  70.350  1.00  0.00    -0.040 C  
HETATM   19  O   UNL     1      -7.685  18.347  66.056  1.00  0.00    -0.405 OA 
HETATM   20  C   UNL     1      -6.643  11.379  69.701  1.00  0.00    -0.128 C  
HETATM   21  C   UNL     1      -7.243  10.049  70.258  1.00  0.00    -0.155 C  
HETATM   22  H   UNL     1      -7.228  19.170  65.933  1.00  0.00     0.000 HD 
ENDROOT
BRANCH  12  23
HETATM   23  C   UNL     1      -6.025   9.496  65.484  1.00  0.00    -0.064 C  
HETATM   24  C   UNL     1      -7.192   9.371  64.816  1.00  0.00    -0.106 C  
HETATM   25  C   UNL     1      -9.667   9.493  65.316  1.00  0.00    -0.198 C  
HETATM   26  C   UNL     1      -8.415   8.596  65.264  1.00  0.00    -0.196 C  
HETATM   27  O   UNL     1      -9.593  10.409  66.415  1.00  0.00    -0.167 OA 
HETATM   28  C   UNL     1      -9.887  10.276  64.022  1.00  0.00    -0.286 C  
HETATM   29  C   UNL     1      -8.639  11.048  63.598  1.00  0.00     0.118 C  
HETATM   30  H   UNL     1     -10.365  10.962  66.447  1.00  0.00     0.000 HD 
HETATM   31  C   UNL     1      -7.417  10.119  63.509  1.00  0.00    -0.132 C  
HETATM   32  O   UNL     1      -8.866  11.652  62.336  1.00  0.00    -0.492 OA 
HETATM   33  H   UNL     1      -8.090  12.132  62.072  1.00  0.00     0.000 HD 
ENDBRANCH  12  23
TORSDOF 1
ENDMDL
MODEL       81
REMARK 921   NORMALIZED FREE ENERGY PREDICTED BY IDOCK:   -2.99 KCAL/MOL
REMARK 922        TOTAL FREE ENERGY PREDICTED BY IDOCK:   -3.60 KCAL/MOL
REMARK 923 INTER-LIGAND FREE ENERGY PREDICTED BY IDOCK:   -3.00 KCAL/MOL
REMARK 924 INTRA-LIGAND FREE ENERGY PREDICTED BY IDOCK:   -0.60 KCAL/MOL
REMARK 927      BINDING AFFINITY PREDICTED BY RF-SCORE:    0.00 PKD
ROOT
HETATM    1  C   UNL     1      -8.165   5.408  69.387  1.00  0.00    -0.096 C  
HETATM    2  C   UNL     1      -8.741   4.770  68.046  1.00  0.00    -0.110 C  
HETATM    3  C   UNL     1      -7.164   6.490  68.982  1.00  0.00    -0.091 C  
HETATM    4  C   UNL     1      -9.833   3.700  68.177  1.00  0.00     0.027 C  
HETATM    5  C   UNL     1      -7.655   4.073  67.238  1.00  0.00    -0.073 C  
HETATM    6  C   UNL     1      -7.994   7.751  68.826  1.00  0.00    -0.125 C  
HETATM    7  C   UNL     1      -9.375   7.539  69.506  1.00  0.00    -0.153 C  
HETATM    8  C   UNL     1      -7.403   4.314  65.939  1.00  0.00    -0.080 C  
HETATM    9  C   UNL     1      -6.465   3.457  65.098  1.00  0.00    -0.035 C  
HETATM   10  C   UNL     1      -9.786   8.807  70.280  1.00  0.00    -0.198 C  
HETATM   11  C   UNL     1      -7.204   2.761  63.907  1.00  0.00    -0.049 C  
HETATM   12  C   UNL     1      -9.540  10.098  69.937  1.00  0.00    -0.172 C  
HETATM   13  C   UNL     1      -5.271   4.315  64.670  1.00  0.00    -0.009 C  
HETATM   14  C   UNL     1     -10.481   8.509  71.584  1.00  0.00    -0.345 C  
HETATM   15  C   UNL     1      -8.452   1.994  64.375  1.00  0.00    -0.087 C  
HETATM   16  C   UNL     1      -6.279   1.776  63.178  1.00  0.00    -0.009 C  
HETATM   17  C   UNL     1     -10.371   5.297  70.647  1.00  0.00    -0.324 C  
HETATM   18  C   UNL     1      -9.696   7.538  72.476  1.00  0.00    -0.218 C  
HETATM   19  O   UNL     1      -7.657   3.729  62.950  1.00  0.00    -0.056 OA 
HETATM   20  C   UNL     1      -9.167   6.208  70.332  1.00  0.00    -0.162 C  
HETATM   21  C   UNL     1      -8.645   6.661  71.732  1.00  0.00    -0.126 C  
HETATM   22  H   UNL     1      -8.105   3.307  62.227  1.00  0.00     0.000 HD 
ENDROOT
BRANCH  12  23
HETATM   23  C   UNL     1      -8.961  10.565  68.692  1.00  0.00    -0.162 C  
HETATM   24  C   UNL     1      -8.047  11.540  68.505  1.00  0.00    -0.146 C  
HETATM   25  C   UNL     1      -5.872  12.305  69.544  1.00  0.00    -0.101 C  
HETATM   26  C   UNL     1      -7.410  12.406  69.574  1.00  0.00     0.447 C  
HETATM   27  O   UNL     1      -5.435  11.030  70.029  1.00  0.00    -0.053 OA 
HETATM   28  C   UNL     1      -5.291  12.540  68.150  1.00  0.00    -0.069 C  
HETATM   29  C   UNL     1      -5.951  11.652  67.096  1.00  0.00    -0.127 C  
HETATM   30  H   UNL     1      -4.488  10.968  70.011  1.00  0.00     0.000 HD 
HETATM   31  C   UNL     1      -7.480  11.809  67.117  1.00  0.00    -0.149 C  
HETATM   32  O   UNL     1      -5.457  12.000  65.813  1.00  0.00    -0.151 OA 
HETATM   33  H   UNL     1      -5.867  11.448  65.158  1.00  0.00     0.000 HD 
ENDBRANCH  12  23
TORSDOF 1
ENDMDL
MODEL       82
REMARK 921   NORMALIZED FREE ENERGY PREDICTED BY IDOCK:   -2.98 KCAL/MOL
REMARK 922        TOTAL FREE ENERGY PREDICTED BY IDOCK:   -3.59 KCAL/MOL
REMARK 923 INTER-LIGAND FREE ENERGY PREDICTED BY IDOCK:   -3.05 KCAL/MOL
REMARK 924 INTRA-LIGAND FREE ENERGY PREDICTED BY IDOCK:   -0.53 KCAL/MOL
REMARK 927      BINDING AFFINITY PREDICTED BY RF-SCORE:    0.00 PKD
ROOT
HETATM    1  C   UNL     1      -9.484  14.542  66.095  1.00  0.00    -0.290 C  
HETATM    2  C   UNL     1      -9.519  15.628  67.259  1.00  0.00    -0.221 C  
HETATM    3  C   UNL     1      -8.166  13.777  66.227  1.00  0.00     1.097 C  
HETATM    4  C   UNL     1     -10.785  16.485  67.397  1.00  0.00    -0.260 C  
HETATM    5  C   UNL     1      -8.407  16.656  67.109  1.00  0.00    -0.202 C  
HETATM    6  C   UNL     1      -8.469  12.637  67.180  1.00  0.00    -0.186 C  
HETATM    7  C   UNL     1     -10.010  12.472  67.303  1.00  0.00    -0.211 C  
HETATM    8  C   UNL     1      -7.531  16.974  68.079  1.00  0.00    -0.185 C  
HETATM    9  C   UNL     1      -6.571  18.153  67.983  1.00  0.00    -0.194 C  
HETATM   10  C   UNL     1     -10.385  10.977  67.303  1.00  0.00    -0.249 C  
HETATM   11  C   UNL     1      -6.829  19.222  69.097  1.00  0.00    -0.336 C  
HETATM   12  C   UNL     1      -9.682   9.951  67.848  1.00  0.00    -0.162 C  
HETATM   13  C   UNL     1      -5.137  17.614  67.961  1.00  0.00    -0.132 C  
HETATM   14  C   UNL     1     -11.654  10.682  66.545  1.00  0.00     0.891 C  
HETATM   15  C   UNL     1      -8.303  19.657  69.144  1.00  0.00    -0.070 C  
HETATM   16  C   UNL     1      -5.965  20.472  68.878  1.00  0.00    -0.375 C  
HETATM   17  C   UNL     1     -11.965  14.000  66.225  1.00  0.00    -0.454 C  
HETATM   18  C   UNL     1     -11.653  11.260  65.123  1.00  0.00     0.226 C  
HETATM   19  O   UNL     1      -6.520  18.694  70.394  1.00  0.00     0.114 OA 
HETATM   20  C   UNL     1     -10.561  13.369  66.125  1.00  0.00    -0.294 C  
HETATM   21  C   UNL     1     -10.646  12.424  64.884  1.00  0.00    -0.326 C  
HETATM   22  H   UNL     1      -6.676  19.343  71.070  1.00  0.00     0.000 HD 
ENDROOT
BRANCH  12  23
HETATM   23  C   UNL     1      -8.495  10.060  68.674  1.00  0.00    -0.118 C  
HETATM   24  C   UNL     1      -8.368   9.834  69.998  1.00  0.00    -0.211 C  
HETATM   25  C   UNL     1      -9.117   8.114  71.693  1.00  0.00    -0.163 C  
HETATM   26  C   UNL     1      -9.467   9.423  70.957  1.00  0.00    -0.243 C  
HETATM   27  O   UNL     1      -9.194   6.993  70.804  1.00  0.00    -0.157 OA 
HETATM   28  C   UNL     1      -7.733   8.151  72.339  1.00  0.00    -0.161 C  
HETATM   29  C   UNL     1      -6.647   8.566  71.347  1.00  0.00    -0.066 C  
HETATM   30  H   UNL     1      -8.978   6.187  71.257  1.00  0.00     0.000 HD 
HETATM   31  C   UNL     1      -7.001   9.897  70.664  1.00  0.00    -0.073 C  
HETATM   32  O   UNL     1      -5.412   8.699  72.031  1.00  0.00    -0.039 OA 
HETATM   33  H   UNL     1      -4.737   8.957  71.414  1.00  0.00     0.000 HD 
ENDBRANCH  12  23
TORSDOF 1
ENDMDL
MODEL       83
REMARK 921   NORMALIZED FREE ENERGY PREDICTED BY IDOCK:   -2.80 KCAL/MOL
REMARK 922        TOTAL FREE ENERGY PREDICTED BY IDOCK:   -3.40 KCAL/MOL
REMARK 923 INTER-LIGAND FREE ENERGY PREDICTED BY IDOCK:   -2.65 KCAL/MOL
REMARK 924 INTRA-LIGAND FREE ENERGY PREDICTED BY IDOCK:   -0.76 KCAL/MOL
REMARK 927      BINDING AFFINITY PREDICTED BY RF-SCORE:    0.00 PKD
ROOT
HETATM    1  C   UNL     1      -8.033   4.983  68.198  1.00  0.00    -0.087 C  
HETATM    2  C   UNL     1      -9.018   6.091  67.614  1.00  0.00    -0.111 C  
HETATM    3  C   UNL     1      -7.184   5.655  69.278  1.00  0.00    -0.066 C  
HETATM    4  C   UNL     1     -10.041   5.649  66.558  1.00  0.00    -0.225 C  
HETATM    5  C   UNL     1      -8.261   7.217  66.927  1.00  0.00    -0.117 C  
HETATM    6  C   UNL     1      -7.988   5.508  70.556  1.00  0.00    -0.103 C  
HETATM    7  C   UNL     1      -9.090   4.432  70.344  1.00  0.00    -0.168 C  
HETATM    8  C   UNL     1      -8.425   8.523  67.207  1.00  0.00    -0.123 C  
HETATM    9  C   UNL     1      -7.822   9.639  66.363  1.00  0.00    -0.101 C  
HETATM   10  C   UNL     1      -9.203   3.535  71.591  1.00  0.00    -0.188 C  
HETATM   11  C   UNL     1      -8.916  10.554  65.719  1.00  0.00    -0.180 C  
HETATM   12  C   UNL     1      -9.045   3.904  72.889  1.00  0.00    -0.122 C  
HETATM   13  C   UNL     1      -6.802  10.399  67.216  1.00  0.00    -0.081 C  
HETATM   14  C   UNL     1      -9.460   2.087  71.262  1.00  0.00    -0.208 C  
HETATM   15  C   UNL     1      -9.972   9.736  64.956  1.00  0.00    -0.132 C  
HETATM   16  C   UNL     1      -8.293  11.563  64.743  1.00  0.00     0.798 C  
HETATM   17  C   UNL     1      -9.732   3.094  68.081  1.00  0.00     0.004 C  
HETATM   18  C   UNL     1      -8.458   1.514  70.249  1.00  0.00    -0.076 C  
HETATM   19  O   UNL     1      -9.623  11.293  66.725  1.00  0.00    -0.188 OA 
HETATM   20  C   UNL     1      -8.666   3.750  68.983  1.00  0.00    -0.133 C  
HETATM   21  C   UNL     1      -7.718   2.575  69.381  1.00  0.00    -0.046 C  
HETATM   22  H   UNL     1     -10.286  11.848  66.334  1.00  0.00     0.000 HD 
ENDROOT
BRANCH  12  23
HETATM   23  C   UNL     1      -8.876   5.255  73.388  1.00  0.00    -0.113 C  
HETATM   24  C   UNL     1      -7.828   5.779  74.058  1.00  0.00    -0.099 C  
HETATM   25  C   UNL     1      -5.303   5.754  73.917  1.00  0.00    -0.028 C  
HETATM   26  C   UNL     1      -6.562   5.055  74.470  1.00  0.00    -0.070 C  
HETATM   27  O   UNL     1      -5.194   5.562  72.502  1.00  0.00    -0.016 OA 
HETATM   28  C   UNL     1      -5.273   7.250  74.228  1.00  0.00    -0.046 C  
HETATM   29  C   UNL     1      -6.561   7.951  73.798  1.00  0.00    -0.099 C  
HETATM   30  H   UNL     1      -4.419   5.992  72.162  1.00  0.00     0.000 HD 
HETATM   31  C   UNL     1      -7.795   7.261  74.402  1.00  0.00    -0.171 C  
HETATM   32  O   UNL     1      -6.522   9.304  74.219  1.00  0.00    -0.351 OA 
HETATM   33  H   UNL     1      -7.323   9.740  73.952  1.00  0.00     0.000 HD 
ENDBRANCH  12  23
TORSDOF 1
ENDMDL
MODEL       84
REMARK 921   NORMALIZED FREE ENERGY PREDICTED BY IDOCK:   -2.35 KCAL/MOL
REMARK 922        TOTAL FREE ENERGY PREDICTED BY IDOCK:   -2.92 KCAL/MOL
REMARK 923 INTER-LIGAND FREE ENERGY PREDICTED BY IDOCK:   -2.22 KCAL/MOL
REMARK 924 INTRA-LIGAND FREE ENERGY PREDICTED BY IDOCK:   -0.70 KCAL/MOL
REMARK 927      BINDING AFFINITY PREDICTED BY RF-SCORE:    0.00 PKD
ROOT
HETATM    1  C   UNL     1      -6.955   7.393  69.318  1.00  0.00    -0.065 C  
HETATM    2  C   UNL     1      -8.141   6.864  70.240  1.00  0.00    -0.120 C  
HETATM    3  C   UNL     1      -6.530   6.234  68.415  1.00  0.00    -0.049 C  
HETATM    4  C   UNL     1      -8.805   7.867  71.193  1.00  0.00    -0.150 C  
HETATM    5  C   UNL     1      -7.685   5.743  71.163  1.00  0.00    -0.109 C  
HETATM    6  C   UNL     1      -7.426   6.340  67.196  1.00  0.00    -0.084 C  
HETATM    7  C   UNL     1      -8.089   7.745  67.170  1.00  0.00    -0.118 C  
HETATM    8  C   UNL     1      -8.292   4.547  71.262  1.00  0.00    -0.107 C  
HETATM    9  C   UNL     1      -7.953   3.526  72.341  1.00  0.00    -0.068 C  
HETATM   10  C   UNL     1      -8.096   8.303  65.733  1.00  0.00    -0.109 C  
HETATM   11  C   UNL     1      -9.173   3.224  73.275  1.00  0.00    -0.093 C  
HETATM   12  C   UNL     1      -8.256   7.604  64.579  1.00  0.00    -0.053 C  
HETATM   13  C   UNL     1      -7.363   2.283  71.670  1.00  0.00    -0.039 C  
HETATM   14  C   UNL     1      -7.831   9.785  65.668  1.00  0.00    -0.114 C  
HETATM   15  C   UNL     1      -9.792   4.511  73.846  1.00  0.00    -0.175 C  
HETATM   16  C   UNL     1      -8.762   2.326  74.451  1.00  0.00    -0.071 C  
HETATM   17  C   UNL     1      -7.935   9.720  69.014  1.00  0.00    -0.096 C  
HETATM   18  C   UNL     1      -6.563  10.203  66.424  1.00  0.00    -0.084 C  
HETATM   19  O   UNL     1     -10.216   2.555  72.554  1.00  0.00    -0.153 OA 
HETATM   20  C   UNL     1      -7.275   8.544  68.265  1.00  0.00    -0.086 C  
HETATM   21  C   UNL     1      -6.074   9.192  67.504  1.00  0.00    -0.050 C  
HETATM   22  H   UNL     1     -10.956   2.372  73.120  1.00  0.00     0.000 HD 
ENDROOT
BRANCH  12  23
HETATM   23  C   UNL     1      -8.597   6.200  64.460  1.00  0.00     0.146 C  
HETATM   24  C   UNL     1      -7.855   5.195  63.949  1.00  0.00    -0.091 C  
HETATM   25  C   UNL     1      -5.466   4.375  64.064  1.00  0.00    -0.013 C  
HETATM   26  C   UNL     1      -6.467   5.306  63.351  1.00  0.00    -0.026 C  
HETATM   27  O   UNL     1      -5.161   4.863  65.375  1.00  0.00    -0.008 OA 
HETATM   28  C   UNL     1      -5.967   2.935  64.167  1.00  0.00    -0.014 C  
HETATM   29  C   UNL     1      -7.367   2.856  64.775  1.00  0.00    -0.070 C  
HETATM   30  H   UNL     1      -4.544   4.290  65.815  1.00  0.00     0.000 HD 
HETATM   31  C   UNL     1      -8.353   3.758  64.015  1.00  0.00    -0.091 C  
HETATM   32  O   UNL     1      -7.823   1.515  64.733  1.00  0.00    -0.062 OA 
HETATM   33  H   UNL     1      -8.693   1.466  65.111  1.00  0.00     0.000 HD 
ENDBRANCH  12  23
TORSDOF 1
ENDMDL
MODEL       85
REMARK 921   NORMALIZED FREE ENERGY PREDICTED BY IDOCK:   -2.35 KCAL/MOL
REMARK 922        TOTAL FREE ENERGY PREDICTED BY IDOCK:   -2.92 KCAL/MOL
REMARK 923 INTER-LIGAND FREE ENERGY PREDICTED BY IDOCK:   -2.24 KCAL/MOL
REMARK 924 INTRA-LIGAND FREE ENERGY PREDICTED BY IDOCK:   -0.68 KCAL/MOL
REMARK 927      BINDING AFFINITY PREDICTED BY RF-SCORE:    0.00 PKD
ROOT
HETATM    1  C   UNL     1      -6.421   9.655  67.598  1.00  0.00    -0.061 C  
HETATM    2  C   UNL     1      -7.011  10.976  66.933  1.00  0.00    -0.125 C  
HETATM    3  C   UNL     1      -7.116   9.478  68.948  1.00  0.00    -0.067 C  
HETATM    4  C   UNL     1      -6.528  11.340  65.522  1.00  0.00     0.495 C  
HETATM    5  C   UNL     1      -6.684  12.217  67.751  1.00  0.00    -0.107 C  
HETATM    6  C   UNL     1      -8.367   8.676  68.642  1.00  0.00    -0.122 C  
HETATM    7  C   UNL     1      -8.232   8.040  67.231  1.00  0.00    -0.122 C  
HETATM    8  C   UNL     1      -7.598  13.113  68.168  1.00  0.00    -0.141 C  
HETATM    9  C   UNL     1      -7.228  14.451  68.795  1.00  0.00    -0.128 C  
HETATM   10  C   UNL     1      -8.762   6.593  67.248  1.00  0.00    -0.118 C  
HETATM   11  C   UNL     1      -7.734  15.664  67.945  1.00  0.00    -0.131 C  
HETATM   12  C   UNL     1      -9.808   6.107  67.966  1.00  0.00    -0.134 C  
HETATM   13  C   UNL     1      -7.718  14.463  70.246  1.00  0.00     0.941 C  
HETATM   14  C   UNL     1      -7.950   5.651  66.397  1.00  0.00    -0.101 C  
HETATM   15  C   UNL     1      -7.300  15.556  66.474  1.00  0.00     0.611 C  
HETATM   16  C   UNL     1      -7.207  16.993  68.505  1.00  0.00    -0.209 C  
HETATM   17  C   UNL     1      -6.254   8.364  65.413  1.00  0.00    -0.045 C  
HETATM   18  C   UNL     1      -6.448   5.701  66.712  1.00  0.00    -0.050 C  
HETATM   19  O   UNL     1      -9.167  15.725  67.943  1.00  0.00    -0.190 OA 
HETATM   20  C   UNL     1      -6.706   8.260  66.884  1.00  0.00    -0.062 C  
HETATM   21  C   UNL     1      -5.967   6.997  67.430  1.00  0.00    -0.028 C  
HETATM   22  H   UNL     1      -9.474  16.462  67.427  1.00  0.00     0.000 HD 
ENDROOT
BRANCH  12  23
HETATM   23  C   UNL     1     -10.740   6.879  68.765  1.00  0.00    -0.255 C  
HETATM   24  C   UNL     1     -11.092   6.697  70.055  1.00  0.00    -0.394 C  
HETATM   25  C   UNL     1      -9.963   6.196  72.261  1.00  0.00    -0.166 C  
HETATM   26  C   UNL     1     -10.598   5.608  70.986  1.00  0.00    -0.318 C  
HETATM   27  O   UNL     1      -8.698   6.801  71.968  1.00  0.00    -0.126 OA 
HETATM   28  C   UNL     1     -10.863   7.220  72.952  1.00  0.00    -0.380 C  
HETATM   29  C   UNL     1     -11.342   8.306  71.989  1.00  0.00    -0.325 C  
HETATM   30  H   UNL     1      -8.306   7.164  72.753  1.00  0.00     0.000 HD 
HETATM   31  C   UNL     1     -12.013   7.690  70.750  1.00  0.00    -0.192 C  
HETATM   32  O   UNL     1     -12.264   9.151  72.655  1.00  0.00    -0.189 OA 
HETATM   33  H   UNL     1     -12.562   9.826  72.057  1.00  0.00     0.000 HD 
ENDBRANCH  12  23
TORSDOF 1
ENDMDL
MODEL       86
REMARK 921   NORMALIZED FREE ENERGY PREDICTED BY IDOCK:   -2.26 KCAL/MOL
REMARK 922        TOTAL FREE ENERGY PREDICTED BY IDOCK:   -2.83 KCAL/MOL
REMARK 923 INTER-LIGAND FREE ENERGY PREDICTED BY IDOCK:   -2.07 KCAL/MOL
REMARK 924 INTRA-LIGAND FREE ENERGY PREDICTED BY IDOCK:   -0.76 KCAL/MOL
REMARK 927      BINDING AFFINITY PREDICTED BY RF-SCORE:    0.00 PKD
ROOT
HETATM    1  C   UNL     1     -10.431  13.334  66.250  1.00  0.00    -0.289 C  
HETATM    2  C   UNL     1     -11.695  13.333  67.220  1.00  0.00    -0.424 C  
HETATM    3  C   UNL     1      -9.234  12.841  67.064  1.00  0.00    -0.221 C  
HETATM    4  C   UNL     1     -13.055  13.717  66.620  1.00  0.00     1.154 C  
HETATM    5  C   UNL     1     -11.526  14.313  68.372  1.00  0.00    -0.331 C  
HETATM    6  C   UNL     1      -9.255  11.332  66.915  1.00  0.00    -0.184 C  
HETATM    7  C   UNL     1     -10.181  10.949  65.727  1.00  0.00    -0.318 C  
HETATM    8  C   UNL     1     -11.673  13.990  69.671  1.00  0.00    -0.368 C  
HETATM    9  C   UNL     1     -11.713  15.024  70.788  1.00  0.00    -0.371 C  
HETATM   10  C   UNL     1      -9.541   9.819  64.899  1.00  0.00    -0.316 C  
HETATM   11  C   UNL     1     -13.079  15.019  71.552  1.00  0.00    -0.374 C  
HETATM   12  C   UNL     1      -8.789   8.785  65.358  1.00  0.00    -0.221 C  
HETATM   13  C   UNL     1     -10.496  14.814  71.693  1.00  0.00     1.620 C  
HETATM   14  C   UNL     1      -9.763   9.968  63.415  1.00  0.00     0.029 C  
HETATM   15  C   UNL     1     -14.274  15.133  70.592  1.00  0.00     0.313 C  
HETATM   16  C   UNL     1     -13.157  16.177  72.557  1.00  0.00    -0.283 C  
HETATM   17  C   UNL     1     -11.726  12.564  64.201  1.00  0.00    -0.471 C  
HETATM   18  C   UNL     1      -9.357  11.350  62.884  1.00  0.00    -0.351 C  
HETATM   19  O   UNL     1     -13.255  13.794  72.277  1.00  0.00    -0.408 OA 
HETATM   20  C   UNL     1     -10.433  12.335  65.010  1.00  0.00    -0.322 C  
HETATM   21  C   UNL     1      -9.286  12.476  63.958  1.00  0.00     0.641 C  
HETATM   22  H   UNL     1     -14.084  13.791  72.741  1.00  0.00     0.000 HD 
ENDROOT
BRANCH  12  23
HETATM   23  C   UNL     1      -8.545   8.444  66.745  1.00  0.00    -0.123 C  
HETATM   24  C   UNL     1      -7.368   8.388  67.403  1.00  0.00    -0.089 C  
HETATM   25  C   UNL     1      -5.259   9.769  67.604  1.00  0.00    -0.036 C  
HETATM   26  C   UNL     1      -5.993   8.658  66.826  1.00  0.00    -0.056 C  
HETATM   27  O   UNL     1      -5.844  11.049  67.339  1.00  0.00    -0.044 OA 
HETATM   28  C   UNL     1      -5.244   9.523  69.112  1.00  0.00    -0.036 C  
HETATM   29  C   UNL     1      -6.644   9.257  69.664  1.00  0.00    -0.043 C  
HETATM   30  H   UNL     1      -5.392  11.733  67.818  1.00  0.00     0.000 HD 
HETATM   31  C   UNL     1      -7.332   8.114  68.900  1.00  0.00    -0.090 C  
HETATM   32  O   UNL     1      -6.551   8.919  71.038  1.00  0.00    -0.055 OA 
HETATM   33  H   UNL     1      -7.421   8.754  71.381  1.00  0.00     0.000 HD 
ENDBRANCH  12  23
TORSDOF 1
ENDMDL
MODEL       87
REMARK 921   NORMALIZED FREE ENERGY PREDICTED BY IDOCK:   -1.89 KCAL/MOL
REMARK 922        TOTAL FREE ENERGY PREDICTED BY IDOCK:   -2.43 KCAL/MOL
REMARK 923 INTER-LIGAND FREE ENERGY PREDICTED BY IDOCK:   -1.86 KCAL/MOL
REMARK 924 INTRA-LIGAND FREE ENERGY PREDICTED BY IDOCK:   -0.57 KCAL/MOL
REMARK 927      BINDING AFFINITY PREDICTED BY RF-SCORE:    0.00 PKD
ROOT
HETATM    1  C   UNL     1      -9.515  12.653  67.650  1.00  0.00    -0.189 C  
HETATM    2  C   UNL     1     -11.011  12.863  68.156  1.00  0.00    -0.273 C  
HETATM    3  C   UNL     1      -8.723  12.054  68.812  1.00  0.00     0.083 C  
HETATM    4  C   UNL     1     -12.039  13.387  67.144  1.00  0.00    -0.367 C  
HETATM    5  C   UNL     1     -11.087  13.871  69.295  1.00  0.00    -0.261 C  
HETATM    6  C   UNL     1      -8.901  10.554  68.675  1.00  0.00    -0.147 C  
HETATM    7  C   UNL     1      -9.440  10.232  67.253  1.00  0.00    -0.174 C  
HETATM    8  C   UNL     1     -11.686  13.636  70.477  1.00  0.00    -0.175 C  
HETATM    9  C   UNL     1     -11.940  14.723  71.514  1.00  0.00    -0.415 C  
HETATM   10  C   UNL     1      -8.731   8.988  66.685  1.00  0.00    -0.140 C  
HETATM   11  C   UNL     1     -13.466  14.931  71.793  1.00  0.00    -0.388 C  
HETATM   12  C   UNL     1      -8.316   7.891  67.370  1.00  0.00    -0.123 C  
HETATM   13  C   UNL     1     -11.119  14.405  72.766  1.00  0.00     1.980 C  
HETATM   14  C   UNL     1      -8.442   9.089  65.209  1.00  0.00    -0.181 C  
HETATM   15  C   UNL     1     -14.262  15.149  70.495  1.00  0.00     0.601 C  
HETATM   16  C   UNL     1     -13.703  16.140  72.710  1.00  0.00    -0.230 C  
HETATM   17  C   UNL     1     -10.177  11.951  65.297  1.00  0.00    -0.309 C  
HETATM   18  C   UNL     1      -7.701  10.379  64.829  1.00  0.00    -0.069 C  
HETATM   19  O   UNL     1     -14.032  13.778  72.429  1.00  0.00    -0.564 OA 
HETATM   20  C   UNL     1      -9.256  11.600  66.483  1.00  0.00    -0.205 C  
HETATM   21  C   UNL     1      -7.825  11.540  65.860  1.00  0.00     0.310 C  
HETATM   22  H   UNL     1     -14.958  13.905  72.599  1.00  0.00     0.000 HD 
ENDROOT
BRANCH  12  23
HETATM   23  C   UNL     1      -8.579   7.593  68.765  1.00  0.00    -0.129 C  
HETATM   24  C   UNL     1      -7.764   7.011  69.668  1.00  0.00    -0.110 C  
HETATM   25  C   UNL     1      -5.344   7.157  70.389  1.00  0.00    -0.023 C  
HETATM   26  C   UNL     1      -6.356   6.503  69.426  1.00  0.00    -0.035 C  
HETATM   27  O   UNL     1      -5.127   8.530  70.044  1.00  0.00    -0.023 OA 
HETATM   28  C   UNL     1      -5.777   7.066  71.852  1.00  0.00    -0.037 C  
HETATM   29  C   UNL     1      -7.198   7.587  72.064  1.00  0.00    -0.068 C  
HETATM   30  H   UNL     1      -4.504   8.932  70.637  1.00  0.00     0.000 HD 
HETATM   31  C   UNL     1      -8.191   6.884  71.124  1.00  0.00    -0.118 C  
HETATM   32  O   UNL     1      -7.583   7.366  73.410  1.00  0.00    -0.087 OA 
HETATM   33  H   UNL     1      -8.466   7.690  73.542  1.00  0.00     0.000 HD 
ENDBRANCH  12  23
TORSDOF 1
ENDMDL
MODEL       88
REMARK 921   NORMALIZED FREE ENERGY PREDICTED BY IDOCK:   -1.77 KCAL/MOL
REMARK 922        TOTAL FREE ENERGY PREDICTED BY IDOCK:   -2.31 KCAL/MOL
REMARK 923 INTER-LIGAND FREE ENERGY PREDICTED BY IDOCK:   -2.36 KCAL/MOL
REMARK 924 INTRA-LIGAND FREE ENERGY PREDICTED BY IDOCK:    0.05 KCAL/MOL
REMARK 927      BINDING AFFINITY PREDICTED BY RF-SCORE:    0.00 PKD
ROOT
HETATM    1  C   UNL     1     -11.129   8.456  69.843  1.00  0.00    -0.109 C  
HETATM    2  C   UNL     1     -11.704   9.929  70.038  1.00  0.00    -0.186 C  
HETATM    3  C   UNL     1      -9.638   8.502  70.182  1.00  0.00    -0.174 C  
HETATM    4  C   UNL     1     -13.210  10.139  69.833  1.00  0.00     0.706 C  
HETATM    5  C   UNL     1     -11.072  10.916  69.067  1.00  0.00    -0.302 C  
HETATM    6  C   UNL     1      -9.569   8.252  71.677  1.00  0.00    -0.261 C  
HETATM    7  C   UNL     1     -10.927   7.671  72.160  1.00  0.00    -0.304 C  
HETATM    8  C   UNL     1     -10.493  12.075  69.433  1.00  0.00     0.203 C  
HETATM    9  C   UNL     1     -10.064  13.144  68.436  1.00  0.00    -0.231 C  
HETATM   10  C   UNL     1     -10.688   6.537  73.175  1.00  0.00    -0.297 C  
HETATM   11  C   UNL     1     -10.831  14.492  68.645  1.00  0.00    -0.251 C  
HETATM   12  C   UNL     1      -9.700   6.458  74.104  1.00  0.00    -0.269 C  
HETATM   13  C   UNL     1      -8.540  13.282  68.494  1.00  0.00    -0.065 C  
HETATM   14  C   UNL     1     -11.656   5.392  73.028  1.00  0.00    -0.268 C  
HETATM   15  C   UNL     1     -12.354  14.287  68.677  1.00  0.00    -0.056 C  
HETATM   16  C   UNL     1     -10.505  15.495  67.528  1.00  0.00    -0.282 C  
HETATM   17  C   UNL     1     -13.202   7.291  70.745  1.00  0.00     0.105 C  
HETATM   18  C   UNL     1     -11.735   4.852  71.594  1.00  0.00     1.318 C  
HETATM   19  O   UNL     1     -10.474  15.096  69.896  1.00  0.00    -0.330 OA 
HETATM   20  C   UNL     1     -11.661   7.306  70.809  1.00  0.00    -0.334 C  
HETATM   21  C   UNL     1     -11.243   5.835  70.490  1.00  0.00    -0.200 C  
HETATM   22  H   UNL     1     -10.940  15.914  70.022  1.00  0.00     0.000 HD 
ENDROOT
BRANCH  12  23
HETATM   23  C   UNL     1      -8.741   7.493  74.436  1.00  0.00    -0.224 C  
HETATM   24  C   UNL     1      -7.433   7.562  74.110  1.00  0.00    -0.151 C  
HETATM   25  C   UNL     1      -5.977   7.175  72.078  1.00  0.00    -0.037 C  
HETATM   26  C   UNL     1      -6.639   6.542  73.318  1.00  0.00    -0.069 C  
HETATM   27  O   UNL     1      -6.957   7.488  71.081  1.00  0.00    -0.053 OA 
HETATM   28  C   UNL     1      -5.179   8.435  72.413  1.00  0.00    -0.039 C  
HETATM   29  C   UNL     1      -6.006   9.445  73.208  1.00  0.00     0.275 C  
HETATM   30  H   UNL     1      -6.549   7.878  70.318  1.00  0.00     0.000 HD 
HETATM   31  C   UNL     1      -6.614   8.797  74.462  1.00  0.00    -0.138 C  
HETATM   32  O   UNL     1      -5.180  10.531  73.590  1.00  0.00    -0.333 OA 
HETATM   33  H   UNL     1      -5.694  11.159  74.084  1.00  0.00     0.000 HD 
ENDBRANCH  12  23
TORSDOF 1
ENDMDL
MODEL       89
REMARK 921   NORMALIZED FREE ENERGY PREDICTED BY IDOCK:   -1.76 KCAL/MOL
REMARK 922        TOTAL FREE ENERGY PREDICTED BY IDOCK:   -2.30 KCAL/MOL
REMARK 923 INTER-LIGAND FREE ENERGY PREDICTED BY IDOCK:   -1.84 KCAL/MOL
REMARK 924 INTRA-LIGAND FREE ENERGY PREDICTED BY IDOCK:   -0.46 KCAL/MOL
REMARK 927      BINDING AFFINITY PREDICTED BY RF-SCORE:    0.00 PKD
ROOT
HETATM    1  C   UNL     1     -10.920   9.718  66.358  1.00  0.00     0.280 C  
HETATM    2  C   UNL     1      -9.851   8.539  66.271  1.00  0.00    -0.285 C  
HETATM    3  C   UNL     1     -10.981  10.168  67.818  1.00  0.00    -0.338 C  
HETATM    4  C   UNL     1      -9.543   7.957  64.884  1.00  0.00     1.642 C  
HETATM    5  C   UNL     1     -10.282   7.323  67.079  1.00  0.00    -0.348 C  
HETATM    6  C   UNL     1      -9.907  11.232  67.944  1.00  0.00    -0.187 C  
HETATM    7  C   UNL     1      -9.486  11.703  66.524  1.00  0.00    -0.219 C  
HETATM    8  C   UNL     1      -9.518   6.721  68.009  1.00  0.00    -0.119 C  
HETATM    9  C   UNL     1      -9.878   5.386  68.647  1.00  0.00    -0.204 C  
HETATM   10  C   UNL     1      -9.307  13.233  66.503  1.00  0.00    -0.221 C  
HETATM   11  C   UNL     1      -8.817   4.277  68.341  1.00  0.00    -0.107 C  
HETATM   12  C   UNL     1      -8.830  14.020  67.501  1.00  0.00    -0.199 C  
HETATM   13  C   UNL     1     -10.129   5.610  70.141  1.00  0.00    -0.293 C  
HETATM   14  C   UNL     1      -9.791  13.872  65.227  1.00  0.00    -0.170 C  
HETATM   15  C   UNL     1      -8.527   4.158  66.836  1.00  0.00    -0.100 C  
HETATM   16  C   UNL     1      -9.284   2.905  68.850  1.00  0.00    -0.228 C  
HETATM   17  C   UNL     1     -10.289  10.751  64.121  1.00  0.00    -0.382 C  
HETATM   18  C   UNL     1     -11.226  13.470  64.860  1.00  0.00    -0.353 C  
HETATM   19  O   UNL     1      -7.565   4.578  68.974  1.00  0.00    -0.056 OA 
HETATM   20  C   UNL     1     -10.603  11.079  65.595  1.00  0.00    -0.263 C  
HETATM   21  C   UNL     1     -11.734  12.155  65.522  1.00  0.00    -0.384 C  
HETATM   22  H   UNL     1      -6.921   3.905  68.789  1.00  0.00     0.000 HD 
ENDROOT
BRANCH  12  23
HETATM   23  C   UNL     1      -8.251  13.572  68.753  1.00  0.00     0.044 C  
HETATM   24  C   UNL     1      -7.060  13.904  69.295  1.00  0.00    -0.027 C  
HETATM   25  C   UNL     1      -5.675  15.988  69.658  1.00  0.00    -0.140 C  
HETATM   26  C   UNL     1      -6.019  14.831  68.700  1.00  0.00    -0.089 C  
HETATM   27  O   UNL     1      -6.757  16.923  69.737  1.00  0.00    -0.165 OA 
HETATM   28  C   UNL     1      -5.322  15.505  71.065  1.00  0.00    -0.077 C  
HETATM   29  C   UNL     1      -6.391  14.576  71.638  1.00  0.00     0.556 C  
HETATM   30  H   UNL     1      -6.545  17.636  70.328  1.00  0.00     0.000 HD 
HETATM   31  C   UNL     1      -6.679  13.407  70.683  1.00  0.00     0.933 C  
HETATM   32  O   UNL     1      -5.952  14.069  72.887  1.00  0.00    -0.345 OA 
HETATM   33  H   UNL     1      -6.617  13.492  73.244  1.00  0.00     0.000 HD 
ENDBRANCH  12  23
TORSDOF 1
ENDMDL
MODEL       90
REMARK 921   NORMALIZED FREE ENERGY PREDICTED BY IDOCK:   -1.50 KCAL/MOL
REMARK 922        TOTAL FREE ENERGY PREDICTED BY IDOCK:   -2.02 KCAL/MOL
REMARK 923 INTER-LIGAND FREE ENERGY PREDICTED BY IDOCK:   -2.01 KCAL/MOL
REMARK 924 INTRA-LIGAND FREE ENERGY PREDICTED BY IDOCK:   -0.01 KCAL/MOL
REMARK 927      BINDING AFFINITY PREDICTED BY RF-SCORE:    0.00 PKD
ROOT
HETATM    1  C   UNL     1      -5.355   9.644  69.618  1.00  0.00    -0.034 C  
HETATM    2  C   UNL     1      -5.757   9.110  71.064  1.00  0.00    -0.047 C  
HETATM    3  C   UNL     1      -6.093   8.781  68.594  1.00  0.00    -0.045 C  
HETATM    4  C   UNL     1      -5.205   9.864  72.281  1.00  0.00    -0.009 C  
HETATM    5  C   UNL     1      -5.291   7.679  71.289  1.00  0.00    -0.031 C  
HETATM    6  C   UNL     1      -7.430   9.470  68.394  1.00  0.00    -0.077 C  
HETATM    7  C   UNL     1      -7.350  10.914  68.962  1.00  0.00    -0.113 C  
HETATM    8  C   UNL     1      -6.091   6.676  71.696  1.00  0.00    -0.038 C  
HETATM    9  C   UNL     1      -5.565   5.311  72.123  1.00  0.00    -0.017 C  
HETATM   10  C   UNL     1      -8.061  11.898  68.014  1.00  0.00    -0.151 C  
HETATM   11  C   UNL     1      -5.896   4.990  73.619  1.00  0.00    -0.026 C  
HETATM   12  C   UNL     1      -9.174  11.667  67.270  1.00  0.00    -0.170 C  
HETATM   13  C   UNL     1      -6.078   4.260  71.135  1.00  0.00    -0.018 C  
HETATM   14  C   UNL     1      -7.359  13.227  67.898  1.00  0.00    -0.134 C  
HETATM   15  C   UNL     1      -5.450   6.120  74.561  1.00  0.00    -0.049 C  
HETATM   16  C   UNL     1      -5.214   3.690  74.071  1.00  0.00     0.000 C  
HETATM   17  C   UNL     1      -5.311  12.095  70.293  1.00  0.00    -0.120 C  
HETATM   18  C   UNL     1      -5.870  13.091  67.552  1.00  0.00    -0.095 C  
HETATM   19  O   UNL     1      -7.308   4.835  73.809  1.00  0.00    -0.079 OA 
HETATM   20  C   UNL     1      -5.801  11.116  69.207  1.00  0.00    -0.044 C  
HETATM   21  C   UNL     1      -5.241  11.703  67.872  1.00  0.00    -0.048 C  
HETATM   22  H   UNL     1      -7.509   4.639  74.716  1.00  0.00     0.000 HD 
ENDROOT
BRANCH  12  23
HETATM   23  C   UNL     1     -10.015  10.487  67.318  1.00  0.00    -0.224 C  
HETATM   24  C   UNL     1     -10.101   9.479  66.425  1.00  0.00    -0.328 C  
HETATM   25  C   UNL     1      -8.534   8.033  65.064  1.00  0.00    -0.071 C  
HETATM   26  C   UNL     1      -9.333   9.351  65.125  1.00  0.00    -0.288 C  
HETATM   27  O   UNL     1      -7.416   8.074  65.957  1.00  0.00    -0.075 OA 
HETATM   28  C   UNL     1      -9.391   6.809  65.385  1.00  0.00     0.506 C  
HETATM   29  C   UNL     1     -10.150   6.967  66.701  1.00  0.00    -0.141 C  
HETATM   30  H   UNL     1      -6.924   7.262  65.921  1.00  0.00     0.000 HD 
HETATM   31  C   UNL     1     -10.973   8.265  66.714  1.00  0.00     0.425 C  
HETATM   32  O   UNL     1     -11.013   5.857  66.882  1.00  0.00    -0.471 OA 
HETATM   33  H   UNL     1     -11.485   5.955  67.701  1.00  0.00     0.000 HD 
ENDBRANCH  12  23
TORSDOF 1
ENDMDL
MODEL       91
REMARK 921   NORMALIZED FREE ENERGY PREDICTED BY IDOCK:   -1.34 KCAL/MOL
REMARK 922        TOTAL FREE ENERGY PREDICTED BY IDOCK:   -1.85 KCAL/MOL
REMARK 923 INTER-LIGAND FREE ENERGY PREDICTED BY IDOCK:   -1.23 KCAL/MOL
REMARK 924 INTRA-LIGAND FREE ENERGY PREDICTED BY IDOCK:   -0.62 KCAL/MOL
REMARK 927      BINDING AFFINITY PREDICTED BY RF-SCORE:    0.00 PKD
ROOT
HETATM    1  C   UNL     1      -6.225   5.307  68.101  1.00  0.00    -0.034 C  
HETATM    2  C   UNL     1      -6.759   6.749  67.683  1.00  0.00    -0.071 C  
HETATM    3  C   UNL     1      -6.499   5.137  69.596  1.00  0.00    -0.038 C  
HETATM    4  C   UNL     1      -6.672   7.139  66.202  1.00  0.00    -0.053 C  
HETATM    5  C   UNL     1      -5.999   7.861  68.390  1.00  0.00    -0.036 C  
HETATM    6  C   UNL     1      -7.899   4.559  69.673  1.00  0.00    -0.058 C  
HETATM    7  C   UNL     1      -8.305   4.016  68.274  1.00  0.00    -0.100 C  
HETATM    8  C   UNL     1      -6.581   8.851  69.092  1.00  0.00    -0.047 C  
HETATM    9  C   UNL     1      -5.822  10.068  69.605  1.00  0.00    -0.041 C  
HETATM   10  C   UNL     1      -9.038   2.669  68.419  1.00  0.00    -0.224 C  
HETATM   11  C   UNL     1      -6.351  11.403  68.984  1.00  0.00    -0.063 C  
HETATM   12  C   UNL     1      -9.883   2.294  69.415  1.00  0.00     0.282 C  
HETATM   13  C   UNL     1      -5.841  10.046  71.136  1.00  0.00    -0.045 C  
HETATM   14  C   UNL     1      -8.689   1.681  67.336  1.00  0.00    -0.125 C  
HETATM   15  C   UNL     1      -6.406  11.340  67.449  1.00  0.00    -0.076 C  
HETATM   16  C   UNL     1      -5.466  12.592  69.385  1.00  0.00    -0.079 C  
HETATM   17  C   UNL     1      -6.943   4.173  65.941  1.00  0.00    -0.066 C  
HETATM   18  C   UNL     1      -7.177   1.480  67.171  1.00  0.00    -0.046 C  
HETATM   19  O   UNL     1      -7.687  11.680  69.428  1.00  0.00    -0.349 OA 
HETATM   20  C   UNL     1      -6.940   4.028  67.477  1.00  0.00    -0.055 C  
HETATM   21  C   UNL     1      -6.292   2.631  67.735  1.00  0.00    -0.032 C  
HETATM   22  H   UNL     1      -8.008  12.491  69.051  1.00  0.00     0.000 HD 
ENDROOT
BRANCH  12  23
HETATM   23  C   UNL     1     -10.388   3.136  70.481  1.00  0.00     1.112 C  
HETATM   24  C   UNL     1     -10.136   3.058  71.805  1.00  0.00    -0.112 C  
HETATM   25  C   UNL     1      -8.144   2.713  73.323  1.00  0.00    -0.059 C  
HETATM   26  C   UNL     1      -9.261   2.036  72.503  1.00  0.00    -0.115 C  
HETATM   27  O   UNL     1      -7.149   3.277  72.461  1.00  0.00    -0.039 OA 
HETATM   28  C   UNL     1      -8.673   3.797  74.261  1.00  0.00    -0.088 C  
HETATM   29  C   UNL     1      -9.550   4.812  73.528  1.00  0.00    -0.131 C  
HETATM   30  H   UNL     1      -6.461   3.694  72.966  1.00  0.00     0.000 HD 
HETATM   31  C   UNL     1     -10.682   4.112  72.758  1.00  0.00    -0.197 C  
HETATM   32  O   UNL     1     -10.105   5.717  74.466  1.00  0.00    -0.242 OA 
HETATM   33  H   UNL     1     -10.650   6.348  74.011  1.00  0.00     0.000 HD 
ENDBRANCH  12  23
TORSDOF 1
ENDMDL
MODEL       92
REMARK 921   NORMALIZED FREE ENERGY PREDICTED BY IDOCK:   -1.14 KCAL/MOL
REMARK 922        TOTAL FREE ENERGY PREDICTED BY IDOCK:   -1.64 KCAL/MOL
REMARK 923 INTER-LIGAND FREE ENERGY PREDICTED BY IDOCK:   -0.88 KCAL/MOL
REMARK 924 INTRA-LIGAND FREE ENERGY PREDICTED BY IDOCK:   -0.76 KCAL/MOL
REMARK 927      BINDING AFFINITY PREDICTED BY RF-SCORE:    0.00 PKD
ROOT
HETATM    1  C   UNL     1      -5.918   9.070  69.503  1.00  0.00    -0.036 C  
HETATM    2  C   UNL     1      -6.685   8.371  70.711  1.00  0.00    -0.040 C  
HETATM    3  C   UNL     1      -5.737   8.017  68.410  1.00  0.00    -0.033 C  
HETATM    4  C   UNL     1      -7.061   9.244  71.917  1.00  0.00     0.303 C  
HETATM    5  C   UNL     1      -5.866   7.247  71.328  1.00  0.00    -0.036 C  
HETATM    6  C   UNL     1      -6.995   8.108  67.567  1.00  0.00    -0.075 C  
HETATM    7  C   UNL     1      -7.728   9.441  67.887  1.00  0.00    -0.088 C  
HETATM    8  C   UNL     1      -6.316   5.992  71.512  1.00  0.00    -0.048 C  
HETATM    9  C   UNL     1      -5.563   4.946  72.323  1.00  0.00    -0.008 C  
HETATM   10  C   UNL     1      -8.257  10.082  66.590  1.00  0.00    -0.122 C  
HETATM   11  C   UNL     1      -6.374   4.468  73.573  1.00  0.00    -0.046 C  
HETATM   12  C   UNL     1      -8.743   9.443  65.494  1.00  0.00    -0.190 C  
HETATM   13  C   UNL     1      -5.143   3.810  71.385  1.00  0.00     0.000 C  
HETATM   14  C   UNL     1      -8.137  11.584  66.576  1.00  0.00    -0.112 C  
HETATM   15  C   UNL     1      -6.857   5.650  74.430  1.00  0.00    -0.081 C  
HETATM   16  C   UNL     1      -5.529   3.544  74.463  1.00  0.00    -0.004 C  
HETATM   17  C   UNL     1      -7.109  11.304  69.750  1.00  0.00     0.045 C  
HETATM   18  C   UNL     1      -6.722  12.077  66.908  1.00  0.00    -0.041 C  
HETATM   19  O   UNL     1      -7.547   3.746  73.177  1.00  0.00    -0.069 OA 
HETATM   20  C   UNL     1      -6.655  10.247  68.722  1.00  0.00    -0.052 C  
HETATM   21  C   UNL     1      -5.828  11.055  67.671  1.00  0.00    -0.044 C  
HETATM   22  H   UNL     1      -8.039   3.456  73.936  1.00  0.00     0.000 HD 
ENDROOT
BRANCH  12  23
HETATM   23  C   UNL     1      -9.002   8.022  65.367  1.00  0.00     0.013 C  
HETATM   24  C   UNL     1      -8.458   7.143  64.499  1.00  0.00     0.193 C  
HETATM   25  C   UNL     1      -6.173   6.583  63.572  1.00  0.00    -0.034 C  
HETATM   26  C   UNL     1      -7.440   7.447  63.418  1.00  0.00    -0.101 C  
HETATM   27  O   UNL     1      -5.402   7.007  64.702  1.00  0.00    -0.027 OA 
HETATM   28  C   UNL     1      -6.487   5.093  63.707  1.00  0.00    -0.026 C  
HETATM   29  C   UNL     1      -7.513   4.819  64.805  1.00  0.00    -0.072 C  
HETATM   30  H   UNL     1      -4.621   6.475  64.798  1.00  0.00     0.000 HD 
HETATM   31  C   UNL     1      -8.784   5.659  64.598  1.00  0.00     0.028 C  
HETATM   32  O   UNL     1      -7.850   3.442  64.800  1.00  0.00    -0.077 OA 
HETATM   33  H   UNL     1      -8.488   3.271  65.483  1.00  0.00     0.000 HD 
ENDBRANCH  12  23
TORSDOF 1
ENDMDL
MODEL       93
REMARK 921   NORMALIZED FREE ENERGY PREDICTED BY IDOCK:   -1.09 KCAL/MOL
REMARK 922        TOTAL FREE ENERGY PREDICTED BY IDOCK:   -1.59 KCAL/MOL
REMARK 923 INTER-LIGAND FREE ENERGY PREDICTED BY IDOCK:   -0.85 KCAL/MOL
REMARK 924 INTRA-LIGAND FREE ENERGY PREDICTED BY IDOCK:   -0.74 KCAL/MOL
REMARK 927      BINDING AFFINITY PREDICTED BY RF-SCORE:    0.00 PKD
ROOT
HETATM    1  C   UNL     1      -8.682  11.376  68.094  1.00  0.00    -0.154 C  
HETATM    2  C   UNL     1      -7.576  10.848  69.112  1.00  0.00    -0.133 C  
HETATM    3  C   UNL     1      -9.937  11.689  68.909  1.00  0.00    -0.083 C  
HETATM    4  C   UNL     1      -6.182  10.535  68.550  1.00  0.00    -0.046 C  
HETATM    5  C   UNL     1      -7.994   9.544  69.776  1.00  0.00    -0.134 C  
HETATM    6  C   UNL     1      -9.765  13.129  69.355  1.00  0.00     0.904 C  
HETATM    7  C   UNL     1      -8.648  13.796  68.505  1.00  0.00    -0.122 C  
HETATM    8  C   UNL     1      -8.008   9.341  71.106  1.00  0.00    -0.041 C  
HETATM    9  C   UNL     1      -8.219   7.971  71.738  1.00  0.00    -0.151 C  
HETATM   10  C   UNL     1      -9.061  15.228  68.114  1.00  0.00    -0.174 C  
HETATM   11  C   UNL     1      -6.982   7.509  72.579  1.00  0.00    -0.069 C  
HETATM   12  C   UNL     1      -9.780  16.109  68.857  1.00  0.00    -0.242 C  
HETATM   13  C   UNL     1      -9.532   7.994  72.526  1.00  0.00    -0.297 C  
HETATM   14  C   UNL     1      -8.642  15.609  66.718  1.00  0.00    -0.309 C  
HETATM   15  C   UNL     1      -5.675   7.599  71.775  1.00  0.00    -0.036 C  
HETATM   16  C   UNL     1      -7.150   6.062  73.065  1.00  0.00    -0.084 C  
HETATM   17  C   UNL     1      -7.043  12.668  66.640  1.00  0.00     0.698 C  
HETATM   18  C   UNL     1      -9.083  14.590  65.659  1.00  0.00     0.513 C  
HETATM   19  O   UNL     1      -6.808   8.343  73.733  1.00  0.00    -0.126 OA 
HETATM   20  C   UNL     1      -8.415  12.754  67.340  1.00  0.00    -0.191 C  
HETATM   21  C   UNL     1      -9.405  13.167  66.204  1.00  0.00    -0.086 C  
HETATM   22  H   UNL     1      -6.058   8.063  74.244  1.00  0.00     0.000 HD 
ENDROOT
BRANCH  12  23
HETATM   23  C   UNL     1     -10.192  15.942  70.237  1.00  0.00     0.005 C  
HETATM   24  C   UNL     1     -11.442  15.863  70.737  1.00  0.00    -0.437 C  
HETATM   25  C   UNL     1     -13.621  14.706  70.181  1.00  0.00     0.829 C  
HETATM   26  C   UNL     1     -12.739  15.951  69.957  1.00  0.00     0.223 C  
HETATM   27  O   UNL     1     -13.065  13.562  69.522  1.00  0.00     0.376 OA 
HETATM   28  C   UNL     1     -13.826  14.385  71.661  1.00  0.00    -0.492 C  
HETATM   29  C   UNL     1     -12.502  14.301  72.419  1.00  0.00    -0.169 C  
HETATM   30  H   UNL     1     -13.608  12.796  69.660  1.00  0.00     0.000 HD 
HETATM   31  C   UNL     1     -11.665  15.574  72.216  1.00  0.00    -0.578 C  
HETATM   32  O   UNL     1     -12.762  14.122  73.801  1.00  0.00    -0.246 OA 
HETATM   33  H   UNL     1     -11.939  14.069  74.272  1.00  0.00     0.000 HD 
ENDBRANCH  12  23
TORSDOF 1
ENDMDL
MODEL       94
REMARK 921   NORMALIZED FREE ENERGY PREDICTED BY IDOCK:   -0.63 KCAL/MOL
REMARK 922        TOTAL FREE ENERGY PREDICTED BY IDOCK:   -1.11 KCAL/MOL
REMARK 923 INTER-LIGAND FREE ENERGY PREDICTED BY IDOCK:   -4.25 KCAL/MOL
REMARK 924 INTRA-LIGAND FREE ENERGY PREDICTED BY IDOCK:    3.15 KCAL/MOL
REMARK 927      BINDING AFFINITY PREDICTED BY RF-SCORE:    0.00 PKD
ROOT
HETATM    1  C   UNL     1      -6.625  10.006  68.015  1.00  0.00    -0.063 C  
HETATM    2  C   UNL     1      -7.069  11.492  67.652  1.00  0.00    -0.098 C  
HETATM    3  C   UNL     1      -6.898   9.802  69.505  1.00  0.00    -0.060 C  
HETATM    4  C   UNL     1      -6.968  11.928  66.184  1.00  0.00     0.715 C  
HETATM    5  C   UNL     1      -6.233  12.529  68.389  1.00  0.00    -0.058 C  
HETATM    6  C   UNL     1      -8.331   9.312  69.577  1.00  0.00    -0.131 C  
HETATM    7  C   UNL     1      -8.782   8.845  68.165  1.00  0.00    -0.134 C  
HETATM    8  C   UNL     1      -6.744  13.529  69.130  1.00  0.00    -0.103 C  
HETATM    9  C   UNL     1      -5.904  14.676  69.677  1.00  0.00    -0.104 C  
HETATM   10  C   UNL     1      -9.600   7.544  68.271  1.00  0.00    -0.157 C  
HETATM   11  C   UNL     1      -6.352  16.063  69.108  1.00  0.00    -0.151 C  
HETATM   12  C   UNL     1     -10.459   7.189  69.261  1.00  0.00    -0.220 C  
HETATM   13  C   UNL     1      -5.913  14.601  71.207  1.00  0.00     0.015 C  
HETATM   14  C   UNL     1      -9.324   6.574  67.151  1.00  0.00    -0.138 C  
HETATM   15  C   UNL     1      -6.423  16.057  67.572  1.00  0.00    -0.207 C  
HETATM   16  C   UNL     1      -5.388  17.178  69.540  1.00  0.00    -0.168 C  
HETATM   17  C   UNL     1      -7.431   8.996  65.825  1.00  0.00    -0.090 C  
HETATM   18  C   UNL     1      -7.828   6.282  66.964  1.00  0.00    -0.104 C  
HETATM   19  O   UNL     1      -7.663  16.409  69.574  1.00  0.00    -0.154 OA 
HETATM   20  C   UNL     1      -7.426   8.798  67.354  1.00  0.00    -0.089 C  
HETATM   21  C   UNL     1      -6.867   7.354  67.558  1.00  0.00    -0.078 C  
HETATM   22  H   UNL     1      -7.934  17.251  69.229  1.00  0.00     0.000 HD 
ENDROOT
BRANCH  12  23
HETATM   23  C   UNL     1     -10.900   8.024  70.362  1.00  0.00    -0.247 C  
HETATM   24  C   UNL     1     -10.939   9.371  70.432  1.00  0.00    -0.317 C  
HETATM   25  C   UNL     1     -11.641  11.312  68.971  1.00  0.00    -0.319 C  
HETATM   26  C   UNL     1     -10.502  10.348  69.359  1.00  0.00    -0.261 C  
HETATM   27  O   UNL     1     -12.653  10.629  68.223  1.00  0.00    -0.111 OA 
HETATM   28  C   UNL     1     -12.280  11.989  70.183  1.00  0.00    -0.309 C  
HETATM   29  C   UNL     1     -12.712  10.979  71.245  1.00  0.00    -0.432 C  
HETATM   30  H   UNL     1     -13.355  11.222  67.984  1.00  0.00     0.000 HD 
HETATM   31  C   UNL     1     -11.544  10.063  71.645  1.00  0.00    -0.154 C  
HETATM   32  O   UNL     1     -13.184  11.671  72.388  1.00  0.00    -0.527 OA 
HETATM   33  H   UNL     1     -13.453  11.043  73.048  1.00  0.00     0.000 HD 
ENDBRANCH  12  23
TORSDOF 1
ENDMDL
MODEL       95
REMARK 921   NORMALIZED FREE ENERGY PREDICTED BY IDOCK:   -0.12 KCAL/MOL
REMARK 922        TOTAL FREE ENERGY PREDICTED BY IDOCK:   -0.56 KCAL/MOL
REMARK 923 INTER-LIGAND FREE ENERGY PREDICTED BY IDOCK:   -0.12 KCAL/MOL
REMARK 924 INTRA-LIGAND FREE ENERGY PREDICTED BY IDOCK:   -0.44 KCAL/MOL
REMARK 927      BINDING AFFINITY PREDICTED BY RF-SCORE:    0.00 PKD
ROOT
HETATM    1  C   UNL     1     -10.233  11.031  66.473  1.00  0.00    -0.280 C  
HETATM    2  C   UNL     1      -9.508   9.884  65.637  1.00  0.00    -0.295 C  
HETATM    3  C   UNL     1      -9.992  10.735  67.953  1.00  0.00    -0.196 C  
HETATM    4  C   UNL     1      -9.535   9.992  64.106  1.00  0.00    -0.314 C  
HETATM    5  C   UNL     1     -10.116   8.515  65.908  1.00  0.00     0.292 C  
HETATM    6  C   UNL     1      -8.682  11.426  68.281  1.00  0.00    -0.160 C  
HETATM    7  C   UNL     1      -8.346  12.444  67.155  1.00  0.00    -0.181 C  
HETATM    8  C   UNL     1      -9.409   7.431  66.279  1.00  0.00    -0.166 C  
HETATM    9  C   UNL     1     -10.001   6.028  66.333  1.00  0.00    -0.145 C  
HETATM   10  C   UNL     1      -7.801  13.749  67.764  1.00  0.00    -0.174 C  
HETATM   11  C   UNL     1      -9.294   5.048  65.340  1.00  0.00    -0.113 C  
HETATM   12  C   UNL     1      -7.019  13.881  68.867  1.00  0.00    -0.110 C  
HETATM   13  C   UNL     1      -9.993   5.551  67.788  1.00  0.00    -0.188 C  
HETATM   14  C   UNL     1      -8.273  14.986  67.044  1.00  0.00    -0.246 C  
HETATM   15  C   UNL     1      -9.240   5.616  63.912  1.00  0.00     0.712 C  
HETATM   16  C   UNL     1     -10.014   3.692  65.290  1.00  0.00    -0.054 C  
HETATM   17  C   UNL     1      -9.663  12.890  64.834  1.00  0.00     0.072 C  
HETATM   18  C   UNL     1      -9.799  15.039  66.879  1.00  0.00    -0.244 C  
HETATM   19  O   UNL     1      -7.936   4.810  65.734  1.00  0.00    -0.100 OA 
HETATM   20  C   UNL     1      -9.693  12.522  66.331  1.00  0.00    -0.253 C  
HETATM   21  C   UNL     1     -10.524  13.665  66.996  1.00  0.00    -0.270 C  
HETATM   22  H   UNL     1      -7.507   4.215  65.132  1.00  0.00     0.000 HD 
ENDROOT
BRANCH  12  23
HETATM   23  C   UNL     1      -6.411  12.806  69.627  1.00  0.00    -0.091 C  
HETATM   24  C   UNL     1      -5.639  12.890  70.731  1.00  0.00    -0.177 C  
HETATM   25  C   UNL     1      -5.622  14.150  72.924  1.00  0.00    -0.052 C  
HETATM   26  C   UNL     1      -5.203  14.156  71.440  1.00  0.00    -0.165 C  
HETATM   27  O   UNL     1      -7.038  14.322  73.054  1.00  0.00     1.367 OA 
HETATM   28  C   UNL     1      -5.200  12.874  73.651  1.00  0.00     0.282 C  
HETATM   29  C   UNL     1      -5.656  11.615  72.914  1.00  0.00     1.472 C  
HETATM   30  H   UNL     1      -7.296  14.317  73.968  1.00  0.00     0.000 HD 
HETATM   31  C   UNL     1      -5.183  11.628  71.451  1.00  0.00    -0.016 C  
HETATM   32  O   UNL     1      -5.134  10.472  73.570  1.00  0.00    -0.330 OA 
HETATM   33  H   UNL     1      -5.417   9.689  73.112  1.00  0.00     0.000 HD 
ENDBRANCH  12  23
TORSDOF 1
ENDMDL
MODEL       96
REMARK 921   NORMALIZED FREE ENERGY PREDICTED BY IDOCK:    1.06 KCAL/MOL
REMARK 922        TOTAL FREE ENERGY PREDICTED BY IDOCK:    0.69 KCAL/MOL
REMARK 923 INTER-LIGAND FREE ENERGY PREDICTED BY IDOCK:    1.16 KCAL/MOL
REMARK 924 INTRA-LIGAND FREE ENERGY PREDICTED BY IDOCK:   -0.47 KCAL/MOL
REMARK 927      BINDING AFFINITY PREDICTED BY RF-SCORE:    0.00 PKD
ROOT
HETATM    1  C   UNL     1     -11.500   9.114  68.729  1.00  0.00     0.580 C  
HETATM    2  C   UNL     1     -10.366  10.154  68.315  1.00  0.00    -0.215 C  
HETATM    3  C   UNL     1     -10.846   7.734  68.799  1.00  0.00    -0.006 C  
HETATM    4  C   UNL     1     -10.749  11.639  68.250  1.00  0.00    -0.246 C  
HETATM    5  C   UNL     1      -9.814   9.867  66.926  1.00  0.00    -0.252 C  
HETATM    6  C   UNL     1     -10.327   7.619  70.220  1.00  0.00    -0.214 C  
HETATM    7  C   UNL     1     -10.995   8.715  71.097  1.00  0.00    -0.320 C  
HETATM    8  C   UNL     1      -8.506   9.719  66.645  1.00  0.00    -0.126 C  
HETATM    9  C   UNL     1      -7.961   9.649  65.225  1.00  0.00    -0.115 C  
HETATM   10  C   UNL     1     -11.381   8.133  72.471  1.00  0.00    -0.469 C  
HETATM   11  C   UNL     1      -6.982  10.828  64.907  1.00  0.00     0.249 C  
HETATM   12  C   UNL     1     -10.707   7.197  73.188  1.00  0.00    -0.385 C  
HETATM   13  C   UNL     1      -7.353   8.262  65.002  1.00  0.00    -0.086 C  
HETATM   14  C   UNL     1     -12.693   8.658  72.993  1.00  0.00     0.384 C  
HETATM   15  C   UNL     1      -7.602  12.195  65.240  1.00  0.00     2.724 C  
HETATM   16  C   UNL     1      -6.579  10.832  63.425  1.00  0.00     0.243 C  
HETATM   17  C   UNL     1     -12.672  10.698  70.337  1.00  0.00    -0.340 C  
HETATM   18  C   UNL     1     -13.841   8.518  71.982  1.00  0.00    -0.470 C  
HETATM   19  O   UNL     1      -5.784  10.724  65.688  1.00  0.00    -0.124 OA 
HETATM   20  C   UNL     1     -12.158   9.253  70.173  1.00  0.00     0.262 C  
HETATM   21  C   UNL     1     -13.398   8.359  70.497  1.00  0.00     0.962 C  
HETATM   22  H   UNL     1      -5.190  11.439  65.495  1.00  0.00     0.000 HD 
ENDROOT
BRANCH  12  23
HETATM   23  C   UNL     1      -9.401   6.648  72.880  1.00  0.00    -0.147 C  
HETATM   24  C   UNL     1      -8.833   5.516  73.346  1.00  0.00    -0.116 C  
HETATM   25  C   UNL     1      -9.499   3.112  73.762  1.00  0.00    -0.091 C  
HETATM   26  C   UNL     1      -9.436   4.541  74.337  1.00  0.00    -0.137 C  
HETATM   27  O   UNL     1     -10.504   3.015  72.746  1.00  0.00    -0.160 OA 
HETATM   28  C   UNL     1      -8.160   2.645  73.191  1.00  0.00    -0.059 C  
HETATM   29  C   UNL     1      -7.580   3.647  72.194  1.00  0.00    -0.058 C  
HETATM   30  H   UNL     1     -10.543   2.136  72.391  1.00  0.00     0.000 HD 
HETATM   31  C   UNL     1      -7.486   5.052  72.811  1.00  0.00    -0.095 C  
HETATM   32  O   UNL     1      -6.289   3.218  71.794  1.00  0.00    -0.014 OA 
HETATM   33  H   UNL     1      -5.929   3.841  71.174  1.00  0.00     0.000 HD 
ENDBRANCH  12  23
TORSDOF 1
ENDMDL
MODEL       97
REMARK 921   NORMALIZED FREE ENERGY PREDICTED BY IDOCK:    1.24 KCAL/MOL
REMARK 922        TOTAL FREE ENERGY PREDICTED BY IDOCK:    0.87 KCAL/MOL
REMARK 923 INTER-LIGAND FREE ENERGY PREDICTED BY IDOCK:    1.22 KCAL/MOL
REMARK 924 INTRA-LIGAND FREE ENERGY PREDICTED BY IDOCK:   -0.35 KCAL/MOL
REMARK 927      BINDING AFFINITY PREDICTED BY RF-SCORE:    0.00 PKD
ROOT
HETATM    1  C   UNL     1      -9.949  11.237  68.136  1.00  0.00    -0.191 C  
HETATM    2  C   UNL     1      -9.853  11.012  66.562  1.00  0.00    -0.241 C  
HETATM    3  C   UNL     1      -8.770  12.124  68.540  1.00  0.00    -0.079 C  
HETATM    4  C   UNL     1     -10.974  10.210  65.887  1.00  0.00     0.404 C  
HETATM    5  C   UNL     1      -8.591  10.254  66.174  1.00  0.00    -0.146 C  
HETATM    6  C   UNL     1      -9.277  13.545  68.380  1.00  0.00    -0.159 C  
HETATM    7  C   UNL     1     -10.828  13.524  68.277  1.00  0.00    -0.277 C  
HETATM    8  C   UNL     1      -7.708  10.674  65.249  1.00  0.00    -0.021 C  
HETATM    9  C   UNL     1      -6.574   9.804  64.723  1.00  0.00    -0.110 C  
HETATM   10  C   UNL     1     -11.430  14.681  69.098  1.00  0.00    -0.320 C  
HETATM   11  C   UNL     1      -6.699   9.532  63.187  1.00  0.00    -0.103 C  
HETATM   12  C   UNL     1     -10.912  15.925  69.271  1.00  0.00    -0.293 C  
HETATM   13  C   UNL     1      -5.241  10.437  65.134  1.00  0.00    -0.110 C  
HETATM   14  C   UNL     1     -12.704  14.306  69.810  1.00  0.00    -0.003 C  
HETATM   15  C   UNL     1      -8.088   8.990  62.811  1.00  0.00    -0.164 C  
HETATM   16  C   UNL     1      -5.645   8.520  62.714  1.00  0.00    -0.071 C  
HETATM   17  C   UNL     1     -12.487  11.389  68.181  1.00  0.00     1.031 C  
HETATM   18  C   UNL     1     -12.568  13.031  70.654  1.00  0.00    -0.270 C  
HETATM   19  O   UNL     1      -6.517  10.740  62.436  1.00  0.00    -0.216 OA 
HETATM   20  C   UNL     1     -11.195  12.048  68.706  1.00  0.00    -0.316 C  
HETATM   21  C   UNL     1     -11.386  12.098  70.256  1.00  0.00     0.265 C  
HETATM   22  H   UNL     1      -6.593  10.574  61.504  1.00  0.00     0.000 HD 
ENDROOT
BRANCH  12  23
HETATM   23  C   UNL     1      -9.750  16.477  68.604  1.00  0.00    -0.247 C  
HETATM   24  C   UNL     1      -8.533  16.748  69.121  1.00  0.00    -0.084 C  
HETATM   25  C   UNL     1      -6.851  15.642  70.651  1.00  0.00     0.811 C  
HETATM   26  C   UNL     1      -8.093  16.550  70.558  1.00  0.00     3.058 C  
HETATM   27  O   UNL     1      -7.189  14.283  70.353  1.00  0.00    -0.327 OA 
HETATM   28  C   UNL     1      -5.719  16.093  69.728  1.00  0.00    -0.155 C  
HETATM   29  C   UNL     1      -6.193  16.281  68.287  1.00  0.00    -0.120 C  
HETATM   30  H   UNL     1      -6.424  13.723  70.410  1.00  0.00     0.000 HD 
HETATM   31  C   UNL     1      -7.402  17.228  68.222  1.00  0.00    -0.214 C  
HETATM   32  O   UNL     1      -5.133  16.813  67.510  1.00  0.00    -0.111 OA 
HETATM   33  H   UNL     1      -5.427  16.930  66.615  1.00  0.00     0.000 HD 
ENDBRANCH  12  23
TORSDOF 1
ENDMDL
MODEL       98
REMARK 921   NORMALIZED FREE ENERGY PREDICTED BY IDOCK:    1.60 KCAL/MOL
REMARK 922        TOTAL FREE ENERGY PREDICTED BY IDOCK:    1.26 KCAL/MOL
REMARK 923 INTER-LIGAND FREE ENERGY PREDICTED BY IDOCK:    0.08 KCAL/MOL
REMARK 924 INTRA-LIGAND FREE ENERGY PREDICTED BY IDOCK:    1.18 KCAL/MOL
REMARK 927      BINDING AFFINITY PREDICTED BY RF-SCORE:    0.00 PKD
ROOT
HETATM    1  C   UNL     1      -6.377   9.951  69.117  1.00  0.00    -0.044 C  
HETATM    2  C   UNL     1      -6.390   9.538  70.656  1.00  0.00    -0.086 C  
HETATM    3  C   UNL     1      -7.373   9.042  68.396  1.00  0.00    -0.078 C  
HETATM    4  C   UNL     1      -5.524  10.359  71.621  1.00  0.00     0.073 C  
HETATM    5  C   UNL     1      -5.900   8.112  70.864  1.00  0.00    -0.033 C  
HETATM    6  C   UNL     1      -8.705   9.760  68.501  1.00  0.00    -0.120 C  
HETATM    7  C   UNL     1      -8.457  11.238  68.912  1.00  0.00    -0.062 C  
HETATM    8  C   UNL     1      -6.577   7.169  71.545  1.00  0.00    -0.048 C  
HETATM    9  C   UNL     1      -5.977   5.822  71.925  1.00  0.00    -0.034 C  
HETATM   10  C   UNL     1      -9.380  12.174  68.108  1.00  0.00    -0.204 C  
HETATM   11  C   UNL     1      -5.903   5.622  73.476  1.00  0.00    -0.036 C  
HETATM   12  C   UNL     1     -10.653  11.928  67.704  1.00  0.00    -0.241 C  
HETATM   13  C   UNL     1      -6.747   4.720  71.193  1.00  0.00    -0.031 C  
HETATM   14  C   UNL     1      -8.716  13.466  67.707  1.00  0.00    -0.197 C  
HETATM   15  C   UNL     1      -5.208   6.802  74.174  1.00  0.00    -0.042 C  
HETATM   16  C   UNL     1      -5.144   4.336  73.834  1.00  0.00    -0.007 C  
HETATM   17  C   UNL     1      -6.122  12.442  69.561  1.00  0.00    -0.117 C  
HETATM   18  C   UNL     1      -7.374  13.255  66.993  1.00  0.00     0.254 C  
HETATM   19  O   UNL     1      -7.217   5.530  74.043  1.00  0.00    -0.084 OA 
HETATM   20  C   UNL     1      -6.896  11.404  68.723  1.00  0.00    -0.082 C  
HETATM   21  C   UNL     1      -6.701  11.872  67.245  1.00  0.00    -0.138 C  
HETATM   22  H   UNL     1      -7.172   5.408  74.983  1.00  0.00     0.000 HD 
ENDROOT
BRANCH  12  23
HETATM   23  C   UNL     1     -11.468  10.784  68.066  1.00  0.00    -0.333 C  
HETATM   24  C   UNL     1     -11.554  10.156  69.257  1.00  0.00    -0.120 C  
HETATM   25  C   UNL     1     -11.738  10.777  71.702  1.00  0.00     0.681 C  
HETATM   26  C   UNL     1     -10.788  10.496  70.519  1.00  0.00    -0.066 C  
HETATM   27  O   UNL     1     -12.411  12.029  71.529  1.00  0.00    -0.122 OA 
HETATM   28  C   UNL     1     -12.774   9.671  71.902  1.00  0.00    -0.499 C  
HETATM   29  C   UNL     1     -13.531   9.353  70.613  1.00  0.00     0.282 C  
HETATM   30  H   UNL     1     -12.996  12.202  72.257  1.00  0.00     0.000 HD 
HETATM   31  C   UNL     1     -12.560   9.032  69.465  1.00  0.00     2.266 C  
HETATM   32  O   UNL     1     -14.387   8.245  70.832  1.00  0.00    -0.653 OA 
HETATM   33  H   UNL     1     -14.858   8.047  70.031  1.00  0.00     0.000 HD 
ENDBRANCH  12  23
TORSDOF 1
ENDMDL
MODEL       99
REMARK 921   NORMALIZED FREE ENERGY PREDICTED BY IDOCK:    1.80 KCAL/MOL
REMARK 922        TOTAL FREE ENERGY PREDICTED BY IDOCK:    1.47 KCAL/MOL
REMARK 923 INTER-LIGAND FREE ENERGY PREDICTED BY IDOCK:    2.15 KCAL/MOL
REMARK 924 INTRA-LIGAND FREE ENERGY PREDICTED BY IDOCK:   -0.68 KCAL/MOL
REMARK 927      BINDING AFFINITY PREDICTED BY RF-SCORE:    0.00 PKD
ROOT
HETATM    1  C   UNL     1     -11.348   9.620  70.204  1.00  0.00    -0.275 C  
HETATM    2  C   UNL     1     -10.249  10.352  69.313  1.00  0.00    -0.248 C  
HETATM    3  C   UNL     1     -12.223   8.795  69.259  1.00  0.00     2.147 C  
HETATM    4  C   UNL     1      -9.187  11.190  70.037  1.00  0.00     1.506 C  
HETATM    5  C   UNL     1     -10.876  11.337  68.337  1.00  0.00    -0.248 C  
HETATM    6  C   UNL     1     -11.525   7.453  69.150  1.00  0.00     0.385 C  
HETATM    7  C   UNL     1     -10.488   7.323  70.300  1.00  0.00    -0.231 C  
HETATM    8  C   UNL     1     -10.641  11.346  67.012  1.00  0.00    -0.286 C  
HETATM    9  C   UNL     1     -11.104  12.467  66.090  1.00  0.00    -0.340 C  
HETATM   10  C   UNL     1     -10.527   5.901  70.891  1.00  0.00    -0.305 C  
HETATM   11  C   UNL     1      -9.905  13.205  65.405  1.00  0.00    -0.106 C  
HETATM   12  C   UNL     1     -10.751   4.738  70.226  1.00  0.00     0.372 C  
HETATM   13  C   UNL     1     -12.126  11.897  65.103  1.00  0.00    -0.025 C  
HETATM   14  C   UNL     1     -10.349   5.872  72.388  1.00  0.00    -0.230 C  
HETATM   15  C   UNL     1      -8.858  13.671  66.430  1.00  0.00     0.103 C  
HETATM   16  C   UNL     1     -10.386  14.432  64.617  1.00  0.00    -0.215 C  
HETATM   17  C   UNL     1      -9.781   9.163  72.154  1.00  0.00     0.207 C  
HETATM   18  C   UNL     1     -11.313   6.812  73.125  1.00  0.00    -0.028 C  
HETATM   19  O   UNL     1      -9.223  12.335  64.492  1.00  0.00    -0.276 OA 
HETATM   20  C   UNL     1     -10.860   8.527  71.255  1.00  0.00    -0.312 C  
HETATM   21  C   UNL     1     -11.914   7.956  72.256  1.00  0.00    -0.387 C  
HETATM   22  H   UNL     1      -8.496  12.783  64.077  1.00  0.00     0.000 HD 
ENDROOT
BRANCH  12  23
HETATM   23  C   UNL     1     -10.861   4.572  68.790  1.00  0.00     1.558 C  
HETATM   24  C   UNL     1      -9.871   4.459  67.879  1.00  0.00    -0.141 C  
HETATM   25  C   UNL     1      -7.676   3.229  67.628  1.00  0.00    -0.072 C  
HETATM   26  C   UNL     1      -8.381   4.498  68.148  1.00  0.00    -0.095 C  
HETATM   27  O   UNL     1      -8.000   2.097  68.443  1.00  0.00    -0.056 OA 
HETATM   28  C   UNL     1      -8.020   2.918  66.172  1.00  0.00    -0.082 C  
HETATM   29  C   UNL     1      -9.528   2.882  65.933  1.00  0.00     0.029 C  
HETATM   30  H   UNL     1      -7.566   1.315  68.123  1.00  0.00     0.000 HD 
HETATM   31  C   UNL     1     -10.197   4.179  66.418  1.00  0.00     0.015 C  
HETATM   32  O   UNL     1      -9.781   2.709  64.548  1.00  0.00    -0.214 OA 
HETATM   33  H   UNL     1     -10.719   2.687  64.399  1.00  0.00     0.000 HD 
ENDBRANCH  12  23
TORSDOF 1
ENDMDL
MODEL      100
REMARK 921   NORMALIZED FREE ENERGY PREDICTED BY IDOCK:    1.92 KCAL/MOL
REMARK 922        TOTAL FREE ENERGY PREDICTED BY IDOCK:    1.59 KCAL/MOL
REMARK 923 INTER-LIGAND FREE ENERGY PREDICTED BY IDOCK:    2.32 KCAL/MOL
REMARK 924 INTRA-LIGAND FREE ENERGY PREDICTED BY IDOCK:   -0.73 KCAL/MOL
REMARK 927      BINDING AFFINITY PREDICTED BY RF-SCORE:    0.00 PKD
ROOT
HETATM    1  C   UNL     1     -10.994  12.121  70.432  1.00  0.00     1.309 C  
HETATM    2  C   UNL     1     -11.267  11.033  69.300  1.00  0.00    -0.321 C  
HETATM    3  C   UNL     1      -9.981  13.118  69.868  1.00  0.00     1.954 C  
HETATM    4  C   UNL     1     -12.316   9.951  69.589  1.00  0.00     0.427 C  
HETATM    5  C   UNL     1     -10.014  10.235  68.968  1.00  0.00    -0.223 C  
HETATM    6  C   UNL     1     -10.818  14.169  69.164  1.00  0.00    -0.254 C  
HETATM    7  C   UNL     1     -12.296  14.040  69.629  1.00  0.00    -0.309 C  
HETATM    8  C   UNL     1      -9.523  10.076  67.725  1.00  0.00    -0.157 C  
HETATM    9  C   UNL     1      -8.402   9.101  67.390  1.00  0.00    -0.115 C  
HETATM   10  C   UNL     1     -12.905  15.436  69.857  1.00  0.00    -0.011 C  
HETATM   11  C   UNL     1      -8.862   7.990  66.388  1.00  0.00    -0.157 C  
HETATM   12  C   UNL     1     -12.653  16.570  69.153  1.00  0.00     1.902 C  
HETATM   13  C   UNL     1      -7.186   9.901  66.913  1.00  0.00    -0.090 C  
HETATM   14  C   UNL     1     -13.829  15.496  71.045  1.00  0.00    -0.239 C  
HETATM   15  C   UNL     1     -10.142   7.283  66.863  1.00  0.00    -0.317 C  
HETATM   16  C   UNL     1      -7.769   6.927  66.198  1.00  0.00    -0.091 C  
HETATM   17  C   UNL     1     -13.398  12.183  71.260  1.00  0.00     0.116 C  
HETATM   18  C   UNL     1     -13.193  14.946  72.330  1.00  0.00    -0.468 C  
HETATM   19  O   UNL     1      -9.159   8.551  65.102  1.00  0.00    -0.412 OA 
HETATM   20  C   UNL     1     -12.196  13.068  70.871  1.00  0.00    -0.310 C  
HETATM   21  C   UNL     1     -11.979  13.995  72.110  1.00  0.00     0.394 C  
HETATM   22  H   UNL     1      -9.438   7.876  64.495  1.00  0.00     0.000 HD 
ENDROOT
BRANCH  12  23
HETATM   23  C   UNL     1     -11.862  16.677  67.942  1.00  0.00     0.703 C  
HETATM   24  C   UNL     1     -10.712  17.356  67.747  1.00  0.00    -0.332 C  
HETATM   25  C   UNL     1      -8.517  17.722  68.947  1.00  0.00    -0.132 C  
HETATM   26  C   UNL     1      -9.972  18.199  68.766  1.00  0.00    -0.389 C  
HETATM   27  O   UNL     1      -8.473  16.473  69.647  1.00  0.00     0.127 OA 
HETATM   28  C   UNL     1      -7.771  17.583  67.621  1.00  0.00    -0.207 C  
HETATM   29  C   UNL     1      -8.541  16.726  66.616  1.00  0.00    -0.252 C  
HETATM   30  H   UNL     1      -7.577  16.179  69.759  1.00  0.00     0.000 HD 
HETATM   31  C   UNL     1      -9.972  17.253  66.421  1.00  0.00    -0.319 C  
HETATM   32  O   UNL     1      -7.860  16.734  65.373  1.00  0.00     0.498 OA 
HETATM   33  H   UNL     1      -8.338  16.202  64.748  1.00  0.00     0.000 HD 
ENDBRANCH  12  23
TORSDOF 1
ENDMDL
MODEL      101
REMARK 921   NORMALIZED FREE ENERGY PREDICTED BY IDOCK:    2.26 KCAL/MOL
REMARK 922        TOTAL FREE ENERGY PREDICTED BY IDOCK:    1.96 KCAL/MOL
REMARK 923 INTER-LIGAND FREE ENERGY PREDICTED BY IDOCK:   -0.30 KCAL/MOL
REMARK 924 INTRA-LIGAND FREE ENERGY PREDICTED BY IDOCK:    2.25 KCAL/MOL
REMARK 927      BINDING AFFINITY PREDICTED BY RF-SCORE:    0.00 PKD
ROOT
HETATM    1  C   UNL     1      -6.669   7.919  69.189  1.00  0.00    -0.048 C  
HETATM    2  C   UNL     1      -6.525   7.421  70.695  1.00  0.00    -0.039 C  
HETATM    3  C   UNL     1      -7.815   7.129  68.557  1.00  0.00    -0.122 C  
HETATM    4  C   UNL     1      -5.485   8.120  71.581  1.00  0.00    -0.034 C  
HETATM    5  C   UNL     1      -6.130   5.953  70.771  1.00  0.00    -0.030 C  
HETATM    6  C   UNL     1      -9.063   7.935  68.864  1.00  0.00    -0.141 C  
HETATM    7  C   UNL     1      -8.648   9.365  69.310  1.00  0.00    -0.143 C  
HETATM    8  C   UNL     1      -6.791   5.025  71.486  1.00  0.00    -0.048 C  
HETATM    9  C   UNL     1      -6.258   3.618  71.723  1.00  0.00    -0.014 C  
HETATM   10  C   UNL     1      -9.585  10.411  68.676  1.00  0.00    -0.166 C  
HETATM   11  C   UNL     1      -6.011   3.324  73.240  1.00  0.00    -0.008 C  
HETATM   12  C   UNL     1     -10.914  10.282  68.425  1.00  0.00    -0.308 C  
HETATM   13  C   UNL     1      -7.198   2.619  71.043  1.00  0.00    -0.033 C  
HETATM   14  C   UNL     1      -8.874  11.671  68.256  1.00  0.00    -0.167 C  
HETATM   15  C   UNL     1      -5.143   4.408  73.901  1.00  0.00    -0.007 C  
HETATM   16  C   UNL     1      -5.319   1.968  73.438  1.00  0.00     0.000 C  
HETATM   17  C   UNL     1      -6.163  10.355  69.714  1.00  0.00    -0.067 C  
HETATM   18  C   UNL     1      -7.651  11.403  67.367  1.00  0.00    -0.124 C  
HETATM   19  O   UNL     1      -7.249   3.296  73.964  1.00  0.00    -0.045 OA 
HETATM   20  C   UNL     1      -7.115   9.427  68.933  1.00  0.00    -0.068 C  
HETATM   21  C   UNL     1      -7.065   9.963  67.467  1.00  0.00    -0.088 C  
HETATM   22  H   UNL     1      -7.099   3.118  74.885  1.00  0.00     0.000 HD 
ENDROOT
BRANCH  12  23
HETATM   23  C   UNL     1     -11.767   9.183  68.831  1.00  0.00     0.998 C  
HETATM   24  C   UNL     1     -11.655   8.388  69.917  1.00  0.00     0.289 C  
HETATM   25  C   UNL     1     -11.174   8.635  72.387  1.00  0.00    -0.269 C  
HETATM   26  C   UNL     1     -10.575   8.450  70.978  1.00  0.00    -0.258 C  
HETATM   27  O   UNL     1     -11.695   9.960  72.549  1.00  0.00     0.806 OA 
HETATM   28  C   UNL     1     -12.273   7.620  72.700  1.00  0.00    -0.058 C  
HETATM   29  C   UNL     1     -13.347   7.583  71.613  1.00  0.00    -0.358 C  
HETATM   30  H   UNL     1     -12.064  10.074  73.417  1.00  0.00     0.000 HD 
HETATM   31  C   UNL     1     -12.725   7.350  70.227  1.00  0.00     0.562 C  
HETATM   32  O   UNL     1     -14.269   6.544  71.899  1.00  0.00    -0.311 OA 
HETATM   33  H   UNL     1     -14.936   6.521  71.223  1.00  0.00     0.000 HD 
ENDBRANCH  12  23
TORSDOF 1
ENDMDL
MODEL      102
REMARK 921   NORMALIZED FREE ENERGY PREDICTED BY IDOCK:    2.39 KCAL/MOL
REMARK 922        TOTAL FREE ENERGY PREDICTED BY IDOCK:    2.09 KCAL/MOL
REMARK 923 INTER-LIGAND FREE ENERGY PREDICTED BY IDOCK:    2.51 KCAL/MOL
REMARK 924 INTRA-LIGAND FREE ENERGY PREDICTED BY IDOCK:   -0.42 KCAL/MOL
REMARK 927      BINDING AFFINITY PREDICTED BY RF-SCORE:    0.00 PKD
ROOT
HETATM    1  C   UNL     1      -6.425  11.149  65.495  1.00  0.00     0.303 C  
HETATM    2  C   UNL     1      -7.362  12.213  66.222  1.00  0.00     0.724 C  
HETATM    3  C   UNL     1      -5.666  10.393  66.585  1.00  0.00    -0.059 C  
HETATM    4  C   UNL     1      -8.297  13.057  65.344  1.00  0.00     2.637 C  
HETATM    5  C   UNL     1      -6.553  13.253  66.983  1.00  0.00     0.600 C  
HETATM    6  C   UNL     1      -6.568   9.233  66.959  1.00  0.00    -0.068 C  
HETATM    7  C   UNL     1      -7.649   9.052  65.856  1.00  0.00    -0.094 C  
HETATM    8  C   UNL     1      -6.741  13.560  68.280  1.00  0.00    -0.107 C  
HETATM    9  C   UNL     1      -6.073  14.748  68.961  1.00  0.00    -0.093 C  
HETATM   10  C   UNL     1      -7.860   7.555  65.559  1.00  0.00    -0.114 C  
HETATM   11  C   UNL     1      -7.114  15.794  69.484  1.00  0.00    -0.190 C  
HETATM   12  C   UNL     1      -7.806   6.525  66.443  1.00  0.00    -0.104 C  
HETATM   13  C   UNL     1      -5.125  14.222  70.042  1.00  0.00    -0.089 C  
HETATM   14  C   UNL     1      -8.088   7.263  64.099  1.00  0.00    -0.036 C  
HETATM   15  C   UNL     1      -8.104  16.216  68.386  1.00  0.00    -0.171 C  
HETATM   16  C   UNL     1      -6.416  17.055  70.013  1.00  0.00     0.176 C  
HETATM   17  C   UNL     1      -8.108  10.584  63.673  1.00  0.00    -0.051 C  
HETATM   18  C   UNL     1      -7.009   7.868  63.190  1.00  0.00    -0.084 C  
HETATM   19  O   UNL     1      -7.899  15.245  70.551  1.00  0.00     0.217 OA 
HETATM   20  C   UNL     1      -7.117   9.967  64.682  1.00  0.00    -0.137 C  
HETATM   21  C   UNL     1      -6.202   9.045  63.814  1.00  0.00    -0.087 C  
HETATM   22  H   UNL     1      -8.530  15.879  70.868  1.00  0.00     0.000 HD 
ENDROOT
BRANCH  12  23
HETATM   23  C   UNL     1      -7.679   6.628  67.883  1.00  0.00    -0.108 C  
HETATM   24  C   UNL     1      -8.091   5.757  68.828  1.00  0.00    -0.102 C  
HETATM   25  C   UNL     1      -8.057   3.260  69.228  1.00  0.00    -0.052 C  
HETATM   26  C   UNL     1      -8.816   4.446  68.599  1.00  0.00    -0.135 C  
HETATM   27  O   UNL     1      -6.868   2.966  68.487  1.00  0.00    -0.046 OA 
HETATM   28  C   UNL     1      -7.692   3.502  70.693  1.00  0.00    -0.040 C  
HETATM   29  C   UNL     1      -6.961   4.829  70.891  1.00  0.00    -0.037 C  
HETATM   30  H   UNL     1      -6.400   2.236  68.875  1.00  0.00     0.000 HD 
HETATM   31  C   UNL     1      -7.763   5.998  70.295  1.00  0.00    -0.097 C  
HETATM   32  O   UNL     1      -6.758   5.052  72.276  1.00  0.00    -0.048 OA 
HETATM   33  H   UNL     1      -6.303   5.876  72.399  1.00  0.00     0.000 HD 
ENDBRANCH  12  23
TORSDOF 1
ENDMDL
MODEL      103
REMARK 921   NORMALIZED FREE ENERGY PREDICTED BY IDOCK:    2.58 KCAL/MOL
REMARK 922        TOTAL FREE ENERGY PREDICTED BY IDOCK:    2.29 KCAL/MOL
REMARK 923 INTER-LIGAND FREE ENERGY PREDICTED BY IDOCK:    0.86 KCAL/MOL
REMARK 924 INTRA-LIGAND FREE ENERGY PREDICTED BY IDOCK:    1.43 KCAL/MOL
REMARK 927      BINDING AFFINITY PREDICTED BY RF-SCORE:    0.00 PKD
ROOT
HETATM    1  C   UNL     1     -10.245  14.170  69.666  1.00  0.00     0.341 C  
HETATM    2  C   UNL     1     -11.519  13.508  70.358  1.00  0.00     0.067 C  
HETATM    3  C   UNL     1     -10.047  13.473  68.320  1.00  0.00    -0.247 C  
HETATM    4  C   UNL     1     -11.982  14.088  71.702  1.00  0.00     0.050 C  
HETATM    5  C   UNL     1     -11.295  12.034  70.665  1.00  0.00     0.898 C  
HETATM    6  C   UNL     1     -10.896  14.263  67.342  1.00  0.00    -0.288 C  
HETATM    7  C   UNL     1     -11.273  15.628  67.981  1.00  0.00    -0.339 C  
HETATM    8  C   UNL     1     -12.124  11.046  70.282  1.00  0.00    -0.448 C  
HETATM    9  C   UNL     1     -11.999   9.612  70.781  1.00  0.00    -0.356 C  
HETATM   10  C   UNL     1     -11.161  16.753  66.934  1.00  0.00     0.223 C  
HETATM   11  C   UNL     1     -13.261   9.151  71.584  1.00  0.00    -0.377 C  
HETATM   12  C   UNL     1     -11.445  16.676  65.608  1.00  0.00     0.741 C  
HETATM   13  C   UNL     1     -11.656   8.709  69.593  1.00  0.00     0.459 C  
HETATM   14  C   UNL     1     -10.613  18.039  67.498  1.00  0.00    -0.402 C  
HETATM   15  C   UNL     1     -13.622  10.141  72.704  1.00  0.00     0.292 C  
HETATM   16  C   UNL     1     -13.042   7.769  72.217  1.00  0.00    -0.049 C  
HETATM   17  C   UNL     1     -10.752  16.525  70.481  1.00  0.00     0.146 C  
HETATM   18  C   UNL     1      -9.293  17.848  68.258  1.00  0.00    -0.287 C  
HETATM   19  O   UNL     1     -14.409   9.066  70.729  1.00  0.00    -0.516 OA 
HETATM   20  C   UNL     1     -10.328  15.704  69.246  1.00  0.00    -0.250 C  
HETATM   21  C   UNL     1      -9.018  16.396  68.749  1.00  0.00    -0.245 C  
HETATM   22  H   UNL     1     -15.174   8.786  71.217  1.00  0.00     0.000 HD 
ENDROOT
BRANCH  12  23
HETATM   23  C   UNL     1     -12.051  15.554  64.919  1.00  0.00     0.152 C  
HETATM   24  C   UNL     1     -11.447  14.571  64.219  1.00  0.00    -0.194 C  
HETATM   25  C   UNL     1      -9.440  13.050  64.461  1.00  0.00     0.630 C  
HETATM   26  C   UNL     1      -9.960  14.417  63.970  1.00  0.00     2.403 C  
HETATM   27  O   UNL     1      -9.413  13.000  65.892  1.00  0.00    -0.441 OA 
HETATM   28  C   UNL     1     -10.267  11.879  63.931  1.00  0.00    -0.420 C  
HETATM   29  C   UNL     1     -11.760  12.062  64.199  1.00  0.00    -0.372 C  
HETATM   30  H   UNL     1      -9.093  12.158  66.194  1.00  0.00     0.000 HD 
HETATM   31  C   UNL     1     -12.259  13.412  63.658  1.00  0.00    -0.480 C  
HETATM   32  O   UNL     1     -12.481  11.010  63.582  1.00  0.00     0.167 OA 
HETATM   33  H   UNL     1     -13.410  11.123  63.748  1.00  0.00     0.000 HD 
ENDBRANCH  12  23
TORSDOF 1
ENDMDL
MODEL      104
REMARK 921   NORMALIZED FREE ENERGY PREDICTED BY IDOCK:    3.06 KCAL/MOL
REMARK 922        TOTAL FREE ENERGY PREDICTED BY IDOCK:    2.80 KCAL/MOL
REMARK 923 INTER-LIGAND FREE ENERGY PREDICTED BY IDOCK:    3.48 KCAL/MOL
REMARK 924 INTRA-LIGAND FREE ENERGY PREDICTED BY IDOCK:   -0.68 KCAL/MOL
REMARK 927      BINDING AFFINITY PREDICTED BY RF-SCORE:    0.00 PKD
ROOT
HETATM    1  C   UNL     1     -11.118   8.549  69.216  1.00  0.00     0.129 C  
HETATM    2  C   UNL     1      -9.842   9.485  69.401  1.00  0.00    -0.194 C  
HETATM    3  C   UNL     1     -10.664   7.311  68.441  1.00  0.00    -0.165 C  
HETATM    4  C   UNL     1     -10.013  10.770  70.223  1.00  0.00     0.810 C  
HETATM    5  C   UNL     1      -9.308   9.984  68.066  1.00  0.00    -0.139 C  
HETATM    6  C   UNL     1     -10.194   6.335  69.502  1.00  0.00    -0.239 C  
HETATM    7  C   UNL     1     -10.720   6.798  70.890  1.00  0.00    -0.269 C  
HETATM    8  C   UNL     1      -8.028   9.863  67.668  1.00  0.00    -0.109 C  
HETATM    9  C   UNL     1      -7.470  10.557  66.432  1.00  0.00    -0.133 C  
HETATM   10  C   UNL     1     -11.211   5.585  71.703  1.00  0.00    -0.135 C  
HETATM   11  C   UNL     1      -6.330  11.570  66.785  1.00  0.00    -0.134 C  
HETATM   12  C   UNL     1     -10.688   4.331  71.710  1.00  0.00     0.203 C  
HETATM   13  C   UNL     1      -7.057   9.489  65.416  1.00  0.00    -0.095 C  
HETATM   14  C   UNL     1     -12.447   5.873  72.515  1.00  0.00     0.155 C  
HETATM   15  C   UNL     1      -6.760  12.560  67.880  1.00  0.00    -0.103 C  
HETATM   16  C   UNL     1      -5.901  12.376  65.550  1.00  0.00     4.188 C  
HETATM   17  C   UNL     1     -12.090   9.047  71.513  1.00  0.00    -0.410 C  
HETATM   18  C   UNL     1     -13.583   6.486  71.683  1.00  0.00     0.144 C  
HETATM   19  O   UNL     1      -5.174  10.885  67.286  1.00  0.00    -0.037 OA 
HETATM   20  C   UNL     1     -11.779   7.911  70.517  1.00  0.00    -0.097 C  
HETATM   21  C   UNL     1     -13.137   7.157  70.350  1.00  0.00     0.666 C  
HETATM   22  H   UNL     1      -4.482  11.500  67.500  1.00  0.00     0.000 HD 
ENDROOT
BRANCH  12  23
HETATM   23  C   UNL     1      -9.465   3.902  71.059  1.00  0.00    -0.237 C  
HETATM   24  C   UNL     1      -8.193   4.025  71.494  1.00  0.00    -0.079 C  
HETATM   25  C   UNL     1      -6.900   3.698  73.643  1.00  0.00    -0.045 C  
HETATM   26  C   UNL     1      -7.735   4.672  72.786  1.00  0.00    -0.088 C  
HETATM   27  O   UNL     1      -7.730   2.678  74.210  1.00  0.00    -0.046 OA 
HETATM   28  C   UNL     1      -5.764   3.044  72.857  1.00  0.00    -0.007 C  
HETATM   29  C   UNL     1      -6.258   2.400  71.562  1.00  0.00    -0.015 C  
HETATM   30  H   UNL     1      -7.217   2.079  74.737  1.00  0.00     0.000 HD 
HETATM   31  C   UNL     1      -7.046   3.406  70.708  1.00  0.00    -0.033 C  
HETATM   32  O   UNL     1      -5.148   1.919  70.823  1.00  0.00    -0.003 OA 
HETATM   33  H   UNL     1      -5.455   1.518  70.019  1.00  0.00     0.000 HD 
ENDBRANCH  12  23
TORSDOF 1
ENDMDL
MODEL      105
REMARK 921   NORMALIZED FREE ENERGY PREDICTED BY IDOCK:    3.19 KCAL/MOL
REMARK 922        TOTAL FREE ENERGY PREDICTED BY IDOCK:    2.94 KCAL/MOL
REMARK 923 INTER-LIGAND FREE ENERGY PREDICTED BY IDOCK:   -1.19 KCAL/MOL
REMARK 924 INTRA-LIGAND FREE ENERGY PREDICTED BY IDOCK:    4.13 KCAL/MOL
REMARK 927      BINDING AFFINITY PREDICTED BY RF-SCORE:    0.00 PKD
ROOT
HETATM    1  C   UNL     1     -10.917  10.748  70.762  1.00  0.00     0.432 C  
HETATM    2  C   UNL     1     -11.324   9.217  70.928  1.00  0.00    -0.373 C  
HETATM    3  C   UNL     1      -9.439  10.785  70.371  1.00  0.00     1.553 C  
HETATM    4  C   UNL     1     -12.792   8.900  71.246  1.00  0.00    -0.272 C  
HETATM    5  C   UNL     1     -10.562   8.548  72.063  1.00  0.00    -0.408 C  
HETATM    6  C   UNL     1      -9.432  10.696  68.857  1.00  0.00    -0.199 C  
HETATM    7  C   UNL     1     -10.858  11.005  68.322  1.00  0.00    -0.261 C  
HETATM    8  C   UNL     1      -9.863   7.405  71.938  1.00  0.00    -0.187 C  
HETATM    9  C   UNL     1      -9.292   6.642  73.126  1.00  0.00    -0.147 C  
HETATM   10  C   UNL     1     -10.773  11.898  67.069  1.00  0.00    -0.280 C  
HETATM   11  C   UNL     1      -9.905   5.208  73.259  1.00  0.00    -0.153 C  
HETATM   12  C   UNL     1      -9.822  11.869  66.100  1.00  0.00    -0.254 C  
HETATM   13  C   UNL     1      -7.764   6.657  73.027  1.00  0.00    -0.095 C  
HETATM   14  C   UNL     1     -11.862  12.937  67.003  1.00  0.00    -0.437 C  
HETATM   15  C   UNL     1     -11.442   5.238  73.255  1.00  0.00    -0.250 C  
HETATM   16  C   UNL     1      -9.442   4.525  74.555  1.00  0.00    -0.141 C  
HETATM   17  C   UNL     1     -13.129  11.452  69.723  1.00  0.00     0.765 C  
HETATM   18  C   UNL     1     -11.970  13.777  68.284  1.00  0.00    -0.392 C  
HETATM   19  O   UNL     1      -9.510   4.378  72.159  1.00  0.00    -0.126 OA 
HETATM   20  C   UNL     1     -11.598  11.586  69.591  1.00  0.00    -0.403 C  
HETATM   21  C   UNL     1     -11.345  13.127  69.554  1.00  0.00    -0.227 C  
HETATM   22  H   UNL     1      -9.882   3.508  72.240  1.00  0.00     0.000 HD 
ENDROOT
BRANCH  12  23
HETATM   23  C   UNL     1      -8.758  10.893  65.962  1.00  0.00    -0.192 C  
HETATM   24  C   UNL     1      -8.666   9.666  66.516  1.00  0.00    -0.147 C  
HETATM   25  C   UNL     1     -10.155   7.658  66.899  1.00  0.00    -0.278 C  
HETATM   26  C   UNL     1      -9.668   9.014  67.448  1.00  0.00    -0.217 C  
HETATM   27  O   UNL     1     -11.018   7.846  65.772  1.00  0.00     1.925 OA 
HETATM   28  C   UNL     1      -9.004   6.733  66.504  1.00  0.00    -0.162 C  
HETATM   29  C   UNL     1      -8.013   7.418  65.563  1.00  0.00    -0.122 C  
HETATM   30  H   UNL     1     -11.318   7.011  65.433  1.00  0.00     0.000 HD 
HETATM   31  C   UNL     1      -7.510   8.743  66.158  1.00  0.00    -0.090 C  
HETATM   32  O   UNL     1      -6.913   6.555  65.331  1.00  0.00    -0.050 OA 
HETATM   33  H   UNL     1      -6.297   6.980  64.746  1.00  0.00     0.000 HD 
ENDBRANCH  12  23
TORSDOF 1
ENDMDL
MODEL      106
REMARK 921   NORMALIZED FREE ENERGY PREDICTED BY IDOCK:    4.65 KCAL/MOL
REMARK 922        TOTAL FREE ENERGY PREDICTED BY IDOCK:    4.49 KCAL/MOL
REMARK 923 INTER-LIGAND FREE ENERGY PREDICTED BY IDOCK:    5.25 KCAL/MOL
REMARK 924 INTRA-LIGAND FREE ENERGY PREDICTED BY IDOCK:   -0.76 KCAL/MOL
REMARK 927      BINDING AFFINITY PREDICTED BY RF-SCORE:    0.00 PKD
ROOT
HETATM    1  C   UNL     1      -9.096  10.899  69.745  1.00  0.00     0.578 C  
HETATM    2  C   UNL     1      -9.881   9.615  70.266  1.00  0.00    -0.321 C  
HETATM    3  C   UNL     1      -8.523  10.554  68.370  1.00  0.00    -0.128 C  
HETATM    4  C   UNL     1     -10.622   9.727  71.605  1.00  0.00     0.344 C  
HETATM    5  C   UNL     1      -8.951   8.427  70.472  1.00  0.00    -0.160 C  
HETATM    6  C   UNL     1      -9.620  10.917  67.387  1.00  0.00    -0.181 C  
HETATM    7  C   UNL     1     -10.660  11.827  68.098  1.00  0.00    -0.230 C  
HETATM    8  C   UNL     1      -9.148   7.207  69.940  1.00  0.00    -0.141 C  
HETATM    9  C   UNL     1      -8.330   5.984  70.331  1.00  0.00    -0.124 C  
HETATM   10  C   UNL     1     -11.098  12.968  67.158  1.00  0.00    -0.304 C  
HETATM   11  C   UNL     1      -9.211   4.864  70.980  1.00  0.00    -0.144 C  
HETATM   12  C   UNL     1     -11.255  12.910  65.810  1.00  0.00    -0.324 C  
HETATM   13  C   UNL     1      -7.534   5.517  69.110  1.00  0.00    -0.078 C  
HETATM   14  C   UNL     1     -11.299  14.281  67.869  1.00  0.00    -0.320 C  
HETATM   15  C   UNL     1     -10.065   5.405  72.139  1.00  0.00    -0.237 C  
HETATM   16  C   UNL     1      -8.343   3.717  71.518  1.00  0.00    -0.081 C  
HETATM   17  C   UNL     1     -10.757  12.573  70.697  1.00  0.00     3.025 C  
HETATM   18  C   UNL     1     -10.093  14.692  68.726  1.00  0.00    -0.235 C  
HETATM   19  O   UNL     1     -10.125   4.313  70.023  1.00  0.00    -0.196 OA 
HETATM   20  C   UNL     1      -9.931  12.221  69.443  1.00  0.00     0.697 C  
HETATM   21  C   UNL     1      -9.137  13.528  69.122  1.00  0.00     0.530 C  
HETATM   22  H   UNL     1     -10.659   3.634  70.416  1.00  0.00     0.000 HD 
ENDROOT
BRANCH  12  23
HETATM   23  C   UNL     1     -11.183  11.722  64.982  1.00  0.00    -0.318 C  
HETATM   24  C   UNL     1     -10.331  11.453  63.971  1.00  0.00    -0.418 C  
HETATM   25  C   UNL     1      -7.858  11.670  63.487  1.00  0.00     1.760 C  
HETATM   26  C   UNL     1      -9.237  12.359  63.441  1.00  0.00     1.095 C  
HETATM   27  O   UNL     1      -7.390  11.555  64.835  1.00  0.00     0.526 OA 
HETATM   28  C   UNL     1      -7.867  10.287  62.837  1.00  0.00    -0.151 C  
HETATM   29  C   UNL     1      -8.978   9.397  63.393  1.00  0.00    -0.119 C  
HETATM   30  H   UNL     1      -6.541  11.131  64.864  1.00  0.00     0.000 HD 
HETATM   31  C   UNL     1     -10.346  10.091  63.291  1.00  0.00     1.279 C  
HETATM   32  O   UNL     1      -9.010   8.178  62.670  1.00  0.00    -0.372 OA 
HETATM   33  H   UNL     1      -9.701   7.625  63.016  1.00  0.00     0.000 HD 
ENDBRANCH  12  23
TORSDOF 1
ENDMDL
MODEL      107
REMARK 921   NORMALIZED FREE ENERGY PREDICTED BY IDOCK:    4.85 KCAL/MOL
REMARK 922        TOTAL FREE ENERGY PREDICTED BY IDOCK:    4.69 KCAL/MOL
REMARK 923 INTER-LIGAND FREE ENERGY PREDICTED BY IDOCK:    5.18 KCAL/MOL
REMARK 924 INTRA-LIGAND FREE ENERGY PREDICTED BY IDOCK:   -0.49 KCAL/MOL
REMARK 927      BINDING AFFINITY PREDICTED BY RF-SCORE:    0.00 PKD
ROOT
HETATM    1  C   UNL     1      -8.515  10.951  67.217  1.00  0.00    -0.125 C  
HETATM    2  C   UNL     1      -7.701  10.143  68.322  1.00  0.00    -0.088 C  
HETATM    3  C   UNL     1      -9.992  10.887  67.604  1.00  0.00    -0.197 C  
HETATM    4  C   UNL     1      -6.170  10.120  68.206  1.00  0.00    -0.049 C  
HETATM    5  C   UNL     1      -8.079   8.669  68.339  1.00  0.00    -0.118 C  
HETATM    6  C   UNL     1     -10.207  12.074  68.524  1.00  0.00    -0.218 C  
HETATM    7  C   UNL     1      -9.011  13.056  68.377  1.00  0.00    -0.126 C  
HETATM    8  C   UNL     1      -8.465   7.996  69.439  1.00  0.00    -0.132 C  
HETATM    9  C   UNL     1      -8.628   6.482  69.477  1.00  0.00    -0.134 C  
HETATM   10  C   UNL     1      -9.517  14.511  68.357  1.00  0.00    -0.209 C  
HETATM   11  C   UNL     1      -7.648   5.806  70.494  1.00  0.00    -0.090 C  
HETATM   12  C   UNL     1     -10.565  15.028  69.050  1.00  0.00    -0.245 C  
HETATM   13  C   UNL     1     -10.103   6.156  69.726  1.00  0.00    -0.229 C  
HETATM   14  C   UNL     1      -8.761  15.392  67.396  1.00  0.00    -0.194 C  
HETATM   15  C   UNL     1      -6.192   6.242  70.265  1.00  0.00    -0.035 C  
HETATM   16  C   UNL     1      -7.713   4.275  70.392  1.00  0.00    -0.049 C  
HETATM   17  C   UNL     1      -6.749  12.758  66.922  1.00  0.00     0.436 C  
HETATM   18  C   UNL     1      -8.682  14.806  65.980  1.00  0.00     0.423 C  
HETATM   19  O   UNL     1      -7.976   6.172  71.841  1.00  0.00    -0.105 OA 
HETATM   20  C   UNL     1      -8.263  12.519  67.092  1.00  0.00    -0.168 C  
HETATM   21  C   UNL     1      -8.914  13.269  65.886  1.00  0.00     0.474 C  
HETATM   22  H   UNL     1      -7.382   5.761  72.458  1.00  0.00     0.000 HD 
ENDROOT
BRANCH  12  23
HETATM   23  C   UNL     1     -11.344  14.353  70.069  1.00  0.00    -0.253 C  
HETATM   24  C   UNL     1     -11.511  14.695  71.364  1.00  0.00    -0.123 C  
HETATM   25  C   UNL     1     -11.970  16.783  72.715  1.00  0.00    -0.053 C  
HETATM   26  C   UNL     1     -10.894  15.881  72.076  1.00  0.00     0.754 C  
HETATM   27  O   UNL     1     -12.693  17.503  71.710  1.00  0.00     4.291 OA 
HETATM   28  C   UNL     1     -12.956  16.002  73.583  1.00  0.00    -0.673 C  
HETATM   29  C   UNL     1     -13.562  14.814  72.837  1.00  0.00    -0.376 C  
HETATM   30  H   UNL     1     -13.355  18.058  72.103  1.00  0.00     0.000 HD 
HETATM   31  C   UNL     1     -12.466  13.909  72.252  1.00  0.00    -0.117 C  
HETATM   32  O   UNL     1     -14.371  14.064  73.727  1.00  0.00     2.908 OA 
HETATM   33  H   UNL     1     -14.749  13.326  73.263  1.00  0.00     0.000 HD 
ENDBRANCH  12  23
TORSDOF 1
ENDMDL
MODEL      108
REMARK 921   NORMALIZED FREE ENERGY PREDICTED BY IDOCK:    4.92 KCAL/MOL
REMARK 922        TOTAL FREE ENERGY PREDICTED BY IDOCK:    4.77 KCAL/MOL
REMARK 923 INTER-LIGAND FREE ENERGY PREDICTED BY IDOCK:    5.42 KCAL/MOL
REMARK 924 INTRA-LIGAND FREE ENERGY PREDICTED BY IDOCK:   -0.65 KCAL/MOL
REMARK 927      BINDING AFFINITY PREDICTED BY RF-SCORE:    0.00 PKD
ROOT
HETATM    1  C   UNL     1      -9.580   6.760  71.854  1.00  0.00    -0.150 C  
HETATM    2  C   UNL     1      -8.160   7.421  71.564  1.00  0.00    -0.100 C  
HETATM    3  C   UNL     1     -10.476   7.063  70.652  1.00  0.00    -0.229 C  
HETATM    4  C   UNL     1      -7.044   7.193  72.593  1.00  0.00    -0.068 C  
HETATM    5  C   UNL     1      -8.250   8.937  71.466  1.00  0.00    -0.143 C  
HETATM    6  C   UNL     1     -10.227   5.925  69.681  1.00  0.00    -0.281 C  
HETATM    7  C   UNL     1      -9.519   4.761  70.430  1.00  0.00    -0.241 C  
HETATM    8  C   UNL     1      -7.780   9.660  70.433  1.00  0.00    -0.178 C  
HETATM    9  C   UNL     1      -7.686  11.180  70.453  1.00  0.00     1.905 C  
HETATM   10  C   UNL     1     -10.113   3.409  69.992  1.00  0.00     0.565 C  
HETATM   11  C   UNL     1      -6.210  11.684  70.321  1.00  0.00    -0.068 C  
HETATM   12  C   UNL     1     -10.562   3.067  68.756  1.00  0.00     3.087 C  
HETATM   13  C   UNL     1      -8.631  11.743  69.388  1.00  0.00     0.793 C  
HETATM   14  C   UNL     1     -10.238   2.419  71.122  1.00  0.00     0.402 C  
HETATM   15  C   UNL     1      -5.281  11.016  71.348  1.00  0.00    -0.036 C  
HETATM   16  C   UNL     1      -6.123  13.205  70.513  1.00  0.00    -0.018 C  
HETATM   17  C   UNL     1      -8.631   4.689  72.986  1.00  0.00    -0.113 C  
HETATM   18  C   UNL     1     -10.978   2.987  72.340  1.00  0.00     0.411 C  
HETATM   19  O   UNL     1      -5.676  11.373  69.027  1.00  0.00    -0.043 OA 
HETATM   20  C   UNL     1      -9.667   5.172  71.949  1.00  0.00    -0.211 C  
HETATM   21  C   UNL     1     -11.015   4.542  72.424  1.00  0.00    -0.020 C  
HETATM   22  H   UNL     1      -4.781  11.679  68.947  1.00  0.00     0.000 HD 
ENDROOT
BRANCH  12  23
HETATM   23  C   UNL     1     -10.446   3.858  67.547  1.00  0.00     1.169 C  
HETATM   24  C   UNL     1      -9.341   4.127  66.821  1.00  0.00    -0.190 C  
HETATM   25  C   UNL     1      -7.325   2.884  65.934  1.00  0.00    -0.071 C  
HETATM   26  C   UNL     1      -7.927   3.669  67.117  1.00  0.00    -0.087 C  
HETATM   27  O   UNL     1      -7.935   1.594  65.814  1.00  0.00    -0.070 OA 
HETATM   28  C   UNL     1      -7.454   3.628  64.605  1.00  0.00    -0.072 C  
HETATM   29  C   UNL     1      -8.890   4.074  64.334  1.00  0.00    -0.129 C  
HETATM   30  H   UNL     1      -7.564   1.111  65.086  1.00  0.00     0.000 HD 
HETATM   31  C   UNL     1      -9.447   4.893  65.509  1.00  0.00    -0.155 C  
HETATM   32  O   UNL     1      -8.923   4.858  63.153  1.00  0.00    -0.242 OA 
HETATM   33  H   UNL     1      -9.816   5.136  62.984  1.00  0.00     0.000 HD 
ENDBRANCH  12  23
TORSDOF 1
ENDMDL
MODEL      109
REMARK 921   NORMALIZED FREE ENERGY PREDICTED BY IDOCK:    5.51 KCAL/MOL
REMARK 922        TOTAL FREE ENERGY PREDICTED BY IDOCK:    5.40 KCAL/MOL
REMARK 923 INTER-LIGAND FREE ENERGY PREDICTED BY IDOCK:    2.11 KCAL/MOL
REMARK 924 INTRA-LIGAND FREE ENERGY PREDICTED BY IDOCK:    3.29 KCAL/MOL
REMARK 927      BINDING AFFINITY PREDICTED BY RF-SCORE:    0.00 PKD
ROOT
HETATM    1  C   UNL     1      -7.127  12.220  68.224  1.00  0.00    -0.093 C  
HETATM    2  C   UNL     1      -6.736  13.565  67.465  1.00  0.00    -0.144 C  
HETATM    3  C   UNL     1      -8.513  12.430  68.834  1.00  0.00     0.263 C  
HETATM    4  C   UNL     1      -5.409  13.588  66.694  1.00  0.00     2.222 C  
HETATM    5  C   UNL     1      -6.611  14.740  68.424  1.00  0.00    -0.101 C  
HETATM    6  C   UNL     1      -9.486  12.013  67.748  1.00  0.00    -0.190 C  
HETATM    7  C   UNL     1      -8.724  11.196  66.667  1.00  0.00    -0.166 C  
HETATM    8  C   UNL     1      -7.250  15.915  68.272  1.00  0.00    -0.118 C  
HETATM    9  C   UNL     1      -6.945  17.145  69.117  1.00  0.00    -0.224 C  
HETATM   10  C   UNL     1      -9.573   9.991  66.217  1.00  0.00    -0.256 C  
HETATM   11  C   UNL     1      -6.415  18.340  68.256  1.00  0.00    -0.200 C  
HETATM   12  C   UNL     1     -10.924   9.937  66.089  1.00  0.00     0.417 C  
HETATM   13  C   UNL     1      -8.184  17.484  69.951  1.00  0.00     1.643 C  
HETATM   14  C   UNL     1      -8.757   8.750  65.963  1.00  0.00    -0.193 C  
HETATM   15  C   UNL     1      -5.234  17.924  67.363  1.00  0.00    -0.145 C  
HETATM   16  C   UNL     1      -5.958  19.506  69.144  1.00  0.00    -0.288 C  
HETATM   17  C   UNL     1      -6.073  10.680  66.496  1.00  0.00    -0.088 C  
HETATM   18  C   UNL     1      -7.841   8.382  67.139  1.00  0.00    -0.100 C  
HETATM   19  O   UNL     1      -7.436  18.831  67.377  1.00  0.00    -0.221 OA 
HETATM   20  C   UNL     1      -7.334  10.899  67.357  1.00  0.00    -0.099 C  
HETATM   21  C   UNL     1      -7.524   9.549  68.120  1.00  0.00    -0.079 C  
HETATM   22  H   UNL     1      -7.115  19.555  66.855  1.00  0.00     0.000 HD 
ENDROOT
BRANCH  12  23
HETATM   23  C   UNL     1     -11.848  11.046  66.212  1.00  0.00     1.177 C  
HETATM   24  C   UNL     1     -11.604  12.365  66.059  1.00  0.00    -0.455 C  
HETATM   25  C   UNL     1     -10.356  13.874  64.459  1.00  0.00    -0.232 C  
HETATM   26  C   UNL     1     -10.272  13.009  65.733  1.00  0.00    -0.297 C  
HETATM   27  O   UNL     1     -10.475  13.052  63.293  1.00  0.00    -0.405 OA 
HETATM   28  C   UNL     1     -11.516  14.868  64.496  1.00  0.00    -0.328 C  
HETATM   29  C   UNL     1     -12.845  14.189  64.824  1.00  0.00    -0.056 C  
HETATM   30  H   UNL     1     -10.527  13.584  62.508  1.00  0.00     0.000 HD 
HETATM   31  C   UNL     1     -12.744  13.373  66.123  1.00  0.00    -0.143 C  
HETATM   32  O   UNL     1     -13.855  15.174  64.962  1.00  0.00     1.006 OA 
HETATM   33  H   UNL     1     -14.681  14.752  65.166  1.00  0.00     0.000 HD 
ENDBRANCH  12  23
TORSDOF 1
ENDMDL
MODEL      110
REMARK 921   NORMALIZED FREE ENERGY PREDICTED BY IDOCK:    6.10 KCAL/MOL
REMARK 922        TOTAL FREE ENERGY PREDICTED BY IDOCK:    6.02 KCAL/MOL
REMARK 923 INTER-LIGAND FREE ENERGY PREDICTED BY IDOCK:    6.63 KCAL/MOL
REMARK 924 INTRA-LIGAND FREE ENERGY PREDICTED BY IDOCK:   -0.61 KCAL/MOL
REMARK 927      BINDING AFFINITY PREDICTED BY RF-SCORE:    0.00 PKD
ROOT
HETATM    1  C   UNL     1      -7.171   6.579  70.362  1.00  0.00    -0.080 C  
HETATM    2  C   UNL     1      -7.631   6.372  68.850  1.00  0.00    -0.100 C  
HETATM    3  C   UNL     1      -6.982   8.081  70.576  1.00  0.00    -0.041 C  
HETATM    4  C   UNL     1      -7.965   4.945  68.396  1.00  0.00    -0.085 C  
HETATM    5  C   UNL     1      -6.559   6.817  67.866  1.00  0.00    -0.059 C  
HETATM    6  C   UNL     1      -8.347   8.591  71.000  1.00  0.00    -0.173 C  
HETATM    7  C   UNL     1      -9.232   7.385  71.422  1.00  0.00    -0.148 C  
HETATM    8  C   UNL     1      -6.768   7.680  66.855  1.00  0.00    -0.067 C  
HETATM    9  C   UNL     1      -5.745   7.943  65.757  1.00  0.00    -0.037 C  
HETATM   10  C   UNL     1     -10.040   7.737  72.686  1.00  0.00    -0.320 C  
HETATM   11  C   UNL     1      -6.277   7.540  64.342  1.00  0.00    -0.044 C  
HETATM   12  C   UNL     1     -10.570   8.944  73.016  1.00  0.00     1.199 C  
HETATM   13  C   UNL     1      -5.286   9.401  65.856  1.00  0.00    -0.040 C  
HETATM   14  C   UNL     1     -10.171   6.586  73.650  1.00  0.00    -0.305 C  
HETATM   15  C   UNL     1      -6.817   6.101  64.319  1.00  0.00    -0.042 C  
HETATM   16  C   UNL     1      -5.174   7.656  63.280  1.00  0.00    -0.038 C  
HETATM   17  C   UNL     1      -8.661   4.743  71.298  1.00  0.00    -0.129 C  
HETATM   18  C   UNL     1      -8.822   5.947  74.008  1.00  0.00    -0.123 C  
HETATM   19  O   UNL     1      -7.362   8.388  63.942  1.00  0.00    -0.093 OA 
HETATM   20  C   UNL     1      -8.195   6.197  71.520  1.00  0.00    -0.118 C  
HETATM   21  C   UNL     1      -7.672   6.217  72.992  1.00  0.00    -0.100 C  
HETATM   22  H   UNL     1      -7.685   8.144  63.083  1.00  0.00     0.000 HD 
ENDROOT
BRANCH  12  23
HETATM   23  C   UNL     1     -10.610  10.127  72.179  1.00  0.00     3.145 C  
HETATM   24  C   UNL     1     -11.307  10.329  71.041  1.00  0.00    -0.306 C  
HETATM   25  C   UNL     1     -13.639   9.902  70.162  1.00  0.00     0.911 C  
HETATM   26  C   UNL     1     -12.217   9.336  70.346  1.00  0.00     0.121 C  
HETATM   27  O   UNL     1     -14.328   9.966  71.416  1.00  0.00     0.293 OA 
HETATM   28  C   UNL     1     -13.645  11.286  69.513  1.00  0.00     3.115 C  
HETATM   29  C   UNL     1     -12.721  12.264  70.237  1.00  0.00     0.179 C  
HETATM   30  H   UNL     1     -15.204  10.315  71.304  1.00  0.00     0.000 HD 
HETATM   31  C   UNL     1     -11.300  11.692  70.363  1.00  0.00     0.189 C  
HETATM   32  O   UNL     1     -12.678  13.487  69.521  1.00  0.00    -0.071 OA 
HETATM   33  H   UNL     1     -12.103  14.095  69.971  1.00  0.00     0.000 HD 
ENDBRANCH  12  23
TORSDOF 1
ENDMDL
MODEL      111
REMARK 921   NORMALIZED FREE ENERGY PREDICTED BY IDOCK:    6.11 KCAL/MOL
REMARK 922        TOTAL FREE ENERGY PREDICTED BY IDOCK:    6.03 KCAL/MOL
REMARK 923 INTER-LIGAND FREE ENERGY PREDICTED BY IDOCK:   -1.80 KCAL/MOL
REMARK 924 INTRA-LIGAND FREE ENERGY PREDICTED BY IDOCK:    7.83 KCAL/MOL
REMARK 927      BINDING AFFINITY PREDICTED BY RF-SCORE:    0.00 PKD
ROOT
HETATM    1  C   UNL     1      -9.774   5.173  71.779  1.00  0.00    -0.212 C  
HETATM    2  C   UNL     1      -9.250   6.629  71.401  1.00  0.00    -0.151 C  
HETATM    3  C   UNL     1      -9.887   4.379  70.477  1.00  0.00    -0.285 C  
HETATM    4  C   UNL     1      -8.976   7.609  72.550  1.00  0.00    -0.191 C  
HETATM    5  C   UNL     1     -10.243   7.378  70.524  1.00  0.00    -0.196 C  
HETATM    6  C   UNL     1      -8.519   3.754  70.280  1.00  0.00    -0.093 C  
HETATM    7  C   UNL     1      -7.727   3.829  71.616  1.00  0.00    -0.061 C  
HETATM    8  C   UNL     1      -9.933   7.953  69.347  1.00  0.00    -0.189 C  
HETATM    9  C   UNL     1     -10.881   8.878  68.595  1.00  0.00    -0.036 C  
HETATM   10  C   UNL     1      -6.966   2.511  71.856  1.00  0.00    -0.030 C  
HETATM   11  C   UNL     1     -10.301  10.323  68.439  1.00  0.00    -0.177 C  
HETATM   12  C   UNL     1      -6.385   1.713  70.923  1.00  0.00    -0.023 C  
HETATM   13  C   UNL     1     -11.260   8.214  67.267  1.00  0.00     0.675 C  
HETATM   14  C   UNL     1      -6.952   2.086  73.302  1.00  0.00    -0.027 C  
HETATM   15  C   UNL     1      -9.845  10.907  69.786  1.00  0.00     0.304 C  
HETATM   16  C   UNL     1     -11.341  11.275  67.829  1.00  0.00    -0.354 C  
HETATM   17  C   UNL     1      -8.443   5.015  73.940  1.00  0.00    -0.103 C  
HETATM   18  C   UNL     1      -8.352   2.047  73.930  1.00  0.00    -0.058 C  
HETATM   19  O   UNL     1      -9.150  10.323  67.584  1.00  0.00    -0.137 OA 
HETATM   20  C   UNL     1      -8.835   4.241  72.665  1.00  0.00    -0.113 C  
HETATM   21  C   UNL     1      -9.430   2.897  73.194  1.00  0.00    -0.124 C  
HETATM   22  H   UNL     1      -8.799  11.200  67.489  1.00  0.00     0.000 HD 
ENDROOT
BRANCH  12  23
HETATM   23  C   UNL     1      -6.234   2.004  69.511  1.00  0.00    -0.025 C  
HETATM   24  C   UNL     1      -6.578   3.125  68.842  1.00  0.00    -0.033 C  
HETATM   25  C   UNL     1      -6.397   5.629  69.149  1.00  0.00    -0.033 C  
HETATM   26  C   UNL     1      -7.233   4.362  69.422  1.00  0.00    -0.051 C  
HETATM   27  O   UNL     1      -5.208   5.636  69.948  1.00  0.00    -0.004 OA 
HETATM   28  C   UNL     1      -6.016   5.779  67.677  1.00  0.00    -0.021 C  
HETATM   29  C   UNL     1      -5.356   4.518  67.122  1.00  0.00    -0.012 C  
HETATM   30  H   UNL     1      -4.693   6.416  69.780  1.00  0.00     0.000 HD 
HETATM   31  C   UNL     1      -6.233   3.280  67.367  1.00  0.00    -0.032 C  
HETATM   32  O   UNL     1      -5.137   4.675  65.731  1.00  0.00    -0.008 OA 
HETATM   33  H   UNL     1      -4.726   3.891  65.386  1.00  0.00     0.000 HD 
ENDBRANCH  12  23
TORSDOF 1
ENDMDL
MODEL      112
REMARK 921   NORMALIZED FREE ENERGY PREDICTED BY IDOCK:    6.31 KCAL/MOL
REMARK 922        TOTAL FREE ENERGY PREDICTED BY IDOCK:    6.25 KCAL/MOL
REMARK 923 INTER-LIGAND FREE ENERGY PREDICTED BY IDOCK:    2.96 KCAL/MOL
REMARK 924 INTRA-LIGAND FREE ENERGY PREDICTED BY IDOCK:    3.29 KCAL/MOL
REMARK 927      BINDING AFFINITY PREDICTED BY RF-SCORE:    0.00 PKD
ROOT
HETATM    1  C   UNL     1      -8.724  13.141  69.143  1.00  0.00     0.653 C  
HETATM    2  C   UNL     1      -9.787  12.003  69.481  1.00  0.00     0.951 C  
HETATM    3  C   UNL     1      -8.208  12.874  67.729  1.00  0.00    -0.174 C  
HETATM    4  C   UNL     1     -10.517  12.088  70.828  1.00  0.00     4.079 C  
HETATM    5  C   UNL     1      -9.148  10.622  69.508  1.00  0.00     0.016 C  
HETATM    6  C   UNL     1      -9.173  13.608  66.816  1.00  0.00    -0.251 C  
HETATM    7  C   UNL     1     -10.003  14.617  67.657  1.00  0.00    -0.227 C  
HETATM    8  C   UNL     1      -9.599   9.564  68.809  1.00  0.00    -0.159 C  
HETATM    9  C   UNL     1      -9.082   8.146  69.015  1.00  0.00    -0.148 C  
HETATM   10  C   UNL     1     -10.153  15.947  66.894  1.00  0.00    -0.267 C  
HETATM   11  C   UNL     1     -10.205   7.171  69.504  1.00  0.00    -0.195 C  
HETATM   12  C   UNL     1     -10.287  16.117  65.553  1.00  0.00    -0.391 C  
HETATM   13  C   UNL     1      -8.380   7.691  67.733  1.00  0.00    -0.118 C  
HETATM   14  C   UNL     1     -10.076  17.159  67.787  1.00  0.00    -0.306 C  
HETATM   15  C   UNL     1     -10.946   7.720  70.735  1.00  0.00    -0.259 C  
HETATM   16  C   UNL     1      -9.626   5.795  69.866  1.00  0.00    -0.201 C  
HETATM   17  C   UNL     1      -9.996  14.991  70.337  1.00  0.00     0.344 C  
HETATM   18  C   UNL     1      -8.831  17.166  68.684  1.00  0.00    -0.266 C  
HETATM   19  O   UNL     1     -11.195   6.979  68.485  1.00  0.00    -0.477 OA 
HETATM   20  C   UNL     1      -9.237  14.645  69.040  1.00  0.00    -0.108 C  
HETATM   21  C   UNL     1      -8.166  15.774  68.902  1.00  0.00    -0.210 C  
HETATM   22  H   UNL     1     -11.875   6.387  68.781  1.00  0.00     0.000 HD 
ENDROOT
BRANCH  12  23
HETATM   23  C   UNL     1     -10.459  15.071  64.563  1.00  0.00     0.107 C  
HETATM   24  C   UNL     1     -10.932  13.819  64.736  1.00  0.00    -0.396 C  
HETATM   25  C   UNL     1     -12.836  12.678  65.947  1.00  0.00     0.826 C  
HETATM   26  C   UNL     1     -11.386  13.193  66.040  1.00  0.00    -0.337 C  
HETATM   27  O   UNL     1     -13.763  13.769  65.912  1.00  0.00    -0.070 OA 
HETATM   28  C   UNL     1     -13.067  11.781  64.731  1.00  0.00     1.386 C  
HETATM   29  C   UNL     1     -12.602  12.440  63.434  1.00  0.00    -0.366 C  
HETATM   30  H   UNL     1     -14.656  13.452  65.855  1.00  0.00     0.000 HD 
HETATM   31  C   UNL     1     -11.140  12.901  63.540  1.00  0.00    -0.288 C  
HETATM   32  O   UNL     1     -12.731  11.517  62.365  1.00  0.00    -0.188 OA 
HETATM   33  H   UNL     1     -12.442  11.927  61.559  1.00  0.00     0.000 HD 
ENDBRANCH  12  23
TORSDOF 1
ENDMDL
MODEL      113
REMARK 921   NORMALIZED FREE ENERGY PREDICTED BY IDOCK:    6.78 KCAL/MOL
REMARK 922        TOTAL FREE ENERGY PREDICTED BY IDOCK:    6.74 KCAL/MOL
REMARK 923 INTER-LIGAND FREE ENERGY PREDICTED BY IDOCK:    4.66 KCAL/MOL
REMARK 924 INTRA-LIGAND FREE ENERGY PREDICTED BY IDOCK:    2.08 KCAL/MOL
REMARK 927      BINDING AFFINITY PREDICTED BY RF-SCORE:    0.00 PKD
ROOT
HETATM    1  C   UNL     1     -11.100  14.203  70.082  1.00  0.00     0.044 C  
HETATM    2  C   UNL     1     -11.935  12.912  69.666  1.00  0.00    -0.358 C  
HETATM    3  C   UNL     1      -9.664  13.748  70.348  1.00  0.00     3.100 C  
HETATM    4  C   UNL     1     -13.404  13.112  69.268  1.00  0.00     2.828 C  
HETATM    5  C   UNL     1     -12.008  11.896  70.796  1.00  0.00    -0.189 C  
HETATM    6  C   UNL     1      -8.973  13.826  69.000  1.00  0.00     0.275 C  
HETATM    7  C   UNL     1      -9.837  14.683  68.033  1.00  0.00    -0.216 C  
HETATM    8  C   UNL     1     -11.672  10.598  70.673  1.00  0.00    -0.454 C  
HETATM    9  C   UNL     1     -11.956   9.557  71.748  1.00  0.00    -0.443 C  
HETATM   10  C   UNL     1      -8.936  15.616  67.201  1.00  0.00    -0.232 C  
HETATM   11  C   UNL     1     -12.923   8.434  71.245  1.00  0.00    -0.155 C  
HETATM   12  C   UNL     1      -7.690  15.352  66.729  1.00  0.00    -0.045 C  
HETATM   13  C   UNL     1     -10.621   9.033  72.284  1.00  0.00    -0.061 C  
HETATM   14  C   UNL     1      -9.539  16.978  66.971  1.00  0.00    -0.257 C  
HETATM   15  C   UNL     1     -14.205   9.014  70.626  1.00  0.00     0.560 C  
HETATM   16  C   UNL     1     -13.326   7.494  72.391  1.00  0.00     0.206 C  
HETATM   17  C   UNL     1     -12.282  15.763  68.458  1.00  0.00     0.243 C  
HETATM   18  C   UNL     1     -10.002  17.656  68.268  1.00  0.00    -0.339 C  
HETATM   19  O   UNL     1     -12.300   7.642  70.225  1.00  0.00    -0.377 OA 
HETATM   20  C   UNL     1     -10.897  15.351  68.997  1.00  0.00    -0.244 C  
HETATM   21  C   UNL     1     -10.248  16.692  69.467  1.00  0.00    -0.191 C  
HETATM   22  H   UNL     1     -12.887   6.960  69.920  1.00  0.00     0.000 HD 
ENDROOT
BRANCH  12  23
HETATM   23  C   UNL     1      -6.996  14.080  66.786  1.00  0.00     1.439 C  
HETATM   24  C   UNL     1      -7.518  12.836  66.753  1.00  0.00     0.379 C  
HETATM   25  C   UNL     1      -9.272  11.566  65.448  1.00  0.00    -0.108 C  
HETATM   26  C   UNL     1      -8.985  12.469  66.664  1.00  0.00    -0.174 C  
HETATM   27  O   UNL     1      -9.174  12.308  64.227  1.00  0.00    -0.267 OA 
HETATM   28  C   UNL     1      -8.341  10.356  65.378  1.00  0.00    -0.166 C  
HETATM   29  C   UNL     1      -6.869  10.758  65.467  1.00  0.00     0.015 C  
HETATM   30  H   UNL     1      -9.351  11.752  63.478  1.00  0.00     0.000 HD 
HETATM   31  C   UNL     1      -6.605  11.618  66.714  1.00  0.00    -0.094 C  
HETATM   32  O   UNL     1      -6.066   9.591  65.518  1.00  0.00    -0.061 OA 
HETATM   33  H   UNL     1      -5.151   9.841  65.574  1.00  0.00     0.000 HD 
ENDBRANCH  12  23
TORSDOF 1
ENDMDL
MODEL      114
REMARK 921   NORMALIZED FREE ENERGY PREDICTED BY IDOCK:    7.16 KCAL/MOL
REMARK 922        TOTAL FREE ENERGY PREDICTED BY IDOCK:    7.15 KCAL/MOL
REMARK 923 INTER-LIGAND FREE ENERGY PREDICTED BY IDOCK:   -0.20 KCAL/MOL
REMARK 924 INTRA-LIGAND FREE ENERGY PREDICTED BY IDOCK:    7.35 KCAL/MOL
REMARK 927      BINDING AFFINITY PREDICTED BY RF-SCORE:    0.00 PKD
ROOT
HETATM    1  C   UNL     1      -8.117   3.991  69.606  1.00  0.00    -0.061 C  
HETATM    2  C   UNL     1      -9.331   3.864  68.581  1.00  0.00    -0.227 C  
HETATM    3  C   UNL     1      -7.419   5.321  69.318  1.00  0.00    -0.062 C  
HETATM    4  C   UNL     1     -10.249   2.641  68.713  1.00  0.00     1.390 C  
HETATM    5  C   UNL     1      -8.850   3.795  67.139  1.00  0.00    -0.135 C  
HETATM    6  C   UNL     1      -8.149   6.340  70.171  1.00  0.00    -0.116 C  
HETATM    7  C   UNL     1      -8.992   5.595  71.245  1.00  0.00    -0.149 C  
HETATM    8  C   UNL     1      -9.292   4.596  66.152  1.00  0.00    -0.153 C  
HETATM    9  C   UNL     1      -8.962   4.369  64.682  1.00  0.00    -0.150 C  
HETATM   10  C   UNL     1      -8.885   6.320  72.600  1.00  0.00    -0.126 C  
HETATM   11  C   UNL     1     -10.240   4.095  63.823  1.00  0.00    -0.062 C  
HETATM   12  C   UNL     1      -8.791   7.658  72.814  1.00  0.00    -0.203 C  
HETATM   13  C   UNL     1      -8.119   5.546  64.184  1.00  0.00    -0.124 C  
HETATM   14  C   UNL     1      -8.824   5.379  73.775  1.00  0.00    -0.124 C  
HETATM   15  C   UNL     1     -11.103   2.971  64.419  1.00  0.00     0.770 C  
HETATM   16  C   UNL     1      -9.869   3.704  62.385  1.00  0.00    -0.115 C  
HETATM   17  C   UNL     1      -9.363   2.933  71.554  1.00  0.00    -0.200 C  
HETATM   18  C   UNL     1      -7.739   4.303  73.628  1.00  0.00    -0.082 C  
HETATM   19  O   UNL     1     -11.075   5.260  63.761  1.00  0.00     1.538 OA 
HETATM   20  C   UNL     1      -8.452   4.113  71.158  1.00  0.00    -0.103 C  
HETATM   21  C   UNL     1      -7.262   4.041  72.168  1.00  0.00    -0.052 C  
HETATM   22  H   UNL     1     -11.850   5.094  63.239  1.00  0.00     0.000 HD 
ENDROOT
BRANCH  12  23
HETATM   23  C   UNL     1      -8.913   8.703  71.816  1.00  0.00    -0.307 C  
HETATM   24  C   UNL     1      -9.228   8.584  70.509  1.00  0.00    -0.175 C  
HETATM   25  C   UNL     1     -10.901   7.335  69.083  1.00  0.00    -0.136 C  
HETATM   26  C   UNL     1      -9.515   7.300  69.758  1.00  0.00    -0.149 C  
HETATM   27  O   UNL     1     -11.945   7.237  70.058  1.00  0.00    -0.533 OA 
HETATM   28  C   UNL     1     -11.115   8.591  68.238  1.00  0.00     0.306 C  
HETATM   29  C   UNL     1     -10.820   9.868  69.023  1.00  0.00    -0.215 C  
HETATM   30  H   UNL     1     -12.799   7.259  69.642  1.00  0.00     0.000 HD 
HETATM   31  C   UNL     1      -9.415   9.824  69.645  1.00  0.00    -0.237 C  
HETATM   32  O   UNL     1     -10.919  10.985  68.157  1.00  0.00    -0.208 OA 
HETATM   33  H   UNL     1     -10.736  11.780  68.645  1.00  0.00     0.000 HD 
ENDBRANCH  12  23
TORSDOF 1
ENDMDL
MODEL      115
REMARK 921   NORMALIZED FREE ENERGY PREDICTED BY IDOCK:    7.63 KCAL/MOL
REMARK 922        TOTAL FREE ENERGY PREDICTED BY IDOCK:    7.64 KCAL/MOL
REMARK 923 INTER-LIGAND FREE ENERGY PREDICTED BY IDOCK:    0.27 KCAL/MOL
REMARK 924 INTRA-LIGAND FREE ENERGY PREDICTED BY IDOCK:    7.37 KCAL/MOL
REMARK 927      BINDING AFFINITY PREDICTED BY RF-SCORE:    0.00 PKD
ROOT
HETATM    1  C   UNL     1     -10.968  15.409  66.285  1.00  0.00    -0.278 C  
HETATM    2  C   UNL     1     -10.240  14.070  65.820  1.00  0.00    -0.343 C  
HETATM    3  C   UNL     1     -10.876  15.469  67.810  1.00  0.00    -0.309 C  
HETATM    4  C   UNL     1     -10.124  13.809  64.312  1.00  0.00     0.417 C  
HETATM    5  C   UNL     1     -10.948  12.829  66.343  1.00  0.00    -0.305 C  
HETATM    6  C   UNL     1      -9.563  16.172  68.095  1.00  0.00    -0.217 C  
HETATM    7  C   UNL     1      -9.069  16.877  66.800  1.00  0.00    -0.266 C  
HETATM    8  C   UNL     1     -10.342  11.842  67.028  1.00  0.00    -0.243 C  
HETATM    9  C   UNL     1     -11.017  10.515  67.351  1.00  0.00    -0.352 C  
HETATM   10  C   UNL     1      -8.505  18.270  67.136  1.00  0.00    -0.253 C  
HETATM   11  C   UNL     1     -10.283   9.300  66.693  1.00  0.00    -0.253 C  
HETATM   12  C   UNL     1      -7.817  18.635  68.249  1.00  0.00    -0.331 C  
HETATM   13  C   UNL     1     -11.165  10.401  68.871  1.00  0.00    -0.290 C  
HETATM   14  C   UNL     1      -8.839  19.314  66.101  1.00  0.00    -0.260 C  
HETATM   15  C   UNL     1     -10.070   9.506  65.184  1.00  0.00     0.243 C  
HETATM   16  C   UNL     1     -11.074   7.999  66.893  1.00  0.00     0.543 C  
HETATM   17  C   UNL     1     -10.147  16.799  64.319  1.00  0.00     3.611 C  
HETATM   18  C   UNL     1     -10.338  19.380  65.777  1.00  0.00    -0.431 C  
HETATM   19  O   UNL     1      -8.981   9.116  67.266  1.00  0.00    -0.123 OA 
HETATM   20  C   UNL     1     -10.331  16.803  65.851  1.00  0.00    -0.341 C  
HETATM   21  C   UNL     1     -11.150  18.101  66.141  1.00  0.00     0.520 C  
HETATM   22  H   UNL     1      -8.536   8.378  66.867  1.00  0.00     0.000 HD 
ENDROOT
BRANCH  12  23
HETATM   23  C   UNL     1      -7.343  17.753  69.298  1.00  0.00    -0.027 C  
HETATM   24  C   UNL     1      -7.401  16.406  69.355  1.00  0.00    -0.150 C  
HETATM   25  C   UNL     1      -6.985  14.439  67.821  1.00  0.00    -0.176 C  
HETATM   26  C   UNL     1      -8.008  15.480  68.319  1.00  0.00    -0.132 C  
HETATM   27  O   UNL     1      -5.996  15.054  66.988  1.00  0.00    -0.136 OA 
HETATM   28  C   UNL     1      -6.292  13.698  68.964  1.00  0.00    -0.102 C  
HETATM   29  C   UNL     1      -5.689  14.657  69.989  1.00  0.00    -0.121 C  
HETATM   30  H   UNL     1      -5.366  14.413  66.682  1.00  0.00     0.000 HD 
HETATM   31  C   UNL     1      -6.743  15.653  70.502  1.00  0.00     0.491 C  
HETATM   32  O   UNL     1      -5.169  13.915  71.079  1.00  0.00    -0.114 OA 
HETATM   33  H   UNL     1      -4.795  14.511  71.716  1.00  0.00     0.000 HD 
ENDBRANCH  12  23
TORSDOF 1
ENDMDL
MODEL      116
REMARK 921   NORMALIZED FREE ENERGY PREDICTED BY IDOCK:    7.81 KCAL/MOL
REMARK 922        TOTAL FREE ENERGY PREDICTED BY IDOCK:    7.83 KCAL/MOL
REMARK 923 INTER-LIGAND FREE ENERGY PREDICTED BY IDOCK:    4.36 KCAL/MOL
REMARK 924 INTRA-LIGAND FREE ENERGY PREDICTED BY IDOCK:    3.47 KCAL/MOL
REMARK 927      BINDING AFFINITY PREDICTED BY RF-SCORE:    0.00 PKD
ROOT
HETATM    1  C   UNL     1     -10.830  14.861  70.030  1.00  0.00    -0.202 C  
HETATM    2  C   UNL     1     -11.686  13.606  69.549  1.00  0.00    -0.380 C  
HETATM    3  C   UNL     1      -9.427  14.351  70.363  1.00  0.00     1.816 C  
HETATM    4  C   UNL     1     -13.124  13.864  69.078  1.00  0.00     1.887 C  
HETATM    5  C   UNL     1     -11.854  12.577  70.657  1.00  0.00    -0.018 C  
HETATM    6  C   UNL     1      -8.663  14.425  69.055  1.00  0.00     0.014 C  
HETATM    7  C   UNL     1      -9.444  15.326  68.058  1.00  0.00    -0.198 C  
HETATM    8  C   UNL     1     -11.557  11.270  70.530  1.00  0.00    -0.233 C  
HETATM    9  C   UNL     1     -11.933  10.224  71.571  1.00  0.00    -0.357 C  
HETATM   10  C   UNL     1      -8.469  16.238  67.290  1.00  0.00    -0.199 C  
HETATM   11  C   UNL     1     -12.910   9.143  71.000  1.00  0.00    -0.106 C  
HETATM   12  C   UNL     1      -7.209  15.938  66.879  1.00  0.00    -0.173 C  
HETATM   13  C   UNL     1     -10.648   9.644  72.168  1.00  0.00     1.126 C  
HETATM   14  C   UNL     1      -9.011  17.624  67.052  1.00  0.00    -0.258 C  
HETATM   15  C   UNL     1     -14.137   9.778  70.324  1.00  0.00     1.304 C  
HETATM   16  C   UNL     1     -13.406   8.201  72.107  1.00  0.00    -0.249 C  
HETATM   17  C   UNL     1     -11.870  16.485  68.372  1.00  0.00     0.342 C  
HETATM   18  C   UNL     1      -9.518  18.299  68.334  1.00  0.00    -0.336 C  
HETATM   19  O   UNL     1     -12.262   8.345  70.000  1.00  0.00    -0.057 OA 
HETATM   20  C   UNL     1     -10.530  16.017  68.976  1.00  0.00    -0.246 C  
HETATM   21  C   UNL     1      -9.861  17.327  69.501  1.00  0.00     0.149 C  
HETATM   22  H   UNL     1     -12.855   7.689  69.654  1.00  0.00     0.000 HD 
ENDROOT
BRANCH  12  23
HETATM   23  C   UNL     1      -6.564  14.641  66.952  1.00  0.00     1.174 C  
HETATM   24  C   UNL     1      -5.814  14.130  67.951  1.00  0.00    -0.133 C  
HETATM   25  C   UNL     1      -5.889  13.985  70.474  1.00  0.00    -0.178 C  
HETATM   26  C   UNL     1      -5.448  14.816  69.252  1.00  0.00    -0.089 C  
HETATM   27  O   UNL     1      -7.313  14.014  70.623  1.00  0.00     0.315 OA 
HETATM   28  C   UNL     1      -5.419  12.533  70.402  1.00  0.00    -0.149 C  
HETATM   29  C   UNL     1      -5.805  11.869  69.081  1.00  0.00    -0.067 C  
HETATM   30  H   UNL     1      -7.584  13.503  71.376  1.00  0.00     0.000 HD 
HETATM   31  C   UNL     1      -5.311  12.695  67.881  1.00  0.00    -0.098 C  
HETATM   32  O   UNL     1      -5.240  10.570  69.025  1.00  0.00    -0.042 OA 
HETATM   33  H   UNL     1      -5.480  10.157  68.203  1.00  0.00     0.000 HD 
ENDBRANCH  12  23
TORSDOF 1
ENDMDL
MODEL      117
REMARK 921   NORMALIZED FREE ENERGY PREDICTED BY IDOCK:    8.49 KCAL/MOL
REMARK 922        TOTAL FREE ENERGY PREDICTED BY IDOCK:    8.55 KCAL/MOL
REMARK 923 INTER-LIGAND FREE ENERGY PREDICTED BY IDOCK:    9.16 KCAL/MOL
REMARK 924 INTRA-LIGAND FREE ENERGY PREDICTED BY IDOCK:   -0.61 KCAL/MOL
REMARK 927      BINDING AFFINITY PREDICTED BY RF-SCORE:    0.00 PKD
ROOT
HETATM    1  C   UNL     1      -7.228   8.516  69.354  1.00  0.00    -0.062 C  
HETATM    2  C   UNL     1      -7.452   7.879  70.797  1.00  0.00    -0.072 C  
HETATM    3  C   UNL     1      -8.610   8.784  68.758  1.00  0.00    -0.137 C  
HETATM    4  C   UNL     1      -6.208   7.584  71.647  1.00  0.00    -0.036 C  
HETATM    5  C   UNL     1      -8.156   6.532  70.719  1.00  0.00    -0.120 C  
HETATM    6  C   UNL     1      -8.978  10.176  69.234  1.00  0.00    -0.193 C  
HETATM    7  C   UNL     1      -7.701  10.890  69.760  1.00  0.00     0.166 C  
HETATM    8  C   UNL     1      -9.267   6.215  71.408  1.00  0.00    -0.149 C  
HETATM    9  C   UNL     1      -9.829   4.801  71.483  1.00  0.00    -0.253 C  
HETATM   10  C   UNL     1      -7.683  12.358  69.295  1.00  0.00     0.415 C  
HETATM   11  C   UNL     1      -9.838   4.243  72.945  1.00  0.00    -0.136 C  
HETATM   12  C   UNL     1      -8.748  13.188  69.147  1.00  0.00     0.653 C  
HETATM   13  C   UNL     1     -11.201   4.784  70.804  1.00  0.00     1.395 C  
HETATM   14  C   UNL     1      -6.308  12.849  68.922  1.00  0.00    -0.090 C  
HETATM   15  C   UNL     1      -8.461   4.372  73.617  1.00  0.00    -0.097 C  
HETATM   16  C   UNL     1     -10.248   2.763  72.971  1.00  0.00    -0.224 C  
HETATM   17  C   UNL     1      -5.200   9.892  70.035  1.00  0.00    -0.037 C  
HETATM   18  C   UNL     1      -5.597  11.934  67.915  1.00  0.00    -0.055 C  
HETATM   19  O   UNL     1     -10.762   4.970  73.765  1.00  0.00    -0.259 OA 
HETATM   20  C   UNL     1      -6.534   9.946  69.262  1.00  0.00    -0.048 C  
HETATM   21  C   UNL     1      -6.143  10.477  67.846  1.00  0.00    -0.047 C  
HETATM   22  H   UNL     1     -10.767   4.631  74.652  1.00  0.00     0.000 HD 
ENDROOT
BRANCH  12  23
HETATM   23  C   UNL     1     -10.119  12.912  69.531  1.00  0.00     0.914 C  
HETATM   24  C   UNL     1     -10.754  13.243  70.675  1.00  0.00     2.537 C  
HETATM   25  C   UNL     1     -10.969  15.254  72.193  1.00  0.00     0.224 C  
HETATM   26  C   UNL     1     -10.164  13.982  71.859  1.00  0.00     5.806 C  
HETATM   27  O   UNL     1     -10.761  16.264  71.199  1.00  0.00     0.236 OA 
HETATM   28  C   UNL     1     -12.467  14.986  72.333  1.00  0.00    -0.429 C  
HETATM   29  C   UNL     1     -13.032  14.242  71.124  1.00  0.00    -0.353 C  
HETATM   30  H   UNL     1     -11.257  17.048  71.405  1.00  0.00     0.000 HD 
HETATM   31  C   UNL     1     -12.239  12.955  70.844  1.00  0.00    -0.290 C  
HETATM   32  O   UNL     1     -14.391  13.918  71.365  1.00  0.00    -0.099 OA 
HETATM   33  H   UNL     1     -14.743  13.456  70.613  1.00  0.00     0.000 HD 
ENDBRANCH  12  23
TORSDOF 1
ENDMDL
MODEL      118
REMARK 921   NORMALIZED FREE ENERGY PREDICTED BY IDOCK:    8.92 KCAL/MOL
REMARK 922        TOTAL FREE ENERGY PREDICTED BY IDOCK:    9.00 KCAL/MOL
REMARK 923 INTER-LIGAND FREE ENERGY PREDICTED BY IDOCK:    0.11 KCAL/MOL
REMARK 924 INTRA-LIGAND FREE ENERGY PREDICTED BY IDOCK:    8.89 KCAL/MOL
REMARK 927      BINDING AFFINITY PREDICTED BY RF-SCORE:    0.00 PKD
ROOT
HETATM    1  C   UNL     1      -9.500   9.057  67.502  1.00  0.00    -0.168 C  
HETATM    2  C   UNL     1     -10.505  10.277  67.701  1.00  0.00    -0.285 C  
HETATM    3  C   UNL     1      -8.119   9.528  67.958  1.00  0.00    -0.102 C  
HETATM    4  C   UNL     1     -11.988  10.037  67.385  1.00  0.00     2.636 C  
HETATM    5  C   UNL     1     -10.141  11.461  66.817  1.00  0.00    -0.250 C  
HETATM    6  C   UNL     1      -8.074   9.227  69.444  1.00  0.00    -0.108 C  
HETATM    7  C   UNL     1      -9.221   8.239  69.799  1.00  0.00    -0.154 C  
HETATM    8  C   UNL     1      -9.965  12.717  67.267  1.00  0.00    -0.219 C  
HETATM    9  C   UNL     1      -9.815  13.920  66.344  1.00  0.00    -0.304 C  
HETATM   10  C   UNL     1      -8.716   7.173  70.791  1.00  0.00    -0.147 C  
HETATM   11  C   UNL     1     -10.967  14.963  66.538  1.00  0.00    -0.327 C  
HETATM   12  C   UNL     1      -7.813   7.341  71.791  1.00  0.00    -0.091 C  
HETATM   13  C   UNL     1      -8.412  14.505  66.527  1.00  0.00     0.130 C  
HETATM   14  C   UNL     1      -9.281   5.801  70.529  1.00  0.00    -0.168 C  
HETATM   15  C   UNL     1     -12.355  14.309  66.443  1.00  0.00    -0.378 C  
HETATM   16  C   UNL     1     -10.888  16.079  65.485  1.00  0.00    -0.301 C  
HETATM   17  C   UNL     1     -11.177   7.276  68.197  1.00  0.00     0.185 C  
HETATM   18  C   UNL     1      -9.099   5.344  69.075  1.00  0.00    -0.136 C  
HETATM   19  O   UNL     1     -10.891  15.574  67.833  1.00  0.00    -0.288 OA 
HETATM   20  C   UNL     1      -9.721   7.748  68.382  1.00  0.00    -0.167 C  
HETATM   21  C   UNL     1      -8.858   6.490  68.047  1.00  0.00    -0.114 C  
HETATM   22  H   UNL     1     -11.590  16.207  67.950  1.00  0.00     0.000 HD 
ENDROOT
BRANCH  12  23
HETATM   23  C   UNL     1      -7.235   8.596  72.232  1.00  0.00    -0.040 C  
HETATM   24  C   UNL     1      -6.245   9.312  71.661  1.00  0.00    -0.022 C  
HETATM   25  C   UNL     1      -5.566  10.071  69.346  1.00  0.00    -0.038 C  
HETATM   26  C   UNL     1      -5.474   8.954  70.406  1.00  0.00    -0.026 C  
HETATM   27  O   UNL     1      -6.877  10.122  68.772  1.00  0.00    -0.059 OA 
HETATM   28  C   UNL     1      -5.207  11.447  69.905  1.00  0.00    -0.059 C  
HETATM   29  C   UNL     1      -6.001  11.779  71.167  1.00  0.00     0.542 C  
HETATM   30  H   UNL     1      -6.934  10.809  68.119  1.00  0.00     0.000 HD 
HETATM   31  C   UNL     1      -5.852  10.671  72.223  1.00  0.00     0.965 C  
HETATM   32  O   UNL     1      -5.539  13.008  71.703  1.00  0.00    -0.390 OA 
HETATM   33  H   UNL     1      -6.033  13.215  72.488  1.00  0.00     0.000 HD 
ENDBRANCH  12  23
TORSDOF 1
ENDMDL
MODEL      119
REMARK 921   NORMALIZED FREE ENERGY PREDICTED BY IDOCK:    8.97 KCAL/MOL
REMARK 922        TOTAL FREE ENERGY PREDICTED BY IDOCK:    9.05 KCAL/MOL
REMARK 923 INTER-LIGAND FREE ENERGY PREDICTED BY IDOCK:    9.16 KCAL/MOL
REMARK 924 INTRA-LIGAND FREE ENERGY PREDICTED BY IDOCK:   -0.11 KCAL/MOL
REMARK 927      BINDING AFFINITY PREDICTED BY RF-SCORE:    0.00 PKD
ROOT
HETATM    1  C   UNL     1      -9.972  12.179  66.900  1.00  0.00    -0.217 C  
HETATM    2  C   UNL     1      -9.093  10.879  66.628  1.00  0.00    -0.175 C  
HETATM    3  C   UNL     1      -9.568  12.721  68.272  1.00  0.00    -0.211 C  
HETATM    4  C   UNL     1      -9.253  10.182  65.269  1.00  0.00    -0.257 C  
HETATM    5  C   UNL     1      -9.388   9.775  67.632  1.00  0.00    -0.157 C  
HETATM    6  C   UNL     1      -8.406  13.656  67.996  1.00  0.00    -0.170 C  
HETATM    7  C   UNL     1      -8.366  13.987  66.478  1.00  0.00     0.407 C  
HETATM    8  C   UNL     1      -8.452   9.143  68.363  1.00  0.00    -0.128 C  
HETATM    9  C   UNL     1      -8.741   7.901  69.196  1.00  0.00    -0.138 C  
HETATM   10  C   UNL     1      -8.054  15.481  66.268  1.00  0.00     0.258 C  
HETATM   11  C   UNL     1      -7.924   6.658  68.710  1.00  0.00    -0.118 C  
HETATM   12  C   UNL     1      -7.237  16.265  67.017  1.00  0.00    -0.262 C  
HETATM   13  C   UNL     1      -8.529   8.243  70.673  1.00  0.00    -0.131 C  
HETATM   14  C   UNL     1      -8.820  16.094  65.124  1.00  0.00     2.089 C  
HETATM   15  C   UNL     1      -8.092   6.415  67.201  1.00  0.00    -0.113 C  
HETATM   16  C   UNL     1      -8.356   5.384  69.452  1.00  0.00    -0.096 C  
HETATM   17  C   UNL     1      -9.913  12.993  64.492  1.00  0.00    -0.148 C  
HETATM   18  C   UNL     1     -10.332  15.845  65.210  1.00  0.00    -0.354 C  
HETATM   19  O   UNL     1      -6.521   6.846  68.938  1.00  0.00    -0.033 OA 
HETATM   20  C   UNL     1      -9.757  13.445  65.958  1.00  0.00    -0.228 C  
HETATM   21  C   UNL     1     -10.752  14.641  66.104  1.00  0.00    -0.314 C  
HETATM   22  H   UNL     1      -6.025   6.091  68.644  1.00  0.00     0.000 HD 
ENDROOT
BRANCH  12  23
HETATM   23  C   UNL     1      -6.369  15.828  68.093  1.00  0.00    -0.133 C  
HETATM   24  C   UNL     1      -6.523  16.006  69.422  1.00  0.00    -0.176 C  
HETATM   25  C   UNL     1      -8.369  15.837  71.142  1.00  0.00     4.020 C  
HETATM   26  C   UNL     1      -7.655  16.738  70.114  1.00  0.00     1.622 C  
HETATM   27  O   UNL     1      -9.150  14.833  70.483  1.00  0.00     0.379 OA 
HETATM   28  C   UNL     1      -7.400  15.166  72.114  1.00  0.00     4.126 C  
HETATM   29  C   UNL     1      -6.272  14.435  71.386  1.00  0.00     0.178 C  
HETATM   30  H   UNL     1      -9.589  14.278  71.116  1.00  0.00     0.000 HD 
HETATM   31  C   UNL     1      -5.548  15.370  70.404  1.00  0.00    -0.136 C  
HETATM   32  O   UNL     1      -5.345  13.938  72.337  1.00  0.00    -0.220 OA 
HETATM   33  H   UNL     1      -4.643  13.484  71.885  1.00  0.00     0.000 HD 
ENDBRANCH  12  23
TORSDOF 1
ENDMDL
MODEL      120
REMARK 921   NORMALIZED FREE ENERGY PREDICTED BY IDOCK:   10.31 KCAL/MOL
REMARK 922        TOTAL FREE ENERGY PREDICTED BY IDOCK:   10.48 KCAL/MOL
REMARK 923 INTER-LIGAND FREE ENERGY PREDICTED BY IDOCK:   10.89 KCAL/MOL
REMARK 924 INTRA-LIGAND FREE ENERGY PREDICTED BY IDOCK:   -0.41 KCAL/MOL
REMARK 927      BINDING AFFINITY PREDICTED BY RF-SCORE:    0.00 PKD
ROOT
HETATM    1  C   UNL     1      -7.503   9.213  65.967  1.00  0.00    -0.095 C  
HETATM    2  C   UNL     1      -7.534   7.975  66.969  1.00  0.00    -0.092 C  
HETATM    3  C   UNL     1      -8.925   9.768  65.887  1.00  0.00    -0.189 C  
HETATM    4  C   UNL     1      -6.202   7.281  67.286  1.00  0.00    -0.053 C  
HETATM    5  C   UNL     1      -8.409   6.845  66.447  1.00  0.00    -0.125 C  
HETATM    6  C   UNL     1      -9.015  10.778  67.015  1.00  0.00    -0.148 C  
HETATM    7  C   UNL     1      -7.580  11.124  67.505  1.00  0.00    -0.108 C  
HETATM    8  C   UNL     1      -9.403   6.269  67.147  1.00  0.00    -0.130 C  
HETATM    9  C   UNL     1     -10.119   5.003  66.693  1.00  0.00    -0.276 C  
HETATM   10  C   UNL     1      -7.460  12.637  67.770  1.00  0.00    -0.131 C  
HETATM   11  C   UNL     1      -9.927   3.820  67.700  1.00  0.00     0.197 C  
HETATM   12  C   UNL     1      -8.418  13.466  68.261  1.00  0.00    -0.166 C  
HETATM   13  C   UNL     1     -11.585   5.346  66.411  1.00  0.00     1.386 C  
HETATM   14  C   UNL     1      -6.127  13.209  67.362  1.00  0.00    -0.028 C  
HETATM   15  C   UNL     1      -8.444   3.580  68.027  1.00  0.00    -0.109 C  
HETATM   16  C   UNL     1     -10.513   2.515  67.141  1.00  0.00     3.193 C  
HETATM   17  C   UNL     1      -5.223  10.050  66.722  1.00  0.00    -0.040 C  
HETATM   18  C   UNL     1      -5.741  12.861  65.918  1.00  0.00     4.554 C  
HETATM   19  O   UNL     1     -10.579   4.097  68.946  1.00  0.00     0.755 OA 
HETATM   20  C   UNL     1      -6.659  10.498  66.383  1.00  0.00    -0.106 C  
HETATM   21  C   UNL     1      -6.474  11.625  65.317  1.00  0.00     1.860 C  
HETATM   22  H   UNL     1     -10.463   3.379  69.556  1.00  0.00     0.000 HD 
ENDROOT
BRANCH  12  23
HETATM   23  C   UNL     1      -9.716  13.077  68.776  1.00  0.00     0.049 C  
HETATM   24  C   UNL     1     -10.441  13.658  69.755  1.00  0.00     0.612 C  
HETATM   25  C   UNL     1     -11.104  15.990  70.473  1.00  0.00    -0.353 C  
HETATM   26  C   UNL     1     -10.049  14.870  70.576  1.00  0.00     0.494 C  
HETATM   27  O   UNL     1     -11.072  16.603  69.179  1.00  0.00    -0.296 OA 
HETATM   28  C   UNL     1     -12.521  15.495  70.762  1.00  0.00    -0.491 C  
HETATM   29  C   UNL     1     -12.887  14.275  69.917  1.00  0.00     0.101 C  
HETATM   30  H   UNL     1     -11.721  17.292  69.116  1.00  0.00     0.000 HD 
HETATM   31  C   UNL     1     -11.842  13.158  70.077  1.00  0.00    -0.360 C  
HETATM   32  O   UNL     1     -14.159  13.794  70.315  1.00  0.00     0.986 OA 
HETATM   33  H   UNL     1     -14.387  13.035  69.790  1.00  0.00     0.000 HD 
ENDBRANCH  12  23
TORSDOF 1
ENDMDL
MODEL      121
REMARK 921   NORMALIZED FREE ENERGY PREDICTED BY IDOCK:   10.55 KCAL/MOL
REMARK 922        TOTAL FREE ENERGY PREDICTED BY IDOCK:   10.73 KCAL/MOL
REMARK 923 INTER-LIGAND FREE ENERGY PREDICTED BY IDOCK:    9.82 KCAL/MOL
REMARK 924 INTRA-LIGAND FREE ENERGY PREDICTED BY IDOCK:    0.91 KCAL/MOL
REMARK 927      BINDING AFFINITY PREDICTED BY RF-SCORE:    0.00 PKD
ROOT
HETATM    1  C   UNL     1      -7.227   8.515  69.356  1.00  0.00    -0.062 C  
HETATM    2  C   UNL     1      -7.440   7.875  70.799  1.00  0.00    -0.072 C  
HETATM    3  C   UNL     1      -8.613   8.797  68.775  1.00  0.00    -0.137 C  
HETATM    4  C   UNL     1      -6.190   7.567  71.634  1.00  0.00    -0.036 C  
HETATM    5  C   UNL     1      -8.158   6.534  70.724  1.00  0.00    -0.120 C  
HETATM    6  C   UNL     1      -8.963  10.191  69.260  1.00  0.00    -0.193 C  
HETATM    7  C   UNL     1      -7.674  10.891  69.774  1.00  0.00     0.166 C  
HETATM    8  C   UNL     1      -9.264   6.226  71.424  1.00  0.00    -0.153 C  
HETATM    9  C   UNL     1      -9.837   4.816  71.500  1.00  0.00    -0.253 C  
HETATM   10  C   UNL     1      -7.649  12.362  69.314  1.00  0.00     0.348 C  
HETATM   11  C   UNL     1      -9.835   4.253  72.961  1.00  0.00    -0.135 C  
HETATM   12  C   UNL     1      -8.708  13.201  69.180  1.00  0.00     0.653 C  
HETATM   13  C   UNL     1     -11.217   4.814  70.837  1.00  0.00     1.252 C  
HETATM   14  C   UNL     1      -6.274  12.841  68.927  1.00  0.00    -0.085 C  
HETATM   15  C   UNL     1      -8.450   4.368  73.618  1.00  0.00    -0.097 C  
HETATM   16  C   UNL     1     -10.258   2.777  72.987  1.00  0.00    -0.224 C  
HETATM   17  C   UNL     1      -5.180   9.871  70.018  1.00  0.00    -0.037 C  
HETATM   18  C   UNL     1      -5.581  11.924  67.910  1.00  0.00    -0.055 C  
HETATM   19  O   UNL     1     -10.744   4.986  73.793  1.00  0.00    -0.259 OA 
HETATM   20  C   UNL     1      -6.522   9.940  69.261  1.00  0.00    -0.048 C  
HETATM   21  C   UNL     1      -6.141  10.472  67.842  1.00  0.00    -0.047 C  
HETATM   22  H   UNL     1     -10.743   4.644  74.679  1.00  0.00     0.000 HD 
ENDROOT
BRANCH  12  23
HETATM   23  C   UNL     1     -10.077  12.936  69.578  1.00  0.00     0.914 C  
HETATM   24  C   UNL     1     -11.117  12.550  68.810  1.00  0.00    -0.314 C  
HETATM   25  C   UNL     1     -11.572  10.893  66.954  1.00  0.00     0.424 C  
HETATM   26  C   UNL     1     -11.101  12.317  67.312  1.00  0.00    -0.326 C  
HETATM   27  O   UNL     1     -10.585   9.923  67.321  1.00  0.00    -0.248 OA 
HETATM   28  C   UNL     1     -12.904  10.530  67.609  1.00  0.00     6.166 C  
HETATM   29  C   UNL     1     -12.888  10.773  69.117  1.00  0.00     1.076 C  
HETATM   30  H   UNL     1     -10.875   9.046  67.101  1.00  0.00     0.000 HD 
HETATM   31  C   UNL     1     -12.460  12.214  69.442  1.00  0.00     0.201 C  
HETATM   32  O   UNL     1     -14.182  10.534  69.646  1.00  0.00     1.521 OA 
HETATM   33  H   UNL     1     -14.172  10.685  70.583  1.00  0.00     0.000 HD 
ENDBRANCH  12  23
TORSDOF 1
ENDMDL
MODEL      122
REMARK 921   NORMALIZED FREE ENERGY PREDICTED BY IDOCK:   10.74 KCAL/MOL
REMARK 922        TOTAL FREE ENERGY PREDICTED BY IDOCK:   10.93 KCAL/MOL
REMARK 923 INTER-LIGAND FREE ENERGY PREDICTED BY IDOCK:    6.16 KCAL/MOL
REMARK 924 INTRA-LIGAND FREE ENERGY PREDICTED BY IDOCK:    4.77 KCAL/MOL
REMARK 927      BINDING AFFINITY PREDICTED BY RF-SCORE:    0.00 PKD
ROOT
HETATM    1  C   UNL     1      -9.230   5.236  71.008  1.00  0.00    -0.183 C  
HETATM    2  C   UNL     1      -9.216   6.789  71.366  1.00  0.00    -0.153 C  
HETATM    3  C   UNL     1      -9.710   5.108  69.562  1.00  0.00    -0.262 C  
HETATM    4  C   UNL     1      -8.693   7.197  72.750  1.00  0.00    -0.139 C  
HETATM    5  C   UNL     1     -10.612   7.393  71.320  1.00  0.00    -0.231 C  
HETATM    6  C   UNL     1      -8.452   5.214  68.722  1.00  0.00    -0.087 C  
HETATM    7  C   UNL     1      -7.211   5.005  69.633  1.00  0.00    -0.056 C  
HETATM    8  C   UNL     1     -10.941   8.490  70.613  1.00  0.00    -0.268 C  
HETATM    9  C   UNL     1     -12.282   9.200  70.751  1.00  0.00    -0.151 C  
HETATM   10  C   UNL     1      -6.170   4.122  68.918  1.00  0.00    -0.032 C  
HETATM   11  C   UNL     1     -12.123  10.670  71.267  1.00  0.00    -0.299 C  
HETATM   12  C   UNL     1      -5.881   4.100  67.591  1.00  0.00    -0.023 C  
HETATM   13  C   UNL     1     -13.034   9.087  69.423  1.00  0.00     3.650 C  
HETATM   14  C   UNL     1      -5.472   3.157  69.841  1.00  0.00    -0.016 C  
HETATM   15  C   UNL     1     -11.277  10.740  72.549  1.00  0.00     5.725 C  
HETATM   16  C   UNL     1     -13.490  11.306  71.558  1.00  0.00    -0.014 C  
HETATM   17  C   UNL     1      -7.120   4.690  72.319  1.00  0.00    -0.066 C  
HETATM   18  C   UNL     1      -6.445   2.312  70.674  1.00  0.00    -0.024 C  
HETATM   19  O   UNL     1     -11.457  11.485  70.294  1.00  0.00    -0.487 OA 
HETATM   20  C   UNL     1      -7.841   4.458  70.975  1.00  0.00    -0.068 C  
HETATM   21  C   UNL     1      -7.879   2.904  70.817  1.00  0.00    -0.047 C  
HETATM   22  H   UNL     1     -11.361  12.376  70.606  1.00  0.00     0.000 HD 
ENDROOT
BRANCH  12  23
HETATM   23  C   UNL     1      -6.392   5.006  66.580  1.00  0.00    -0.040 C  
HETATM   24  C   UNL     1      -7.012   6.193  66.751  1.00  0.00    -0.071 C  
HETATM   25  C   UNL     1      -6.732   8.276  68.157  1.00  0.00    -0.065 C  
HETATM   26  C   UNL     1      -7.342   6.862  68.070  1.00  0.00    -0.097 C  
HETATM   27  O   UNL     1      -5.310   8.208  68.314  1.00  0.00    -0.031 OA 
HETATM   28  C   UNL     1      -7.064   9.139  66.940  1.00  0.00    -0.082 C  
HETATM   29  C   UNL     1      -6.718   8.438  65.627  1.00  0.00    -0.056 C  
HETATM   30  H   UNL     1      -4.934   9.079  68.368  1.00  0.00     0.000 HD 
HETATM   31  C   UNL     1      -7.378   7.052  65.549  1.00  0.00    -0.079 C  
HETATM   32  O   UNL     1      -7.158   9.234  64.540  1.00  0.00    -0.090 OA 
HETATM   33  H   UNL     1      -6.943   8.798  63.723  1.00  0.00     0.000 HD 
ENDBRANCH  12  23
TORSDOF 1
ENDMDL
MODEL      123
REMARK 921   NORMALIZED FREE ENERGY PREDICTED BY IDOCK:   10.76 KCAL/MOL
REMARK 922        TOTAL FREE ENERGY PREDICTED BY IDOCK:   10.96 KCAL/MOL
REMARK 923 INTER-LIGAND FREE ENERGY PREDICTED BY IDOCK:   11.12 KCAL/MOL
REMARK 924 INTRA-LIGAND FREE ENERGY PREDICTED BY IDOCK:   -0.17 KCAL/MOL
REMARK 927      BINDING AFFINITY PREDICTED BY RF-SCORE:    0.00 PKD
ROOT
HETATM    1  C   UNL     1      -9.076  13.603  66.073  1.00  0.00     0.205 C  
HETATM    2  C   UNL     1      -9.412  14.618  67.254  1.00  0.00    -0.221 C  
HETATM    3  C   UNL     1      -8.062  12.595  66.616  1.00  0.00     0.181 C  
HETATM    4  C   UNL     1     -10.475  15.693  66.988  1.00  0.00    -0.303 C  
HETATM    5  C   UNL     1      -8.190  15.421  67.676  1.00  0.00    -0.171 C  
HETATM    6  C   UNL     1      -8.899  11.489  67.229  1.00  0.00    -0.160 C  
HETATM    7  C   UNL     1     -10.362  11.615  66.719  1.00  0.00    -0.257 C  
HETATM    8  C   UNL     1      -7.746  15.518  68.943  1.00  0.00    -0.175 C  
HETATM    9  C   UNL     1      -6.659  16.495  69.373  1.00  0.00    -0.213 C  
HETATM   10  C   UNL     1     -10.932  10.221  66.391  1.00  0.00     0.077 C  
HETATM   11  C   UNL     1      -7.179  17.538  70.418  1.00  0.00     2.196 C  
HETATM   12  C   UNL     1     -10.680   9.055  67.039  1.00  0.00    -0.185 C  
HETATM   13  C   UNL     1      -5.444  15.694  69.848  1.00  0.00    -0.120 C  
HETATM   14  C   UNL     1     -11.812  10.211  65.168  1.00  0.00     4.524 C  
HETATM   15  C   UNL     1      -8.457  18.244  69.937  1.00  0.00     1.553 C  
HETATM   16  C   UNL     1      -6.118  18.609  70.708  1.00  0.00     0.319 C  
HETATM   17  C   UNL     1     -11.447  13.539  65.156  1.00  0.00    -0.317 C  
HETATM   18  C   UNL     1     -11.144  10.846  63.941  1.00  0.00     0.268 C  
HETATM   19  O   UNL     1      -7.509  16.899  71.659  1.00  0.00     6.412 OA 
HETATM   20  C   UNL     1     -10.240  12.657  65.538  1.00  0.00    -0.298 C  
HETATM   21  C   UNL     1      -9.959  11.807  64.257  1.00  0.00    -0.287 C  
HETATM   22  H   UNL     1      -7.824  17.532  72.293  1.00  0.00     0.000 HD 
ENDROOT
BRANCH  12  23
HETATM   23  C   UNL     1      -9.930   8.894  68.269  1.00  0.00    -0.201 C  
HETATM   24  C   UNL     1     -10.127   9.500  69.459  1.00  0.00    -0.218 C  
HETATM   25  C   UNL     1     -12.065  10.076  70.978  1.00  0.00    -0.373 C  
HETATM   26  C   UNL     1     -11.192  10.526  69.789  1.00  0.00    -0.361 C  
HETATM   27  O   UNL     1     -12.930   9.001  70.597  1.00  0.00    -0.457 OA 
HETATM   28  C   UNL     1     -11.237   9.651  72.191  1.00  0.00     0.578 C  
HETATM   29  C   UNL     1     -10.175   8.615  71.827  1.00  0.00    -0.308 C  
HETATM   30  H   UNL     1     -13.468   8.723  71.329  1.00  0.00     0.000 HD 
HETATM   31  C   UNL     1      -9.291   9.111  70.670  1.00  0.00    -0.312 C  
HETATM   32  O   UNL     1      -9.366   8.353  72.961  1.00  0.00    -0.253 OA 
HETATM   33  H   UNL     1      -8.706   7.709  72.735  1.00  0.00     0.000 HD 
ENDBRANCH  12  23
TORSDOF 1
ENDMDL
MODEL      124
REMARK 921   NORMALIZED FREE ENERGY PREDICTED BY IDOCK:   14.21 KCAL/MOL
REMARK 922        TOTAL FREE ENERGY PREDICTED BY IDOCK:   14.60 KCAL/MOL
REMARK 923 INTER-LIGAND FREE ENERGY PREDICTED BY IDOCK:   15.05 KCAL/MOL
REMARK 924 INTRA-LIGAND FREE ENERGY PREDICTED BY IDOCK:   -0.45 KCAL/MOL
REMARK 927      BINDING AFFINITY PREDICTED BY RF-SCORE:    0.00 PKD
ROOT
HETATM    1  C   UNL     1      -8.204  12.608  65.882  1.00  0.00     1.273 C  
HETATM    2  C   UNL     1      -8.816  13.439  67.096  1.00  0.00    -0.225 C  
HETATM    3  C   UNL     1      -7.222  11.597  66.474  1.00  0.00     0.048 C  
HETATM    4  C   UNL     1      -9.899  14.478  66.773  1.00  0.00    -0.271 C  
HETATM    5  C   UNL     1      -7.752  14.247  67.823  1.00  0.00    -0.172 C  
HETATM    6  C   UNL     1      -8.063  10.374  66.790  1.00  0.00    -0.120 C  
HETATM    7  C   UNL     1      -9.422  10.483  66.044  1.00  0.00    -0.227 C  
HETATM    8  C   UNL     1      -7.540  14.202  69.151  1.00  0.00    -0.003 C  
HETATM    9  C   UNL     1      -6.623  15.173  69.884  1.00  0.00    -0.172 C  
HETATM   10  C   UNL     1      -9.816   9.115  65.455  1.00  0.00     0.053 C  
HETATM   11  C   UNL     1      -7.394  16.039  70.935  1.00  0.00     2.666 C  
HETATM   12  C   UNL     1      -9.588   7.890  65.994  1.00  0.00    -0.037 C  
HETATM   13  C   UNL     1      -5.448  14.387  70.470  1.00  0.00    -0.132 C  
HETATM   14  C   UNL     1     -10.470   9.216  64.101  1.00  0.00     4.356 C  
HETATM   15  C   UNL     1      -8.623  16.730  70.320  1.00  0.00     2.531 C  
HETATM   16  C   UNL     1      -6.486  17.121  71.537  1.00  0.00     3.290 C  
HETATM   17  C   UNL     1     -10.371  12.532  64.553  1.00  0.00    -0.362 C  
HETATM   18  C   UNL     1      -9.653  10.044  63.099  1.00  0.00    -0.107 C  
HETATM   19  O   UNL     1      -7.881  15.225  72.011  1.00  0.00     3.485 OA 
HETATM   20  C   UNL     1      -9.182  11.677  65.037  1.00  0.00     0.031 C  
HETATM   21  C   UNL     1      -8.620  11.020  63.736  1.00  0.00     0.130 C  
HETATM   22  H   UNL     1      -8.349  15.750  72.649  1.00  0.00     0.000 HD 
ENDROOT
BRANCH  12  23
HETATM   23  C   UNL     1      -9.049   7.612  67.311  1.00  0.00    -0.142 C  
HETATM   24  C   UNL     1      -9.513   6.756  68.245  1.00  0.00    -0.125 C  
HETATM   25  C   UNL     1     -10.401   4.391  68.355  1.00  0.00     0.386 C  
HETATM   26  C   UNL     1     -10.745   5.878  68.141  1.00  0.00    -0.329 C  
HETATM   27  O   UNL     1      -9.683   3.867  67.232  1.00  0.00    -0.204 OA 
HETATM   28  C   UNL     1      -9.592   4.148  69.628  1.00  0.00    -0.277 C  
HETATM   29  C   UNL     1      -8.357   5.045  69.704  1.00  0.00    -0.088 C  
HETATM   30  H   UNL     1      -9.471   2.951  67.364  1.00  0.00     0.000 HD 
HETATM   31  C   UNL     1      -8.736   6.525  69.534  1.00  0.00    -0.134 C  
HETATM   32  O   UNL     1      -7.718   4.860  70.956  1.00  0.00    -0.078 OA 
HETATM   33  H   UNL     1      -6.950   5.418  71.002  1.00  0.00     0.000 HD 
ENDBRANCH  12  23
TORSDOF 1
ENDMDL
MODEL      125
REMARK 921   NORMALIZED FREE ENERGY PREDICTED BY IDOCK:   15.83 KCAL/MOL
REMARK 922        TOTAL FREE ENERGY PREDICTED BY IDOCK:   16.32 KCAL/MOL
REMARK 923 INTER-LIGAND FREE ENERGY PREDICTED BY IDOCK:   10.68 KCAL/MOL
REMARK 924 INTRA-LIGAND FREE ENERGY PREDICTED BY IDOCK:    5.64 KCAL/MOL
REMARK 927      BINDING AFFINITY PREDICTED BY RF-SCORE:    0.00 PKD
ROOT
HETATM    1  C   UNL     1     -10.035  15.168  69.811  1.00  0.00    -0.149 C  
HETATM    2  C   UNL     1     -10.249  14.413  68.424  1.00  0.00    -0.243 C  
HETATM    3  C   UNL     1      -8.551  15.523  69.910  1.00  0.00     0.192 C  
HETATM    4  C   UNL     1     -11.681  14.014  68.044  1.00  0.00    -0.394 C  
HETATM    5  C   UNL     1      -9.486  13.097  68.372  1.00  0.00    -0.166 C  
HETATM    6  C   UNL     1      -8.428  16.878  69.238  1.00  0.00     0.076 C  
HETATM    7  C   UNL     1      -9.842  17.509  69.100  1.00  0.00    -0.154 C  
HETATM    8  C   UNL     1      -8.637  12.751  67.387  1.00  0.00    -0.194 C  
HETATM    9  C   UNL     1      -8.055  11.351  67.241  1.00  0.00    -0.148 C  
HETATM   10  C   UNL     1      -9.787  19.012  69.436  1.00  0.00    -0.090 C  
HETATM   11  C   UNL     1      -8.483  10.668  65.900  1.00  0.00    -0.167 C  
HETATM   12  C   UNL     1      -8.776  19.879  69.171  1.00  0.00     0.122 C  
HETATM   13  C   UNL     1      -6.539  11.430  67.441  1.00  0.00    -0.090 C  
HETATM   14  C   UNL     1     -10.996  19.497  70.194  1.00  0.00     2.530 C  
HETATM   15  C   UNL     1     -10.007  10.702  65.698  1.00  0.00    -0.327 C  
HETATM   16  C   UNL     1      -8.025   9.203  65.852  1.00  0.00    -0.106 C  
HETATM   17  C   UNL     1     -12.243  16.426  69.719  1.00  0.00     0.661 C  
HETATM   18  C   UNL     1     -11.301  18.655  71.441  1.00  0.00     5.116 C  
HETATM   19  O   UNL     1      -7.908  11.345  64.774  1.00  0.00     0.082 OA 
HETATM   20  C   UNL     1     -10.737  16.583  70.015  1.00  0.00    -0.222 C  
HETATM   21  C   UNL     1     -10.685  17.224  71.439  1.00  0.00     2.028 C  
HETATM   22  H   UNL     1      -8.167  10.930  63.960  1.00  0.00     0.000 HD 
ENDROOT
BRANCH  12  23
HETATM   23  C   UNL     1      -7.587  19.606  68.388  1.00  0.00    -0.362 C  
HETATM   24  C   UNL     1      -7.326  18.543  67.598  1.00  0.00    -0.223 C  
HETATM   25  C   UNL     1      -8.522  17.157  65.854  1.00  0.00     0.021 C  
HETATM   26  C   UNL     1      -8.229  17.351  67.355  1.00  0.00    -0.212 C  
HETATM   27  O   UNL     1      -9.402  18.179  65.371  1.00  0.00     0.169 OA 
HETATM   28  C   UNL     1      -7.254  17.140  65.001  1.00  0.00     3.386 C  
HETATM   29  C   UNL     1      -6.367  18.356  65.267  1.00  0.00    -0.188 C  
HETATM   30  H   UNL     1      -9.583  18.061  64.446  1.00  0.00     0.000 HD 
HETATM   31  C   UNL     1      -6.053  18.495  66.765  1.00  0.00    -0.176 C  
HETATM   32  O   UNL     1      -5.157  18.222  64.540  1.00  0.00    -0.096 OA 
HETATM   33  H   UNL     1      -4.605  18.977  64.705  1.00  0.00     0.000 HD 
ENDBRANCH  12  23
TORSDOF 1
ENDMDL
MODEL      126
REMARK 921   NORMALIZED FREE ENERGY PREDICTED BY IDOCK:   15.92 KCAL/MOL
REMARK 922        TOTAL FREE ENERGY PREDICTED BY IDOCK:   16.41 KCAL/MOL
REMARK 923 INTER-LIGAND FREE ENERGY PREDICTED BY IDOCK:    1.11 KCAL/MOL
REMARK 924 INTRA-LIGAND FREE ENERGY PREDICTED BY IDOCK:   15.31 KCAL/MOL
REMARK 927      BINDING AFFINITY PREDICTED BY RF-SCORE:    0.00 PKD
ROOT
HETATM    1  C   UNL     1      -9.485  12.025  68.818  1.00  0.00     0.027 C  
HETATM    2  C   UNL     1      -9.980  10.575  69.253  1.00  0.00    -0.233 C  
HETATM    3  C   UNL     1      -7.992  11.921  68.505  1.00  0.00    -0.137 C  
HETATM    4  C   UNL     1     -11.474  10.390  69.549  1.00  0.00    -0.311 C  
HETATM    5  C   UNL     1      -9.303  10.106  70.533  1.00  0.00     0.447 C  
HETATM    6  C   UNL     1      -7.926  11.539  67.038  1.00  0.00    -0.161 C  
HETATM    7  C   UNL     1      -9.310  11.800  66.380  1.00  0.00    -0.229 C  
HETATM    8  C   UNL     1      -8.661   8.931  70.666  1.00  0.00    -0.224 C  
HETATM    9  C   UNL     1      -8.182   8.388  72.006  1.00  0.00    -0.212 C  
HETATM   10  C   UNL     1      -9.124  12.429  64.986  1.00  0.00     0.663 C  
HETATM   11  C   UNL     1      -8.875   7.036  72.380  1.00  0.00    -0.128 C  
HETATM   12  C   UNL     1      -8.136  12.171  64.090  1.00  0.00     3.078 C  
HETATM   13  C   UNL     1      -6.653   8.317  71.986  1.00  0.00    -0.069 C  
HETATM   14  C   UNL     1     -10.153  13.482  64.665  1.00  0.00    -0.246 C  
HETATM   15  C   UNL     1     -10.407   7.131  72.290  1.00  0.00    -0.226 C  
HETATM   16  C   UNL     1      -8.504   6.597  73.805  1.00  0.00    -0.136 C  
HETATM   17  C   UNL     1     -11.611  12.610  67.550  1.00  0.00    -0.418 C  
HETATM   18  C   UNL     1     -10.270  14.558  65.754  1.00  0.00    -0.354 C  
HETATM   19  O   UNL     1      -8.479   5.991  71.481  1.00  0.00    -0.126 OA 
HETATM   20  C   UNL     1     -10.071  12.649  67.474  1.00  0.00    -0.212 C  
HETATM   21  C   UNL     1      -9.735  14.141  67.156  1.00  0.00    -0.248 C  
HETATM   22  H   UNL     1      -8.899   5.171  71.708  1.00  0.00     0.000 HD 
ENDROOT
BRANCH  12  23
HETATM   23  C   UNL     1      -7.120  11.142  64.198  1.00  0.00     1.138 C  
HETATM   24  C   UNL     1      -6.700  10.487  65.301  1.00  0.00    -0.049 C  
HETATM   25  C   UNL     1      -7.718   9.382  67.334  1.00  0.00    -0.095 C  
HETATM   26  C   UNL     1      -7.190  10.694  66.720  1.00  0.00    -0.119 C  
HETATM   27  O   UNL     1      -8.966   9.007  66.741  1.00  0.00    -0.129 OA 
HETATM   28  C   UNL     1      -6.728   8.225  67.198  1.00  0.00    -0.063 C  
HETATM   29  C   UNL     1      -6.255   8.041  65.757  1.00  0.00    -0.041 C  
HETATM   30  H   UNL     1      -9.292   8.199  67.119  1.00  0.00     0.000 HD 
HETATM   31  C   UNL     1      -5.691   9.353  65.187  1.00  0.00    -0.058 C  
HETATM   32  O   UNL     1      -5.254   7.038  65.715  1.00  0.00    -0.022 OA 
HETATM   33  H   UNL     1      -4.960   6.923  64.819  1.00  0.00     0.000 HD 
ENDBRANCH  12  23
TORSDOF 1
ENDMDL
MODEL      127
REMARK 921   NORMALIZED FREE ENERGY PREDICTED BY IDOCK:   17.89 KCAL/MOL
REMARK 922        TOTAL FREE ENERGY PREDICTED BY IDOCK:   18.50 KCAL/MOL
REMARK 923 INTER-LIGAND FREE ENERGY PREDICTED BY IDOCK:    0.03 KCAL/MOL
REMARK 924 INTRA-LIGAND FREE ENERGY PREDICTED BY IDOCK:   18.47 KCAL/MOL
REMARK 927      BINDING AFFINITY PREDICTED BY RF-SCORE:    0.00 PKD
ROOT
HETATM    1  C   UNL     1      -8.770  13.473  68.216  1.00  0.00    -0.172 C  
HETATM    2  C   UNL     1      -7.654  14.585  67.977  1.00  0.00    -0.138 C  
HETATM    3  C   UNL     1     -10.130  14.149  68.038  1.00  0.00    -0.233 C  
HETATM    4  C   UNL     1      -6.185  14.142  68.023  1.00  0.00    -0.150 C  
HETATM    5  C   UNL     1      -7.725  15.692  69.019  1.00  0.00    -0.199 C  
HETATM    6  C   UNL     1     -10.435  14.030  66.557  1.00  0.00    -0.281 C  
HETATM    7  C   UNL     1      -9.493  12.966  65.927  1.00  0.00    -0.061 C  
HETATM    8  C   UNL     1      -7.799  17.004  68.728  1.00  0.00    -0.253 C  
HETATM    9  C   UNL     1      -7.651  18.100  69.775  1.00  0.00     0.787 C  
HETATM   10  C   UNL     1     -10.276  12.088  64.931  1.00  0.00    -0.302 C  
HETATM   11  C   UNL     1      -6.415  19.020  69.500  1.00  0.00    -0.266 C  
HETATM   12  C   UNL     1     -11.288  12.473  64.111  1.00  0.00    -0.440 C  
HETATM   13  C   UNL     1      -8.977  18.859  69.880  1.00  0.00     1.087 C  
HETATM   14  C   UNL     1      -9.863  10.639  64.963  1.00  0.00    -0.353 C  
HETATM   15  C   UNL     1      -5.125  18.205  69.304  1.00  0.00    -0.186 C  
HETATM   16  C   UNL     1      -6.188  20.007  70.654  1.00  0.00    -0.316 C  
HETATM   17  C   UNL     1      -7.464  11.605  67.089  1.00  0.00    -0.146 C  
HETATM   18  C   UNL     1      -9.884  10.039  66.376  1.00  0.00    -0.283 C  
HETATM   19  O   UNL     1      -6.601  19.782  68.299  1.00  0.00    -0.249 OA 
HETATM   20  C   UNL     1      -8.857  12.259  67.189  1.00  0.00    -0.194 C  
HETATM   21  C   UNL     1      -9.818  11.078  67.536  1.00  0.00    -0.190 C  
HETATM   22  H   UNL     1      -5.851  20.340  68.132  1.00  0.00     0.000 HD 
ENDROOT
BRANCH  12  23
HETATM   23  C   UNL     1     -11.755  13.829  63.894  1.00  0.00    -0.304 C  
HETATM   24  C   UNL     1     -11.743  14.870  64.753  1.00  0.00    -0.402 C  
HETATM   25  C   UNL     1     -10.149  15.923  66.410  1.00  0.00    -0.292 C  
HETATM   26  C   UNL     1     -11.243  14.860  66.184  1.00  0.00    -0.325 C  
HETATM   27  O   UNL     1      -8.928  15.542  65.766  1.00  0.00    -0.381 OA 
HETATM   28  C   UNL     1     -10.565  17.311  65.923  1.00  0.00    -0.206 C  
HETATM   29  C   UNL     1     -11.060  17.288  64.478  1.00  0.00     1.091 C  
HETATM   30  H   UNL     1      -8.254  16.197  65.906  1.00  0.00     0.000 HD 
HETATM   31  C   UNL     1     -12.182  16.253  64.293  1.00  0.00     0.765 C  
HETATM   32  O   UNL     1     -11.541  18.575  64.126  1.00  0.00     2.624 OA 
HETATM   33  H   UNL     1     -11.849  18.561  63.228  1.00  0.00     0.000 HD 
ENDBRANCH  12  23
TORSDOF 1
ENDMDL
MODEL      128
REMARK 921   NORMALIZED FREE ENERGY PREDICTED BY IDOCK:   19.01 KCAL/MOL
REMARK 922        TOTAL FREE ENERGY PREDICTED BY IDOCK:   19.69 KCAL/MOL
REMARK 923 INTER-LIGAND FREE ENERGY PREDICTED BY IDOCK:   14.79 KCAL/MOL
REMARK 924 INTRA-LIGAND FREE ENERGY PREDICTED BY IDOCK:    4.89 KCAL/MOL
REMARK 927      BINDING AFFINITY PREDICTED BY RF-SCORE:    0.00 PKD
ROOT
HETATM    1  C   UNL     1      -8.146   4.781  67.700  1.00  0.00    -0.097 C  
HETATM    2  C   UNL     1      -8.528   6.110  66.907  1.00  0.00    -0.105 C  
HETATM    3  C   UNL     1      -7.711   5.200  69.104  1.00  0.00    -0.080 C  
HETATM    4  C   UNL     1      -9.076   5.956  65.482  1.00  0.00    -0.006 C  
HETATM    5  C   UNL     1      -7.328   7.029  66.731  1.00  0.00    -0.077 C  
HETATM    6  C   UNL     1      -8.990   5.229  69.918  1.00  0.00    -0.146 C  
HETATM    7  C   UNL     1     -10.102   4.463  69.147  1.00  0.00    -0.004 C  
HETATM    8  C   UNL     1      -7.311   8.329  67.078  1.00  0.00    -0.084 C  
HETATM    9  C   UNL     1      -6.183   9.279  66.695  1.00  0.00    -0.065 C  
HETATM   10  C   UNL     1     -10.922   3.595  70.121  1.00  0.00     3.764 C  
HETATM   11  C   UNL     1      -6.678  10.449  65.781  1.00  0.00    -0.126 C  
HETATM   12  C   UNL     1     -11.252   3.887  71.406  1.00  0.00     2.153 C  
HETATM   13  C   UNL     1      -5.483   9.746  67.975  1.00  0.00    -0.039 C  
HETATM   14  C   UNL     1     -11.320   2.262  69.541  1.00  0.00     7.897 C  
HETATM   15  C   UNL     1      -7.460   9.933  64.561  1.00  0.00    -0.140 C  
HETATM   16  C   UNL     1      -5.499  11.293  65.273  1.00  0.00     0.419 C  
HETATM   17  C   UNL     1      -9.998   3.373  66.673  1.00  0.00     0.399 C  
HETATM   18  C   UNL     1     -10.133   1.482  68.959  1.00  0.00     0.439 C  
HETATM   19  O   UNL     1      -7.566  11.318  66.496  1.00  0.00    -0.158 OA 
HETATM   20  C   UNL     1      -9.300   3.726  68.002  1.00  0.00    -0.232 C  
HETATM   21  C   UNL     1      -8.886   2.345  68.603  1.00  0.00    -0.153 C  
HETATM   22  H   UNL     1      -7.866  12.028  65.941  1.00  0.00     0.000 HD 
ENDROOT
BRANCH  12  23
HETATM   23  C   UNL     1     -11.025   5.143  72.093  1.00  0.00    -0.174 C  
HETATM   24  C   UNL     1     -10.701   6.342  71.565  1.00  0.00    -0.282 C  
HETATM   25  C   UNL     1     -11.404   7.792  69.616  1.00  0.00     0.163 C  
HETATM   26  C   UNL     1     -10.477   6.659  70.100  1.00  0.00    -0.248 C  
HETATM   27  O   UNL     1     -12.758   7.337  69.521  1.00  0.00     0.979 OA 
HETATM   28  C   UNL     1     -11.349   9.026  70.517  1.00  0.00    -0.282 C  
HETATM   29  C   UNL     1     -11.581   8.675  71.986  1.00  0.00    -0.370 C  
HETATM   30  H   UNL     1     -13.329   8.034  69.223  1.00  0.00     0.000 HD 
HETATM   31  C   UNL     1     -10.612   7.576  72.453  1.00  0.00    -0.299 C  
HETATM   32  O   UNL     1     -11.399   9.835  72.781  1.00  0.00     1.747 OA 
HETATM   33  H   UNL     1     -11.543   9.617  73.694  1.00  0.00     0.000 HD 
ENDBRANCH  12  23
TORSDOF 1
ENDMDL
MODEL      129
REMARK 921   NORMALIZED FREE ENERGY PREDICTED BY IDOCK:   19.39 KCAL/MOL
REMARK 922        TOTAL FREE ENERGY PREDICTED BY IDOCK:   20.09 KCAL/MOL
REMARK 923 INTER-LIGAND FREE ENERGY PREDICTED BY IDOCK:    7.14 KCAL/MOL
REMARK 924 INTRA-LIGAND FREE ENERGY PREDICTED BY IDOCK:   12.95 KCAL/MOL
REMARK 927      BINDING AFFINITY PREDICTED BY RF-SCORE:    0.00 PKD
ROOT
HETATM    1  C   UNL     1     -10.682  12.364  67.048  1.00  0.00    -0.268 C  
HETATM    2  C   UNL     1     -10.010  11.226  66.159  1.00  0.00    -0.268 C  
HETATM    3  C   UNL     1     -10.511  11.958  68.512  1.00  0.00    -0.240 C  
HETATM    4  C   UNL     1      -9.978  11.434  64.639  1.00  0.00    -0.315 C  
HETATM    5  C   UNL     1     -10.718   9.889  66.320  1.00  0.00     0.013 C  
HETATM    6  C   UNL     1      -9.169  12.533  68.923  1.00  0.00     0.287 C  
HETATM    7  C   UNL     1      -8.727  13.594  67.877  1.00  0.00    -0.184 C  
HETATM    8  C   UNL     1     -10.100   8.736  66.638  1.00  0.00    -0.358 C  
HETATM    9  C   UNL     1     -10.788   7.378  66.581  1.00  0.00     0.144 C  
HETATM   10  C   UNL     1      -8.114  14.816  68.587  1.00  0.00    -0.153 C  
HETATM   11  C   UNL     1     -10.116   6.416  65.545  1.00  0.00     1.223 C  
HETATM   12  C   UNL     1      -7.362  14.821  69.718  1.00  0.00    -0.063 C  
HETATM   13  C   UNL     1     -10.861   6.808  68.001  1.00  0.00    -0.306 C  
HETATM   14  C   UNL     1      -8.477  16.127  67.938  1.00  0.00    -0.166 C  
HETATM   15  C   UNL     1      -9.977   7.070  64.161  1.00  0.00     5.018 C  
HETATM   16  C   UNL     1     -10.926   5.120  65.385  1.00  0.00     0.411 C  
HETATM   17  C   UNL     1      -9.932  14.281  65.554  1.00  0.00    -0.341 C  
HETATM   18  C   UNL     1      -9.989  16.297  67.733  1.00  0.00    -0.246 C  
HETATM   19  O   UNL     1      -8.792   6.059  65.962  1.00  0.00    -0.148 OA 
HETATM   20  C   UNL     1     -10.037  13.820  67.022  1.00  0.00    -0.256 C  
HETATM   21  C   UNL     1     -10.810  14.974  67.738  1.00  0.00    -0.284 C  
HETATM   22  H   UNL     1      -8.385   5.475  65.334  1.00  0.00     0.000 HD 
ENDROOT
BRANCH  12  23
HETATM   23  C   UNL     1      -6.855  13.659  70.422  1.00  0.00     0.595 C  
HETATM   24  C   UNL     1      -7.201  12.364  70.267  1.00  0.00     1.819 C  
HETATM   25  C   UNL     1      -7.633  10.748  68.371  1.00  0.00    -0.102 C  
HETATM   26  C   UNL     1      -8.238  11.811  69.310  1.00  0.00     0.432 C  
HETATM   27  O   UNL     1      -6.768  11.354  67.404  1.00  0.00    -0.078 OA 
HETATM   28  C   UNL     1      -6.865   9.662  69.124  1.00  0.00    -0.050 C  
HETATM   29  C   UNL     1      -5.826  10.251  70.078  1.00  0.00    -0.057 C  
HETATM   30  H   UNL     1      -6.396  10.700  66.825  1.00  0.00     0.000 HD 
HETATM   31  C   UNL     1      -6.466  11.272  71.032  1.00  0.00     1.112 C  
HETATM   32  O   UNL     1      -5.234   9.206  70.830  1.00  0.00    -0.027 OA 
HETATM   33  H   UNL     1      -4.588   9.572  71.423  1.00  0.00     0.000 HD 
ENDBRANCH  12  23
TORSDOF 1
ENDMDL
MODEL      130
REMARK 921   NORMALIZED FREE ENERGY PREDICTED BY IDOCK:   19.63 KCAL/MOL
REMARK 922        TOTAL FREE ENERGY PREDICTED BY IDOCK:   20.34 KCAL/MOL
REMARK 923 INTER-LIGAND FREE ENERGY PREDICTED BY IDOCK:   20.94 KCAL/MOL
REMARK 924 INTRA-LIGAND FREE ENERGY PREDICTED BY IDOCK:   -0.60 KCAL/MOL
REMARK 927      BINDING AFFINITY PREDICTED BY RF-SCORE:    0.00 PKD
ROOT
HETATM    1  C   UNL     1      -9.378  13.215  70.288  1.00  0.00     4.359 C  
HETATM    2  C   UNL     1      -9.943  11.758  70.602  1.00  0.00     4.620 C  
HETATM    3  C   UNL     1      -8.124  13.040  69.431  1.00  0.00     0.903 C  
HETATM    4  C   UNL     1     -11.256  11.658  71.390  1.00  0.00     2.950 C  
HETATM    5  C   UNL     1      -8.966  10.939  71.432  1.00  0.00     7.031 C  
HETATM    6  C   UNL     1      -8.628  13.007  68.001  1.00  0.00    -0.186 C  
HETATM    7  C   UNL     1     -10.083  13.551  67.961  1.00  0.00    -0.244 C  
HETATM    8  C   UNL     1      -8.535   9.708  71.100  1.00  0.00     0.518 C  
HETATM    9  C   UNL     1      -7.733   8.822  72.045  1.00  0.00    -0.025 C  
HETATM   10  C   UNL     1     -10.274  14.467  66.737  1.00  0.00    -0.266 C  
HETATM   11  C   UNL     1      -8.485   7.494  72.394  1.00  0.00    -0.108 C  
HETATM   12  C   UNL     1      -9.711  14.330  65.509  1.00  0.00    -0.189 C  
HETATM   13  C   UNL     1      -6.340   8.607  71.448  1.00  0.00    -0.060 C  
HETATM   14  C   UNL     1     -11.148  15.662  67.018  1.00  0.00    -0.200 C  
HETATM   15  C   UNL     1      -9.914   7.759  72.896  1.00  0.00    -0.341 C  
HETATM   16  C   UNL     1      -7.736   6.700  73.474  1.00  0.00    -0.090 C  
HETATM   17  C   UNL     1     -11.670  14.287  70.026  1.00  0.00    -0.364 C  
HETATM   18  C   UNL     1     -10.697  16.460  68.250  1.00  0.00    -0.337 C  
HETATM   19  O   UNL     1      -8.608   6.656  71.237  1.00  0.00    -0.125 OA 
HETATM   20  C   UNL     1     -10.266  14.190  69.395  1.00  0.00     0.120 C  
HETATM   21  C   UNL     1      -9.800  15.675  69.253  1.00  0.00    -0.269 C  
HETATM   22  H   UNL     1      -9.064   5.850  71.450  1.00  0.00     0.000 HD 
ENDROOT
BRANCH  12  23
HETATM   23  C   UNL     1      -8.918  13.209  65.043  1.00  0.00     1.573 C  
HETATM   24  C   UNL     1      -9.310  11.938  64.818  1.00  0.00     0.141 C  
HETATM   25  C   UNL     1     -11.247  10.731  63.730  1.00  0.00     0.862 C  
HETATM   26  C   UNL     1     -10.699  11.367  65.023  1.00  0.00    -0.340 C  
HETATM   27  O   UNL     1     -11.581  11.738  62.769  1.00  0.00    -0.500 OA 
HETATM   28  C   UNL     1     -10.272   9.737  63.100  1.00  0.00     1.690 C  
HETATM   29  C   UNL     1      -8.882  10.342  62.905  1.00  0.00    -0.233 C  
HETATM   30  H   UNL     1     -11.919  11.347  61.972  1.00  0.00     0.000 HD 
HETATM   31  C   UNL     1      -8.342  10.926  64.220  1.00  0.00     0.166 C  
HETATM   32  O   UNL     1      -7.996   9.341  62.432  1.00  0.00    -0.117 OA 
HETATM   33  H   UNL     1      -7.132   9.717  62.310  1.00  0.00     0.000 HD 
ENDBRANCH  12  23
TORSDOF 1
ENDMDL
MODEL      131
REMARK 921   NORMALIZED FREE ENERGY PREDICTED BY IDOCK:   22.93 KCAL/MOL
REMARK 922        TOTAL FREE ENERGY PREDICTED BY IDOCK:   23.83 KCAL/MOL
REMARK 923 INTER-LIGAND FREE ENERGY PREDICTED BY IDOCK:   24.26 KCAL/MOL
REMARK 924 INTRA-LIGAND FREE ENERGY PREDICTED BY IDOCK:   -0.44 KCAL/MOL
REMARK 927      BINDING AFFINITY PREDICTED BY RF-SCORE:    0.00 PKD
ROOT
HETATM    1  C   UNL     1      -9.393   9.054  65.324  1.00  0.00    -0.158 C  
HETATM    2  C   UNL     1      -9.989  10.521  65.505  1.00  0.00    -0.342 C  
HETATM    3  C   UNL     1      -8.463   8.794  66.510  1.00  0.00    -0.120 C  
HETATM    4  C   UNL     1     -11.022  11.001  64.476  1.00  0.00    -0.158 C  
HETATM    5  C   UNL     1      -8.903  11.585  65.442  1.00  0.00     0.088 C  
HETATM    6  C   UNL     1      -9.358   8.217  67.590  1.00  0.00    -0.160 C  
HETATM    7  C   UNL     1     -10.700   7.762  66.951  1.00  0.00    -0.244 C  
HETATM    8  C   UNL     1      -8.714  12.532  66.379  1.00  0.00     0.046 C  
HETATM    9  C   UNL     1      -7.769  13.712  66.194  1.00  0.00     2.477 C  
HETATM   10  C   UNL     1     -11.141   6.411  67.547  1.00  0.00    -0.401 C  
HETATM   11  C   UNL     1      -8.520  15.085  66.233  1.00  0.00     0.231 C  
HETATM   12  C   UNL     1     -10.972   5.979  68.823  1.00  0.00    -0.384 C  
HETATM   13  C   UNL     1      -6.636  13.596  67.218  1.00  0.00     0.212 C  
HETATM   14  C   UNL     1     -11.770   5.490  66.533  1.00  0.00     1.790 C  
HETATM   15  C   UNL     1      -9.709  15.117  65.258  1.00  0.00    -0.147 C  
HETATM   16  C   UNL     1      -7.577  16.244  65.877  1.00  0.00     0.937 C  
HETATM   17  C   UNL     1     -11.540   8.057  64.396  1.00  0.00    16.829 C  
HETATM   18  C   UNL     1     -10.904   5.295  65.281  1.00  0.00     0.697 C  
HETATM   19  O   UNL     1      -9.056  15.339  67.538  1.00  0.00    -0.180 OA 
HETATM   20  C   UNL     1     -10.395   7.819  65.401  1.00  0.00     2.886 C  
HETATM   21  C   UNL     1      -9.841   6.406  65.032  1.00  0.00     1.746 C  
HETATM   22  H   UNL     1      -9.511  16.172  67.561  1.00  0.00     0.000 HD 
ENDROOT
BRANCH  12  23
HETATM   23  C   UNL     1     -10.465   6.756  69.938  1.00  0.00    -0.242 C  
HETATM   24  C   UNL     1     -10.323   6.382  71.227  1.00  0.00    -0.244 C  
HETATM   25  C   UNL     1      -9.476   4.384  72.524  1.00  0.00    -0.137 C  
HETATM   26  C   UNL     1     -10.686   5.039  71.828  1.00  0.00    -0.150 C  
HETATM   27  O   UNL     1      -8.521   3.925  71.561  1.00  0.00    -0.082 OA 
HETATM   28  C   UNL     1      -8.784   5.322  73.513  1.00  0.00    -0.114 C  
HETATM   29  C   UNL     1      -8.430   6.666  72.878  1.00  0.00    -0.118 C  
HETATM   30  H   UNL     1      -7.776   3.521  71.990  1.00  0.00     0.000 HD 
HETATM   31  C   UNL     1      -9.664   7.316  72.233  1.00  0.00    -0.177 C  
HETATM   32  O   UNL     1      -7.903   7.530  73.870  1.00  0.00    -0.116 OA 
HETATM   33  H   UNL     1      -7.683   8.366  73.475  1.00  0.00     0.000 HD 
ENDBRANCH  12  23
TORSDOF 1
ENDMDL
MODEL      132
REMARK 921   NORMALIZED FREE ENERGY PREDICTED BY IDOCK:   23.76 KCAL/MOL
REMARK 922        TOTAL FREE ENERGY PREDICTED BY IDOCK:   24.72 KCAL/MOL
REMARK 923 INTER-LIGAND FREE ENERGY PREDICTED BY IDOCK:   25.33 KCAL/MOL
REMARK 924 INTRA-LIGAND FREE ENERGY PREDICTED BY IDOCK:   -0.61 KCAL/MOL
REMARK 927      BINDING AFFINITY PREDICTED BY RF-SCORE:    0.00 PKD
ROOT
HETATM    1  C   UNL     1      -9.103  12.453  69.655  1.00  0.00     1.962 C  
HETATM    2  C   UNL     1      -9.511  11.983  68.189  1.00  0.00    -0.200 C  
HETATM    3  C   UNL     1      -7.994  13.496  69.505  1.00  0.00     0.811 C  
HETATM    4  C   UNL     1     -10.669  10.985  68.057  1.00  0.00    -0.260 C  
HETATM    5  C   UNL     1      -8.359  11.288  67.476  1.00  0.00    -0.131 C  
HETATM    6  C   UNL     1      -8.720  14.820  69.363  1.00  0.00     0.034 C  
HETATM    7  C   UNL     1     -10.196  14.644  69.817  1.00  0.00     0.096 C  
HETATM    8  C   UNL     1      -7.907  11.629  66.255  1.00  0.00     0.117 C  
HETATM    9  C   UNL     1      -6.905  10.790  65.472  1.00  0.00     0.015 C  
HETATM   10  C   UNL     1     -10.644  15.861  70.650  1.00  0.00    -0.010 C  
HETATM   11  C   UNL     1      -7.500  10.260  64.125  1.00  0.00    -0.069 C  
HETATM   12  C   UNL     1     -10.278  17.158  70.477  1.00  0.00     1.447 C  
HETATM   13  C   UNL     1      -5.615  11.598  65.305  1.00  0.00     1.522 C  
HETATM   14  C   UNL     1     -11.538  15.495  71.806  1.00  0.00    -0.515 C  
HETATM   15  C   UNL     1      -8.844   9.542  64.334  1.00  0.00    -0.251 C  
HETATM   16  C   UNL     1      -6.535   9.283  63.438  1.00  0.00    -0.091 C  
HETATM   17  C   UNL     1     -11.473  12.382  70.575  1.00  0.00     0.489 C  
HETATM   18  C   UNL     1     -10.948  14.393  72.697  1.00  0.00     2.322 C  
HETATM   19  O   UNL     1      -7.753  11.340  63.217  1.00  0.00    -0.114 OA 
HETATM   20  C   UNL     1     -10.186  13.231  70.526  1.00  0.00     3.586 C  
HETATM   21  C   UNL     1      -9.850  13.517  72.024  1.00  0.00    11.169 C  
HETATM   22  H   UNL     1      -8.113  11.019  62.399  1.00  0.00     0.000 HD 
ENDROOT
BRANCH  12  23
HETATM   23  C   UNL     1      -9.498  17.696  69.380  1.00  0.00     0.257 C  
HETATM   24  C   UNL     1      -9.842  17.807  68.079  1.00  0.00    -0.317 C  
HETATM   25  C   UNL     1     -11.844  18.537  66.719  1.00  0.00     2.606 C  
HETATM   26  C   UNL     1     -11.146  17.370  67.445  1.00  0.00     0.093 C  
HETATM   27  O   UNL     1     -12.381  19.475  67.659  1.00  0.00     2.014 OA 
HETATM   28  C   UNL     1     -10.916  19.270  65.750  1.00  0.00    -0.174 C  
HETATM   29  C   UNL     1      -9.612  19.700  66.419  1.00  0.00    -0.401 C  
HETATM   30  H   UNL     1     -12.810  20.194  67.213  1.00  0.00     0.000 HD 
HETATM   31  C   UNL     1      -8.915  18.507  67.094  1.00  0.00    -0.281 C  
HETATM   32  O   UNL     1      -8.748  20.264  65.447  1.00  0.00    -0.399 OA 
HETATM   33  H   UNL     1      -7.937  20.532  65.863  1.00  0.00     0.000 HD 
ENDBRANCH  12  23
TORSDOF 1
ENDMDL
MODEL      133
REMARK 921   NORMALIZED FREE ENERGY PREDICTED BY IDOCK:   23.84 KCAL/MOL
REMARK 922        TOTAL FREE ENERGY PREDICTED BY IDOCK:   24.79 KCAL/MOL
REMARK 923 INTER-LIGAND FREE ENERGY PREDICTED BY IDOCK:   10.03 KCAL/MOL
REMARK 924 INTRA-LIGAND FREE ENERGY PREDICTED BY IDOCK:   14.76 KCAL/MOL
REMARK 927      BINDING AFFINITY PREDICTED BY RF-SCORE:    0.00 PKD
ROOT
HETATM    1  C   UNL     1     -11.942  12.270  67.963  1.00  0.00    -0.251 C  
HETATM    2  C   UNL     1     -10.927  11.219  67.328  1.00  0.00    -0.342 C  
HETATM    3  C   UNL     1     -11.248  12.896  69.173  1.00  0.00    -0.293 C  
HETATM    4  C   UNL     1     -11.357  10.500  66.041  1.00  0.00     0.696 C  
HETATM    5  C   UNL     1     -10.620  10.077  68.287  1.00  0.00    -0.264 C  
HETATM    6  C   UNL     1     -10.484  14.082  68.615  1.00  0.00    -0.249 C  
HETATM    7  C   UNL     1     -11.017  14.409  67.192  1.00  0.00    -0.305 C  
HETATM    8  C   UNL     1      -9.378   9.691  68.634  1.00  0.00    -0.143 C  
HETATM    9  C   UNL     1      -9.089   8.418  69.419  1.00  0.00    -0.154 C  
HETATM   10  C   UNL     1     -11.140  15.934  67.008  1.00  0.00    -0.119 C  
HETATM   11  C   UNL     1      -8.215   7.406  68.606  1.00  0.00    -0.125 C  
HETATM   12  C   UNL     1     -10.324  16.893  67.518  1.00  0.00    -0.318 C  
HETATM   13  C   UNL     1      -8.492   8.804  70.774  1.00  0.00    -0.202 C  
HETATM   14  C   UNL     1     -12.354  16.343  66.215  1.00  0.00     2.893 C  
HETATM   15  C   UNL     1      -8.804   7.126  67.214  1.00  0.00    -0.120 C  
HETATM   16  C   UNL     1      -8.079   6.068  69.348  1.00  0.00    -0.111 C  
HETATM   17  C   UNL     1     -12.856  13.069  65.728  1.00  0.00     0.116 C  
HETATM   18  C   UNL     1     -13.657  15.737  66.757  1.00  0.00     5.996 C  
HETATM   19  O   UNL     1      -6.896   7.926  68.392  1.00  0.00    -0.067 OA 
HETATM   20  C   UNL     1     -12.340  13.548  67.100  1.00  0.00    -0.220 C  
HETATM   21  C   UNL     1     -13.477  14.470  67.644  1.00  0.00     5.027 C  
HETATM   22  H   UNL     1      -6.365   7.312  67.899  1.00  0.00     0.000 HD 
ENDROOT
BRANCH  12  23
HETATM   23  C   UNL     1      -9.078  16.680  68.228  1.00  0.00    -0.218 C  
HETATM   24  C   UNL     1      -8.631  15.553  68.822  1.00  0.00    -0.188 C  
HETATM   25  C   UNL     1      -8.504  13.080  68.311  1.00  0.00    -0.159 C  
HETATM   26  C   UNL     1      -9.353  14.223  68.903  1.00  0.00    -0.054 C  
HETATM   27  O   UNL     1      -8.433  13.185  66.884  1.00  0.00    -0.358 OA 
HETATM   28  C   UNL     1      -7.089  13.037  68.884  1.00  0.00    -0.068 C  
HETATM   29  C   UNL     1      -6.387  14.391  68.786  1.00  0.00    -0.086 C  
HETATM   30  H   UNL     1      -7.911  12.482  66.519  1.00  0.00     0.000 HD 
HETATM   31  C   UNL     1      -7.235  15.502  69.426  1.00  0.00    -0.204 C  
HETATM   32  O   UNL     1      -5.131  14.318  69.439  1.00  0.00    -0.083 OA 
HETATM   33  H   UNL     1      -4.695  15.159  69.378  1.00  0.00     0.000 HD 
ENDBRANCH  12  23
TORSDOF 1
ENDMDL
MODEL      134
REMARK 921   NORMALIZED FREE ENERGY PREDICTED BY IDOCK:   25.38 KCAL/MOL
REMARK 922        TOTAL FREE ENERGY PREDICTED BY IDOCK:   26.42 KCAL/MOL
REMARK 923 INTER-LIGAND FREE ENERGY PREDICTED BY IDOCK:   20.91 KCAL/MOL
REMARK 924 INTRA-LIGAND FREE ENERGY PREDICTED BY IDOCK:    5.51 KCAL/MOL
REMARK 927      BINDING AFFINITY PREDICTED BY RF-SCORE:    0.00 PKD
ROOT
HETATM    1  C   UNL     1     -11.190  15.293  71.558  1.00  0.00    -0.369 C  
HETATM    2  C   UNL     1     -11.841  14.103  70.722  1.00  0.00    -0.313 C  
HETATM    3  C   UNL     1      -9.755  14.884  71.887  1.00  0.00     3.843 C  
HETATM    4  C   UNL     1     -13.270  14.299  70.196  1.00  0.00     0.341 C  
HETATM    5  C   UNL     1     -11.935  12.822  71.539  1.00  0.00     0.930 C  
HETATM    6  C   UNL     1      -8.931  15.362  70.707  1.00  0.00     1.952 C  
HETATM    7  C   UNL     1      -9.765  16.381  69.882  1.00  0.00     0.329 C  
HETATM    8  C   UNL     1     -11.458  11.630  71.137  1.00  0.00     1.361 C  
HETATM    9  C   UNL     1     -11.752  10.325  71.867  1.00  0.00     0.477 C  
HETATM   10  C   UNL     1      -8.876  17.560  69.440  1.00  0.00     0.427 C  
HETATM   11  C   UNL     1     -12.540   9.310  70.973  1.00  0.00    -0.185 C  
HETATM   12  C   UNL     1      -7.566  17.516  69.086  1.00  0.00    -0.069 C  
HETATM   13  C   UNL     1     -10.439   9.771  72.425  1.00  0.00     2.554 C  
HETATM   14  C   UNL     1      -9.585  18.889  69.484  1.00  0.00     0.172 C  
HETATM   15  C   UNL     1     -13.798   9.944  70.357  1.00  0.00     0.738 C  
HETATM   16  C   UNL     1     -12.970   8.076  71.780  1.00  0.00    -0.354 C  
HETATM   17  C   UNL     1     -12.338  17.140  70.239  1.00  0.00     4.474 C  
HETATM   18  C   UNL     1     -10.253  19.169  70.837  1.00  0.00     2.123 C  
HETATM   19  O   UNL     1     -11.732   8.859  69.877  1.00  0.00    -0.443 OA 
HETATM   20  C   UNL     1     -10.986  16.698  70.835  1.00  0.00     0.308 C  
HETATM   21  C   UNL     1     -10.531  17.909  71.710  1.00  0.00     3.788 C  
HETATM   22  H   UNL     1     -12.210   8.243  69.335  1.00  0.00     0.000 HD 
ENDROOT
BRANCH  12  23
HETATM   23  C   UNL     1      -6.758  16.325  68.911  1.00  0.00    -0.156 C  
HETATM   24  C   UNL     1      -7.160  15.039  68.843  1.00  0.00    -0.119 C  
HETATM   25  C   UNL     1      -8.984  13.695  67.719  1.00  0.00    -0.196 C  
HETATM   26  C   UNL     1      -8.582  14.526  68.954  1.00  0.00    -0.103 C  
HETATM   27  O   UNL     1      -9.161  14.537  66.574  1.00  0.00    -0.265 OA 
HETATM   28  C   UNL     1      -7.970  12.601  67.388  1.00  0.00    -0.177 C  
HETATM   29  C   UNL     1      -6.548  13.149  67.280  1.00  0.00     0.057 C  
HETATM   30  H   UNL     1      -9.408  14.026  65.813  1.00  0.00     0.000 HD 
HETATM   31  C   UNL     1      -6.159  13.932  68.544  1.00  0.00    -0.093 C  
HETATM   32  O   UNL     1      -5.643  12.074  67.092  1.00  0.00    -0.119 OA 
HETATM   33  H   UNL     1      -4.759  12.415  67.024  1.00  0.00     0.000 HD 
ENDBRANCH  12  23
TORSDOF 1
ENDMDL
MODEL      135
REMARK 921   NORMALIZED FREE ENERGY PREDICTED BY IDOCK:   25.74 KCAL/MOL
REMARK 922        TOTAL FREE ENERGY PREDICTED BY IDOCK:   26.81 KCAL/MOL
REMARK 923 INTER-LIGAND FREE ENERGY PREDICTED BY IDOCK:   15.30 KCAL/MOL
REMARK 924 INTRA-LIGAND FREE ENERGY PREDICTED BY IDOCK:   11.50 KCAL/MOL
REMARK 927      BINDING AFFINITY PREDICTED BY RF-SCORE:    0.00 PKD
ROOT
HETATM    1  C   UNL     1      -9.323   5.888  65.940  1.00  0.00    -0.071 C  
HETATM    2  C   UNL     1     -10.647   6.599  66.469  1.00  0.00    -0.096 C  
HETATM    3  C   UNL     1      -8.261   6.041  67.029  1.00  0.00    -0.105 C  
HETATM    4  C   UNL     1     -11.900   6.519  65.586  1.00  0.00     5.177 C  
HETATM    5  C   UNL     1     -10.446   8.095  66.666  1.00  0.00    -0.204 C  
HETATM    6  C   UNL     1      -8.454   4.842  67.937  1.00  0.00    -0.103 C  
HETATM    7  C   UNL     1      -9.328   3.785  67.206  1.00  0.00    -0.228 C  
HETATM    8  C   UNL     1     -10.729   8.754  67.805  1.00  0.00    -0.193 C  
HETATM    9  C   UNL     1     -10.727  10.274  67.911  1.00  0.00    -0.310 C  
HETATM   10  C   UNL     1      -8.771   2.370  67.457  1.00  0.00    -0.139 C  
HETATM   11  C   UNL     1     -12.137  10.845  68.279  1.00  0.00     0.237 C  
HETATM   12  C   UNL     1      -8.188   1.904  68.592  1.00  0.00    -0.073 C  
HETATM   13  C   UNL     1      -9.616  10.694  68.878  1.00  0.00    -0.204 C  
HETATM   14  C   UNL     1      -8.860   1.472  66.250  1.00  0.00    -0.118 C  
HETATM   15  C   UNL     1     -13.233  10.317  67.340  1.00  0.00    11.307 C  
HETATM   16  C   UNL     1     -12.148  12.380  68.215  1.00  0.00    -0.105 C  
HETATM   17  C   UNL     1     -10.545   3.973  64.796  1.00  0.00    -0.173 C  
HETATM   18  C   UNL     1      -8.250   2.098  64.989  1.00  0.00    -0.081 C  
HETATM   19  O   UNL     1     -12.516  10.458  69.606  1.00  0.00    -0.558 OA 
HETATM   20  C   UNL     1      -9.354   4.311  65.716  1.00  0.00    -0.164 C  
HETATM   21  C   UNL     1      -8.123   3.650  65.017  1.00  0.00    -0.090 C  
HETATM   22  H   UNL     1     -13.371  10.804  69.830  1.00  0.00     0.000 HD 
ENDROOT
BRANCH  12  23
HETATM   23  C   UNL     1      -8.093   2.597  69.861  1.00  0.00    -0.057 C  
HETATM   24  C   UNL     1      -8.403   3.880  70.144  1.00  0.00    -0.083 C  
HETATM   25  C   UNL     1     -10.260   5.521  69.642  1.00  0.00    -0.266 C  
HETATM   26  C   UNL     1      -8.918   4.924  69.174  1.00  0.00    -0.132 C  
HETATM   27  O   UNL     1     -11.320   4.568  69.496  1.00  0.00     2.797 OA 
HETATM   28  C   UNL     1     -10.217   6.009  71.090  1.00  0.00    -0.257 C  
HETATM   29  C   UNL     1      -9.697   4.934  72.043  1.00  0.00    -0.166 C  
HETATM   30  H   UNL     1     -12.147   4.935  69.785  1.00  0.00     0.000 HD 
HETATM   31  C   UNL     1      -8.336   4.392  71.577  1.00  0.00    -0.100 C  
HETATM   32  O   UNL     1      -9.567   5.483  73.344  1.00  0.00    -0.141 OA 
HETATM   33  H   UNL     1      -9.243   4.815  73.937  1.00  0.00     0.000 HD 
ENDBRANCH  12  23
TORSDOF 1
ENDMDL
MODEL      136
REMARK 921   NORMALIZED FREE ENERGY PREDICTED BY IDOCK:   27.11 KCAL/MOL
REMARK 922        TOTAL FREE ENERGY PREDICTED BY IDOCK:   28.25 KCAL/MOL
REMARK 923 INTER-LIGAND FREE ENERGY PREDICTED BY IDOCK:   21.92 KCAL/MOL
REMARK 924 INTRA-LIGAND FREE ENERGY PREDICTED BY IDOCK:    6.33 KCAL/MOL
REMARK 927      BINDING AFFINITY PREDICTED BY RF-SCORE:    0.00 PKD
ROOT
HETATM    1  C   UNL     1      -9.964  17.420  69.762  1.00  0.00     0.402 C  
HETATM    2  C   UNL     1     -10.796  17.222  68.417  1.00  0.00    -0.273 C  
HETATM    3  C   UNL     1      -8.569  16.843  69.521  1.00  0.00     0.472 C  
HETATM    4  C   UNL     1     -12.220  17.792  68.370  1.00  0.00     3.703 C  
HETATM    5  C   UNL     1     -10.990  15.751  68.082  1.00  0.00    -0.330 C  
HETATM    6  C   UNL     1      -7.765  17.992  68.942  1.00  0.00    -0.213 C  
HETATM    7  C   UNL     1      -8.522  19.325  69.201  1.00  0.00    -0.155 C  
HETATM    8  C   UNL     1     -10.679  15.195  66.897  1.00  0.00    -0.308 C  
HETATM    9  C   UNL     1     -11.080  13.777  66.509  1.00  0.00    -0.309 C  
HETATM   10  C   UNL     1      -7.530  20.425  69.624  1.00  0.00     0.572 C  
HETATM   11  C   UNL     1     -12.031  13.748  65.266  1.00  0.00    -0.374 C  
HETATM   12  C   UNL     1      -6.256  20.598  69.185  1.00  0.00    -0.260 C  
HETATM   13  C   UNL     1      -9.810  12.940  66.338  1.00  0.00    -0.268 C  
HETATM   14  C   UNL     1      -8.075  21.342  70.688  1.00  0.00     5.312 C  
HETATM   15  C   UNL     1     -13.240  14.680  65.446  1.00  0.00     0.467 C  
HETATM   16  C   UNL     1     -12.553  12.329  65.000  1.00  0.00    -0.157 C  
HETATM   17  C   UNL     1     -10.964  19.694  70.306  1.00  0.00     2.636 C  
HETATM   18  C   UNL     1      -8.627  20.587  71.906  1.00  0.00     2.360 C  
HETATM   19  O   UNL     1     -11.346  14.193  64.087  1.00  0.00    -0.593 OA 
HETATM   20  C   UNL     1      -9.640  18.905  70.236  1.00  0.00     1.484 C  
HETATM   21  C   UNL     1      -8.998  19.097  71.647  1.00  0.00     5.741 C  
HETATM   22  H   UNL     1     -11.922  14.175  63.333  1.00  0.00     0.000 HD 
ENDROOT
BRANCH  12  23
HETATM   23  C   UNL     1      -5.603  19.867  68.117  1.00  0.00    -0.233 C  
HETATM   24  C   UNL     1      -6.145  18.994  67.243  1.00  0.00    -0.168 C  
HETATM   25  C   UNL     1      -8.213  18.817  65.798  1.00  0.00     0.254 C  
HETATM   26  C   UNL     1      -7.593  18.549  67.184  1.00  0.00    -0.230 C  
HETATM   27  O   UNL     1      -8.423  20.219  65.596  1.00  0.00    -0.490 OA 
HETATM   28  C   UNL     1      -7.363  18.264  64.654  1.00  0.00     3.181 C  
HETATM   29  C   UNL     1      -5.911  18.732  64.739  1.00  0.00    -0.255 C  
HETATM   30  H   UNL     1      -8.805  20.384  64.742  1.00  0.00     0.000 HD 
HETATM   31  C   UNL     1      -5.305  18.410  66.115  1.00  0.00    -0.189 C  
HETATM   32  O   UNL     1      -5.152  18.094  63.727  1.00  0.00     0.140 OA 
HETATM   33  H   UNL     1      -4.249  18.384  63.779  1.00  0.00     0.000 HD 
ENDBRANCH  12  23
TORSDOF 1
ENDMDL
MODEL      137
REMARK 921   NORMALIZED FREE ENERGY PREDICTED BY IDOCK:   27.32 KCAL/MOL
REMARK 922        TOTAL FREE ENERGY PREDICTED BY IDOCK:   28.48 KCAL/MOL
REMARK 923 INTER-LIGAND FREE ENERGY PREDICTED BY IDOCK:   23.22 KCAL/MOL
REMARK 924 INTRA-LIGAND FREE ENERGY PREDICTED BY IDOCK:    5.26 KCAL/MOL
REMARK 927      BINDING AFFINITY PREDICTED BY RF-SCORE:    0.00 PKD
ROOT
HETATM    1  C   UNL     1     -12.327  12.209  68.171  1.00  0.00     0.523 C  
HETATM    2  C   UNL     1     -11.230  11.658  67.155  1.00  0.00    -0.371 C  
HETATM    3  C   UNL     1     -11.806  11.951  69.585  1.00  0.00    -0.406 C  
HETATM    4  C   UNL     1     -11.479  11.867  65.655  1.00  0.00    -0.314 C  
HETATM    5  C   UNL     1     -11.049  10.152  67.279  1.00  0.00    -0.166 C  
HETATM    6  C   UNL     1     -10.980  13.176  69.928  1.00  0.00     0.363 C  
HETATM    7  C   UNL     1     -11.319  14.315  68.926  1.00  0.00    -0.302 C  
HETATM    8  C   UNL     1      -9.863   9.543  67.466  1.00  0.00    -0.213 C  
HETATM    9  C   UNL     1      -9.676   8.035  67.370  1.00  0.00    -0.216 C  
HETATM   10  C   UNL     1     -11.424  15.661  69.669  1.00  0.00    -0.345 C  
HETATM   11  C   UNL     1      -8.694   7.631  66.220  1.00  0.00    -0.152 C  
HETATM   12  C   UNL     1     -10.689  16.074  70.734  1.00  0.00     0.041 C  
HETATM   13  C   UNL     1      -9.269   7.505  68.748  1.00  0.00    -0.145 C  
HETATM   14  C   UNL     1     -12.523  16.548  69.142  1.00  0.00     1.545 C  
HETATM   15  C   UNL     1      -9.090   8.268  64.878  1.00  0.00     0.351 C  
HETATM   16  C   UNL     1      -8.652   6.107  66.035  1.00  0.00    -0.145 C  
HETATM   17  C   UNL     1     -12.937  14.234  66.759  1.00  0.00     1.019 C  
HETATM   18  C   UNL     1     -13.883  15.841  69.070  1.00  0.00     4.669 C  
HETATM   19  O   UNL     1      -7.361   8.076  66.505  1.00  0.00    -0.081 OA 
HETATM   20  C   UNL     1     -12.612  13.776  68.195  1.00  0.00     0.585 C  
HETATM   21  C   UNL     1     -13.818  14.284  69.048  1.00  0.00     5.743 C  
HETATM   22  H   UNL     1      -6.765   7.831  65.807  1.00  0.00     0.000 HD 
ENDROOT
BRANCH  12  23
HETATM   23  C   UNL     1      -9.549  15.391  71.314  1.00  0.00     2.339 C  
HETATM   24  C   UNL     1      -8.836  14.365  70.804  1.00  0.00     3.189 C  
HETATM   25  C   UNL     1      -7.827  13.694  68.585  1.00  0.00    -0.096 C  
HETATM   26  C   UNL     1      -9.078  13.658  69.485  1.00  0.00     1.140 C  
HETATM   27  O   UNL     1      -7.606  15.012  68.071  1.00  0.00    -0.104 OA 
HETATM   28  C   UNL     1      -6.566  13.216  69.305  1.00  0.00    -0.091 C  
HETATM   29  C   UNL     1      -6.349  13.948  70.629  1.00  0.00     0.024 C  
HETATM   30  H   UNL     1      -6.836  15.035  67.517  1.00  0.00     0.000 HD 
HETATM   31  C   UNL     1      -7.595  13.855  71.524  1.00  0.00     4.982 C  
HETATM   32  O   UNL     1      -5.239  13.380  71.303  1.00  0.00    -0.149 OA 
HETATM   33  H   UNL     1      -5.103  13.835  72.126  1.00  0.00     0.000 HD 
ENDBRANCH  12  23
TORSDOF 1
ENDMDL
MODEL      138
REMARK 921   NORMALIZED FREE ENERGY PREDICTED BY IDOCK:   29.86 KCAL/MOL
REMARK 922        TOTAL FREE ENERGY PREDICTED BY IDOCK:   31.17 KCAL/MOL
REMARK 923 INTER-LIGAND FREE ENERGY PREDICTED BY IDOCK:   16.91 KCAL/MOL
REMARK 924 INTRA-LIGAND FREE ENERGY PREDICTED BY IDOCK:   14.26 KCAL/MOL
REMARK 927      BINDING AFFINITY PREDICTED BY RF-SCORE:    0.00 PKD
ROOT
HETATM    1  C   UNL     1      -8.128   3.843  70.026  1.00  0.00    -0.060 C  
HETATM    2  C   UNL     1      -9.521   3.845  69.252  1.00  0.00    -0.256 C  
HETATM    3  C   UNL     1      -7.695   5.301  70.184  1.00  0.00    -0.072 C  
HETATM    4  C   UNL     1     -10.216   2.494  69.032  1.00  0.00     1.320 C  
HETATM    5  C   UNL     1      -9.387   4.410  67.845  1.00  0.00    -0.190 C  
HETATM    6  C   UNL     1      -8.330   5.759  71.482  1.00  0.00    -0.127 C  
HETATM    7  C   UNL     1      -8.794   4.515  72.290  1.00  0.00    -0.133 C  
HETATM    8  C   UNL     1     -10.148   5.403  67.351  1.00  0.00    -0.223 C  
HETATM    9  C   UNL     1     -10.146   5.803  65.881  1.00  0.00     0.136 C  
HETATM   10  C   UNL     1      -8.467   4.700  73.784  1.00  0.00    -0.104 C  
HETATM   11  C   UNL     1     -11.544   5.599  65.208  1.00  0.00     2.910 C  
HETATM   12  C   UNL     1      -8.499   5.855  74.498  1.00  0.00    -0.115 C  
HETATM   13  C   UNL     1      -9.604   7.230  65.764  1.00  0.00     0.367 C  
HETATM   14  C   UNL     1      -8.010   3.431  74.456  1.00  0.00    -0.065 C  
HETATM   15  C   UNL     1     -12.090   4.180  65.437  1.00  0.00     4.487 C  
HETATM   16  C   UNL     1     -11.473   5.847  63.694  1.00  0.00     7.656 C  
HETATM   17  C   UNL     1      -8.734   1.909  71.563  1.00  0.00    -0.100 C  
HETATM   18  C   UNL     1      -6.859   2.738  73.712  1.00  0.00    -0.031 C  
HETATM   19  O   UNL     1     -12.513   6.501  65.758  1.00  0.00     3.493 OA 
HETATM   20  C   UNL     1      -8.102   3.316  71.528  1.00  0.00    -0.060 C  
HETATM   21  C   UNL     1      -6.709   3.134  72.213  1.00  0.00    -0.015 C  
HETATM   22  H   UNL     1     -13.361   6.378  65.349  1.00  0.00     0.000 HD 
ENDROOT
BRANCH  12  23
HETATM   23  C   UNL     1      -8.987   7.141  74.038  1.00  0.00    -0.246 C  
HETATM   24  C   UNL     1      -9.213   7.551  72.773  1.00  0.00    -0.208 C  
HETATM   25  C   UNL     1     -10.275   6.645  70.664  1.00  0.00    -0.189 C  
HETATM   26  C   UNL     1      -8.987   6.750  71.506  1.00  0.00    -0.137 C  
HETATM   27  O   UNL     1     -11.223   5.773  71.288  1.00  0.00    -0.246 OA 
HETATM   28  C   UNL     1     -10.929   8.003  70.412  1.00  0.00    -0.248 C  
HETATM   29  C   UNL     1     -11.145   8.785  71.707  1.00  0.00    -0.347 C  
HETATM   30  H   UNL     1     -12.016   5.708  70.770  1.00  0.00     0.000 HD 
HETATM   31  C   UNL     1      -9.836   8.913  72.502  1.00  0.00     0.083 C  
HETATM   32  O   UNL     1     -11.641  10.077  71.399  1.00  0.00    -0.368 OA 
HETATM   33  H   UNL     1     -11.776  10.563  72.204  1.00  0.00     0.000 HD 
ENDBRANCH  12  23
TORSDOF 1
ENDMDL
MODEL      139
REMARK 921   NORMALIZED FREE ENERGY PREDICTED BY IDOCK:   31.41 KCAL/MOL
REMARK 922        TOTAL FREE ENERGY PREDICTED BY IDOCK:   32.81 KCAL/MOL
REMARK 923 INTER-LIGAND FREE ENERGY PREDICTED BY IDOCK:   33.49 KCAL/MOL
REMARK 924 INTRA-LIGAND FREE ENERGY PREDICTED BY IDOCK:   -0.68 KCAL/MOL
REMARK 927      BINDING AFFINITY PREDICTED BY RF-SCORE:    0.00 PKD
ROOT
HETATM    1  C   UNL     1     -11.739   9.567  67.393  1.00  0.00     2.216 C  
HETATM    2  C   UNL     1     -10.644  10.703  67.171  1.00  0.00    -0.312 C  
HETATM    3  C   UNL     1     -11.009   8.224  67.376  1.00  0.00     0.082 C  
HETATM    4  C   UNL     1     -11.112  12.164  67.223  1.00  0.00    -0.341 C  
HETATM    5  C   UNL     1      -9.981  10.591  65.805  1.00  0.00    -0.318 C  
HETATM    6  C   UNL     1     -10.583   7.992  68.813  1.00  0.00    -0.145 C  
HETATM    7  C   UNL     1     -11.375   8.954  69.742  1.00  0.00     0.072 C  
HETATM    8  C   UNL     1      -8.650  10.542  65.610  1.00  0.00    -0.182 C  
HETATM    9  C   UNL     1      -8.005  10.648  64.234  1.00  0.00     0.091 C  
HETATM   10  C   UNL     1     -11.819   8.214  71.018  1.00  0.00    -0.279 C  
HETATM   11  C   UNL     1      -7.080  11.905  64.108  1.00  0.00     4.126 C  
HETATM   12  C   UNL     1     -11.141   7.248  71.689  1.00  0.00    -0.262 C  
HETATM   13  C   UNL     1      -7.300   9.325  63.922  1.00  0.00    -0.102 C  
HETATM   14  C   UNL     1     -13.194   8.612  71.490  1.00  0.00    -0.335 C  
HETATM   15  C   UNL     1      -7.804  13.195  64.527  1.00  0.00     8.655 C  
HETATM   16  C   UNL     1      -6.577  12.082  62.668  1.00  0.00     2.566 C  
HETATM   17  C   UNL     1     -13.114  10.912  69.058  1.00  0.00     2.077 C  
HETATM   18  C   UNL     1     -14.259   8.516  70.388  1.00  0.00     1.311 C  
HETATM   19  O   UNL     1      -5.935  11.785  64.963  1.00  0.00     0.622 OA 
HETATM   20  C   UNL     1     -12.503   9.521  68.790  1.00  0.00     3.041 C  
HETATM   21  C   UNL     1     -13.705   8.534  68.932  1.00  0.00    11.364 C  
HETATM   22  H   UNL     1      -5.373  12.547  64.886  1.00  0.00     0.000 HD 
ENDROOT
BRANCH  12  23
HETATM   23  C   UNL     1      -9.786   6.804  71.426  1.00  0.00    -0.177 C  
HETATM   24  C   UNL     1      -9.366   5.597  70.991  1.00  0.00    -0.181 C  
HETATM   25  C   UNL     1     -10.024   3.896  69.239  1.00  0.00     0.199 C  
HETATM   26  C   UNL     1     -10.231   4.392  70.684  1.00  0.00    -0.097 C  
HETATM   27  O   UNL     1     -10.606   4.808  68.300  1.00  0.00     0.111 OA 
HETATM   28  C   UNL     1      -8.550   3.687  68.892  1.00  0.00    -0.119 C  
HETATM   29  C   UNL     1      -7.705   4.920  69.209  1.00  0.00    -0.074 C  
HETATM   30  H   UNL     1     -10.478   4.503  67.410  1.00  0.00     0.000 HD 
HETATM   31  C   UNL     1      -7.896   5.362  70.669  1.00  0.00    -0.090 C  
HETATM   32  O   UNL     1      -6.338   4.624  68.980  1.00  0.00    -0.030 OA 
HETATM   33  H   UNL     1      -5.812   5.390  69.177  1.00  0.00     0.000 HD 
ENDBRANCH  12  23
TORSDOF 1
ENDMDL
MODEL      140
REMARK 921   NORMALIZED FREE ENERGY PREDICTED BY IDOCK:   35.96 KCAL/MOL
REMARK 922        TOTAL FREE ENERGY PREDICTED BY IDOCK:   37.62 KCAL/MOL
REMARK 923 INTER-LIGAND FREE ENERGY PREDICTED BY IDOCK:   38.28 KCAL/MOL
REMARK 924 INTRA-LIGAND FREE ENERGY PREDICTED BY IDOCK:   -0.66 KCAL/MOL
REMARK 927      BINDING AFFINITY PREDICTED BY RF-SCORE:    0.00 PKD
ROOT
HETATM    1  C   UNL     1      -7.235  12.106  67.734  1.00  0.00    -0.113 C  
HETATM    2  C   UNL     1      -8.206  13.123  68.482  1.00  0.00    -0.076 C  
HETATM    3  C   UNL     1      -6.480  11.324  68.811  1.00  0.00    -0.058 C  
HETATM    4  C   UNL     1      -9.141  13.981  67.619  1.00  0.00    -0.192 C  
HETATM    5  C   UNL     1      -7.433  14.149  69.297  1.00  0.00     0.018 C  
HETATM    6  C   UNL     1      -7.366  10.133  69.123  1.00  0.00    -0.089 C  
HETATM    7  C   UNL     1      -8.422   9.973  67.993  1.00  0.00    -0.117 C  
HETATM    8  C   UNL     1      -7.651  14.404  70.601  1.00  0.00     1.512 C  
HETATM    9  C   UNL     1      -7.020  15.578  71.339  1.00  0.00     2.274 C  
HETATM   10  C   UNL     1      -8.597   8.485  67.637  1.00  0.00    -0.133 C  
HETATM   11  C   UNL     1      -8.092  16.582  71.880  1.00  0.00    10.538 C  
HETATM   12  C   UNL     1      -8.539   7.423  68.482  1.00  0.00    -0.128 C  
HETATM   13  C   UNL     1      -6.082  15.030  72.418  1.00  0.00     0.956 C  
HETATM   14  C   UNL     1      -8.792   8.244  66.162  1.00  0.00    -0.200 C  
HETATM   15  C   UNL     1      -9.070  17.027  70.780  1.00  0.00     4.597 C  
HETATM   16  C   UNL     1      -7.429  17.836  72.469  1.00  0.00    10.912 C  
HETATM   17  C   UNL     1      -8.871  11.578  65.860  1.00  0.00    -0.107 C  
HETATM   18  C   UNL     1      -7.708   8.903  65.297  1.00  0.00    -0.100 C  
HETATM   19  O   UNL     1      -8.885  15.978  72.911  1.00  0.00    10.959 OA 
HETATM   20  C   UNL     1      -7.887  10.942  66.864  1.00  0.00    -0.135 C  
HETATM   21  C   UNL     1      -6.938  10.071  65.981  1.00  0.00    -0.110 C  
HETATM   22  H   UNL     1      -9.535  16.588  73.239  1.00  0.00     0.000 HD 
ENDROOT
BRANCH  12  23
HETATM   23  C   UNL     1      -8.441   7.474  69.928  1.00  0.00    -0.138 C  
HETATM   24  C   UNL     1      -9.386   7.831  70.822  1.00  0.00    -0.162 C  
HETATM   25  C   UNL     1     -11.847   7.410  71.228  1.00  0.00    -0.301 C  
HETATM   26  C   UNL     1     -10.798   8.289  70.517  1.00  0.00    -0.245 C  
HETATM   27  O   UNL     1     -11.919   6.114  70.624  1.00  0.00    -0.147 OA 
HETATM   28  C   UNL     1     -11.571   7.255  72.723  1.00  0.00    -0.213 C  
HETATM   29  C   UNL     1     -10.142   6.790  72.999  1.00  0.00    -0.191 C  
HETATM   30  H   UNL     1     -12.564   5.572  71.062  1.00  0.00     0.000 HD 
HETATM   31  C   UNL     1      -9.118   7.712  72.316  1.00  0.00    -0.183 C  
HETATM   32  O   UNL     1      -9.912   6.782  74.398  1.00  0.00    -0.350 OA 
HETATM   33  H   UNL     1      -9.024   6.493  74.569  1.00  0.00     0.000 HD 
ENDBRANCH  12  23
TORSDOF 1
ENDMDL
MODEL      141
REMARK 921   NORMALIZED FREE ENERGY PREDICTED BY IDOCK:   36.30 KCAL/MOL
REMARK 922        TOTAL FREE ENERGY PREDICTED BY IDOCK:   37.99 KCAL/MOL
REMARK 923 INTER-LIGAND FREE ENERGY PREDICTED BY IDOCK:   20.03 KCAL/MOL
REMARK 924 INTRA-LIGAND FREE ENERGY PREDICTED BY IDOCK:   17.96 KCAL/MOL
REMARK 927      BINDING AFFINITY PREDICTED BY RF-SCORE:    0.00 PKD
ROOT
HETATM    1  C   UNL     1      -8.575  11.635  70.423  1.00  0.00     4.232 C  
HETATM    2  C   UNL     1      -8.887  10.111  70.769  1.00  0.00     1.096 C  
HETATM    3  C   UNL     1      -8.069  11.678  68.981  1.00  0.00     0.078 C  
HETATM    4  C   UNL     1      -9.488   9.802  72.147  1.00  0.00     2.827 C  
HETATM    5  C   UNL     1      -7.632   9.252  70.726  1.00  0.00    -0.154 C  
HETATM    6  C   UNL     1      -9.318  11.819  68.132  1.00  0.00    -0.190 C  
HETATM    7  C   UNL     1     -10.504  12.256  69.038  1.00  0.00    -0.049 C  
HETATM    8  C   UNL     1      -7.513   8.117  70.013  1.00  0.00    -0.065 C  
HETATM    9  C   UNL     1      -6.334   7.163  70.154  1.00  0.00    -0.031 C  
HETATM   10  C   UNL     1     -11.352  13.325  68.323  1.00  0.00    -0.335 C  
HETATM   11  C   UNL     1      -6.773   5.748  70.658  1.00  0.00    -0.052 C  
HETATM   12  C   UNL     1     -11.622  13.410  66.994  1.00  0.00    -0.396 C  
HETATM   13  C   UNL     1      -5.564   7.139  68.831  1.00  0.00    -0.018 C  
HETATM   14  C   UNL     1     -11.860  14.400  69.249  1.00  0.00    -0.365 C  
HETATM   15  C   UNL     1      -7.626   5.832  71.935  1.00  0.00    -0.097 C  
HETATM   16  C   UNL     1      -5.555   4.860  70.952  1.00  0.00    -0.012 C  
HETATM   17  C   UNL     1     -10.551  12.565  71.726  1.00  0.00     9.133 C  
HETATM   18  C   UNL     1     -10.749  15.039  70.094  1.00  0.00    -0.183 C  
HETATM   19  O   UNL     1      -7.576   5.081  69.675  1.00  0.00    -0.056 OA 
HETATM   20  C   UNL     1      -9.790  12.664  70.388  1.00  0.00     4.586 C  
HETATM   21  C   UNL     1      -9.456  14.183  70.241  1.00  0.00     2.080 C  
HETATM   22  H   UNL     1      -7.842   4.222  69.981  1.00  0.00     0.000 HD 
ENDROOT
BRANCH  12  23
HETATM   23  C   UNL     1     -11.286  12.429  65.980  1.00  0.00    -0.397 C  
HETATM   24  C   UNL     1     -10.068  11.967  65.629  1.00  0.00    -0.274 C  
HETATM   25  C   UNL     1      -7.953  11.181  66.771  1.00  0.00    -0.156 C  
HETATM   26  C   UNL     1      -8.735  12.388  66.214  1.00  0.00     0.099 C  
HETATM   27  O   UNL     1      -8.558  10.694  67.975  1.00  0.00    -0.118 OA 
HETATM   28  C   UNL     1      -7.839  10.036  65.766  1.00  0.00    -0.128 C  
HETATM   29  C   UNL     1      -9.198   9.633  65.197  1.00  0.00    -0.246 C  
HETATM   30  H   UNL     1      -8.077   9.951  68.318  1.00  0.00     0.000 HD 
HETATM   31  C   UNL     1      -9.933  10.847  64.606  1.00  0.00    -0.369 C  
HETATM   32  O   UNL     1      -9.014   8.655  64.187  1.00  0.00    -0.412 OA 
HETATM   33  H   UNL     1      -9.859   8.404  63.833  1.00  0.00     0.000 HD 
ENDBRANCH  12  23
TORSDOF 1
ENDMDL
MODEL      142
REMARK 921   NORMALIZED FREE ENERGY PREDICTED BY IDOCK:   37.30 KCAL/MOL
REMARK 922        TOTAL FREE ENERGY PREDICTED BY IDOCK:   39.04 KCAL/MOL
REMARK 923 INTER-LIGAND FREE ENERGY PREDICTED BY IDOCK:   25.94 KCAL/MOL
REMARK 924 INTRA-LIGAND FREE ENERGY PREDICTED BY IDOCK:   13.10 KCAL/MOL
REMARK 927      BINDING AFFINITY PREDICTED BY RF-SCORE:    0.00 PKD
ROOT
HETATM    1  C   UNL     1      -9.732  11.938  68.762  1.00  0.00    -0.051 C  
HETATM    2  C   UNL     1     -10.163  10.959  69.943  1.00  0.00     0.222 C  
HETATM    3  C   UNL     1      -9.054  11.084  67.690  1.00  0.00    -0.145 C  
HETATM    4  C   UNL     1     -10.940  11.563  71.121  1.00  0.00     2.814 C  
HETATM    5  C   UNL     1      -8.959  10.308  70.608  1.00  0.00     1.123 C  
HETATM    6  C   UNL     1     -10.183  10.617  66.791  1.00  0.00    -0.284 C  
HETATM    7  C   UNL     1     -11.444  11.483  67.064  1.00  0.00    -0.290 C  
HETATM    8  C   UNL     1      -8.814   8.982  70.786  1.00  0.00    -0.281 C  
HETATM    9  C   UNL     1      -7.713   8.370  71.641  1.00  0.00    -0.140 C  
HETATM   10  C   UNL     1     -12.144  11.836  65.738  1.00  0.00     0.389 C  
HETATM   11  C   UNL     1      -8.283   7.570  72.860  1.00  0.00    -0.118 C  
HETATM   12  C   UNL     1     -12.247  11.059  64.628  1.00  0.00     1.807 C  
HETATM   13  C   UNL     1      -6.792   7.547  70.736  1.00  0.00    -0.047 C  
HETATM   14  C   UNL     1     -12.702  13.236  65.712  1.00  0.00    -0.300 C  
HETATM   15  C   UNL     1      -9.278   8.408  73.681  1.00  0.00     0.112 C  
HETATM   16  C   UNL     1      -7.157   7.108  73.796  1.00  0.00    -0.084 C  
HETATM   17  C   UNL     1     -11.799  13.410  68.931  1.00  0.00    -0.373 C  
HETATM   18  C   UNL     1     -11.668  14.302  66.102  1.00  0.00    -0.397 C  
HETATM   19  O   UNL     1      -8.996   6.407  72.420  1.00  0.00    -0.135 OA 
HETATM   20  C   UNL     1     -10.878  12.673  67.937  1.00  0.00    -0.244 C  
HETATM   21  C   UNL     1     -10.449  13.774  66.915  1.00  0.00    -0.272 C  
HETATM   22  H   UNL     1      -9.341   5.921  73.160  1.00  0.00     0.000 HD 
ENDROOT
BRANCH  12  23
HETATM   23  C   UNL     1     -11.843   9.672  64.505  1.00  0.00     8.753 C  
HETATM   24  C   UNL     1     -11.076   8.942  65.342  1.00  0.00     4.727 C  
HETATM   25  C   UNL     1     -10.848   8.555  67.830  1.00  0.00     0.024 C  
HETATM   26  C   UNL     1     -10.426   9.419  66.625  1.00  0.00    -0.238 C  
HETATM   27  O   UNL     1     -12.212   8.809  68.187  1.00  0.00     2.583 OA 
HETATM   28  C   UNL     1     -10.663   7.059  67.578  1.00  0.00    -0.352 C  
HETATM   29  C   UNL     1     -11.331   6.608  66.279  1.00  0.00     1.470 C  
HETATM   30  H   UNL     1     -12.472   8.276  68.929  1.00  0.00     0.000 HD 
HETATM   31  C   UNL     1     -10.855   7.457  65.089  1.00  0.00     6.379 C  
HETATM   32  O   UNL     1     -11.023   5.245  66.041  1.00  0.00    -0.713 OA 
HETATM   33  H   UNL     1     -11.438   4.965  65.234  1.00  0.00     0.000 HD 
ENDBRANCH  12  23
TORSDOF 1
ENDMDL
MODEL      143
REMARK 921   NORMALIZED FREE ENERGY PREDICTED BY IDOCK:   38.70 KCAL/MOL
REMARK 922        TOTAL FREE ENERGY PREDICTED BY IDOCK:   40.52 KCAL/MOL
REMARK 923 INTER-LIGAND FREE ENERGY PREDICTED BY IDOCK:   41.08 KCAL/MOL
REMARK 924 INTRA-LIGAND FREE ENERGY PREDICTED BY IDOCK:   -0.55 KCAL/MOL
REMARK 927      BINDING AFFINITY PREDICTED BY RF-SCORE:    0.00 PKD
ROOT
HETATM    1  C   UNL     1      -9.120   7.802  72.652  1.00  0.00    -0.228 C  
HETATM    2  C   UNL     1      -7.775   8.642  72.496  1.00  0.00    -0.007 C  
HETATM    3  C   UNL     1     -10.119   8.352  71.633  1.00  0.00    -0.308 C  
HETATM    4  C   UNL     1      -6.575   8.233  73.361  1.00  0.00    -0.130 C  
HETATM    5  C   UNL     1      -7.980  10.109  72.842  1.00  0.00     6.061 C  
HETATM    6  C   UNL     1      -9.859   7.561  70.365  1.00  0.00    -0.183 C  
HETATM    7  C   UNL     1      -9.018   6.301  70.713  1.00  0.00    -0.144 C  
HETATM    8  C   UNL     1      -7.638  11.134  72.039  1.00  0.00     8.622 C  
HETATM    9  C   UNL     1      -7.651  12.588  72.491  1.00  0.00    13.554 C  
HETATM   10  C   UNL     1      -9.544   5.080  69.934  1.00  0.00    -0.246 C  
HETATM   11  C   UNL     1      -6.228  13.238  72.439  1.00  0.00     2.080 C  
HETATM   12  C   UNL     1     -10.055   5.063  68.675  1.00  0.00    -0.191 C  
HETATM   13  C   UNL     1      -8.708  13.343  71.680  1.00  0.00    12.950 C  
HETATM   14  C   UNL     1      -9.516   3.804  70.736  1.00  0.00    -0.236 C  
HETATM   15  C   UNL     1      -5.182  12.393  73.185  1.00  0.00     0.552 C  
HETATM   16  C   UNL     1      -6.237  14.645  73.055  1.00  0.00     0.863 C  
HETATM   17  C   UNL     1      -7.947   5.589  73.094  1.00  0.00    -0.104 C  
HETATM   18  C   UNL     1     -10.206   3.937  72.100  1.00  0.00    -0.196 C  
HETATM   19  O   UNL     1      -5.768  13.354  71.085  1.00  0.00    -0.214 OA 
HETATM   20  C   UNL     1      -9.086   6.251  72.291  1.00  0.00    -0.140 C  
HETATM   21  C   UNL     1     -10.348   5.396  72.629  1.00  0.00    -0.246 C  
HETATM   22  H   UNL     1      -4.904  13.749  71.054  1.00  0.00     0.000 HD 
ENDROOT
BRANCH  12  23
HETATM   23  C   UNL     1     -10.083   6.171  67.740  1.00  0.00    -0.177 C  
HETATM   24  C   UNL     1      -9.044   6.816  67.170  1.00  0.00    -0.130 C  
HETATM   25  C   UNL     1      -6.842   6.235  66.070  1.00  0.00    -0.057 C  
HETATM   26  C   UNL     1      -7.570   6.540  67.394  1.00  0.00    -0.100 C  
HETATM   27  O   UNL     1      -7.216   4.947  65.568  1.00  0.00    -0.069 OA 
HETATM   28  C   UNL     1      -7.103   7.290  64.995  1.00  0.00    -0.064 C  
HETATM   29  C   UNL     1      -8.596   7.544  64.791  1.00  0.00     0.186 C  
HETATM   30  H   UNL     1      -6.768   4.758  64.752  1.00  0.00     0.000 HD 
HETATM   31  C   UNL     1      -9.286   7.892  66.120  1.00  0.00    -0.208 C  
HETATM   32  O   UNL     1      -8.769   8.612  63.874  1.00  0.00    -0.412 OA 
HETATM   33  H   UNL     1      -9.697   8.770  63.747  1.00  0.00     0.000 HD 
ENDBRANCH  12  23
TORSDOF 1
ENDMDL
MODEL      144
REMARK 921   NORMALIZED FREE ENERGY PREDICTED BY IDOCK:   41.74 KCAL/MOL
REMARK 922        TOTAL FREE ENERGY PREDICTED BY IDOCK:   43.75 KCAL/MOL
REMARK 923 INTER-LIGAND FREE ENERGY PREDICTED BY IDOCK:   44.37 KCAL/MOL
REMARK 924 INTRA-LIGAND FREE ENERGY PREDICTED BY IDOCK:   -0.62 KCAL/MOL
REMARK 927      BINDING AFFINITY PREDICTED BY RF-SCORE:    0.00 PKD
ROOT
HETATM    1  C   UNL     1      -6.383   7.577  69.843  1.00  0.00    -0.027 C  
HETATM    2  C   UNL     1      -7.230   7.333  68.516  1.00  0.00    -0.094 C  
HETATM    3  C   UNL     1      -5.866   9.015  69.792  1.00  0.00    -0.032 C  
HETATM    4  C   UNL     1      -7.931   5.976  68.358  1.00  0.00    -0.107 C  
HETATM    5  C   UNL     1      -6.368   7.437  67.267  1.00  0.00    -0.055 C  
HETATM    6  C   UNL     1      -6.963   9.848  70.428  1.00  0.00    -0.145 C  
HETATM    7  C   UNL     1      -7.930   8.912  71.204  1.00  0.00    -0.181 C  
HETATM    8  C   UNL     1      -6.651   8.224  66.213  1.00  0.00    -0.050 C  
HETATM    9  C   UNL     1      -5.898   8.151  64.891  1.00  0.00    -0.045 C  
HETATM   10  C   UNL     1      -8.322   9.550  72.550  1.00  0.00     2.222 C  
HETATM   11  C   UNL     1      -6.827   7.741  63.700  1.00  0.00    -0.063 C  
HETATM   12  C   UNL     1      -8.516  10.869  72.811  1.00  0.00    14.078 C  
HETATM   13  C   UNL     1      -5.161   9.476  64.675  1.00  0.00    -0.050 C  
HETATM   14  C   UNL     1      -8.428   8.553  73.675  1.00  0.00    -0.028 C  
HETATM   15  C   UNL     1      -7.619   6.459  64.005  1.00  0.00    -0.099 C  
HETATM   16  C   UNL     1      -6.017   7.511  62.416  1.00  0.00    -0.059 C  
HETATM   17  C   UNL     1      -7.919   6.209  71.339  1.00  0.00    -0.113 C  
HETATM   18  C   UNL     1      -7.179   7.672  73.816  1.00  0.00    -0.126 C  
HETATM   19  O   UNL     1      -7.796   8.764  63.431  1.00  0.00    -0.132 OA 
HETATM   20  C   UNL     1      -7.146   7.540  71.241  1.00  0.00    -0.058 C  
HETATM   21  C   UNL     1      -6.284   7.586  72.543  1.00  0.00    -0.047 C  
HETATM   22  H   UNL     1      -8.360   8.515  62.709  1.00  0.00     0.000 HD 
ENDROOT
BRANCH  12  23
HETATM   23  C   UNL     1      -8.534  11.948  71.842  1.00  0.00    16.476 C  
HETATM   24  C   UNL     1      -9.449  12.199  70.882  1.00  0.00     8.765 C  
HETATM   25  C   UNL     1     -11.966  12.245  70.647  1.00  0.00    -0.123 C  
HETATM   26  C   UNL     1     -10.689  11.384  70.574  1.00  0.00     1.408 C  
HETATM   27  O   UNL     1     -12.276  12.581  72.004  1.00  0.00     0.354 OA 
HETATM   28  C   UNL     1     -11.864  13.526  69.820  1.00  0.00    -0.395 C  
HETATM   29  C   UNL     1     -10.606  14.326  70.155  1.00  0.00     0.457 C  
HETATM   30  H   UNL     1     -13.063  13.111  72.049  1.00  0.00     0.000 HD 
HETATM   31  C   UNL     1      -9.345  13.456  70.028  1.00  0.00     2.862 C  
HETATM   32  O   UNL     1     -10.506  15.434  69.277  1.00  0.00    -0.224 OA 
HETATM   33  H   UNL     1      -9.724  15.932  69.485  1.00  0.00     0.000 HD 
ENDBRANCH  12  23
TORSDOF 1
ENDMDL
MODEL      145
REMARK 921   NORMALIZED FREE ENERGY PREDICTED BY IDOCK:   48.19 KCAL/MOL
REMARK 922        TOTAL FREE ENERGY PREDICTED BY IDOCK:   50.57 KCAL/MOL
REMARK 923 INTER-LIGAND FREE ENERGY PREDICTED BY IDOCK:   45.49 KCAL/MOL
REMARK 924 INTRA-LIGAND FREE ENERGY PREDICTED BY IDOCK:    5.08 KCAL/MOL
REMARK 927      BINDING AFFINITY PREDICTED BY RF-SCORE:    0.00 PKD
ROOT
HETATM    1  C   UNL     1      -6.383   7.577  69.843  1.00  0.00    -0.027 C  
HETATM    2  C   UNL     1      -7.239   7.395  68.512  1.00  0.00    -0.087 C  
HETATM    3  C   UNL     1      -5.882   9.022  69.866  1.00  0.00    -0.031 C  
HETATM    4  C   UNL     1      -7.926   6.041  68.286  1.00  0.00    -0.106 C  
HETATM    5  C   UNL     1      -6.389   7.576  67.263  1.00  0.00    -0.053 C  
HETATM    6  C   UNL     1      -6.983   9.807  70.554  1.00  0.00    -0.131 C  
HETATM    7  C   UNL     1      -7.933   8.818  71.287  1.00  0.00    -0.176 C  
HETATM    8  C   UNL     1      -6.690   8.416  66.255  1.00  0.00    -0.065 C  
HETATM    9  C   UNL     1      -5.947   8.423  64.925  1.00  0.00    -0.052 C  
HETATM   10  C   UNL     1      -8.320   9.379  72.669  1.00  0.00     1.844 C  
HETATM   11  C   UNL     1      -6.882   8.068  63.722  1.00  0.00    -0.074 C  
HETATM   12  C   UNL     1      -8.526  10.680  73.002  1.00  0.00    12.189 C  
HETATM   13  C   UNL     1      -5.227   9.766  64.775  1.00  0.00    -0.055 C  
HETATM   14  C   UNL     1      -8.405   8.321  73.738  1.00  0.00    -0.265 C  
HETATM   15  C   UNL     1      -7.658   6.762  63.963  1.00  0.00    -0.108 C  
HETATM   16  C   UNL     1      -6.080   7.917  62.421  1.00  0.00    -0.073 C  
HETATM   17  C   UNL     1      -7.891   6.113  71.275  1.00  0.00    -0.111 C  
HETATM   18  C   UNL     1      -7.145   7.448  73.821  1.00  0.00    -0.096 C  
HETATM   19  O   UNL     1      -7.865   9.092  63.517  1.00  0.00    -0.120 OA 
HETATM   20  C   UNL     1      -7.133   7.456  71.243  1.00  0.00    -0.063 C  
HETATM   21  C   UNL     1      -6.260   7.441  72.539  1.00  0.00    -0.050 C  
HETATM   22  H   UNL     1      -8.432   8.876  62.786  1.00  0.00     0.000 HD 
ENDROOT
BRANCH  12  23
HETATM   23  C   UNL     1      -8.564  11.809  72.093  1.00  0.00    18.369 C  
HETATM   24  C   UNL     1      -7.537  12.553  71.632  1.00  0.00     9.795 C  
HETATM   25  C   UNL     1      -5.207  12.185  70.721  1.00  0.00    -0.145 C  
HETATM   26  C   UNL     1      -6.071  12.390  71.981  1.00  0.00     2.279 C  
HETATM   27  O   UNL     1      -5.427  10.886  70.159  1.00  0.00    -0.055 OA 
HETATM   28  C   UNL     1      -5.461  13.246  69.651  1.00  0.00    -0.094 C  
HETATM   29  C   UNL     1      -6.946  13.385  69.320  1.00  0.00     0.006 C  
HETATM   30  H   UNL     1      -4.896  10.759  69.382  1.00  0.00     0.000 HD 
HETATM   31  C   UNL     1      -7.776  13.636  70.589  1.00  0.00     3.134 C  
HETATM   32  O   UNL     1      -7.127  14.461  68.415  1.00  0.00    -0.091 OA 
HETATM   33  H   UNL     1      -8.050  14.548  68.209  1.00  0.00     0.000 HD 
ENDBRANCH  12  23
TORSDOF 1
ENDMDL
MODEL      146
REMARK 921   NORMALIZED FREE ENERGY PREDICTED BY IDOCK:   48.37 KCAL/MOL
REMARK 922        TOTAL FREE ENERGY PREDICTED BY IDOCK:   50.76 KCAL/MOL
REMARK 923 INTER-LIGAND FREE ENERGY PREDICTED BY IDOCK:   50.92 KCAL/MOL
REMARK 924 INTRA-LIGAND FREE ENERGY PREDICTED BY IDOCK:   -0.16 KCAL/MOL
REMARK 927      BINDING AFFINITY PREDICTED BY RF-SCORE:    0.00 PKD
ROOT
HETATM    1  C   UNL     1      -8.096  10.137  68.009  1.00  0.00    -0.112 C  
HETATM    2  C   UNL     1      -9.373  10.925  67.472  1.00  0.00    -0.164 C  
HETATM    3  C   UNL     1      -7.378  11.058  68.996  1.00  0.00    -0.123 C  
HETATM    4  C   UNL     1     -10.316  10.184  66.515  1.00  0.00    -0.270 C  
HETATM    5  C   UNL     1      -8.982  12.172  66.692  1.00  0.00    -0.198 C  
HETATM    6  C   UNL     1      -8.025  10.773  70.338  1.00  0.00     1.415 C  
HETATM    7  C   UNL     1      -8.822   9.442  70.248  1.00  0.00    -0.269 C  
HETATM    8  C   UNL     1      -9.460  13.405  66.944  1.00  0.00    -0.253 C  
HETATM    9  C   UNL     1      -9.227  14.595  66.022  1.00  0.00    -0.139 C  
HETATM   10  C   UNL     1      -8.612   8.610  71.527  1.00  0.00    -0.256 C  
HETATM   11  C   UNL     1     -10.563  15.165  65.440  1.00  0.00    -0.391 C  
HETATM   12  C   UNL     1      -8.466   9.071  72.796  1.00  0.00     0.713 C  
HETATM   13  C   UNL     1      -8.382  15.632  66.767  1.00  0.00    -0.313 C  
HETATM   14  C   UNL     1      -8.507   7.130  71.264  1.00  0.00    -0.113 C  
HETATM   15  C   UNL     1     -11.421  14.067  64.789  1.00  0.00    -0.371 C  
HETATM   16  C   UNL     1     -10.292  16.250  64.387  1.00  0.00     1.444 C  
HETATM   17  C   UNL     1      -9.251   7.873  68.085  1.00  0.00    -0.136 C  
HETATM   18  C   UNL     1      -7.464   6.783  70.192  1.00  0.00    -0.094 C  
HETATM   19  O   UNL     1     -11.365  15.748  66.476  1.00  0.00    -0.076 OA 
HETATM   20  C   UNL     1      -8.332   8.824  68.878  1.00  0.00    -0.127 C  
HETATM   21  C   UNL     1      -7.085   7.953  69.236  1.00  0.00    -0.071 C  
HETATM   22  H   UNL     1     -12.176  16.094  66.122  1.00  0.00     0.000 HD 
ENDROOT
BRANCH  12  23
HETATM   23  C   UNL     1      -8.619  10.444  73.239  1.00  0.00    10.377 C  
HETATM   24  C   UNL     1      -7.661  11.318  73.612  1.00  0.00    12.839 C  
HETATM   25  C   UNL     1      -5.381  12.065  72.813  1.00  0.00     0.802 C  
HETATM   26  C   UNL     1      -6.169  11.058  73.674  1.00  0.00     2.983 C  
HETATM   27  O   UNL     1      -5.574  11.804  71.418  1.00  0.00    -0.374 OA 
HETATM   28  C   UNL     1      -5.755  13.517  73.111  1.00  0.00     0.421 C  
HETATM   29  C   UNL     1      -7.264  13.748  73.038  1.00  0.00     5.684 C  
HETATM   30  H   UNL     1      -5.089  12.424  70.888  1.00  0.00     0.000 HD 
HETATM   31  C   UNL     1      -8.020  12.760  73.942  1.00  0.00    13.105 C  
HETATM   32  O   UNL     1      -7.556  15.076  73.439  1.00  0.00     4.985 OA 
HETATM   33  H   UNL     1      -8.494  15.219  73.393  1.00  0.00     0.000 HD 
ENDBRANCH  12  23
TORSDOF 1
ENDMDL
MODEL      147
REMARK 921   NORMALIZED FREE ENERGY PREDICTED BY IDOCK:   50.60 KCAL/MOL
REMARK 922        TOTAL FREE ENERGY PREDICTED BY IDOCK:   53.12 KCAL/MOL
REMARK 923 INTER-LIGAND FREE ENERGY PREDICTED BY IDOCK:   52.74 KCAL/MOL
REMARK 924 INTRA-LIGAND FREE ENERGY PREDICTED BY IDOCK:    0.37 KCAL/MOL
REMARK 927      BINDING AFFINITY PREDICTED BY RF-SCORE:    0.00 PKD
ROOT
HETATM    1  C   UNL     1      -8.413  12.395  67.402  1.00  0.00    -0.179 C  
HETATM    2  C   UNL     1      -7.440  11.172  67.713  1.00  0.00    -0.095 C  
HETATM    3  C   UNL     1      -8.970  12.883  68.739  1.00  0.00     0.175 C  
HETATM    4  C   UNL     1      -6.684  10.544  66.534  1.00  0.00    -0.105 C  
HETATM    5  C   UNL     1      -8.187   9.996  68.325  1.00  0.00    -0.106 C  
HETATM    6  C   UNL     1      -7.964  13.906  69.232  1.00  0.00     0.306 C  
HETATM    7  C   UNL     1      -7.042  14.324  68.052  1.00  0.00    -0.145 C  
HETATM    8  C   UNL     1      -7.834   9.386  69.472  1.00  0.00    -0.091 C  
HETATM    9  C   UNL     1      -8.460   8.083  69.951  1.00  0.00    -0.126 C  
HETATM   10  C   UNL     1      -6.797  15.845  68.083  1.00  0.00    -0.129 C  
HETATM   11  C   UNL     1      -7.412   6.925  70.055  1.00  0.00    -0.093 C  
HETATM   12  C   UNL     1      -6.670  16.637  69.179  1.00  0.00    -0.217 C  
HETATM   13  C   UNL     1      -9.216   8.354  71.254  1.00  0.00    -0.228 C  
HETATM   14  C   UNL     1      -6.762  16.470  66.712  1.00  0.00    -0.202 C  
HETATM   15  C   UNL     1      -6.610   6.757  68.754  1.00  0.00    -0.051 C  
HETATM   16  C   UNL     1      -8.093   5.586  70.375  1.00  0.00    -0.103 C  
HETATM   17  C   UNL     1      -6.978  13.346  65.530  1.00  0.00     7.806 C  
HETATM   18  C   UNL     1      -7.990  16.118  65.860  1.00  0.00     0.652 C  
HETATM   19  O   UNL     1      -6.456   7.191  71.090  1.00  0.00    -0.043 OA 
HETATM   20  C   UNL     1      -7.781  13.723  66.791  1.00  0.00     0.596 C  
HETATM   21  C   UNL     1      -8.760  14.841  66.308  1.00  0.00     0.062 C  
HETATM   22  H   UNL     1      -5.821   6.488  71.154  1.00  0.00     0.000 HD 
ENDROOT
BRANCH  12  23
HETATM   23  C   UNL     1      -6.598  16.197  70.559  1.00  0.00     0.748 C  
HETATM   24  C   UNL     1      -7.562  16.230  71.503  1.00  0.00     6.208 C  
HETATM   25  C   UNL     1     -10.025  15.694  71.696  1.00  0.00     2.553 C  
HETATM   26  C   UNL     1      -8.971  16.762  71.343  1.00  0.00     7.629 C  
HETATM   27  O   UNL     1     -10.077  14.677  70.688  1.00  0.00    -0.005 OA 
HETATM   28  C   UNL     1      -9.775  15.044  73.056  1.00  0.00     6.607 C  
HETATM   29  C   UNL     1      -8.347  14.515  73.186  1.00  0.00     8.857 C  
HETATM   30  H   UNL     1     -10.726  14.019  70.906  1.00  0.00     0.000 HD 
HETATM   31  C   UNL     1      -7.319  15.614  72.874  1.00  0.00     8.108 C  
HETATM   32  O   UNL     1      -8.142  14.035  74.504  1.00  0.00     4.353 OA 
HETATM   33  H   UNL     1      -7.255  13.706  74.585  1.00  0.00     0.000 HD 
ENDBRANCH  12  23
TORSDOF 1
ENDMDL
MODEL      148
REMARK 921   NORMALIZED FREE ENERGY PREDICTED BY IDOCK:   52.56 KCAL/MOL
REMARK 922        TOTAL FREE ENERGY PREDICTED BY IDOCK:   55.20 KCAL/MOL
REMARK 923 INTER-LIGAND FREE ENERGY PREDICTED BY IDOCK:   39.88 KCAL/MOL
REMARK 924 INTRA-LIGAND FREE ENERGY PREDICTED BY IDOCK:   15.32 KCAL/MOL
REMARK 927      BINDING AFFINITY PREDICTED BY RF-SCORE:    0.00 PKD
ROOT
HETATM    1  C   UNL     1      -8.846   8.301  70.877  1.00  0.00    -0.171 C  
HETATM    2  C   UNL     1      -9.637   7.339  69.884  1.00  0.00    -0.163 C  
HETATM    3  C   UNL     1      -7.432   8.466  70.319  1.00  0.00    -0.063 C  
HETATM    4  C   UNL     1     -11.119   7.072  70.180  1.00  0.00    -0.323 C  
HETATM    5  C   UNL     1      -9.026   5.945  69.839  1.00  0.00    -0.144 C  
HETATM    6  C   UNL     1      -7.522   9.644  69.368  1.00  0.00    -0.093 C  
HETATM    7  C   UNL     1      -8.838  10.423  69.643  1.00  0.00    -0.049 C  
HETATM    8  C   UNL     1      -8.663   5.312  68.709  1.00  0.00    -0.093 C  
HETATM    9  C   UNL     1      -8.259   3.844  68.668  1.00  0.00    -0.083 C  
HETATM   10  C   UNL     1      -8.579  11.940  69.588  1.00  0.00     1.524 C  
HETATM   11  C   UNL     1      -9.223   2.988  67.781  1.00  0.00    -0.199 C  
HETATM   12  C   UNL     1      -7.717  12.600  68.771  1.00  0.00     0.007 C  
HETATM   13  C   UNL     1      -6.788   3.753  68.251  1.00  0.00    -0.047 C  
HETATM   14  C   UNL     1      -9.355  12.715  70.622  1.00  0.00     7.465 C  
HETATM   15  C   UNL     1     -10.696   3.189  68.175  1.00  0.00     3.905 C  
HETATM   16  C   UNL     1      -8.897   1.491  67.891  1.00  0.00    -0.139 C  
HETATM   17  C   UNL     1     -10.839   9.806  71.358  1.00  0.00    -0.180 C  
HETATM   18  C   UNL     1      -9.174  12.168  72.044  1.00  0.00    19.915 C  
HETATM   19  O   UNL     1      -9.117   3.361  66.401  1.00  0.00    -0.141 OA 
HETATM   20  C   UNL     1      -9.336   9.811  71.013  1.00  0.00     0.369 C  
HETATM   21  C   UNL     1      -8.684  10.691  72.126  1.00  0.00     9.361 C  
HETATM   22  H   UNL     1      -9.701   2.842  65.863  1.00  0.00     0.000 HD 
ENDROOT
BRANCH  12  23
HETATM   23  C   UNL     1      -6.959  12.030  67.675  1.00  0.00    -0.118 C  
HETATM   24  C   UNL     1      -6.648  10.735  67.452  1.00  0.00    -0.071 C  
HETATM   25  C   UNL     1      -7.794   8.483  67.536  1.00  0.00    -0.099 C  
HETATM   26  C   UNL     1      -7.011   9.551  68.325  1.00  0.00    -0.070 C  
HETATM   27  O   UNL     1      -9.121   8.936  67.245  1.00  0.00    -0.132 OA 
HETATM   28  C   UNL     1      -7.101   8.085  66.233  1.00  0.00    -0.066 C  
HETATM   29  C   UNL     1      -6.750   9.299  65.374  1.00  0.00    -0.073 C  
HETATM   30  H   UNL     1      -9.604   8.278  66.759  1.00  0.00     0.000 HD 
HETATM   31  C   UNL     1      -5.930  10.324  66.174  1.00  0.00    -0.080 C  
HETATM   32  O   UNL     1      -6.006   8.876  64.244  1.00  0.00    -0.069 OA 
HETATM   33  H   UNL     1      -5.788   9.630  63.710  1.00  0.00     0.000 HD 
ENDBRANCH  12  23
TORSDOF 1
ENDMDL
MODEL      149
REMARK 921   NORMALIZED FREE ENERGY PREDICTED BY IDOCK:   53.74 KCAL/MOL
REMARK 922        TOTAL FREE ENERGY PREDICTED BY IDOCK:   56.44 KCAL/MOL
REMARK 923 INTER-LIGAND FREE ENERGY PREDICTED BY IDOCK:   52.06 KCAL/MOL
REMARK 924 INTRA-LIGAND FREE ENERGY PREDICTED BY IDOCK:    4.38 KCAL/MOL
REMARK 927      BINDING AFFINITY PREDICTED BY RF-SCORE:    0.00 PKD
ROOT
HETATM    1  C   UNL     1      -6.232  12.346  65.436  1.00  0.00     4.817 C  
HETATM    2  C   UNL     1      -6.293  13.814  64.820  1.00  0.00    17.350 C  
HETATM    3  C   UNL     1      -7.319  12.259  66.508  1.00  0.00     0.445 C  
HETATM    4  C   UNL     1      -5.345  14.139  63.657  1.00  0.00    18.824 C  
HETATM    5  C   UNL     1      -5.962  14.878  65.857  1.00  0.00     7.194 C  
HETATM    6  C   UNL     1      -8.566  11.816  65.766  1.00  0.00     0.214 C  
HETATM    7  C   UNL     1      -8.159  11.260  64.372  1.00  0.00     0.762 C  
HETATM    8  C   UNL     1      -6.739  15.943  66.126  1.00  0.00     2.078 C  
HETATM    9  C   UNL     1      -6.289  17.103  67.005  1.00  0.00    -0.220 C  
HETATM   10  C   UNL     1      -8.973   9.993  64.048  1.00  0.00    -0.270 C  
HETATM   11  C   UNL     1      -6.241  18.457  66.221  1.00  0.00    -0.191 C  
HETATM   12  C   UNL     1     -10.265   9.736  64.381  1.00  0.00     0.828 C  
HETATM   13  C   UNL     1      -7.173  17.141  68.254  1.00  0.00    -0.204 C  
HETATM   14  C   UNL     1      -8.172   8.937  63.332  1.00  0.00    -0.181 C  
HETATM   15  C   UNL     1      -5.423  18.342  64.924  1.00  0.00    -0.105 C  
HETATM   16  C   UNL     1      -5.627  19.574  67.078  1.00  0.00    -0.170 C  
HETATM   17  C   UNL     1      -5.709  11.202  63.226  1.00  0.00     0.454 C  
HETATM   18  C   UNL     1      -6.859   8.591  64.049  1.00  0.00    -0.075 C  
HETATM   19  O   UNL     1      -7.558  18.873  65.836  1.00  0.00    -0.402 OA 
HETATM   20  C   UNL     1      -6.590  11.117  64.489  1.00  0.00     1.036 C  
HETATM   21  C   UNL     1      -6.341   9.676  65.039  1.00  0.00    -0.089 C  
HETATM   22  H   UNL     1      -7.529  19.695  65.361  1.00  0.00     0.000 HD 
ENDROOT
BRANCH  12  23
HETATM   23  C   UNL     1     -11.200  10.661  64.991  1.00  0.00     0.621 C  
HETATM   24  C   UNL     1     -11.405  10.906  66.303  1.00  0.00     0.240 C  
HETATM   25  C   UNL     1     -10.020  11.280  68.385  1.00  0.00    -0.197 C  
HETATM   26  C   UNL     1     -10.701  10.243  67.470  1.00  0.00    -0.348 C  
HETATM   27  O   UNL     1      -8.868  11.843  67.747  1.00  0.00    -0.153 OA 
HETATM   28  C   UNL     1     -10.963  12.406  68.807  1.00  0.00    -0.287 C  
HETATM   29  C   UNL     1     -11.654  13.056  67.609  1.00  0.00    -0.355 C  
HETATM   30  H   UNL     1      -8.448  12.482  68.310  1.00  0.00     0.000 HD 
HETATM   31  C   UNL     1     -12.364  12.003  66.742  1.00  0.00     0.835 C  
HETATM   32  O   UNL     1     -12.601  14.005  68.070  1.00  0.00    -0.395 OA 
HETATM   33  H   UNL     1     -13.030  14.409  67.325  1.00  0.00     0.000 HD 
ENDBRANCH  12  23
TORSDOF 1
ENDMDL
MODEL      150
REMARK 921   NORMALIZED FREE ENERGY PREDICTED BY IDOCK:   67.16 KCAL/MOL
REMARK 922        TOTAL FREE ENERGY PREDICTED BY IDOCK:   70.65 KCAL/MOL
REMARK 923 INTER-LIGAND FREE ENERGY PREDICTED BY IDOCK:   71.29 KCAL/MOL
REMARK 924 INTRA-LIGAND FREE ENERGY PREDICTED BY IDOCK:   -0.64 KCAL/MOL
REMARK 927      BINDING AFFINITY PREDICTED BY RF-SCORE:    0.00 PKD
ROOT
HETATM    1  C   UNL     1      -8.081   5.466  71.556  1.00  0.00    -0.117 C  
HETATM    2  C   UNL     1      -7.710   6.990  71.835  1.00  0.00    -0.093 C  
HETATM    3  C   UNL     1      -9.252   5.457  70.573  1.00  0.00    -0.183 C  
HETATM    4  C   UNL     1      -6.503   7.276  72.740  1.00  0.00    -0.059 C  
HETATM    5  C   UNL     1      -8.849   7.735  72.516  1.00  0.00    -0.202 C  
HETATM    6  C   UNL     1      -8.610   5.476  69.199  1.00  0.00    -0.104 C  
HETATM    7  C   UNL     1      -7.108   5.098  69.333  1.00  0.00    -0.056 C  
HETATM    8  C   UNL     1      -9.372   8.892  72.072  1.00  0.00    -0.219 C  
HETATM    9  C   UNL     1     -10.357   9.728  72.880  1.00  0.00     4.755 C  
HETATM   10  C   UNL     1      -6.696   4.150  68.190  1.00  0.00    -0.047 C  
HETATM   11  C   UNL     1      -9.791  11.147  73.220  1.00  0.00    18.926 C  
HETATM   12  C   UNL     1      -7.142   4.163  66.907  1.00  0.00    -0.067 C  
HETATM   13  C   UNL     1     -11.697   9.755  72.139  1.00  0.00     0.307 C  
HETATM   14  C   UNL     1      -5.733   3.076  68.626  1.00  0.00    -0.022 C  
HETATM   15  C   UNL     1      -8.401  11.069  73.873  1.00  0.00    14.395 C  
HETATM   16  C   UNL     1     -10.728  11.904  74.173  1.00  0.00    21.837 C  
HETATM   17  C   UNL     1      -5.673   4.647  71.582  1.00  0.00    -0.012 C  
HETATM   18  C   UNL     1      -6.221   2.294  69.854  1.00  0.00    -0.024 C  
HETATM   19  O   UNL     1      -9.640  11.936  72.033  1.00  0.00    13.012 OA 
HETATM   20  C   UNL     1      -7.007   4.554  70.813  1.00  0.00    -0.037 C  
HETATM   21  C   UNL     1      -7.295   3.022  70.716  1.00  0.00    -0.033 C  
HETATM   22  H   UNL     1      -9.297  12.797  72.239  1.00  0.00     0.000 HD 
ENDROOT
BRANCH  12  23
HETATM   23  C   UNL     1      -7.998   5.164  66.300  1.00  0.00    -0.104 C  
HETATM   24  C   UNL     1      -7.701   6.440  65.978  1.00  0.00    -0.093 C  
HETATM   25  C   UNL     1      -5.812   7.713  64.880  1.00  0.00    -0.038 C  
HETATM   26  C   UNL     1      -6.379   7.148  66.197  1.00  0.00    -0.044 C  
HETATM   27  O   UNL     1      -5.340   6.658  64.034  1.00  0.00    -0.025 OA 
HETATM   28  C   UNL     1      -6.830   8.557  64.113  1.00  0.00    -0.075 C  
HETATM   29  C   UNL     1      -8.151   7.816  63.906  1.00  0.00    -0.052 C  
HETATM   30  H   UNL     1      -4.992   7.006  63.222  1.00  0.00     0.000 HD 
HETATM   31  C   UNL     1      -8.714   7.306  65.242  1.00  0.00     0.071 C  
HETATM   32  O   UNL     1      -9.088   8.689  63.299  1.00  0.00    -0.307 OA 
HETATM   33  H   UNL     1      -9.909   8.229  63.170  1.00  0.00     0.000 HD 
ENDBRANCH  12  23
TORSDOF 1
ENDMDL
MODEL      151
REMARK 921   NORMALIZED FREE ENERGY PREDICTED BY IDOCK:   69.96 KCAL/MOL
REMARK 922        TOTAL FREE ENERGY PREDICTED BY IDOCK:   73.62 KCAL/MOL
REMARK 923 INTER-LIGAND FREE ENERGY PREDICTED BY IDOCK:   73.05 KCAL/MOL
REMARK 924 INTRA-LIGAND FREE ENERGY PREDICTED BY IDOCK:    0.56 KCAL/MOL
REMARK 927      BINDING AFFINITY PREDICTED BY RF-SCORE:    0.00 PKD
ROOT
HETATM    1  C   UNL     1      -7.868  12.452  71.883  1.00  0.00    13.216 C  
HETATM    2  C   UNL     1      -9.451  12.277  71.894  1.00  0.00    18.205 C  
HETATM    3  C   UNL     1      -7.369  11.984  70.516  1.00  0.00     2.855 C  
HETATM    4  C   UNL     1     -10.213  12.752  73.139  1.00  0.00    18.179 C  
HETATM    5  C   UNL     1      -9.860  10.817  71.762  1.00  0.00     7.003 C  
HETATM    6  C   UNL     1      -7.436  13.216  69.632  1.00  0.00     0.732 C  
HETATM    7  C   UNL     1      -7.582  14.478  70.527  1.00  0.00     1.125 C  
HETATM    8  C   UNL     1     -10.728  10.352  70.844  1.00  0.00     0.341 C  
HETATM    9  C   UNL     1     -11.287   8.935  70.867  1.00  0.00    -0.336 C  
HETATM   10  C   UNL     1      -6.694  15.616  69.988  1.00  0.00    -0.024 C  
HETATM   11  C   UNL     1     -12.841   8.914  71.046  1.00  0.00    -0.028 C  
HETATM   12  C   UNL     1      -6.416  15.899  68.689  1.00  0.00    -0.113 C  
HETATM   13  C   UNL     1     -10.795   8.196  69.620  1.00  0.00    -0.162 C  
HETATM   14  C   UNL     1      -6.046  16.432  71.077  1.00  0.00     0.931 C  
HETATM   15  C   UNL     1     -13.292   9.751  72.254  1.00  0.00    -0.472 C  
HETATM   16  C   UNL     1     -13.359   7.480  71.235  1.00  0.00    -0.312 C  
HETATM   17  C   UNL     1      -7.878  14.620  73.213  1.00  0.00     7.358 C  
HETATM   18  C   UNL     1      -5.294  15.574  72.104  1.00  0.00     0.250 C  
HETATM   19  O   UNL     1     -13.496   9.470  69.898  1.00  0.00     0.444 OA 
HETATM   20  C   UNL     1      -7.272  13.927  71.976  1.00  0.00     4.526 C  
HETATM   21  C   UNL     1      -5.729  14.080  72.161  1.00  0.00    -0.097 C  
HETATM   22  H   UNL     1     -14.439   9.457  70.006  1.00  0.00     0.000 HD 
ENDROOT
BRANCH  12  23
HETATM   23  C   UNL     1      -7.010  15.275  67.523  1.00  0.00    -0.225 C  
HETATM   24  C   UNL     1      -8.310  15.000  67.288  1.00  0.00    -0.228 C  
HETATM   25  C   UNL     1     -10.551  16.143  67.541  1.00  0.00    -0.314 C  
HETATM   26  C   UNL     1      -9.477  15.267  68.217  1.00  0.00    -0.205 C  
HETATM   27  O   UNL     1     -10.093  17.492  67.398  1.00  0.00    -0.301 OA 
HETATM   28  C   UNL     1     -10.976  15.607  66.175  1.00  0.00    -0.206 C  
HETATM   29  C   UNL     1      -9.779  15.350  65.261  1.00  0.00    -0.110 C  
HETATM   30  H   UNL     1     -10.754  18.031  66.982  1.00  0.00     0.000 HD 
HETATM   31  C   UNL     1      -8.748  14.436  65.943  1.00  0.00     0.836 C  
HETATM   32  O   UNL     1     -10.227  14.744  64.060  1.00  0.00     0.184 OA 
HETATM   33  H   UNL     1      -9.482  14.584  63.491  1.00  0.00     0.000 HD 
ENDBRANCH  12  23
TORSDOF 1
ENDMDL
MODEL      152
REMARK 921   NORMALIZED FREE ENERGY PREDICTED BY IDOCK:   83.70 KCAL/MOL
REMARK 922        TOTAL FREE ENERGY PREDICTED BY IDOCK:   88.16 KCAL/MOL
REMARK 923 INTER-LIGAND FREE ENERGY PREDICTED BY IDOCK:   88.84 KCAL/MOL
REMARK 924 INTRA-LIGAND FREE ENERGY PREDICTED BY IDOCK:   -0.68 KCAL/MOL
REMARK 927      BINDING AFFINITY PREDICTED BY RF-SCORE:    0.00 PKD
ROOT
HETATM    1  C   UNL     1     -11.911  10.726  69.493  1.00  0.00    -0.380 C  
HETATM    2  C   UNL     1     -12.343  12.229  69.187  1.00  0.00     0.110 C  
HETATM    3  C   UNL     1     -10.418  10.742  69.823  1.00  0.00    -0.130 C  
HETATM    4  C   UNL     1     -13.827  12.499  68.901  1.00  0.00     7.866 C  
HETATM    5  C   UNL     1     -11.636  12.783  67.959  1.00  0.00    -0.388 C  
HETATM    6  C   UNL     1     -10.350  10.988  71.318  1.00  0.00     4.061 C  
HETATM    7  C   UNL     1     -11.749  10.724  71.942  1.00  0.00     1.261 C  
HETATM    8  C   UNL     1     -10.948  13.939  67.937  1.00  0.00    -0.265 C  
HETATM    9  C   UNL     1     -10.435  14.580  66.653  1.00  0.00    -0.274 C  
HETATM   10  C   UNL     1     -11.601   9.965  73.275  1.00  0.00     5.653 C  
HETATM   11  C   UNL     1     -11.071  15.988  66.399  1.00  0.00     0.037 C  
HETATM   12  C   UNL     1     -10.612  10.102  74.195  1.00  0.00    15.807 C  
HETATM   13  C   UNL     1      -8.904  14.588  66.689  1.00  0.00    -0.214 C  
HETATM   14  C   UNL     1     -12.674   8.929  73.493  1.00  0.00     2.523 C  
HETATM   15  C   UNL     1     -12.606  15.946  66.471  1.00  0.00     2.500 C  
HETATM   16  C   UNL     1     -10.669  16.538  65.022  1.00  0.00    -0.228 C  
HETATM   17  C   UNL     1     -14.070  10.116  70.690  1.00  0.00     1.120 C  
HETATM   18  C   UNL     1     -12.824   7.961  72.311  1.00  0.00    -0.152 C  
HETATM   19  O   UNL     1     -10.642  16.930  67.391  1.00  0.00    -0.329 OA 
HETATM   20  C   UNL     1     -12.533  10.008  70.771  1.00  0.00    -0.386 C  
HETATM   21  C   UNL     1     -12.259   8.481  70.955  1.00  0.00    -0.190 C  
HETATM   22  H   UNL     1     -11.027  17.784  67.237  1.00  0.00     0.000 HD 
ENDROOT
BRANCH  12  23
HETATM   23  C   UNL     1      -9.556  11.095  74.187  1.00  0.00    20.578 C  
HETATM   24  C   UNL     1      -8.227  10.908  74.046  1.00  0.00    12.260 C  
HETATM   25  C   UNL     1      -6.662   9.557  72.589  1.00  0.00     0.919 C  
HETATM   26  C   UNL     1      -7.510   9.583  73.877  1.00  0.00     1.742 C  
HETATM   27  O   UNL     1      -7.499   9.484  71.429  1.00  0.00    -0.326 OA 
HETATM   28  C   UNL     1      -5.735  10.766  72.468  1.00  0.00     1.030 C  
HETATM   29  C   UNL     1      -6.487  12.085  72.640  1.00  0.00     5.339 C  
HETATM   30  H   UNL     1      -6.976   9.468  70.636  1.00  0.00     0.000 HD 
HETATM   31  C   UNL     1      -7.285  12.100  73.954  1.00  0.00     9.655 C  
HETATM   32  O   UNL     1      -5.560  13.158  72.637  1.00  0.00    -0.360 OA 
HETATM   33  H   UNL     1      -6.027  13.978  72.744  1.00  0.00     0.000 HD 
ENDBRANCH  12  23
TORSDOF 1
ENDMDL
MODEL      153
REMARK 921   NORMALIZED FREE ENERGY PREDICTED BY IDOCK:   87.69 KCAL/MOL
REMARK 922        TOTAL FREE ENERGY PREDICTED BY IDOCK:   92.37 KCAL/MOL
REMARK 923 INTER-LIGAND FREE ENERGY PREDICTED BY IDOCK:   92.79 KCAL/MOL
REMARK 924 INTRA-LIGAND FREE ENERGY PREDICTED BY IDOCK:   -0.42 KCAL/MOL
REMARK 927      BINDING AFFINITY PREDICTED BY RF-SCORE:    0.00 PKD
ROOT
HETATM    1  C   UNL     1     -11.251   8.265  66.202  1.00  0.00     3.067 C  
HETATM    2  C   UNL     1     -10.251   7.619  65.143  1.00  0.00     3.323 C  
HETATM    3  C   UNL     1     -10.409   9.090  67.175  1.00  0.00    -0.342 C  
HETATM    4  C   UNL     1     -10.860   6.796  63.998  1.00  0.00    11.021 C  
HETATM    5  C   UNL     1      -9.279   6.650  65.800  1.00  0.00     0.067 C  
HETATM    6  C   UNL     1     -10.311  10.464  66.540  1.00  0.00    -0.287 C  
HETATM    7  C   UNL     1     -11.390  10.590  65.428  1.00  0.00     0.968 C  
HETATM    8  C   UNL     1      -7.941   6.707  65.663  1.00  0.00    -0.115 C  
HETATM    9  C   UNL     1      -7.005   5.607  66.147  1.00  0.00    -0.060 C  
HETATM   10  C   UNL     1     -12.046  11.983  65.480  1.00  0.00    -0.067 C  
HETATM   11  C   UNL     1      -6.204   4.951  64.973  1.00  0.00    -0.034 C  
HETATM   12  C   UNL     1     -11.451  13.163  65.798  1.00  0.00    -0.355 C  
HETATM   13  C   UNL     1      -6.120   6.174  67.260  1.00  0.00    -0.018 C  
HETATM   14  C   UNL     1     -13.525  11.956  65.194  1.00  0.00     3.380 C  
HETATM   15  C   UNL     1      -7.129   4.487  63.836  1.00  0.00    -0.049 C  
HETATM   16  C   UNL     1      -5.398   3.739  65.461  1.00  0.00    -0.009 C  
HETATM   17  C   UNL     1     -13.103   8.705  64.515  1.00  0.00    22.480 C  
HETATM   18  C   UNL     1     -14.287  10.946  66.064  1.00  0.00    19.192 C  
HETATM   19  O   UNL     1      -5.285   5.887  64.394  1.00  0.00    -0.015 OA 
HETATM   20  C   UNL     1     -12.313   9.332  65.682  1.00  0.00    11.889 C  
HETATM   21  C   UNL     1     -13.412   9.815  66.681  1.00  0.00    18.922 C  
HETATM   22  H   UNL     1      -4.799   5.489  63.682  1.00  0.00     0.000 HD 
ENDROOT
BRANCH  12  23
HETATM   23  C   UNL     1     -10.036  13.384  66.018  1.00  0.00    -0.300 C  
HETATM   24  C   UNL     1      -9.333  14.529  65.885  1.00  0.00    -0.130 C  
HETATM   25  C   UNL     1      -9.582  16.971  66.492  1.00  0.00    -0.278 C  
HETATM   26  C   UNL     1      -9.869  15.876  65.445  1.00  0.00    -0.163 C  
HETATM   27  O   UNL     1     -10.404  16.794  67.652  1.00  0.00    -0.291 OA 
HETATM   28  C   UNL     1      -8.115  17.013  66.916  1.00  0.00    -0.252 C  
HETATM   29  C   UNL     1      -7.605  15.641  67.356  1.00  0.00    -0.198 C  
HETATM   30  H   UNL     1     -10.228  17.468  68.297  1.00  0.00     0.000 HD 
HETATM   31  C   UNL     1      -7.862  14.581  66.273  1.00  0.00     1.586 C  
HETATM   32  O   UNL     1      -6.214  15.719  67.621  1.00  0.00    -0.139 OA 
HETATM   33  H   UNL     1      -5.897  14.867  67.894  1.00  0.00     0.000 HD 
ENDBRANCH  12  23
TORSDOF 1
ENDMDL
MODEL      154
REMARK 921   NORMALIZED FREE ENERGY PREDICTED BY IDOCK:   88.41 KCAL/MOL
REMARK 922        TOTAL FREE ENERGY PREDICTED BY IDOCK:   93.14 KCAL/MOL
REMARK 923 INTER-LIGAND FREE ENERGY PREDICTED BY IDOCK:   85.03 KCAL/MOL
REMARK 924 INTRA-LIGAND FREE ENERGY PREDICTED BY IDOCK:    8.11 KCAL/MOL
REMARK 927      BINDING AFFINITY PREDICTED BY RF-SCORE:    0.00 PKD
ROOT
HETATM    1  C   UNL     1     -11.339  15.591  71.636  1.00  0.00    -0.462 C  
HETATM    2  C   UNL     1     -11.334  14.576  70.408  1.00  0.00    -0.196 C  
HETATM    3  C   UNL     1     -10.004  16.336  71.614  1.00  0.00     3.806 C  
HETATM    4  C   UNL     1     -12.605  13.753  70.159  1.00  0.00    -0.253 C  
HETATM    5  C   UNL     1     -10.248  13.519  70.552  1.00  0.00     3.111 C  
HETATM    6  C   UNL     1     -10.240  17.536  70.717  1.00  0.00     2.325 C  
HETATM    7  C   UNL     1     -11.770  17.738  70.528  1.00  0.00     4.423 C  
HETATM    8  C   UNL     1      -9.330  13.241  69.608  1.00  0.00     1.710 C  
HETATM    9  C   UNL     1      -8.395  12.041  69.681  1.00  0.00     1.478 C  
HETATM   10  C   UNL     1     -12.120  19.237  70.600  1.00  0.00    12.813 C  
HETATM   11  C   UNL     1      -8.616  11.045  68.494  1.00  0.00    -0.158 C  
HETATM   12  C   UNL     1     -11.373  20.280  70.151  1.00  0.00     3.644 C  
HETATM   13  C   UNL     1      -6.956  12.549  69.805  1.00  0.00     0.374 C  
HETATM   14  C   UNL     1     -13.420  19.512  71.310  1.00  0.00    28.430 C  
HETATM   15  C   UNL     1     -10.092  10.641  68.350  1.00  0.00    -0.181 C  
HETATM   16  C   UNL     1      -7.784   9.767  68.680  1.00  0.00    -0.080 C  
HETATM   17  C   UNL     1     -13.801  16.188  71.417  1.00  0.00     1.305 C  
HETATM   18  C   UNL     1     -13.499  18.852  72.694  1.00  0.00    20.195 C  
HETATM   19  O   UNL     1      -8.233  11.641  67.247  1.00  0.00    -0.144 OA 
HETATM   20  C   UNL     1     -12.394  16.784  71.623  1.00  0.00     1.350 C  
HETATM   21  C   UNL     1     -12.525  17.656  72.912  1.00  0.00     3.505 C  
HETATM   22  H   UNL     1      -8.366  11.036  66.527  1.00  0.00     0.000 HD 
ENDROOT
BRANCH  12  23
HETATM   23  C   UNL     1     -10.149  20.196  69.380  1.00  0.00    -0.065 C  
HETATM   24  C   UNL     1      -9.519  19.095  68.919  1.00  0.00    -0.420 C  
HETATM   25  C   UNL     1     -10.123  16.923  67.775  1.00  0.00    -0.292 C  
HETATM   26  C   UNL     1      -9.945  17.655  69.120  1.00  0.00    -0.192 C  
HETATM   27  O   UNL     1     -11.294  17.387  67.093  1.00  0.00     0.244 OA 
HETATM   28  C   UNL     1      -8.912  17.072  66.856  1.00  0.00    -0.248 C  
HETATM   29  C   UNL     1      -8.508  18.535  66.670  1.00  0.00    -0.278 C  
HETATM   30  H   UNL     1     -11.404  16.937  66.265  1.00  0.00     0.000 HD 
HETATM   31  C   UNL     1      -8.292  19.225  68.027  1.00  0.00    -0.350 C  
HETATM   32  O   UNL     1      -7.313  18.600  65.910  1.00  0.00    -0.362 OA 
HETATM   33  H   UNL     1      -7.062  19.509  65.795  1.00  0.00     0.000 HD 
ENDBRANCH  12  23
TORSDOF 1
ENDMDL
MODEL      155
REMARK 921   NORMALIZED FREE ENERGY PREDICTED BY IDOCK:   92.71 KCAL/MOL
REMARK 922        TOTAL FREE ENERGY PREDICTED BY IDOCK:   97.69 KCAL/MOL
REMARK 923 INTER-LIGAND FREE ENERGY PREDICTED BY IDOCK:   98.15 KCAL/MOL
REMARK 924 INTRA-LIGAND FREE ENERGY PREDICTED BY IDOCK:   -0.46 KCAL/MOL
REMARK 927      BINDING AFFINITY PREDICTED BY RF-SCORE:    0.00 PKD
ROOT
HETATM    1  C   UNL     1      -8.089   5.489  71.565  1.00  0.00    -0.118 C  
HETATM    2  C   UNL     1      -7.678   7.011  71.797  1.00  0.00    -0.093 C  
HETATM    3  C   UNL     1      -9.351   5.486  70.702  1.00  0.00    -0.195 C  
HETATM    4  C   UNL     1      -6.386   7.289  72.577  1.00  0.00    -0.051 C  
HETATM    5  C   UNL     1      -8.739   7.770  72.582  1.00  0.00    -0.198 C  
HETATM    6  C   UNL     1      -8.847   5.490  69.272  1.00  0.00    -0.112 C  
HETATM    7  C   UNL     1      -7.342   5.099  69.260  1.00  0.00    -0.058 C  
HETATM    8  C   UNL     1      -9.293   8.930  72.183  1.00  0.00    -0.142 C  
HETATM    9  C   UNL     1     -10.186   9.779  73.078  1.00  0.00     5.443 C  
HETATM   10  C   UNL     1      -7.052   4.140  68.089  1.00  0.00    -0.059 C  
HETATM   11  C   UNL     1      -9.576  11.195  73.352  1.00  0.00    19.623 C  
HETATM   12  C   UNL     1      -7.622   4.150  66.856  1.00  0.00    -0.084 C  
HETATM   13  C   UNL     1     -11.591   9.816  72.471  1.00  0.00     1.445 C  
HETATM   14  C   UNL     1      -6.062   3.059  68.435  1.00  0.00    -0.025 C  
HETATM   15  C   UNL     1      -8.130  11.107  73.866  1.00  0.00    14.075 C  
HETATM   16  C   UNL     1     -10.408  11.966  74.387  1.00  0.00    22.893 C  
HETATM   17  C   UNL     1      -5.698   4.646  71.361  1.00  0.00    -0.012 C  
HETATM   18  C   UNL     1      -6.434   2.289  69.710  1.00  0.00    -0.029 C  
HETATM   19  O   UNL     1      -9.535  11.976  72.150  1.00  0.00    15.075 OA 
HETATM   20  C   UNL     1      -7.102   4.562  70.727  1.00  0.00    -0.041 C  
HETATM   21  C   UNL     1      -7.412   3.032  70.668  1.00  0.00    -0.040 C  
HETATM   22  H   UNL     1      -9.165  12.834  72.317  1.00  0.00     0.000 HD 
ENDROOT
BRANCH  12  23
HETATM   23  C   UNL     1      -8.524   5.156  66.329  1.00  0.00    -0.114 C  
HETATM   24  C   UNL     1      -9.308   5.090  65.233  1.00  0.00    -0.095 C  
HETATM   25  C   UNL     1     -10.871   3.434  64.134  1.00  0.00    -0.040 C  
HETATM   26  C   UNL     1      -9.417   3.930  64.263  1.00  0.00    -0.161 C  
HETATM   27  O   UNL     1     -11.282   2.746  65.321  1.00  0.00     1.662 OA 
HETATM   28  C   UNL     1     -11.857   4.563  63.840  1.00  0.00     2.250 C  
HETATM   29  C   UNL     1     -11.725   5.716  64.834  1.00  0.00     4.134 C  
HETATM   30  H   UNL     1     -12.177   2.440  65.242  1.00  0.00     0.000 HD 
HETATM   31  C   UNL     1     -10.275   6.221  64.907  1.00  0.00     2.795 C  
HETATM   32  O   UNL     1     -12.576   6.778  64.439  1.00  0.00    10.421 OA 
HETATM   33  H   UNL     1     -12.494   7.494  65.058  1.00  0.00     0.000 HD 
ENDBRANCH  12  23
TORSDOF 1
ENDMDL
