MODEL        1
REMARK 921   NORMALIZED FREE ENERGY PREDICTED BY IDOCK:   -8.75 KCAL/MOL
REMARK 922        TOTAL FREE ENERGY PREDICTED BY IDOCK:  -15.39 KCAL/MOL
REMARK 923 INTER-LIGAND FREE ENERGY PREDICTED BY IDOCK:  -13.35 KCAL/MOL
REMARK 924 INTRA-LIGAND FREE ENERGY PREDICTED BY IDOCK:   -2.04 KCAL/MOL
REMARK 927      BINDING AFFINITY PREDICTED BY RF-SCORE:    0.00 PKD
ROOT
HETATM    1  N   UNL     1      -7.960   8.493  73.873  1.00  0.00    -0.404 NA 
HETATM    2  C   UNL     1      -9.174   7.652  73.872  1.00  0.00    -0.247 C  
HETATM    3  H1  UNL     1      -7.623   8.613  74.828  1.00  0.00     0.000 HD 
HETATM    4  H2  UNL     1      -8.113   9.387  73.405  1.00  0.00     0.000 HD 
ENDROOT
BRANCH   2   5
HETATM    5  C   UNL     1      -9.683   7.470  72.432  1.00  0.00    -0.161 C  
HETATM    6  O   UNL     1      -9.505   8.730  71.758  1.00  0.00    -0.260 OA 
HETATM    7  C   UNL     1      -9.755   8.628  70.358  1.00  0.00    -0.176 C  
HETATM    8  C   UNL     1     -11.267   8.328  70.141  1.00  0.00    -0.132 C  
HETATM    9  O   UNL     1     -11.961   7.926  73.151  1.00  0.00    -0.662 OA 
HETATM   10  H   UNL     1     -12.871   7.659  73.105  1.00  0.00     0.000 HD 
HETATM   11  N   UNL     1     -12.108   9.462  70.624  1.00  0.00    -0.456 NA 
HETATM   12  C   UNL     1     -11.634   7.023  70.885  1.00  0.00    -0.328 C  
HETATM   13  H2  UNL     1     -11.834  10.346  70.195  1.00  0.00     0.000 HD 
HETATM   14  O   UNL     1     -11.126   5.874  70.193  1.00  0.00    -0.348 OA 
HETATM   15  C   UNL     1     -11.162   7.037  72.358  1.00  0.00    -0.268 C  
HETATM   16  H1  UNL     1     -13.099   9.265  70.482  1.00  0.00     0.000 HD 
HETATM   17  H   UNL     1     -11.352   5.073  70.650  1.00  0.00     0.000 HD 
BRANCH   7  18
HETATM   18  O   UNL     1      -9.431   9.849  69.686  1.00  0.00    -0.206 OA 
BRANCH  18  19
HETATM   19  C   UNL     1      -9.005   9.671  68.324  1.00  0.00    -0.123 C  
HETATM   20  O   UNL     1     -11.222  10.483  67.580  1.00  0.00    -0.320 OA 
HETATM   21  C   UNL     1      -7.621  10.308  68.218  1.00  0.00    -0.091 C  
HETATM   22  C   UNL     1      -9.142  11.831  67.325  1.00  0.00    -0.171 C  
HETATM   23  H   UNL     1     -11.731  10.970  66.943  1.00  0.00     0.000 HD 
HETATM   24  O   UNL     1      -7.806  11.670  67.806  1.00  0.00    -0.116 OA 
HETATM   25  C   UNL     1      -9.819  10.451  67.305  1.00  0.00    -0.178 C  
BRANCH  21  26
HETATM   26  C   UNL     1      -6.699   9.621  67.209  1.00  0.00    -0.071 C  
HETATM   27  H   UNL     1      -5.592  10.139  65.657  1.00  0.00     0.000 HD 
HETATM   28  O   UNL     1      -6.165  10.565  66.283  1.00  0.00    -0.085 OA 
ENDBRANCH  21  26
BRANCH  22  29
HETATM   29  O   UNL     1      -9.143  12.358  66.002  1.00  0.00    -0.119 OA 
BRANCH  29  30
HETATM   30  C   UNL     1     -10.365  12.924  65.489  1.00  0.00    -0.291 C  
HETATM   31  C   UNL     1     -10.913  12.059  64.338  1.00  0.00    -0.333 C  
HETATM   32  O   UNL     1     -10.908  10.674  64.711  1.00  0.00    -0.132 OA 
HETATM   33  C   UNL     1     -12.338  12.489  63.972  1.00  0.00    -0.469 C  
HETATM   34  C   UNL     1     -12.315  13.939  63.489  1.00  0.00    -0.075 C  
HETATM   35  N   UNL     1     -12.910  11.607  62.937  1.00  0.00    -0.827 NA 
HETATM   36  H   UNL     1     -11.246  10.140  64.002  1.00  0.00     0.000 HD 
HETATM   37  H1  UNL     1     -13.857  11.893  62.693  1.00  0.00     0.000 HD 
HETATM   38  H2  UNL     1     -12.873  10.627  63.216  1.00  0.00     0.000 HD 
HETATM   39  C   UNL     1     -11.703  14.886  64.535  1.00  0.00    -0.382 C  
HETATM   40  C   UNL     1     -10.303  14.424  65.088  1.00  0.00    -0.421 C  
HETATM   41  N   UNL     1     -11.632  16.243  63.953  1.00  0.00    -1.573 NA 
HETATM   42  H2  UNL     1     -12.535  16.569  63.609  1.00  0.00     0.000 HD 
HETATM   43  H1  UNL     1     -11.227  16.870  64.648  1.00  0.00     0.000 HD 
BRANCH  40  44
HETATM   44  O   UNL     1      -9.977  15.319  66.177  1.00  0.00    -0.264 OA 
BRANCH  44  45
HETATM   45  C   UNL     1      -8.929  16.262  65.910  1.00  0.00    -0.186 C  
HETATM   46  O   UNL     1      -9.443  17.560  65.632  1.00  0.00    -0.498 OA 
HETATM   47  C   UNL     1     -10.066  18.220  66.733  1.00  0.00    -0.364 C  
HETATM   48  C   UNL     1      -9.057  18.400  67.870  1.00  0.00    -0.283 C  
HETATM   49  H1  UNL     1      -6.638  15.034  68.180  1.00  0.00     0.000 HD 
HETATM   50  H2  UNL     1      -6.931  14.534  66.607  1.00  0.00     0.000 HD 
HETATM   51  O   UNL     1      -9.634  19.029  69.016  1.00  0.00    -0.364 OA 
HETATM   52  C   UNL     1      -8.486  17.034  68.275  1.00  0.00    -0.233 C  
HETATM   53  H   UNL     1      -9.008  19.141  69.722  1.00  0.00     0.000 HD 
HETATM   54  O   UNL     1      -7.469  17.216  69.276  1.00  0.00    -0.193 OA 
HETATM   55  N   UNL     1      -7.324  14.998  67.426  1.00  0.00    -0.202 NA 
HETATM   56  C   UNL     1      -7.886  16.317  67.055  1.00  0.00    -0.218 C  
HETATM   57  H   UNL     1      -7.116  16.371  69.527  1.00  0.00     0.000 HD 
BRANCH  47  58
HETATM   58  C   UNL     1     -10.583  19.570  66.218  1.00  0.00    -0.481 C  
HETATM   59  O   UNL     1      -9.722  20.628  66.648  1.00  0.00    -0.637 OA 
HETATM   60  H   UNL     1     -10.041  21.463  66.329  1.00  0.00     0.000 HD 
ENDBRANCH  47  58
ENDBRANCH  44  45
ENDBRANCH  40  44
ENDBRANCH  29  30
ENDBRANCH  22  29
ENDBRANCH  18  19
ENDBRANCH   7  18
ENDBRANCH   2   5
TORSDOF 9
ENDMDL
MODEL        2
REMARK 921   NORMALIZED FREE ENERGY PREDICTED BY IDOCK:   -8.59 KCAL/MOL
REMARK 922        TOTAL FREE ENERGY PREDICTED BY IDOCK:  -15.15 KCAL/MOL
REMARK 923 INTER-LIGAND FREE ENERGY PREDICTED BY IDOCK:  -12.41 KCAL/MOL
REMARK 924 INTRA-LIGAND FREE ENERGY PREDICTED BY IDOCK:   -2.73 KCAL/MOL
REMARK 927      BINDING AFFINITY PREDICTED BY RF-SCORE:    0.00 PKD
ROOT
HETATM    1  N   UNL     1      -9.847  20.678  66.619  1.00  0.00    -0.614 NA 
HETATM    2  C   UNL     1     -10.430  19.422  66.107  1.00  0.00    -0.508 C  
HETATM    3  H1  UNL     1     -10.325  21.477  66.202  1.00  0.00     0.000 HD 
HETATM    4  H2  UNL     1      -8.838  20.718  66.479  1.00  0.00     0.000 HD 
ENDROOT
BRANCH   2   5
HETATM    5  C   UNL     1      -9.711  18.217  66.737  1.00  0.00    -0.322 C  
HETATM    6  O   UNL     1     -10.643  17.120  66.739  1.00  0.00    -0.286 OA 
HETATM    7  C   UNL     1     -10.025  15.892  67.116  1.00  0.00    -0.240 C  
HETATM    8  C   UNL     1      -9.596  15.986  68.609  1.00  0.00    -0.222 C  
HETATM    9  O   UNL     1     -10.291  19.002  68.964  1.00  0.00    -0.515 OA 
HETATM   10  H   UNL     1      -9.983  19.169  69.848  1.00  0.00     0.000 HD 
HETATM   11  N   UNL     1     -10.788  16.132  69.496  1.00  0.00    -0.304 NA 
HETATM   12  C   UNL     1      -8.638  17.187  68.784  1.00  0.00    -0.236 C  
HETATM   13  H2  UNL     1     -11.465  15.384  69.345  1.00  0.00     0.000 HD 
HETATM   14  O   UNL     1      -7.341  16.895  68.247  1.00  0.00    -0.178 OA 
HETATM   15  C   UNL     1      -9.211  18.488  68.172  1.00  0.00    -0.309 C  
HETATM   16  H1  UNL     1     -10.506  16.194  70.475  1.00  0.00     0.000 HD 
HETATM   17  H   UNL     1      -6.752  17.633  68.354  1.00  0.00     0.000 HD 
BRANCH   7  18
HETATM   18  O   UNL     1     -10.929  14.793  66.969  1.00  0.00    -0.308 OA 
BRANCH  18  19
HETATM   19  C   UNL     1     -10.733  14.031  65.765  1.00  0.00    -0.293 C  
HETATM   20  O   UNL     1      -8.746  12.989  66.809  1.00  0.00    -0.347 OA 
HETATM   21  C   UNL     1     -12.095  13.444  65.400  1.00  0.00    -0.421 C  
HETATM   22  C   UNL     1     -10.871  11.746  66.426  1.00  0.00    -0.282 C  
HETATM   23  H   UNL     1      -8.201  12.218  66.917  1.00  0.00     0.000 HD 
HETATM   24  O   UNL     1     -12.177  12.146  66.008  1.00  0.00    -0.609 OA 
HETATM   25  C   UNL     1      -9.862  12.798  65.937  1.00  0.00    -0.238 C  
BRANCH  21  26
HETATM   26  C   UNL     1     -12.318  13.285  63.895  1.00  0.00    -0.351 C  
HETATM   27  H   UNL     1     -13.326  12.090  62.688  1.00  0.00     0.000 HD 
HETATM   28  O   UNL     1     -13.187  12.188  63.622  1.00  0.00    -0.770 OA 
ENDBRANCH  21  26
BRANCH  22  29
HETATM   29  O   UNL     1     -10.523  10.485  65.861  1.00  0.00    -0.228 OA 
BRANCH  29  30
HETATM   30  C   UNL     1      -9.385   9.783  66.396  1.00  0.00    -0.171 C  
HETATM   31  C   UNL     1      -8.332   9.553  65.295  1.00  0.00    -0.139 C  
HETATM   32  O   UNL     1      -8.102  10.766  64.566  1.00  0.00    -0.356 OA 
HETATM   33  C   UNL     1      -7.014   9.060  65.905  1.00  0.00    -0.088 C  
HETATM   34  C   UNL     1      -7.255   7.720  66.601  1.00  0.00    -0.087 C  
HETATM   35  N   UNL     1      -5.969   8.927  64.873  1.00  0.00    -0.063 NA 
HETATM   36  H   UNL     1      -7.452  10.624  63.888  1.00  0.00     0.000 HD 
HETATM   37  H1  UNL     1      -5.092   8.598  65.278  1.00  0.00     0.000 HD 
HETATM   38  H2  UNL     1      -5.841   9.795  64.354  1.00  0.00     0.000 HD 
HETATM   39  C   UNL     1      -8.357   7.815  67.670  1.00  0.00    -0.121 C  
HETATM   40  C   UNL     1      -9.697   8.468  67.163  1.00  0.00    -0.192 C  
HETATM   41  N   UNL     1      -8.590   6.464  68.222  1.00  0.00    -0.115 NA 
HETATM   42  H2  UNL     1      -7.737   6.033  68.576  1.00  0.00     0.000 HD 
HETATM   43  H1  UNL     1      -9.321   6.528  68.931  1.00  0.00     0.000 HD 
BRANCH  40  44
HETATM   44  O   UNL     1     -10.535   8.643  68.329  1.00  0.00    -0.218 OA 
BRANCH  44  45
HETATM   45  C   UNL     1      -9.920   9.314  69.438  1.00  0.00    -0.181 C  
HETATM   46  O   UNL     1     -10.307  10.681  69.511  1.00  0.00    -0.223 OA 
HETATM   47  C   UNL     1     -11.677  10.912  69.839  1.00  0.00    -0.339 C  
HETATM   48  C   UNL     1     -11.992  10.311  71.211  1.00  0.00    -0.363 C  
HETATM   49  H1  UNL     1     -10.022   6.679  71.664  1.00  0.00     0.000 HD 
HETATM   50  H2  UNL     1      -8.872   7.023  70.494  1.00  0.00     0.000 HD 
HETATM   51  O   UNL     1     -13.362  10.483  71.579  1.00  0.00    -0.356 OA 
HETATM   52  C   UNL     1     -11.652   8.814  71.209  1.00  0.00    -0.292 C  
HETATM   53  H   UNL     1     -13.558  10.110  72.431  1.00  0.00     0.000 HD 
HETATM   54  O   UNL     1     -11.859   8.272  72.525  1.00  0.00    -0.387 OA 
HETATM   55  N   UNL     1      -9.843   7.154  70.780  1.00  0.00    -0.179 NA 
HETATM   56  C   UNL     1     -10.192   8.593  70.783  1.00  0.00    -0.204 C  
HETATM   57  H   UNL     1     -11.648   7.346  72.524  1.00  0.00     0.000 HD 
BRANCH  47  58
HETATM   58  C   UNL     1     -11.896  12.432  69.825  1.00  0.00    -0.317 C  
HETATM   59  O   UNL     1     -10.665  13.108  69.553  1.00  0.00    -0.443 OA 
HETATM   60  H   UNL     1     -10.801  14.048  69.544  1.00  0.00     0.000 HD 
ENDBRANCH  47  58
ENDBRANCH  44  45
ENDBRANCH  40  44
ENDBRANCH  29  30
ENDBRANCH  22  29
ENDBRANCH  18  19
ENDBRANCH   7  18
ENDBRANCH   2   5
TORSDOF 9
ENDMDL
MODEL        3
REMARK 921   NORMALIZED FREE ENERGY PREDICTED BY IDOCK:   -8.58 KCAL/MOL
REMARK 922        TOTAL FREE ENERGY PREDICTED BY IDOCK:  -15.13 KCAL/MOL
REMARK 923 INTER-LIGAND FREE ENERGY PREDICTED BY IDOCK:  -12.47 KCAL/MOL
REMARK 924 INTRA-LIGAND FREE ENERGY PREDICTED BY IDOCK:   -2.66 KCAL/MOL
REMARK 927      BINDING AFFINITY PREDICTED BY RF-SCORE:    0.00 PKD
ROOT
HETATM    1  N   UNL     1      -6.161  17.232  67.119  1.00  0.00    -0.137 NA 
HETATM    2  C   UNL     1      -6.509  17.906  68.386  1.00  0.00    -0.198 C  
HETATM    3  H1  UNL     1      -5.154  17.076  67.075  1.00  0.00     0.000 HD 
HETATM    4  H2  UNL     1      -6.507  17.742  66.306  1.00  0.00     0.000 HD 
ENDROOT
BRANCH   2   5
HETATM    5  C   UNL     1      -8.027  18.140  68.454  1.00  0.00    -0.302 C  
HETATM    6  O   UNL     1      -8.648  17.129  67.640  1.00  0.00    -0.208 OA 
HETATM    7  C   UNL     1     -10.067  17.120  67.786  1.00  0.00    -0.306 C  
HETATM    8  C   UNL     1     -10.638  18.441  67.194  1.00  0.00    -0.383 C  
HETATM    9  O   UNL     1      -7.879  19.791  66.675  1.00  0.00    -0.270 OA 
HETATM   10  H   UNL     1      -8.139  20.654  66.375  1.00  0.00     0.000 HD 
HETATM   11  N   UNL     1     -10.379  18.520  65.726  1.00  0.00    -0.609 NA 
HETATM   12  C   UNL     1      -9.994  19.642  67.925  1.00  0.00    -0.411 C  
HETATM   13  H2  UNL     1     -10.737  17.701  65.234  1.00  0.00     0.000 HD 
HETATM   14  O   UNL     1     -10.535  19.793  69.245  1.00  0.00    -0.599 OA 
HETATM   15  C   UNL     1      -8.450  19.542  67.967  1.00  0.00    -0.321 C  
HETATM   16  H1  UNL     1     -10.753  19.386  65.338  1.00  0.00     0.000 HD 
HETATM   17  H   UNL     1     -10.139  20.530  69.694  1.00  0.00     0.000 HD 
BRANCH   7  18
HETATM   18  O   UNL     1     -10.650  16.016  67.087  1.00  0.00    -0.306 OA 
BRANCH  18  19
HETATM   19  C   UNL     1     -11.743  15.393  67.786  1.00  0.00    -0.146 C  
HETATM   20  O   UNL     1     -12.206  14.051  65.759  1.00  0.00    -0.404 OA 
HETATM   21  C   UNL     1     -11.201  14.983  69.154  1.00  0.00    -0.281 C  
HETATM   22  C   UNL     1     -11.228  13.066  67.828  1.00  0.00    -0.279 C  
HETATM   23  H   UNL     1     -12.491  13.225  65.385  1.00  0.00     0.000 HD 
HETATM   24  O   UNL     1     -10.725  13.634  69.039  1.00  0.00    -0.234 OA 
HETATM   25  C   UNL     1     -12.198  14.073  67.188  1.00  0.00    -0.321 C  
BRANCH  21  26
HETATM   26  C   UNL     1     -12.243  15.032  70.273  1.00  0.00    -0.340 C  
HETATM   27  H   UNL     1     -12.574  14.129  71.998  1.00  0.00     0.000 HD 
HETATM   28  O   UNL     1     -11.927  14.098  71.303  1.00  0.00    -0.325 OA 
ENDBRANCH  21  26
BRANCH  22  29
HETATM   29  O   UNL     1     -11.935  11.858  68.093  1.00  0.00    -0.496 OA 
BRANCH  29  30
HETATM   30  C   UNL     1     -11.203  10.737  68.626  1.00  0.00    -0.274 C  
HETATM   31  C   UNL     1     -11.632  10.461  70.080  1.00  0.00    -0.301 C  
HETATM   32  O   UNL     1     -13.063  10.452  70.183  1.00  0.00    -0.518 OA 
HETATM   33  C   UNL     1     -11.071   9.118  70.561  1.00  0.00    -0.260 C  
HETATM   34  C   UNL     1      -9.544   9.174  70.533  1.00  0.00    -0.293 C  
HETATM   35  N   UNL     1     -11.553   8.797  71.918  1.00  0.00    -0.338 NA 
HETATM   36  H   UNL     1     -13.327  10.281  71.079  1.00  0.00     0.000 HD 
HETATM   37  H1  UNL     1     -11.180   7.904  72.238  1.00  0.00     0.000 HD 
HETATM   38  H2  UNL     1     -12.571   8.819  71.970  1.00  0.00     0.000 HD 
HETATM   39  C   UNL     1      -9.006   9.529  69.136  1.00  0.00    -0.148 C  
HETATM   40  C   UNL     1      -9.657  10.812  68.498  1.00  0.00    -0.183 C  
HETATM   41  N   UNL     1      -7.535   9.655  69.220  1.00  0.00    -0.080 NA 
HETATM   42  H2  UNL     1      -7.093   8.823  69.612  1.00  0.00     0.000 HD 
HETATM   43  H1  UNL     1      -7.179   9.890  68.294  1.00  0.00     0.000 HD 
BRANCH  40  44
HETATM   44  O   UNL     1      -9.174  10.882  67.136  1.00  0.00    -0.148 OA 
BRANCH  44  45
HETATM   45  C   UNL     1      -9.610   9.825  66.269  1.00  0.00    -0.213 C  
HETATM   46  O   UNL     1     -10.649  10.251  65.394  1.00  0.00    -0.152 OA 
HETATM   47  C   UNL     1     -10.263  11.207  64.408  1.00  0.00    -0.330 C  
HETATM   48  C   UNL     1      -9.171  10.618  63.511  1.00  0.00    -0.262 C  
HETATM   49  H1  UNL     1      -6.528   8.352  65.781  1.00  0.00     0.000 HD 
HETATM   50  H2  UNL     1      -7.619   8.117  67.032  1.00  0.00     0.000 HD 
HETATM   51  O   UNL     1      -8.721  11.545  62.521  1.00  0.00    -0.567 OA 
HETATM   52  C   UNL     1      -7.980  10.176  64.371  1.00  0.00    -0.153 C  
HETATM   53  H   UNL     1      -8.044  11.179  61.964  1.00  0.00     0.000 HD 
HETATM   54  O   UNL     1      -6.996   9.537  63.539  1.00  0.00    -0.097 OA 
HETATM   55  N   UNL     1      -7.300   8.761  66.307  1.00  0.00    -0.086 NA 
HETATM   56  C   UNL     1      -8.438   9.203  65.469  1.00  0.00    -0.147 C  
HETATM   57  H   UNL     1      -6.259   9.263  64.071  1.00  0.00     0.000 HD 
BRANCH  47  58
HETATM   58  C   UNL     1     -11.523  11.562  63.605  1.00  0.00    -0.278 C  
HETATM   59  O   UNL     1     -11.416  12.885  63.073  1.00  0.00    -0.770 OA 
HETATM   60  H   UNL     1     -12.194  13.105  62.576  1.00  0.00     0.000 HD 
ENDBRANCH  47  58
ENDBRANCH  44  45
ENDBRANCH  40  44
ENDBRANCH  29  30
ENDBRANCH  22  29
ENDBRANCH  18  19
ENDBRANCH   7  18
ENDBRANCH   2   5
TORSDOF 9
ENDMDL
MODEL        4
REMARK 921   NORMALIZED FREE ENERGY PREDICTED BY IDOCK:   -8.50 KCAL/MOL
REMARK 922        TOTAL FREE ENERGY PREDICTED BY IDOCK:  -15.02 KCAL/MOL
REMARK 923 INTER-LIGAND FREE ENERGY PREDICTED BY IDOCK:  -12.92 KCAL/MOL
REMARK 924 INTRA-LIGAND FREE ENERGY PREDICTED BY IDOCK:   -2.10 KCAL/MOL
REMARK 927      BINDING AFFINITY PREDICTED BY RF-SCORE:    0.00 PKD
ROOT
HETATM    1  N   UNL     1      -9.907   4.033  70.271  1.00  0.00    -0.188 NA 
HETATM    2  C   UNL     1      -9.949   5.294  69.503  1.00  0.00    -0.227 C  
HETATM    3  H1  UNL     1      -9.565   3.277  69.677  1.00  0.00     0.000 HD 
HETATM    4  H2  UNL     1     -10.810   3.811  70.692  1.00  0.00     0.000 HD 
ENDROOT
BRANCH   2   5
HETATM    5  C   UNL     1     -10.465   6.434  70.399  1.00  0.00    -0.218 C  
HETATM    6  O   UNL     1      -9.795   7.637  69.981  1.00  0.00    -0.179 OA 
HETATM    7  C   UNL     1     -10.339   8.798  70.604  1.00  0.00    -0.209 C  
HETATM    8  C   UNL     1     -10.029   8.739  72.128  1.00  0.00    -0.289 C  
HETATM    9  O   UNL     1      -8.837   5.861  72.112  1.00  0.00    -0.136 OA 
HETATM   10  H   UNL     1      -8.686   5.709  73.037  1.00  0.00     0.000 HD 
HETATM   11  N   UNL     1      -8.558   8.796  72.373  1.00  0.00    -0.406 NA 
HETATM   12  C   UNL     1     -10.627   7.439  72.715  1.00  0.00    -0.297 C  
HETATM   13  H2  UNL     1      -8.134   9.613  71.934  1.00  0.00     0.000 HD 
HETATM   14  O   UNL     1     -12.054   7.533  72.830  1.00  0.00    -0.556 OA 
HETATM   15  C   UNL     1     -10.218   6.187  71.902  1.00  0.00    -0.200 C  
HETATM   16  H1  UNL     1      -8.354   8.757  73.372  1.00  0.00     0.000 HD 
HETATM   17  H   UNL     1     -12.421   6.735  73.190  1.00  0.00     0.000 HD 
BRANCH   7  18
HETATM   18  O   UNL     1      -9.762   9.991  70.067  1.00  0.00    -0.235 OA 
BRANCH  18  19
HETATM   19  C   UNL     1      -9.153   9.816  68.775  1.00  0.00    -0.136 C  
HETATM   20  O   UNL     1     -11.341  10.323  67.733  1.00  0.00    -0.484 OA 
HETATM   21  C   UNL     1      -7.850  10.612  68.801  1.00  0.00    -0.125 C  
HETATM   22  C   UNL     1      -9.416  11.905  67.657  1.00  0.00    -0.182 C  
HETATM   23  H   UNL     1     -11.820  10.721  67.016  1.00  0.00     0.000 HD 
HETATM   24  O   UNL     1      -8.140  11.925  68.300  1.00  0.00    -0.141 OA 
HETATM   25  C   UNL     1      -9.921  10.453  67.628  1.00  0.00    -0.174 C  
BRANCH  21  26
HETATM   26  C   UNL     1      -6.736  10.006  67.946  1.00  0.00    -0.067 C  
HETATM   27  H   UNL     1      -6.191   8.215  67.317  1.00  0.00     0.000 HD 
HETATM   28  O   UNL     1      -6.882   8.591  67.849  1.00  0.00    -0.065 OA 
ENDBRANCH  21  26
BRANCH  22  29
HETATM   29  O   UNL     1      -9.315  12.378  66.318  1.00  0.00    -0.230 OA 
BRANCH  29  30
HETATM   30  C   UNL     1     -10.488  12.936  65.696  1.00  0.00    -0.277 C  
HETATM   31  C   UNL     1     -10.974  12.023  64.553  1.00  0.00    -0.318 C  
HETATM   32  O   UNL     1     -11.019  10.658  64.992  1.00  0.00    -0.017 OA 
HETATM   33  C   UNL     1     -12.363  12.457  64.071  1.00  0.00    -0.488 C  
HETATM   34  C   UNL     1     -12.280  13.880  63.520  1.00  0.00    -0.132 C  
HETATM   35  N   UNL     1     -12.879  11.533  63.042  1.00  0.00    -0.816 NA 
HETATM   36  H   UNL     1     -11.318  10.096  64.288  1.00  0.00     0.000 HD 
HETATM   37  H1  UNL     1     -13.803  11.821  62.721  1.00  0.00     0.000 HD 
HETATM   38  H2  UNL     1     -12.880  10.568  63.370  1.00  0.00     0.000 HD 
HETATM   39  C   UNL     1     -11.723  14.868  64.560  1.00  0.00    -0.382 C  
HETATM   40  C   UNL     1     -10.372  14.413  65.228  1.00  0.00    -0.403 C  
HETATM   41  N   UNL     1     -11.588  16.194  63.919  1.00  0.00    -1.469 NA 
HETATM   42  H2  UNL     1     -12.460  16.516  63.499  1.00  0.00     0.000 HD 
HETATM   43  H1  UNL     1     -11.219  16.848  64.608  1.00  0.00     0.000 HD 
BRANCH  40  44
HETATM   44  O   UNL     1     -10.104  15.356  66.292  1.00  0.00    -0.262 OA 
BRANCH  44  45
HETATM   45  C   UNL     1      -9.067  16.311  66.026  1.00  0.00    -0.297 C  
HETATM   46  O   UNL     1      -9.596  17.599  65.733  1.00  0.00    -0.524 OA 
HETATM   47  C   UNL     1     -10.237  18.260  66.822  1.00  0.00    -0.378 C  
HETATM   48  C   UNL     1      -9.240  18.464  67.966  1.00  0.00    -0.293 C  
HETATM   49  H1  UNL     1      -6.779  15.134  68.325  1.00  0.00     0.000 HD 
HETATM   50  H2  UNL     1      -7.051  14.616  66.755  1.00  0.00     0.000 HD 
HETATM   51  O   UNL     1      -9.836  19.094  69.102  1.00  0.00    -0.389 OA 
HETATM   52  C   UNL     1      -8.654  17.109  68.388  1.00  0.00    -0.246 C  
HETATM   53  H   UNL     1      -9.218  19.221  69.812  1.00  0.00     0.000 HD 
HETATM   54  O   UNL     1      -7.649  17.313  69.396  1.00  0.00    -0.080 OA 
HETATM   55  N   UNL     1      -7.458  15.082  67.567  1.00  0.00    -0.186 NA 
HETATM   56  C   UNL     1      -8.035  16.390  67.179  1.00  0.00    -0.183 C  
HETATM   57  H   UNL     1      -7.286  16.475  69.657  1.00  0.00     0.000 HD 
BRANCH  47  58
HETATM   58  C   UNL     1     -10.768  19.598  66.291  1.00  0.00    -0.419 C  
HETATM   59  O   UNL     1      -9.813  20.638  66.521  1.00  0.00    -0.619 OA 
HETATM   60  H   UNL     1     -10.141  21.466  66.193  1.00  0.00     0.000 HD 
ENDBRANCH  47  58
ENDBRANCH  44  45
ENDBRANCH  40  44
ENDBRANCH  29  30
ENDBRANCH  22  29
ENDBRANCH  18  19
ENDBRANCH   7  18
ENDBRANCH   2   5
TORSDOF 9
ENDMDL
MODEL        5
REMARK 921   NORMALIZED FREE ENERGY PREDICTED BY IDOCK:   -8.48 KCAL/MOL
REMARK 922        TOTAL FREE ENERGY PREDICTED BY IDOCK:  -14.99 KCAL/MOL
REMARK 923 INTER-LIGAND FREE ENERGY PREDICTED BY IDOCK:  -12.50 KCAL/MOL
REMARK 924 INTRA-LIGAND FREE ENERGY PREDICTED BY IDOCK:   -2.49 KCAL/MOL
REMARK 927      BINDING AFFINITY PREDICTED BY RF-SCORE:    0.00 PKD
ROOT
HETATM    1  N   UNL     1      -5.875  18.711  69.596  1.00  0.00    -0.242 NA 
HETATM    2  C   UNL     1      -6.660  19.911  69.241  1.00  0.00    -0.342 C  
HETATM    3  H1  UNL     1      -4.992  18.988  70.025  1.00  0.00     0.000 HD 
HETATM    4  H2  UNL     1      -5.735  18.094  68.795  1.00  0.00     0.000 HD 
ENDROOT
BRANCH   2   5
HETATM    5  C   UNL     1      -7.991  19.492  68.595  1.00  0.00    -0.346 C  
HETATM    6  O   UNL     1      -8.204  18.107  68.922  1.00  0.00    -0.255 OA 
HETATM    7  C   UNL     1      -9.505  17.661  68.548  1.00  0.00    -0.298 C  
HETATM    8  C   UNL     1      -9.608  17.671  66.995  1.00  0.00    -0.276 C  
HETATM    9  O   UNL     1      -6.860  19.048  66.489  1.00  0.00    -0.193 OA 
HETATM   10  H   UNL     1      -6.873  19.165  65.546  1.00  0.00     0.000 HD 
HETATM   11  N   UNL     1      -8.653  16.694  66.393  1.00  0.00    -0.283 NA 
HETATM   12  C   UNL     1      -9.321  19.100  66.479  1.00  0.00    -0.348 C  
HETATM   13  H2  UNL     1      -8.782  15.757  66.773  1.00  0.00     0.000 HD 
HETATM   14  O   UNL     1     -10.430  19.974  66.734  1.00  0.00    -0.451 OA 
HETATM   15  C   UNL     1      -8.011  19.682  67.063  1.00  0.00    -0.281 C  
HETATM   16  H1  UNL     1      -8.720  16.701  65.375  1.00  0.00     0.000 HD 
HETATM   17  H   UNL     1     -10.253  20.852  66.417  1.00  0.00     0.000 HD 
BRANCH   7  18
HETATM   18  O   UNL     1      -9.749  16.331  69.013  1.00  0.00    -0.231 OA 
BRANCH  18  19
HETATM   19  C   UNL     1     -11.140  16.031  69.224  1.00  0.00    -0.331 C  
HETATM   20  O   UNL     1     -11.197  14.965  66.991  1.00  0.00    -0.332 OA 
HETATM   21  C   UNL     1     -11.243  15.426  70.623  1.00  0.00    -0.342 C  
HETATM   22  C   UNL     1     -11.306  13.656  69.108  1.00  0.00    -0.285 C  
HETATM   23  H   UNL     1     -11.538  14.276  66.434  1.00  0.00     0.000 HD 
HETATM   24  O   UNL     1     -11.130  14.002  70.483  1.00  0.00     0.129 OA 
HETATM   25  C   UNL     1     -11.687  14.928  68.333  1.00  0.00    -0.309 C  
BRANCH  21  26
HETATM   26  C   UNL     1     -12.560  15.737  71.337  1.00  0.00    -0.455 C  
HETATM   27  H   UNL     1     -13.137  16.495  73.066  1.00  0.00     0.000 HD 
HETATM   28  O   UNL     1     -12.320  16.302  72.624  1.00  0.00    -0.472 OA 
ENDBRANCH  21  26
BRANCH  22  29
HETATM   29  O   UNL     1     -12.351  12.701  68.957  1.00  0.00    -0.069 OA 
BRANCH  29  30
HETATM   30  C   UNL     1     -12.040  11.306  69.146  1.00  0.00    -0.279 C  
HETATM   31  C   UNL     1     -11.844  11.000  70.643  1.00  0.00    -0.333 C  
HETATM   32  O   UNL     1     -12.913  11.569  71.412  1.00  0.00    -0.412 OA 
HETATM   33  C   UNL     1     -11.787   9.486  70.880  1.00  0.00    -0.309 C  
HETATM   34  C   UNL     1     -10.589   8.906  70.129  1.00  0.00    -0.243 C  
HETATM   35  N   UNL     1     -11.695   9.178  72.320  1.00  0.00    -0.235 NA 
HETATM   36  H   UNL     1     -12.792  11.380  72.334  1.00  0.00     0.000 HD 
HETATM   37  H1  UNL     1     -11.657   8.171  72.478  1.00  0.00     0.000 HD 
HETATM   38  H2  UNL     1     -12.453   9.612  72.847  1.00  0.00     0.000 HD 
HETATM   39  C   UNL     1     -10.639   9.228  68.626  1.00  0.00    -0.187 C  
HETATM   40  C   UNL     1     -10.864  10.752  68.297  1.00  0.00    -0.229 C  
HETATM   41  N   UNL     1      -9.404   8.717  67.996  1.00  0.00    -0.136 NA 
HETATM   42  H2  UNL     1      -9.253   7.725  68.180  1.00  0.00     0.000 HD 
HETATM   43  H1  UNL     1      -9.438   8.930  67.000  1.00  0.00     0.000 HD 
BRANCH  40  44
HETATM   44  O   UNL     1     -11.068  10.837  66.867  1.00  0.00    -0.244 OA 
BRANCH  44  45
HETATM   45  C   UNL     1     -10.361  11.893  66.202  1.00  0.00    -0.226 C  
HETATM   46  O   UNL     1      -9.103  11.455  65.700  1.00  0.00    -0.209 OA 
HETATM   47  C   UNL     1      -9.166  10.515  64.629  1.00  0.00    -0.235 C  
HETATM   48  C   UNL     1      -9.903  11.132  63.438  1.00  0.00    -0.361 C  
HETATM   49  H1  UNL     1     -13.101  13.428  64.771  1.00  0.00     0.000 HD 
HETATM   50  H2  UNL     1     -12.466  13.632  66.309  1.00  0.00     0.000 HD 
HETATM   51  O   UNL     1     -10.025  10.222  62.342  1.00  0.00    -0.725 OA 
HETATM   52  C   UNL     1     -11.301  11.589  63.876  1.00  0.00    -0.312 C  
HETATM   53  H   UNL     1     -10.482  10.606  61.603  1.00  0.00     0.000 HD 
HETATM   54  O   UNL     1     -11.955  12.254  62.781  1.00  0.00    -0.473 OA 
HETATM   55  N   UNL     1     -12.545  13.000  65.512  1.00  0.00    -0.546 NA 
HETATM   56  C   UNL     1     -11.205  12.543  65.076  1.00  0.00    -0.306 C  
HETATM   57  H   UNL     1     -12.821  12.536  63.052  1.00  0.00     0.000 HD 
BRANCH  47  58
HETATM   58  C   UNL     1      -7.721  10.143  64.267  1.00  0.00    -0.131 C  
HETATM   59  O   UNL     1      -7.266  10.933  63.165  1.00  0.00    -0.347 OA 
HETATM   60  H   UNL     1      -6.373  10.703  62.942  1.00  0.00     0.000 HD 
ENDBRANCH  47  58
ENDBRANCH  44  45
ENDBRANCH  40  44
ENDBRANCH  29  30
ENDBRANCH  22  29
ENDBRANCH  18  19
ENDBRANCH   7  18
ENDBRANCH   2   5
TORSDOF 9
ENDMDL
MODEL        6
REMARK 921   NORMALIZED FREE ENERGY PREDICTED BY IDOCK:   -8.37 KCAL/MOL
REMARK 922        TOTAL FREE ENERGY PREDICTED BY IDOCK:  -14.82 KCAL/MOL
REMARK 923 INTER-LIGAND FREE ENERGY PREDICTED BY IDOCK:  -11.68 KCAL/MOL
REMARK 924 INTRA-LIGAND FREE ENERGY PREDICTED BY IDOCK:   -3.13 KCAL/MOL
REMARK 927      BINDING AFFINITY PREDICTED BY RF-SCORE:    0.00 PKD
ROOT
HETATM    1  N   UNL     1     -10.731  15.131  70.399  1.00  0.00    -0.486 NA 
HETATM    2  C   UNL     1     -11.711  15.821  69.536  1.00  0.00    -0.360 C  
HETATM    3  H1  UNL     1     -11.073  15.106  71.360  1.00  0.00     0.000 HD 
HETATM    4  H2  UNL     1      -9.802  15.547  70.333  1.00  0.00     0.000 HD 
ENDROOT
BRANCH   2   5
HETATM    5  C   UNL     1     -11.196  15.859  68.087  1.00  0.00    -0.339 C  
HETATM    6  O   UNL     1     -10.308  14.738  67.924  1.00  0.00    -0.237 OA 
HETATM    7  C   UNL     1      -9.925  14.551  66.564  1.00  0.00    -0.280 C  
HETATM    8  C   UNL     1      -9.047  15.758  66.122  1.00  0.00    -0.342 C  
HETATM    9  O   UNL     1      -9.452  17.431  68.718  1.00  0.00    -0.278 OA 
HETATM   10  H   UNL     1      -9.000  18.238  68.501  1.00  0.00     0.000 HD 
HETATM   11  N   UNL     1      -7.774  15.802  66.902  1.00  0.00    -0.230 NA 
HETATM   12  C   UNL     1      -9.850  17.065  66.317  1.00  0.00    -0.294 C  
HETATM   13  H2  UNL     1      -7.263  14.922  66.841  1.00  0.00     0.000 HD 
HETATM   14  O   UNL     1     -10.860  17.205  65.309  1.00  0.00    -0.562 OA 
HETATM   15  C   UNL     1     -10.462  17.169  67.734  1.00  0.00    -0.362 C  
HETATM   16  H1  UNL     1      -7.199  16.593  66.613  1.00  0.00     0.000 HD 
HETATM   17  H   UNL     1     -11.353  18.008  65.429  1.00  0.00     0.000 HD 
BRANCH   7  18
HETATM   18  O   UNL     1      -9.165  13.350  66.402  1.00  0.00    -0.217 OA 
BRANCH  18  19
HETATM   19  C   UNL     1      -9.706  12.442  65.426  1.00  0.00    -0.113 C  
HETATM   20  O   UNL     1      -7.772  10.948  65.818  1.00  0.00    -0.279 OA 
HETATM   21  C   UNL     1     -11.185  12.274  65.768  1.00  0.00    -0.337 C  
HETATM   22  C   UNL     1     -10.076  10.397  66.592  1.00  0.00    -0.224 C  
HETATM   23  H   UNL     1      -7.436  10.062  65.878  1.00  0.00     0.000 HD 
HETATM   24  O   UNL     1     -11.296  11.138  66.639  1.00  0.00    -0.314 OA 
HETATM   25  C   UNL     1      -9.168  11.024  65.521  1.00  0.00    -0.213 C  
BRANCH  21  26
HETATM   26  C   UNL     1     -12.079  12.035  64.550  1.00  0.00    -0.255 C  
HETATM   27  H   UNL     1     -13.927  12.453  63.993  1.00  0.00     0.000 HD 
HETATM   28  O   UNL     1     -13.373  12.601  64.749  1.00  0.00    -0.787 OA 
ENDBRANCH  21  26
BRANCH  22  29
HETATM   29  O   UNL     1     -10.323   9.039  66.241  1.00  0.00    -0.247 OA 
BRANCH  29  30
HETATM   30  C   UNL     1      -9.539   8.011  66.878  1.00  0.00    -0.204 C  
HETATM   31  C   UNL     1      -8.667   7.281  65.838  1.00  0.00    -0.131 C  
HETATM   32  O   UNL     1      -7.993   8.230  65.000  1.00  0.00    -0.124 OA 
HETATM   33  C   UNL     1      -7.636   6.384  66.534  1.00  0.00    -0.094 C  
HETATM   34  C   UNL     1      -8.369   5.320  67.350  1.00  0.00    -0.106 C  
HETATM   35  N   UNL     1      -6.733   5.753  65.552  1.00  0.00    -0.046 NA 
HETATM   36  H   UNL     1      -7.455   7.780  64.359  1.00  0.00     0.000 HD 
HETATM   37  H1  UNL     1      -6.048   5.157  66.015  1.00  0.00     0.000 HD 
HETATM   38  H2  UNL     1      -6.285   6.447  64.955  1.00  0.00     0.000 HD 
HETATM   39  C   UNL     1      -9.338   5.942  68.370  1.00  0.00    -0.120 C  
HETATM   40  C   UNL     1     -10.327   7.005  67.760  1.00  0.00    -0.202 C  
HETATM   41  N   UNL     1     -10.070   4.850  69.046  1.00  0.00    -0.173 NA 
HETATM   42  H2  UNL     1      -9.446   4.162  69.467  1.00  0.00     0.000 HD 
HETATM   43  H1  UNL     1     -10.713   5.262  69.722  1.00  0.00     0.000 HD 
BRANCH  40  44
HETATM   44  O   UNL     1     -11.021   7.607  68.878  1.00  0.00    -0.075 OA 
BRANCH  44  45
HETATM   45  C   UNL     1     -10.203   8.371  69.775  1.00  0.00    -0.207 C  
HETATM   46  O   UNL     1     -10.500   9.761  69.710  1.00  0.00    -0.215 OA 
HETATM   47  C   UNL     1     -11.786  10.136  70.202  1.00  0.00    -0.222 C  
HETATM   48  C   UNL     1     -11.912   9.747  71.677  1.00  0.00    -0.375 C  
HETATM   49  H1  UNL     1     -10.093   6.069  72.343  1.00  0.00     0.000 HD 
HETATM   50  H2  UNL     1      -9.126   6.168  70.978  1.00  0.00     0.000 HD 
HETATM   51  O   UNL     1     -13.195  10.069  72.218  1.00  0.00    -0.519 OA 
HETATM   52  C   UNL     1     -11.658   8.242  71.837  1.00  0.00    -0.315 C  
HETATM   53  H   UNL     1     -13.273   9.828  73.133  1.00  0.00     0.000 HD 
HETATM   54  O   UNL     1     -11.682   7.896  73.233  1.00  0.00    -0.632 OA 
HETATM   55  N   UNL     1     -10.031   6.408  71.383  1.00  0.00    -0.184 NA 
HETATM   56  C   UNL     1     -10.298   7.857  71.234  1.00  0.00    -0.191 C  
HETATM   57  H   UNL     1     -11.525   6.964  73.332  1.00  0.00     0.000 HD 
BRANCH  47  58
HETATM   58  C   UNL     1     -11.923  11.652  70.005  1.00  0.00    -0.351 C  
HETATM   59  O   UNL     1     -10.732  12.186  69.418  1.00  0.00    -0.443 OA 
HETATM   60  H   UNL     1     -10.816  13.123  69.296  1.00  0.00     0.000 HD 
ENDBRANCH  47  58
ENDBRANCH  44  45
ENDBRANCH  40  44
ENDBRANCH  29  30
ENDBRANCH  22  29
ENDBRANCH  18  19
ENDBRANCH   7  18
ENDBRANCH   2   5
TORSDOF 9
ENDMDL
MODEL        7
REMARK 921   NORMALIZED FREE ENERGY PREDICTED BY IDOCK:   -8.20 KCAL/MOL
REMARK 922        TOTAL FREE ENERGY PREDICTED BY IDOCK:  -14.55 KCAL/MOL
REMARK 923 INTER-LIGAND FREE ENERGY PREDICTED BY IDOCK:  -12.02 KCAL/MOL
REMARK 924 INTRA-LIGAND FREE ENERGY PREDICTED BY IDOCK:   -2.54 KCAL/MOL
REMARK 927      BINDING AFFINITY PREDICTED BY RF-SCORE:    0.00 PKD
ROOT
HETATM    1  N   UNL     1      -8.768   7.747  74.377  1.00  0.00    -0.427 NA 
HETATM    2  C   UNL     1      -8.676   6.596  73.457  1.00  0.00    -0.123 C  
HETATM    3  H1  UNL     1      -8.234   7.558  75.225  1.00  0.00     0.000 HD 
HETATM    4  H2  UNL     1      -9.736   7.998  74.582  1.00  0.00     0.000 HD 
ENDROOT
BRANCH   2   5
HETATM    5  C   UNL     1      -9.481   6.883  72.179  1.00  0.00    -0.138 C  
HETATM    6  O   UNL     1      -9.170   8.229  71.775  1.00  0.00    -0.159 OA 
HETATM    7  C   UNL     1      -9.703   8.540  70.489  1.00  0.00    -0.177 C  
HETATM    8  C   UNL     1     -11.256   8.555  70.583  1.00  0.00    -0.252 C  
HETATM    9  O   UNL     1     -11.423   7.496  73.508  1.00  0.00    -0.608 OA 
HETATM   10  H   UNL     1     -12.361   7.401  73.626  1.00  0.00     0.000 HD 
HETATM   11  N   UNL     1     -11.723   9.643  71.492  1.00  0.00    -0.394 NA 
HETATM   12  C   UNL     1     -11.745   7.178  71.088  1.00  0.00    -0.313 C  
HETATM   13  H2  UNL     1     -11.353  10.552  71.213  1.00  0.00     0.000 HD 
HETATM   14  O   UNL     1     -11.641   6.184  70.060  1.00  0.00    -0.392 OA 
HETATM   15  C   UNL     1     -11.005   6.728  72.371  1.00  0.00    -0.246 C  
HETATM   16  H1  UNL     1     -12.741   9.653  71.553  1.00  0.00     0.000 HD 
HETATM   17  H   UNL     1     -11.942   5.338  70.371  1.00  0.00     0.000 HD 
BRANCH   7  18
HETATM   18  O   UNL     1      -9.260   9.824  70.044  1.00  0.00    -0.222 OA 
BRANCH  18  19
HETATM   19  C   UNL     1      -8.509   9.791  68.817  1.00  0.00    -0.122 C  
HETATM   20  O   UNL     1     -10.640   9.549  67.581  1.00  0.00    -0.248 OA 
HETATM   21  C   UNL     1      -7.520  10.953  68.885  1.00  0.00    -0.116 C  
HETATM   22  C   UNL     1      -9.293  11.645  67.540  1.00  0.00    -0.168 C  
HETATM   23  H   UNL     1     -11.150   9.747  66.804  1.00  0.00     0.000 HD 
HETATM   24  O   UNL     1      -8.150  12.088  68.273  1.00  0.00    -0.142 OA 
HETATM   25  C   UNL     1      -9.324  10.108  67.574  1.00  0.00    -0.151 C  
BRANCH  21  26
HETATM   26  C   UNL     1      -6.200  10.686  68.160  1.00  0.00    -0.057 C  
HETATM   27  H   UNL     1      -4.958  11.671  66.982  1.00  0.00     0.000 HD 
HETATM   28  O   UNL     1      -5.777  11.836  67.432  1.00  0.00    -0.074 OA 
ENDBRANCH  21  26
BRANCH  22  29
HETATM   29  O   UNL     1      -9.217  12.068  66.182  1.00  0.00    -0.224 OA 
BRANCH  29  30
HETATM   30  C   UNL     1     -10.398  12.617  65.566  1.00  0.00    -0.286 C  
HETATM   31  C   UNL     1     -10.780  11.800  64.317  1.00  0.00    -0.342 C  
HETATM   32  O   UNL     1     -10.756  10.397  64.613  1.00  0.00    -0.129 OA 
HETATM   33  C   UNL     1     -12.174  12.198  63.818  1.00  0.00    -0.531 C  
HETATM   34  C   UNL     1     -12.160  13.673  63.418  1.00  0.00    -0.246 C  
HETATM   35  N   UNL     1     -12.590  11.357  62.679  1.00  0.00    -0.522 NA 
HETATM   36  H   UNL     1     -10.991   9.893  63.843  1.00  0.00     0.000 HD 
HETATM   37  H1  UNL     1     -13.517  11.621  62.347  1.00  0.00     0.000 HD 
HETATM   38  H2  UNL     1     -12.542  10.364  62.908  1.00  0.00     0.000 HD 
HETATM   39  C   UNL     1     -11.708  14.580  64.576  1.00  0.00    -0.410 C  
HETATM   40  C   UNL     1     -10.358  14.138  65.256  1.00  0.00    -0.388 C  
HETATM   41  N   UNL     1     -11.632  15.970  64.079  1.00  0.00    -1.278 NA 
HETATM   42  H2  UNL     1     -12.505  16.282  63.653  1.00  0.00     0.000 HD 
HETATM   43  H1  UNL     1     -11.333  16.570  64.846  1.00  0.00     0.000 HD 
BRANCH  40  44
HETATM   44  O   UNL     1     -10.191  14.980  66.420  1.00  0.00    -0.260 OA 
BRANCH  44  45
HETATM   45  C   UNL     1     -11.402  15.508  66.981  1.00  0.00    -0.106 C  
HETATM   46  O   UNL     1     -12.002  14.597  67.896  1.00  0.00    -0.337 OA 
HETATM   47  C   UNL     1     -11.274  14.373  69.102  1.00  0.00    -0.272 C  
HETATM   48  C   UNL     1     -11.110  15.690  69.864  1.00  0.00    -0.319 C  
HETATM   49  H1  UNL     1     -10.393  18.800  67.201  1.00  0.00     0.000 HD 
HETATM   50  H2  UNL     1     -11.055  17.989  65.892  1.00  0.00     0.000 HD 
HETATM   51  O   UNL     1     -10.357  15.533  71.069  1.00  0.00    -0.191 OA 
HETATM   52  C   UNL     1     -10.417  16.724  68.965  1.00  0.00    -0.336 C  
HETATM   53  H   UNL     1     -10.256  16.351  71.542  1.00  0.00     0.000 HD 
HETATM   54  O   UNL     1     -10.351  17.988  69.649  1.00  0.00    -0.261 OA 
HETATM   55  N   UNL     1     -10.536  17.889  66.765  1.00  0.00    -0.337 NA 
HETATM   56  C   UNL     1     -11.185  16.891  67.645  1.00  0.00     0.055 C  
HETATM   57  H   UNL     1      -9.922  18.627  69.092  1.00  0.00     0.000 HD 
BRANCH  47  58
HETATM   58  C   UNL     1     -12.061  13.341  69.922  1.00  0.00    -0.308 C  
HETATM   59  O   UNL     1     -11.420  12.064  69.860  1.00  0.00    -0.458 OA 
HETATM   60  H   UNL     1     -11.907  11.426  70.367  1.00  0.00     0.000 HD 
ENDBRANCH  47  58
ENDBRANCH  44  45
ENDBRANCH  40  44
ENDBRANCH  29  30
ENDBRANCH  22  29
ENDBRANCH  18  19
ENDBRANCH   7  18
ENDBRANCH   2   5
TORSDOF 9
ENDMDL
MODEL        8
REMARK 921   NORMALIZED FREE ENERGY PREDICTED BY IDOCK:   -7.98 KCAL/MOL
REMARK 922        TOTAL FREE ENERGY PREDICTED BY IDOCK:  -14.22 KCAL/MOL
REMARK 923 INTER-LIGAND FREE ENERGY PREDICTED BY IDOCK:  -11.24 KCAL/MOL
REMARK 924 INTRA-LIGAND FREE ENERGY PREDICTED BY IDOCK:   -2.97 KCAL/MOL
REMARK 927      BINDING AFFINITY PREDICTED BY RF-SCORE:    0.00 PKD
ROOT
HETATM    1  N   UNL     1     -13.646  11.037  72.244  1.00  0.00    -0.464 NA 
HETATM    2  C   UNL     1     -12.587  10.817  71.238  1.00  0.00    -0.426 C  
HETATM    3  H1  UNL     1     -14.115  11.925  72.066  1.00  0.00     0.000 HD 
HETATM    4  H2  UNL     1     -13.287  10.978  73.198  1.00  0.00     0.000 HD 
ENDROOT
BRANCH   2   5
HETATM    5  C   UNL     1     -11.881   9.477  71.508  1.00  0.00    -0.405 C  
HETATM    6  O   UNL     1     -11.239   9.083  70.281  1.00  0.00    -0.245 OA 
HETATM    7  C   UNL     1     -10.384   7.956  70.462  1.00  0.00    -0.205 C  
HETATM    8  C   UNL     1     -11.258   6.717  70.811  1.00  0.00    -0.315 C  
HETATM    9  O   UNL     1     -13.946   8.270  71.072  1.00  0.00    -0.592 OA 
HETATM   10  H   UNL     1     -14.537   7.586  71.364  1.00  0.00     0.000 HD 
HETATM   11  N   UNL     1     -12.161   6.366  69.674  1.00  0.00    -0.220 NA 
HETATM   12  C   UNL     1     -12.082   7.022  72.084  1.00  0.00    -0.244 C  
HETATM   13  H2  UNL     1     -11.640   6.228  68.808  1.00  0.00     0.000 HD 
HETATM   14  O   UNL     1     -11.253   6.988  73.255  1.00  0.00    -0.520 OA 
HETATM   15  C   UNL     1     -12.841   8.366  71.982  1.00  0.00    -0.354 C  
HETATM   16  H1  UNL     1     -12.734   5.554  69.903  1.00  0.00     0.000 HD 
HETATM   17  H   UNL     1     -11.759   7.175  74.037  1.00  0.00     0.000 HD 
BRANCH   7  18
HETATM   18  O   UNL     1      -9.645   7.672  69.271  1.00  0.00    -0.158 OA 
BRANCH  18  19
HETATM   19  C   UNL     1      -8.234   7.933  69.381  1.00  0.00    -0.130 C  
HETATM   20  O   UNL     1      -8.141   8.188  66.921  1.00  0.00    -0.102 OA 
HETATM   21  C   UNL     1      -8.073   8.961  70.500  1.00  0.00    -0.135 C  
HETATM   22  C   UNL     1      -7.917  10.118  68.482  1.00  0.00    -0.104 C  
HETATM   23  H   UNL     1      -7.763   8.629  66.169  1.00  0.00     0.000 HD 
HETATM   24  O   UNL     1      -8.095  10.261  69.892  1.00  0.00    -0.157 OA 
HETATM   25  C   UNL     1      -7.630   8.638  68.178  1.00  0.00    -0.097 C  
BRANCH  21  26
HETATM   26  C   UNL     1      -6.769   8.819  71.287  1.00  0.00    -0.078 C  
HETATM   27  H   UNL     1      -5.432  10.010  72.121  1.00  0.00     0.000 HD 
HETATM   28  O   UNL     1      -6.241  10.098  71.632  1.00  0.00    -0.302 OA 
ENDBRANCH  21  26
BRANCH  22  29
HETATM   29  O   UNL     1      -6.813  10.897  68.030  1.00  0.00    -0.066 OA 
BRANCH  29  30
HETATM   30  C   UNL     1      -6.975  12.325  67.935  1.00  0.00    -0.104 C  
HETATM   31  C   UNL     1      -6.497  13.006  69.232  1.00  0.00    -0.103 C  
HETATM   32  O   UNL     1      -5.216  12.490  69.622  1.00  0.00    -0.071 OA 
HETATM   33  C   UNL     1      -6.405  14.524  69.042  1.00  0.00    -0.095 C  
HETATM   34  C   UNL     1      -7.794  15.073  68.718  1.00  0.00    -0.151 C  
HETATM   35  N   UNL     1      -5.857  15.178  70.246  1.00  0.00    -0.144 NA 
HETATM   36  H   UNL     1      -4.921  12.909  70.421  1.00  0.00     0.000 HD 
HETATM   37  H1  UNL     1      -5.796  16.188  70.120  1.00  0.00     0.000 HD 
HETATM   38  H2  UNL     1      -4.958  14.778  70.515  1.00  0.00     0.000 HD 
HETATM   39  C   UNL     1      -8.407  14.398  67.479  1.00  0.00    -0.187 C  
HETATM   40  C   UNL     1      -8.388  12.823  67.524  1.00  0.00    -0.179 C  
HETATM   41  N   UNL     1      -9.779  14.915  67.295  1.00  0.00    -0.226 NA 
HETATM   42  H2  UNL     1      -9.809  15.934  67.242  1.00  0.00     0.000 HD 
HETATM   43  H1  UNL     1     -10.184  14.467  66.474  1.00  0.00     0.000 HD 
BRANCH  40  44
HETATM   44  O   UNL     1      -8.823  12.371  66.221  1.00  0.00    -0.117 OA 
BRANCH  44  45
HETATM   45  C   UNL     1      -9.988  11.533  66.213  1.00  0.00    -0.220 C  
HETATM   46  O   UNL     1     -11.185  12.289  66.356  1.00  0.00    -0.290 OA 
HETATM   47  C   UNL     1     -11.509  13.136  65.254  1.00  0.00    -0.301 C  
HETATM   48  C   UNL     1     -11.689  12.295  63.987  1.00  0.00    -0.425 C  
HETATM   49  H1  UNL     1      -8.871   9.242  63.888  1.00  0.00     0.000 HD 
HETATM   50  H2  UNL     1      -8.600   9.279  65.541  1.00  0.00     0.000 HD 
HETATM   51  O   UNL     1     -11.984  13.095  62.840  1.00  0.00    -0.788 OA 
HETATM   52  C   UNL     1     -10.416  11.480  63.723  1.00  0.00    -0.405 C  
HETATM   53  H   UNL     1     -12.096  12.573  62.054  1.00  0.00     0.000 HD 
HETATM   54  O   UNL     1     -10.622  10.620  62.589  1.00  0.00    -0.684 OA 
HETATM   55  N   UNL     1      -8.829   9.834  64.717  1.00  0.00    -0.191 NA 
HETATM   56  C   UNL     1     -10.053  10.633  64.953  1.00  0.00    -0.335 C  
HETATM   57  H   UNL     1      -9.834  10.116  62.425  1.00  0.00     0.000 HD 
BRANCH  47  58
HETATM   58  C   UNL     1     -12.797  13.885  65.621  1.00  0.00    -0.424 C  
HETATM   59  O   UNL     1     -12.782  14.249  67.005  1.00  0.00    -0.483 OA 
HETATM   60  H   UNL     1     -13.579  14.713  67.232  1.00  0.00     0.000 HD 
ENDBRANCH  47  58
ENDBRANCH  44  45
ENDBRANCH  40  44
ENDBRANCH  29  30
ENDBRANCH  22  29
ENDBRANCH  18  19
ENDBRANCH   7  18
ENDBRANCH   2   5
TORSDOF 9
ENDMDL
MODEL        9
REMARK 921   NORMALIZED FREE ENERGY PREDICTED BY IDOCK:   -7.89 KCAL/MOL
REMARK 922        TOTAL FREE ENERGY PREDICTED BY IDOCK:  -14.09 KCAL/MOL
REMARK 923 INTER-LIGAND FREE ENERGY PREDICTED BY IDOCK:  -11.96 KCAL/MOL
REMARK 924 INTRA-LIGAND FREE ENERGY PREDICTED BY IDOCK:   -2.12 KCAL/MOL
REMARK 927      BINDING AFFINITY PREDICTED BY RF-SCORE:    0.00 PKD
ROOT
HETATM    1  N   UNL     1     -11.256   4.826  65.335  1.00  0.00    -0.970 NA 
HETATM    2  C   UNL     1     -10.102   4.093  65.894  1.00  0.00    -0.152 C  
HETATM    3  H1  UNL     1     -12.110   4.284  65.472  1.00  0.00     0.000 HD 
HETATM    4  H2  UNL     1     -11.114   5.077  64.357  1.00  0.00     0.000 HD 
ENDROOT
BRANCH   2   5
HETATM    5  C   UNL     1      -8.815   4.910  65.688  1.00  0.00    -0.139 C  
HETATM    6  O   UNL     1      -9.146   6.289  65.934  1.00  0.00    -0.145 OA 
HETATM    7  C   UNL     1      -7.987   7.119  65.971  1.00  0.00    -0.112 C  
HETATM    8  C   UNL     1      -7.357   7.161  64.548  1.00  0.00    -0.081 C  
HETATM    9  O   UNL     1      -9.228   5.010  63.294  1.00  0.00    -0.346 OA 
HETATM   10  H   UNL     1      -8.858   4.914  62.424  1.00  0.00     0.000 HD 
HETATM   11  N   UNL     1      -8.289   7.803  63.574  1.00  0.00    -0.369 NA 
HETATM   12  C   UNL     1      -7.015   5.719  64.105  1.00  0.00    -0.051 C  
HETATM   13  H2  UNL     1      -8.580   8.730  63.885  1.00  0.00     0.000 HD 
HETATM   14  O   UNL     1      -5.858   5.228  64.795  1.00  0.00    -0.020 OA 
HETATM   15  C   UNL     1      -8.214   4.755  64.275  1.00  0.00    -0.117 C  
HETATM   16  H1  UNL     1      -7.876   7.830  62.641  1.00  0.00     0.000 HD 
HETATM   17  H   UNL     1      -5.648   4.342  64.522  1.00  0.00     0.000 HD 
BRANCH   7  18
HETATM   18  O   UNL     1      -8.321   8.454  66.362  1.00  0.00    -0.109 OA 
BRANCH  18  19
HETATM   19  C   UNL     1      -9.609   8.895  65.896  1.00  0.00    -0.223 C  
HETATM   20  O   UNL     1     -10.629   7.865  67.903  1.00  0.00    -0.328 OA 
HETATM   21  C   UNL     1      -9.446  10.360  65.498  1.00  0.00    -0.215 C  
HETATM   22  C   UNL     1     -10.447  10.332  67.603  1.00  0.00    -0.239 C  
HETATM   23  H   UNL     1     -11.298   7.900  68.577  1.00  0.00     0.000 HD 
HETATM   24  O   UNL     1      -9.776  11.155  66.647  1.00  0.00    -0.189 OA 
HETATM   25  C   UNL     1     -10.680   8.949  66.973  1.00  0.00    -0.110 C  
BRANCH  21  26
HETATM   26  C   UNL     1     -10.347  10.791  64.340  1.00  0.00    -0.335 C  
HETATM   27  H   UNL     1     -10.359  12.189  62.944  1.00  0.00     0.000 HD 
HETATM   28  O   UNL     1      -9.800  11.921  63.664  1.00  0.00    -0.334 OA 
ENDBRANCH  21  26
BRANCH  22  29
HETATM   29  O   UNL     1     -11.709  10.892  67.953  1.00  0.00    -0.557 OA 
BRANCH  29  30
HETATM   30  C   UNL     1     -11.840  11.544  69.232  1.00  0.00    -0.348 C  
HETATM   31  C   UNL     1     -12.749  10.718  70.163  1.00  0.00    -0.167 C  
HETATM   32  O   UNL     1     -12.363   9.337  70.138  1.00  0.00    -0.362 OA 
HETATM   33  C   UNL     1     -12.675  11.250  71.598  1.00  0.00    -0.343 C  
HETATM   34  C   UNL     1     -13.177  12.693  71.625  1.00  0.00    -0.394 C  
HETATM   35  N   UNL     1     -13.467  10.409  72.517  1.00  0.00    -0.474 NA 
HETATM   36  H   UNL     1     -12.923   8.828  70.712  1.00  0.00     0.000 HD 
HETATM   37  H1  UNL     1     -13.418  10.763  73.472  1.00  0.00     0.000 HD 
HETATM   38  H2  UNL     1     -13.189   9.430  72.464  1.00  0.00     0.000 HD 
HETATM   39  C   UNL     1     -12.388  13.595  70.660  1.00  0.00    -0.368 C  
HETATM   40  C   UNL     1     -12.276  13.034  69.193  1.00  0.00    -0.061 C  
HETATM   41  N   UNL     1     -12.996  14.942  70.677  1.00  0.00    -0.515 NA 
HETATM   42  H2  UNL     1     -13.058  15.333  71.617  1.00  0.00     0.000 HD 
HETATM   43  H1  UNL     1     -12.473  15.540  70.038  1.00  0.00     0.000 HD 
BRANCH  40  44
HETATM   44  O   UNL     1     -11.359  13.905  68.490  1.00  0.00    -0.248 OA 
BRANCH  44  45
HETATM   45  C   UNL     1     -11.968  14.914  67.671  1.00  0.00    -0.145 C  
HETATM   46  O   UNL     1     -11.492  16.216  67.993  1.00  0.00    -0.289 OA 
HETATM   47  C   UNL     1     -10.123  16.462  67.675  1.00  0.00    -0.263 C  
HETATM   48  C   UNL     1      -9.900  16.292  66.170  1.00  0.00    -0.334 C  
HETATM   49  H1  UNL     1     -12.126  13.081  64.752  1.00  0.00     0.000 HD 
HETATM   50  H2  UNL     1     -13.206  13.112  66.033  1.00  0.00     0.000 HD 
HETATM   51  O   UNL     1      -8.536  16.495  65.795  1.00  0.00    -0.442 OA 
HETATM   52  C   UNL     1     -10.340  14.886  65.739  1.00  0.00    -0.332 C  
HETATM   53  H   UNL     1      -8.398  16.390  64.861  1.00  0.00     0.000 HD 
HETATM   54  O   UNL     1     -10.219  14.760  64.312  1.00  0.00    -0.330 OA 
HETATM   55  N   UNL     1     -12.240  13.272  65.747  1.00  0.00    -0.442 NA 
HETATM   56  C   UNL     1     -11.795  14.623  66.159  1.00  0.00    -0.277 C  
HETATM   57  H   UNL     1     -10.491  13.890  64.045  1.00  0.00     0.000 HD 
BRANCH  47  58
HETATM   58  C   UNL     1      -9.802  17.891  68.135  1.00  0.00    -0.334 C  
HETATM   59  O   UNL     1     -10.298  18.841  67.187  1.00  0.00    -0.360 OA 
HETATM   60  H   UNL     1     -10.099  19.725  67.471  1.00  0.00     0.000 HD 
ENDBRANCH  47  58
ENDBRANCH  44  45
ENDBRANCH  40  44
ENDBRANCH  29  30
ENDBRANCH  22  29
ENDBRANCH  18  19
ENDBRANCH   7  18
ENDBRANCH   2   5
TORSDOF 9
ENDMDL
MODEL       10
REMARK 921   NORMALIZED FREE ENERGY PREDICTED BY IDOCK:   -7.83 KCAL/MOL
REMARK 922        TOTAL FREE ENERGY PREDICTED BY IDOCK:  -14.00 KCAL/MOL
REMARK 923 INTER-LIGAND FREE ENERGY PREDICTED BY IDOCK:  -13.24 KCAL/MOL
REMARK 924 INTRA-LIGAND FREE ENERGY PREDICTED BY IDOCK:   -0.75 KCAL/MOL
REMARK 927      BINDING AFFINITY PREDICTED BY RF-SCORE:    0.00 PKD
ROOT
HETATM    1  N   UNL     1      -5.831  19.962  68.100  1.00  0.00    -0.223 NA 
HETATM    2  C   UNL     1      -6.454  18.636  67.915  1.00  0.00    -0.209 C  
HETATM    3  H1  UNL     1      -4.826  19.900  67.931  1.00  0.00     0.000 HD 
HETATM    4  H2  UNL     1      -6.042  20.360  69.015  1.00  0.00     0.000 HD 
ENDROOT
BRANCH   2   5
HETATM    5  C   UNL     1      -7.968  18.730  68.169  1.00  0.00    -0.290 C  
HETATM    6  O   UNL     1      -8.595  17.704  67.377  1.00  0.00    -0.222 OA 
HETATM    7  C   UNL     1      -9.980  17.562  67.684  1.00  0.00    -0.309 C  
HETATM    8  C   UNL     1     -10.726  18.852  67.234  1.00  0.00    -0.449 C  
HETATM    9  O   UNL     1      -8.171  20.466  66.478  1.00  0.00    -0.492 OA 
HETATM   10  H   UNL     1      -8.536  21.315  66.258  1.00  0.00     0.000 HD 
HETATM   11  N   UNL     1     -10.651  19.020  65.753  1.00  0.00    -0.537 NA 
HETATM   12  C   UNL     1     -10.102  20.072  67.952  1.00  0.00    -0.420 C  
HETATM   13  H2  UNL     1     -10.995  18.195  65.261  1.00  0.00     0.000 HD 
HETATM   14  O   UNL     1     -10.493  20.114  69.331  1.00  0.00    -0.586 OA 
HETATM   15  C   UNL     1      -8.562  20.109  67.811  1.00  0.00    -0.254 C  
HETATM   16  H1  UNL     1     -11.139  19.866  65.458  1.00  0.00     0.000 HD 
HETATM   17  H   UNL     1     -10.110  20.864  69.772  1.00  0.00     0.000 HD 
BRANCH   7  18
HETATM   18  O   UNL     1     -10.548  16.444  66.997  1.00  0.00    -0.305 OA 
BRANCH  18  19
HETATM   19  C   UNL     1     -11.324  15.572  67.839  1.00  0.00    -0.308 C  
HETATM   20  O   UNL     1     -12.078  14.368  65.812  1.00  0.00    -0.385 OA 
HETATM   21  C   UNL     1     -10.401  15.137  68.975  1.00  0.00    -0.244 C  
HETATM   22  C   UNL     1     -10.475  13.381  67.444  1.00  0.00    -0.243 C  
HETATM   23  H   UNL     1     -12.321  13.545  65.406  1.00  0.00     0.000 HD 
HETATM   24  O   UNL     1      -9.773  13.911  68.571  1.00  0.00    -0.221 OA 
HETATM   25  C   UNL     1     -11.713  14.255  67.190  1.00  0.00    -0.404 C  
BRANCH  21  26
HETATM   26  C   UNL     1     -11.122  14.893  70.302  1.00  0.00    -0.192 C  
HETATM   27  H   UNL     1     -12.421  15.839  71.451  1.00  0.00     0.000 HD 
HETATM   28  O   UNL     1     -11.973  15.990  70.628  1.00  0.00    -0.366 OA 
ENDBRANCH  21  26
BRANCH  22  29
HETATM   29  O   UNL     1     -10.904  12.046  67.699  1.00  0.00    -0.215 OA 
BRANCH  29  30
HETATM   30  C   UNL     1     -10.124  10.960  67.162  1.00  0.00    -0.198 C  
HETATM   31  C   UNL     1      -9.668  11.288  65.727  1.00  0.00    -0.227 C  
HETATM   32  O   UNL     1      -9.121  12.613  65.669  1.00  0.00    -0.426 OA 
HETATM   33  C   UNL     1      -8.619  10.276  65.251  1.00  0.00    -0.165 C  
HETATM   34  C   UNL     1      -9.244   8.881  65.229  1.00  0.00    -0.158 C  
HETATM   35  N   UNL     1      -8.104  10.633  63.915  1.00  0.00    -0.356 NA 
HETATM   36  H   UNL     1      -8.839  12.814  64.785  1.00  0.00     0.000 HD 
HETATM   37  H1  UNL     1      -7.407   9.960  63.598  1.00  0.00     0.000 HD 
HETATM   38  H2  UNL     1      -7.742  11.586  63.895  1.00  0.00     0.000 HD 
HETATM   39  C   UNL     1      -9.813   8.482  66.602  1.00  0.00    -0.272 C  
HETATM   40  C   UNL     1     -10.776   9.553  67.240  1.00  0.00    -0.199 C  
HETATM   41  N   UNL     1     -10.478   7.169  66.469  1.00  0.00    -0.504 NA 
HETATM   42  H2  UNL     1      -9.862   6.456  66.078  1.00  0.00     0.000 HD 
HETATM   43  H1  UNL     1     -10.855   6.906  67.380  1.00  0.00     0.000 HD 
BRANCH  40  44
HETATM   44  O   UNL     1     -11.059   9.100  68.584  1.00  0.00    -0.020 OA 
BRANCH  44  45
HETATM   45  C   UNL     1     -10.505   9.902  69.637  1.00  0.00    -0.249 C  
HETATM   46  O   UNL     1     -11.508  10.365  70.534  1.00  0.00    -0.304 OA 
HETATM   47  C   UNL     1     -12.135   9.356  71.325  1.00  0.00    -0.345 C  
HETATM   48  C   UNL     1     -11.089   8.649  72.190  1.00  0.00    -0.364 C  
HETATM   49  H1  UNL     1      -7.568   8.136  70.041  1.00  0.00     0.000 HD 
HETATM   50  H2  UNL     1      -7.916   9.360  68.951  1.00  0.00     0.000 HD 
HETATM   51  O   UNL     1     -11.655   7.603  72.983  1.00  0.00    -0.596 OA 
HETATM   52  C   UNL     1      -9.986   8.067  71.295  1.00  0.00    -0.174 C  
HETATM   53  H   UNL     1     -11.006   7.164  73.520  1.00  0.00     0.000 HD 
HETATM   54  O   UNL     1      -8.957   7.487  72.116  1.00  0.00    -0.125 OA 
HETATM   55  N   UNL     1      -8.309   8.622  69.537  1.00  0.00    -0.115 NA 
HETATM   56  C   UNL     1      -9.380   9.163  70.405  1.00  0.00    -0.232 C  
HETATM   57  H   UNL     1      -8.275   7.126  71.562  1.00  0.00     0.000 HD 
BRANCH  47  58
HETATM   58  C   UNL     1     -13.201  10.051  72.183  1.00  0.00    -0.390 C  
HETATM   59  O   UNL     1     -13.940   9.084  72.935  1.00  0.00    -0.950 OA 
HETATM   60  H   UNL     1     -14.600   9.514  73.466  1.00  0.00     0.000 HD 
ENDBRANCH  47  58
ENDBRANCH  44  45
ENDBRANCH  40  44
ENDBRANCH  29  30
ENDBRANCH  22  29
ENDBRANCH  18  19
ENDBRANCH   7  18
ENDBRANCH   2   5
TORSDOF 9
ENDMDL
MODEL       11
REMARK 921   NORMALIZED FREE ENERGY PREDICTED BY IDOCK:   -7.74 KCAL/MOL
REMARK 922        TOTAL FREE ENERGY PREDICTED BY IDOCK:  -13.86 KCAL/MOL
REMARK 923 INTER-LIGAND FREE ENERGY PREDICTED BY IDOCK:  -11.95 KCAL/MOL
REMARK 924 INTRA-LIGAND FREE ENERGY PREDICTED BY IDOCK:   -1.91 KCAL/MOL
REMARK 927      BINDING AFFINITY PREDICTED BY RF-SCORE:    0.00 PKD
ROOT
HETATM    1  N   UNL     1     -10.536  19.935  68.974  1.00  0.00    -0.555 NA 
HETATM    2  C   UNL     1     -10.072  20.249  67.607  1.00  0.00    -0.375 C  
HETATM    3  H1  UNL     1     -11.024  20.739  69.368  1.00  0.00     0.000 HD 
HETATM    4  H2  UNL     1      -9.774  19.616  69.573  1.00  0.00     0.000 HD 
ENDROOT
BRANCH   2   5
HETATM    5  C   UNL     1      -9.336  19.037  67.013  1.00  0.00    -0.309 C  
HETATM    6  O   UNL     1      -9.935  17.857  67.581  1.00  0.00    -0.299 OA 
HETATM    7  C   UNL     1      -9.471  16.664  66.953  1.00  0.00    -0.235 C  
HETATM    8  C   UNL     1      -7.962  16.481  67.283  1.00  0.00    -0.164 C  
HETATM    9  O   UNL     1      -7.595  19.231  68.699  1.00  0.00    -0.323 OA 
HETATM   10  H   UNL     1      -6.661  19.237  68.873  1.00  0.00     0.000 HD 
HETATM   11  N   UNL     1      -7.760  16.276  68.748  1.00  0.00    -0.189 NA 
HETATM   12  C   UNL     1      -7.183  17.725  66.797  1.00  0.00    -0.207 C  
HETATM   13  H2  UNL     1      -8.320  15.500  69.101  1.00  0.00     0.000 HD 
HETATM   14  O   UNL     1      -7.051  17.725  65.368  1.00  0.00    -0.382 OA 
HETATM   15  C   UNL     1      -7.819  19.045  67.295  1.00  0.00    -0.245 C  
HETATM   16  H1  UNL     1      -6.770  16.156  68.965  1.00  0.00     0.000 HD 
HETATM   17  H   UNL     1      -6.573  18.490  65.070  1.00  0.00     0.000 HD 
BRANCH   7  18
HETATM   18  O   UNL     1     -10.185  15.520  67.428  1.00  0.00    -0.248 OA 
BRANCH  18  19
HETATM   19  C   UNL     1     -10.448  14.533  66.415  1.00  0.00    -0.295 C  
HETATM   20  O   UNL     1      -8.777  13.058  67.491  1.00  0.00    -0.175 OA 
HETATM   21  C   UNL     1     -11.967  14.414  66.312  1.00  0.00    -0.376 C  
HETATM   22  C   UNL     1     -11.226  12.608  67.586  1.00  0.00    -0.283 C  
HETATM   23  H   UNL     1      -8.509  12.176  67.723  1.00  0.00     0.000 HD 
HETATM   24  O   UNL     1     -12.376  13.365  67.203  1.00  0.00    -0.295 OA 
HETATM   25  C   UNL     1     -10.019  13.123  66.786  1.00  0.00    -0.250 C  
BRANCH  21  26
HETATM   26  C   UNL     1     -12.469  14.075  64.908  1.00  0.00    -0.396 C  
HETATM   27  H   UNL     1     -12.781  15.021  63.202  1.00  0.00     0.000 HD 
HETATM   28  O   UNL     1     -12.470  15.232  64.074  1.00  0.00    -0.725 OA 
ENDBRANCH  21  26
BRANCH  22  29
HETATM   29  O   UNL     1     -11.411  11.226  67.293  1.00  0.00    -0.464 OA 
BRANCH  29  30
HETATM   30  C   UNL     1     -10.886  10.253  68.216  1.00  0.00    -0.255 C  
HETATM   31  C   UNL     1     -11.520  10.438  69.608  1.00  0.00    -0.262 C  
HETATM   32  O   UNL     1     -12.944  10.569  69.492  1.00  0.00    -0.602 OA 
HETATM   33  C   UNL     1     -11.183   9.250  70.516  1.00  0.00    -0.265 C  
HETATM   34  C   UNL     1      -9.668   9.178  70.705  1.00  0.00    -0.337 C  
HETATM   35  N   UNL     1     -11.863   9.369  71.820  1.00  0.00    -0.384 NA 
HETATM   36  H   UNL     1     -13.335  10.683  70.350  1.00  0.00     0.000 HD 
HETATM   37  H1  UNL     1     -11.638   8.579  72.425  1.00  0.00     0.000 HD 
HETATM   38  H2  UNL     1     -12.870   9.484  71.710  1.00  0.00     0.000 HD 
HETATM   39  C   UNL     1      -8.924   9.076  69.363  1.00  0.00    -0.145 C  
HETATM   40  C   UNL     1      -9.338  10.169  68.307  1.00  0.00    -0.133 C  
HETATM   41  N   UNL     1      -7.470   9.108  69.630  1.00  0.00    -0.074 NA 
HETATM   42  H2  UNL     1      -7.179   8.392  70.296  1.00  0.00     0.000 HD 
HETATM   43  H1  UNL     1      -6.977   9.040  68.740  1.00  0.00     0.000 HD 
BRANCH  40  44
HETATM   44  O   UNL     1      -8.686   9.809  67.067  1.00  0.00    -0.133 OA 
BRANCH  44  45
HETATM   45  C   UNL     1      -9.482   9.048  66.147  1.00  0.00    -0.253 C  
HETATM   46  O   UNL     1      -9.917   9.837  65.046  1.00  0.00    -0.286 OA 
HETATM   47  C   UNL     1      -8.888  10.264  64.154  1.00  0.00    -0.222 C  
HETATM   48  C   UNL     1      -8.186   9.046  63.549  1.00  0.00    -0.178 C  
HETATM   49  H1  UNL     1      -7.756   6.073  66.422  1.00  0.00     0.000 HD 
HETATM   50  H2  UNL     1      -8.989   6.665  67.390  1.00  0.00     0.000 HD 
HETATM   51  O   UNL     1      -7.120   9.412  62.670  1.00  0.00    -0.101 OA 
HETATM   52  C   UNL     1      -7.633   8.158  64.672  1.00  0.00    -0.111 C  
HETATM   53  H   UNL     1      -6.685   8.656  62.294  1.00  0.00     0.000 HD 
HETATM   54  O   UNL     1      -7.058   6.967  64.106  1.00  0.00    -0.056 OA 
HETATM   55  N   UNL     1      -8.238   6.911  66.745  1.00  0.00    -0.112 NA 
HETATM   56  C   UNL     1      -8.750   7.774  65.656  1.00  0.00    -0.104 C  
HETATM   57  H   UNL     1      -6.716   6.418  64.801  1.00  0.00     0.000 HD 
BRANCH  47  58
HETATM   58  C   UNL     1      -9.555  11.126  63.073  1.00  0.00    -0.369 C  
HETATM   59  O   UNL     1     -10.978  11.007  63.151  1.00  0.00    -0.780 OA 
HETATM   60  H   UNL     1     -11.390  11.540  62.482  1.00  0.00     0.000 HD 
ENDBRANCH  47  58
ENDBRANCH  44  45
ENDBRANCH  40  44
ENDBRANCH  29  30
ENDBRANCH  22  29
ENDBRANCH  18  19
ENDBRANCH   7  18
ENDBRANCH   2   5
TORSDOF 9
ENDMDL
MODEL       12
REMARK 921   NORMALIZED FREE ENERGY PREDICTED BY IDOCK:   -7.73 KCAL/MOL
REMARK 922        TOTAL FREE ENERGY PREDICTED BY IDOCK:  -13.84 KCAL/MOL
REMARK 923 INTER-LIGAND FREE ENERGY PREDICTED BY IDOCK:  -10.66 KCAL/MOL
REMARK 924 INTRA-LIGAND FREE ENERGY PREDICTED BY IDOCK:   -3.18 KCAL/MOL
REMARK 927      BINDING AFFINITY PREDICTED BY RF-SCORE:    0.00 PKD
ROOT
HETATM    1  N   UNL     1      -5.871  20.366  68.438  1.00  0.00    -0.258 NA 
HETATM    2  C   UNL     1      -6.283  19.090  67.819  1.00  0.00    -0.209 C  
HETATM    3  H1  UNL     1      -4.867  20.502  68.316  1.00  0.00     0.000 HD 
HETATM    4  H2  UNL     1      -6.150  20.425  69.417  1.00  0.00     0.000 HD 
ENDROOT
BRANCH   2   5
HETATM    5  C   UNL     1      -7.796  18.885  68.002  1.00  0.00    -0.277 C  
HETATM    6  O   UNL     1      -8.254  18.092  66.891  1.00  0.00    -0.229 OA 
HETATM    7  C   UNL     1      -9.605  17.667  67.056  1.00  0.00    -0.276 C  
HETATM    8  C   UNL     1     -10.532  18.916  66.997  1.00  0.00    -0.428 C  
HETATM    9  O   UNL     1      -8.242  21.027  66.941  1.00  0.00    -0.560 OA 
HETATM   10  H   UNL     1      -8.728  21.842  66.981  1.00  0.00     0.000 HD 
HETATM   11  N   UNL     1     -10.468  19.562  65.653  1.00  0.00    -0.501 NA 
HETATM   12  C   UNL     1     -10.106  19.914  68.100  1.00  0.00    -0.441 C  
HETATM   13  H2  UNL     1     -10.680  18.900  64.906  1.00  0.00     0.000 HD 
HETATM   14  O   UNL     1     -10.512  19.454  69.396  1.00  0.00    -0.484 OA 
HETATM   15  C   UNL     1      -8.587  20.209  68.067  1.00  0.00    -0.146 C  
HETATM   16  H1  UNL     1     -11.076  20.381  65.614  1.00  0.00     0.000 HD 
HETATM   17  H   UNL     1     -10.251  20.067  70.073  1.00  0.00     0.000 HD 
BRANCH   7  18
HETATM   18  O   UNL     1      -9.991  16.763  66.018  1.00  0.00    -0.336 OA 
BRANCH  18  19
HETATM   19  C   UNL     1     -11.000  15.815  66.413  1.00  0.00    -0.159 C  
HETATM   20  O   UNL     1     -10.759  14.717  64.208  1.00  0.00    -0.552 OA 
HETATM   21  C   UNL     1     -10.619  15.340  67.814  1.00  0.00    -0.266 C  
HETATM   22  C   UNL     1      -9.941  13.682  66.322  1.00  0.00    -0.300 C  
HETATM   23  H   UNL     1     -10.762  13.913  63.702  1.00  0.00     0.000 HD 
HETATM   24  O   UNL     1      -9.812  14.163  67.661  1.00  0.00    -0.223 OA 
HETATM   25  C   UNL     1     -11.004  14.529  65.604  1.00  0.00    -0.323 C  
BRANCH  21  26
HETATM   26  C   UNL     1     -11.818  14.990  68.697  1.00  0.00    -0.296 C  
HETATM   27  H   UNL     1     -12.555  13.389  69.588  1.00  0.00     0.000 HD 
HETATM   28  O   UNL     1     -11.811  13.606  69.040  1.00  0.00    -0.310 OA 
ENDBRANCH  21  26
BRANCH  22  29
HETATM   29  O   UNL     1     -10.362  12.321  66.313  1.00  0.00    -0.225 OA 
BRANCH  29  30
HETATM   30  C   UNL     1      -9.475  11.332  65.756  1.00  0.00    -0.227 C  
HETATM   31  C   UNL     1     -10.034  10.804  64.420  1.00  0.00    -0.338 C  
HETATM   32  O   UNL     1     -10.446  11.897  63.587  1.00  0.00    -0.362 OA 
HETATM   33  C   UNL     1      -8.979   9.967  63.688  1.00  0.00    -0.251 C  
HETATM   34  C   UNL     1      -8.617   8.755  64.547  1.00  0.00    -0.125 C  
HETATM   35  N   UNL     1      -9.469   9.536  62.364  1.00  0.00    -0.580 NA 
HETATM   36  H   UNL     1     -10.790  11.573  62.764  1.00  0.00     0.000 HD 
HETATM   37  H1  UNL     1      -8.767   8.978  61.877  1.00  0.00     0.000 HD 
HETATM   38  H2  UNL     1      -9.776  10.328  61.801  1.00  0.00     0.000 HD 
HETATM   39  C   UNL     1      -8.124   9.166  65.945  1.00  0.00    -0.111 C  
HETATM   40  C   UNL     1      -9.078  10.165  66.701  1.00  0.00    -0.144 C  
HETATM   41  N   UNL     1      -7.888   7.941  66.737  1.00  0.00    -0.101 NA 
HETATM   42  H2  UNL     1      -7.255   7.290  66.272  1.00  0.00     0.000 HD 
HETATM   43  H1  UNL     1      -7.561   8.214  67.663  1.00  0.00     0.000 HD 
BRANCH  40  44
HETATM   44  O   UNL     1      -8.374  10.579  67.895  1.00  0.00    -0.113 OA 
BRANCH  44  45
HETATM   45  C   UNL     1      -6.944  10.631  67.785  1.00  0.00    -0.078 C  
HETATM   46  O   UNL     1      -6.488  11.932  67.429  1.00  0.00    -0.097 OA 
HETATM   47  C   UNL     1      -6.675  12.939  68.422  1.00  0.00    -0.092 C  
HETATM   48  C   UNL     1      -5.916  12.559  69.696  1.00  0.00    -0.123 C  
HETATM   49  H1  UNL     1      -6.219   8.470  70.374  1.00  0.00     0.000 HD 
HETATM   50  H2  UNL     1      -6.581   8.112  68.777  1.00  0.00     0.000 HD 
HETATM   51  O   UNL     1      -6.092  13.518  70.741  1.00  0.00    -0.360 OA 
HETATM   52  C   UNL     1      -6.385  11.183  70.186  1.00  0.00    -0.137 C  
HETATM   53  H   UNL     1      -5.621  13.283  71.532  1.00  0.00     0.000 HD 
HETATM   54  O   UNL     1      -5.604  10.786  71.327  1.00  0.00    -0.271 OA 
HETATM   55  N   UNL     1      -6.683   8.797  69.527  1.00  0.00    -0.047 NA 
HETATM   56  C   UNL     1      -6.239  10.135  69.072  1.00  0.00    -0.043 C  
HETATM   57  H   UNL     1      -5.895   9.934  71.631  1.00  0.00     0.000 HD 
BRANCH  47  58
HETATM   58  C   UNL     1      -6.161  14.259  67.831  1.00  0.00    -0.148 C  
HETATM   59  O   UNL     1      -7.027  15.336  68.196  1.00  0.00    -0.110 OA 
HETATM   60  H   UNL     1      -6.709  16.153  67.830  1.00  0.00     0.000 HD 
ENDBRANCH  47  58
ENDBRANCH  44  45
ENDBRANCH  40  44
ENDBRANCH  29  30
ENDBRANCH  22  29
ENDBRANCH  18  19
ENDBRANCH   7  18
ENDBRANCH   2   5
TORSDOF 9
ENDMDL
MODEL       13
REMARK 921   NORMALIZED FREE ENERGY PREDICTED BY IDOCK:   -7.68 KCAL/MOL
REMARK 922        TOTAL FREE ENERGY PREDICTED BY IDOCK:  -13.77 KCAL/MOL
REMARK 923 INTER-LIGAND FREE ENERGY PREDICTED BY IDOCK:  -12.61 KCAL/MOL
REMARK 924 INTRA-LIGAND FREE ENERGY PREDICTED BY IDOCK:   -1.16 KCAL/MOL
REMARK 927      BINDING AFFINITY PREDICTED BY RF-SCORE:    0.00 PKD
ROOT
HETATM    1  N   UNL     1      -6.240  18.625  65.618  1.00  0.00    -0.230 NA 
HETATM    2  C   UNL     1      -6.356  18.768  67.084  1.00  0.00    -0.186 C  
HETATM    3  H1  UNL     1      -5.256  18.600  65.349  1.00  0.00     0.000 HD 
HETATM    4  H2  UNL     1      -6.755  19.352  65.120  1.00  0.00     0.000 HD 
ENDROOT
BRANCH   2   5
HETATM    5  C   UNL     1      -7.839  18.806  67.489  1.00  0.00    -0.233 C  
HETATM    6  O   UNL     1      -8.509  17.774  66.741  1.00  0.00    -0.231 OA 
HETATM    7  C   UNL     1      -9.852  17.579  67.180  1.00  0.00    -0.297 C  
HETATM    8  C   UNL     1     -10.679  18.851  66.836  1.00  0.00    -0.370 C  
HETATM    9  O   UNL     1      -8.266  20.565  65.865  1.00  0.00    -0.520 OA 
HETATM   10  H   UNL     1      -8.678  21.405  65.702  1.00  0.00     0.000 HD 
HETATM   11  N   UNL     1     -10.758  19.050  65.358  1.00  0.00    -0.487 NA 
HETATM   12  C   UNL     1     -10.026  20.078  67.515  1.00  0.00    -0.427 C  
HETATM   13  H2  UNL     1     -11.123  18.223  64.885  1.00  0.00     0.000 HD 
HETATM   14  O   UNL     1     -10.279  20.081  68.927  1.00  0.00    -0.481 OA 
HETATM   15  C   UNL     1      -8.510  20.170  67.222  1.00  0.00    -0.342 C  
HETATM   16  H1  UNL     1     -11.300  19.884  65.133  1.00  0.00     0.000 HD 
HETATM   17  H   UNL     1      -9.877  20.834  69.344  1.00  0.00     0.000 HD 
BRANCH   7  18
HETATM   18  O   UNL     1     -10.450  16.455  66.528  1.00  0.00    -0.302 OA 
BRANCH  18  19
HETATM   19  C   UNL     1     -11.405  15.749  67.340  1.00  0.00    -0.106 C  
HETATM   20  O   UNL     1     -11.730  14.153  65.476  1.00  0.00    -0.326 OA 
HETATM   21  C   UNL     1     -10.755  15.566  68.710  1.00  0.00    -0.249 C  
HETATM   22  C   UNL     1     -10.534  13.542  67.575  1.00  0.00    -0.237 C  
HETATM   23  H   UNL     1     -11.897  13.260  65.198  1.00  0.00     0.000 HD 
HETATM   24  O   UNL     1     -10.080  14.300  68.698  1.00  0.00    -0.233 OA 
HETATM   25  C   UNL     1     -11.672  14.320  66.894  1.00  0.00    -0.408 C  
BRANCH  21  26
HETATM   26  C   UNL     1     -11.749  15.571  69.872  1.00  0.00    -0.352 C  
HETATM   27  H   UNL     1     -11.736  15.163  71.805  1.00  0.00     0.000 HD 
HETATM   28  O   UNL     1     -11.119  15.160  71.083  1.00  0.00    -0.311 OA 
ENDBRANCH  21  26
BRANCH  22  29
HETATM   29  O   UNL     1     -11.034  12.275  67.989  1.00  0.00    -0.206 OA 
BRANCH  29  30
HETATM   30  C   UNL     1     -10.252  11.100  67.699  1.00  0.00    -0.181 C  
HETATM   31  C   UNL     1      -9.368  11.338  66.459  1.00  0.00    -0.185 C  
HETATM   32  O   UNL     1      -8.691  12.599  66.566  1.00  0.00    -0.392 OA 
HETATM   33  C   UNL     1      -8.340  10.212  66.306  1.00  0.00    -0.130 C  
HETATM   34  C   UNL     1      -9.075   8.887  66.101  1.00  0.00    -0.251 C  
HETATM   35  N   UNL     1      -7.426  10.477  65.178  1.00  0.00    -0.302 NA 
HETATM   36  H   UNL     1      -8.147  12.745  65.802  1.00  0.00     0.000 HD 
HETATM   37  H1  UNL     1      -6.742   9.728  65.076  1.00  0.00     0.000 HD 
HETATM   38  H2  UNL     1      -6.975  11.387  65.266  1.00  0.00     0.000 HD 
HETATM   39  C   UNL     1     -10.055   8.588  67.249  1.00  0.00    -0.251 C  
HETATM   40  C   UNL     1     -11.043   9.769  67.581  1.00  0.00    -0.049 C  
HETATM   41  N   UNL     1     -10.788   7.346  66.926  1.00  0.00    -0.557 NA 
HETATM   42  H2  UNL     1     -10.164   6.563  66.728  1.00  0.00     0.000 HD 
HETATM   43  H1  UNL     1     -11.437   7.148  67.687  1.00  0.00     0.000 HD 
BRANCH  40  44
HETATM   44  O   UNL     1     -11.748   9.386  68.785  1.00  0.00     0.483 OA 
BRANCH  44  45
HETATM   45  C   UNL     1     -11.023   9.562  70.010  1.00  0.00    -0.251 C  
HETATM   46  O   UNL     1     -11.499  10.679  70.752  1.00  0.00    -0.327 OA 
HETATM   47  C   UNL     1     -12.815  10.543  71.286  1.00  0.00    -0.431 C  
HETATM   48  C   UNL     1     -12.868   9.349  72.242  1.00  0.00    -0.375 C  
HETATM   49  H1  UNL     1     -10.576   6.221  70.747  1.00  0.00     0.000 HD 
HETATM   50  H2  UNL     1      -9.651   7.213  69.763  1.00  0.00     0.000 HD 
HETATM   51  O   UNL     1     -14.174   9.143  72.785  1.00  0.00    -0.903 OA 
HETATM   52  C   UNL     1     -12.418   8.079  71.508  1.00  0.00    -0.310 C  
HETATM   53  H   UNL     1     -14.206   8.402  73.379  1.00  0.00     0.000 HD 
HETATM   54  O   UNL     1     -12.376   6.978  72.432  1.00  0.00    -0.498 OA 
HETATM   55  N   UNL     1     -10.573   7.064  70.173  1.00  0.00    -0.221 NA 
HETATM   56  C   UNL     1     -11.028   8.281  70.882  1.00  0.00    -0.246 C  
HETATM   57  H   UNL     1     -12.097   6.192  71.977  1.00  0.00     0.000 HD 
BRANCH  47  58
HETATM   58  C   UNL     1     -13.151  11.858  72.004  1.00  0.00    -0.336 C  
HETATM   59  O   UNL     1     -12.752  12.975  71.206  1.00  0.00    -0.368 OA 
HETATM   60  H   UNL     1     -12.960  13.788  71.651  1.00  0.00     0.000 HD 
ENDBRANCH  47  58
ENDBRANCH  44  45
ENDBRANCH  40  44
ENDBRANCH  29  30
ENDBRANCH  22  29
ENDBRANCH  18  19
ENDBRANCH   7  18
ENDBRANCH   2   5
TORSDOF 9
ENDMDL
MODEL       14
REMARK 921   NORMALIZED FREE ENERGY PREDICTED BY IDOCK:   -7.56 KCAL/MOL
REMARK 922        TOTAL FREE ENERGY PREDICTED BY IDOCK:  -13.58 KCAL/MOL
REMARK 923 INTER-LIGAND FREE ENERGY PREDICTED BY IDOCK:  -11.15 KCAL/MOL
REMARK 924 INTRA-LIGAND FREE ENERGY PREDICTED BY IDOCK:   -2.43 KCAL/MOL
REMARK 927      BINDING AFFINITY PREDICTED BY RF-SCORE:    0.00 PKD
ROOT
HETATM    1  N   UNL     1     -13.436  11.144  72.146  1.00  0.00    -0.526 NA 
HETATM    2  C   UNL     1     -12.400  10.999  71.104  1.00  0.00    -0.359 C  
HETATM    3  H1  UNL     1     -13.984  11.988  71.975  1.00  0.00     0.000 HD 
HETATM    4  H2  UNL     1     -13.039  11.128  73.086  1.00  0.00     0.000 HD 
ENDROOT
BRANCH   2   5
HETATM    5  C   UNL     1     -11.575   9.727  71.361  1.00  0.00    -0.378 C  
HETATM    6  O   UNL     1     -11.078   9.279  70.086  1.00  0.00    -0.238 OA 
HETATM    7  C   UNL     1     -10.132   8.220  70.221  1.00  0.00    -0.192 C  
HETATM    8  C   UNL     1     -10.866   6.962  70.770  1.00  0.00    -0.245 C  
HETATM    9  O   UNL     1     -13.593   8.372  71.297  1.00  0.00    -0.526 OA 
HETATM   10  H   UNL     1     -14.093   7.679  71.713  1.00  0.00     0.000 HD 
HETATM   11  N   UNL     1     -11.887   6.476  69.795  1.00  0.00    -0.615 NA 
HETATM   12  C   UNL     1     -11.530   7.314  72.122  1.00  0.00    -0.273 C  
HETATM   13  H2  UNL     1     -11.479   6.304  68.876  1.00  0.00     0.000 HD 
HETATM   14  O   UNL     1     -10.552   7.416  73.166  1.00  0.00    -0.303 OA 
HETATM   15  C   UNL     1     -12.386   8.600  72.036  1.00  0.00    -0.371 C  
HETATM   16  H1  UNL     1     -12.369   5.652  70.155  1.00  0.00     0.000 HD 
HETATM   17  H   UNL     1     -10.960   7.632  73.996  1.00  0.00     0.000 HD 
BRANCH   7  18
HETATM   18  O   UNL     1      -9.543   7.892  68.961  1.00  0.00    -0.154 OA 
BRANCH  18  19
HETATM   19  C   UNL     1      -8.210   8.405  68.787  1.00  0.00    -0.119 C  
HETATM   20  O   UNL     1      -8.720   8.773  66.393  1.00  0.00    -0.127 OA 
HETATM   21  C   UNL     1      -7.979   9.398  69.924  1.00  0.00    -0.130 C  
HETATM   22  C   UNL     1      -8.484  10.645  68.020  1.00  0.00    -0.119 C  
HETATM   23  H   UNL     1      -8.603   9.307  65.615  1.00  0.00     0.000 HD 
HETATM   24  O   UNL     1      -8.361  10.696  69.443  1.00  0.00    -0.142 OA 
HETATM   25  C   UNL     1      -8.023   9.258  67.543  1.00  0.00    -0.099 C  
BRANCH  21  26
HETATM   26  C   UNL     1      -6.526   9.469  70.399  1.00  0.00    -0.079 C  
HETATM   27  H   UNL     1      -5.438  10.600  71.597  1.00  0.00     0.000 HD 
HETATM   28  O   UNL     1      -6.339  10.556  71.302  1.00  0.00    -0.321 OA 
ENDBRANCH  21  26
BRANCH  22  29
HETATM   29  O   UNL     1      -7.662  11.634  67.407  1.00  0.00    -0.130 OA 
BRANCH  29  30
HETATM   30  C   UNL     1      -7.927  13.021  67.693  1.00  0.00    -0.169 C  
HETATM   31  C   UNL     1      -7.057  13.500  68.872  1.00  0.00    -0.093 C  
HETATM   32  O   UNL     1      -5.695  13.091  68.683  1.00  0.00    -0.065 OA 
HETATM   33  C   UNL     1      -7.124  15.025  69.005  1.00  0.00    -0.133 C  
HETATM   34  C   UNL     1      -8.566  15.439  69.298  1.00  0.00    -0.252 C  
HETATM   35  N   UNL     1      -6.221  15.505  70.069  1.00  0.00    -0.157 NA 
HETATM   36  H   UNL     1      -5.159  13.386  69.409  1.00  0.00     0.000 HD 
HETATM   37  H1  UNL     1      -6.266  16.519  70.159  1.00  0.00     0.000 HD 
HETATM   38  H2  UNL     1      -5.265  15.182  69.924  1.00  0.00     0.000 HD 
HETATM   39  C   UNL     1      -9.540  14.936  68.219  1.00  0.00    -0.214 C  
HETATM   40  C   UNL     1      -9.418  13.398  67.902  1.00  0.00    -0.216 C  
HETATM   41  N   UNL     1     -10.915  15.296  68.626  1.00  0.00    -0.246 NA 
HETATM   42  H2  UNL     1     -11.019  16.293  68.815  1.00  0.00     0.000 HD 
HETATM   43  H1  UNL     1     -11.560  14.962  67.911  1.00  0.00     0.000 HD 
BRANCH  40  44
HETATM   44  O   UNL     1     -10.263  13.149  66.755  1.00  0.00    -0.245 OA 
BRANCH  44  45
HETATM   45  C   UNL     1      -9.747  13.602  65.495  1.00  0.00    -0.059 C  
HETATM   46  O   UNL     1      -9.321  12.518  64.677  1.00  0.00     0.265 OA 
HETATM   47  C   UNL     1     -10.361  11.665  64.200  1.00  0.00    -0.337 C  
HETATM   48  C   UNL     1     -11.348  12.472  63.353  1.00  0.00    -0.422 C  
HETATM   49  H1  UNL     1     -11.939  16.226  65.035  1.00  0.00     0.000 HD 
HETATM   50  H2  UNL     1     -10.503  16.196  65.898  1.00  0.00     0.000 HD 
HETATM   51  O   UNL     1     -12.433  11.675  62.873  1.00  0.00    -0.930 OA 
HETATM   52  C   UNL     1     -11.904  13.640  64.179  1.00  0.00    -0.422 C  
HETATM   53  H   UNL     1     -13.045  12.175  62.347  1.00  0.00     0.000 HD 
HETATM   54  O   UNL     1     -12.756  14.451  63.352  1.00  0.00    -0.938 OA 
HETATM   55  N   UNL     1     -11.274  15.636  65.533  1.00  0.00    -0.203 NA 
HETATM   56  C   UNL     1     -10.758  14.499  64.737  1.00  0.00    -0.393 C  
HETATM   57  H   UNL     1     -13.100  15.174  63.863  1.00  0.00     0.000 HD 
BRANCH  47  58
HETATM   58  C   UNL     1      -9.694  10.551  63.383  1.00  0.00    -0.316 C  
HETATM   59  O   UNL     1      -8.369  10.307  63.864  1.00  0.00    -0.161 OA 
HETATM   60  H   UNL     1      -7.956   9.618  63.358  1.00  0.00     0.000 HD 
ENDBRANCH  47  58
ENDBRANCH  44  45
ENDBRANCH  40  44
ENDBRANCH  29  30
ENDBRANCH  22  29
ENDBRANCH  18  19
ENDBRANCH   7  18
ENDBRANCH   2   5
TORSDOF 9
ENDMDL
MODEL       15
REMARK 921   NORMALIZED FREE ENERGY PREDICTED BY IDOCK:   -7.53 KCAL/MOL
REMARK 922        TOTAL FREE ENERGY PREDICTED BY IDOCK:  -13.54 KCAL/MOL
REMARK 923 INTER-LIGAND FREE ENERGY PREDICTED BY IDOCK:  -10.90 KCAL/MOL
REMARK 924 INTRA-LIGAND FREE ENERGY PREDICTED BY IDOCK:   -2.64 KCAL/MOL
REMARK 927      BINDING AFFINITY PREDICTED BY RF-SCORE:    0.00 PKD
ROOT
HETATM    1  N   UNL     1      -6.156  21.234  67.825  1.00  0.00    -0.355 NA 
HETATM    2  C   UNL     1      -6.746  20.306  66.839  1.00  0.00    -0.232 C  
HETATM    3  H1  UNL     1      -5.298  21.640  67.450  1.00  0.00     0.000 HD 
HETATM    4  H2  UNL     1      -6.004  20.786  68.729  1.00  0.00     0.000 HD 
ENDROOT
BRANCH   2   5
HETATM    5  C   UNL     1      -8.039  19.695  67.404  1.00  0.00    -0.288 C  
HETATM    6  O   UNL     1      -8.013  18.289  67.097  1.00  0.00    -0.215 OA 
HETATM    7  C   UNL     1      -9.064  17.579  67.747  1.00  0.00    -0.249 C  
HETATM    8  C   UNL     1     -10.424  18.041  67.146  1.00  0.00    -0.367 C  
HETATM    9  O   UNL     1      -9.252  20.336  65.397  1.00  0.00    -0.394 OA 
HETATM   10  H   UNL     1     -10.040  20.731  65.043  1.00  0.00     0.000 HD 
HETATM   11  N   UNL     1     -10.518  17.677  65.701  1.00  0.00    -0.623 NA 
HETATM   12  C   UNL     1     -10.565  19.569  67.332  1.00  0.00    -0.485 C  
HETATM   13  H2  UNL     1     -10.359  16.681  65.552  1.00  0.00     0.000 HD 
HETATM   14  O   UNL     1     -10.855  19.899  68.698  1.00  0.00    -0.318 OA 
HETATM   15  C   UNL     1      -9.319  20.337  66.829  1.00  0.00    -0.358 C  
HETATM   16  H1  UNL     1     -11.409  17.980  65.308  1.00  0.00     0.000 HD 
HETATM   17  H   UNL     1     -10.941  20.838  68.812  1.00  0.00     0.000 HD 
BRANCH   7  18
HETATM   18  O   UNL     1      -8.934  16.168  67.548  1.00  0.00    -0.189 OA 
BRANCH  18  19
HETATM   19  C   UNL     1      -7.918  15.555  68.362  1.00  0.00    -0.127 C  
HETATM   20  O   UNL     1      -9.705  14.426  69.650  1.00  0.00    -0.386 OA 
HETATM   21  C   UNL     1      -6.874  14.995  67.399  1.00  0.00    -0.111 C  
HETATM   22  C   UNL     1      -8.205  13.206  68.079  1.00  0.00    -0.158 C  
HETATM   23  H   UNL     1      -9.994  13.655  70.125  1.00  0.00     0.000 HD 
HETATM   24  O   UNL     1      -7.235  13.634  67.120  1.00  0.00    -0.058 OA 
HETATM   25  C   UNL     1      -8.381  14.323  69.121  1.00  0.00     0.124 C  
BRANCH  21  26
HETATM   26  C   UNL     1      -5.448  15.010  67.953  1.00  0.00    -0.108 C  
HETATM   27  H   UNL     1      -4.396  16.073  69.243  1.00  0.00     0.000 HD 
HETATM   28  O   UNL     1      -5.281  16.064  68.899  1.00  0.00    -0.105 OA 
ENDBRANCH  21  26
BRANCH  22  29
HETATM   29  O   UNL     1      -7.769  12.025  68.746  1.00  0.00    -0.118 OA 
BRANCH  29  30
HETATM   30  C   UNL     1      -8.417  10.778  68.428  1.00  0.00    -0.137 C  
HETATM   31  C   UNL     1      -7.847   9.642  69.299  1.00  0.00    -0.098 C  
HETATM   32  O   UNL     1      -7.791  10.050  70.673  1.00  0.00    -0.412 OA 
HETATM   33  C   UNL     1      -8.709   8.381  69.170  1.00  0.00    -0.142 C  
HETATM   34  C   UNL     1      -8.685   7.904  67.718  1.00  0.00    -0.127 C  
HETATM   35  N   UNL     1      -8.229   7.316  70.072  1.00  0.00    -0.130 NA 
HETATM   36  H   UNL     1      -7.440   9.350  71.210  1.00  0.00     0.000 HD 
HETATM   37  H1  UNL     1      -8.802   6.477  69.986  1.00  0.00     0.000 HD 
HETATM   38  H2  UNL     1      -8.177   7.638  71.038  1.00  0.00     0.000 HD 
HETATM   39  C   UNL     1      -9.158   8.998  66.745  1.00  0.00    -0.145 C  
HETATM   40  C   UNL     1      -8.432  10.384  66.925  1.00  0.00    -0.124 C  
HETATM   41  N   UNL     1      -9.013   8.490  65.364  1.00  0.00    -0.371 NA 
HETATM   42  H2  UNL     1      -9.496   7.602  65.221  1.00  0.00     0.000 HD 
HETATM   43  H1  UNL     1      -9.327   9.215  64.720  1.00  0.00     0.000 HD 
BRANCH  40  44
HETATM   44  O   UNL     1      -9.124  11.323  66.070  1.00  0.00    -0.200 OA 
BRANCH  44  45
HETATM   45  C   UNL     1     -10.521  11.065  65.868  1.00  0.00    -0.240 C  
HETATM   46  O   UNL     1     -11.332  11.797  66.780  1.00  0.00    -0.319 OA 
HETATM   47  C   UNL     1     -11.335  13.212  66.595  1.00  0.00    -0.325 C  
HETATM   48  C   UNL     1     -11.858  13.553  65.197  1.00  0.00    -0.343 C  
HETATM   49  H1  UNL     1     -10.432  10.800  62.429  1.00  0.00     0.000 HD 
HETATM   50  H2  UNL     1     -10.123   9.623  63.582  1.00  0.00     0.000 HD 
HETATM   51  O   UNL     1     -11.854  14.959  64.942  1.00  0.00    -0.374 OA 
HETATM   52  C   UNL     1     -11.003  12.843  64.139  1.00  0.00    -0.408 C  
HETATM   53  H   UNL     1     -12.179  15.170  64.075  1.00  0.00     0.000 HD 
HETATM   54  O   UNL     1     -11.554  13.087  62.833  1.00  0.00    -0.716 OA 
HETATM   55  N   UNL     1     -10.143  10.626  63.391  1.00  0.00    -0.278 NA 
HETATM   56  C   UNL     1     -10.960  11.330  64.406  1.00  0.00    -0.261 C  
HETATM   57  H   UNL     1     -11.024  12.648  62.178  1.00  0.00     0.000 HD 
BRANCH  47  58
HETATM   58  C   UNL     1     -12.227  13.810  67.693  1.00  0.00    -0.194 C  
HETATM   59  O   UNL     1     -11.836  15.157  67.970  1.00  0.00    -0.438 OA 
HETATM   60  H   UNL     1     -12.387  15.527  68.649  1.00  0.00     0.000 HD 
ENDBRANCH  47  58
ENDBRANCH  44  45
ENDBRANCH  40  44
ENDBRANCH  29  30
ENDBRANCH  22  29
ENDBRANCH  18  19
ENDBRANCH   7  18
ENDBRANCH   2   5
TORSDOF 9
ENDMDL
MODEL       16
REMARK 921   NORMALIZED FREE ENERGY PREDICTED BY IDOCK:   -7.45 KCAL/MOL
REMARK 922        TOTAL FREE ENERGY PREDICTED BY IDOCK:  -13.41 KCAL/MOL
REMARK 923 INTER-LIGAND FREE ENERGY PREDICTED BY IDOCK:  -11.23 KCAL/MOL
REMARK 924 INTRA-LIGAND FREE ENERGY PREDICTED BY IDOCK:   -2.18 KCAL/MOL
REMARK 927      BINDING AFFINITY PREDICTED BY RF-SCORE:    0.00 PKD
ROOT
HETATM    1  N   UNL     1     -11.221  16.595  64.342  1.00  0.00    -1.269 NA 
HETATM    2  C   UNL     1     -10.908  17.823  65.100  1.00  0.00     0.435 C  
HETATM    3  H1  UNL     1     -11.877  16.809  63.590  1.00  0.00     0.000 HD 
HETATM    4  H2  UNL     1     -11.563  15.848  64.948  1.00  0.00     0.000 HD 
ENDROOT
BRANCH   2   5
HETATM    5  C   UNL     1      -9.920  17.501  66.233  1.00  0.00    -0.308 C  
HETATM    6  O   UNL     1     -10.457  16.379  66.958  1.00  0.00    -0.299 OA 
HETATM    7  C   UNL     1      -9.530  15.861  67.909  1.00  0.00    -0.213 C  
HETATM    8  C   UNL     1      -9.313  16.925  69.024  1.00  0.00    -0.188 C  
HETATM    9  O   UNL     1     -10.949  19.189  67.648  1.00  0.00    -0.419 OA 
HETATM   10  H   UNL     1     -10.805  19.919  68.239  1.00  0.00     0.000 HD 
HETATM   11  N   UNL     1     -10.577  17.169  69.779  1.00  0.00    -0.256 NA 
HETATM   12  C   UNL     1      -8.802  18.235  68.381  1.00  0.00    -0.305 C  
HETATM   13  H2  UNL     1     -10.967  16.303  70.153  1.00  0.00     0.000 HD 
HETATM   14  O   UNL     1      -7.429  18.114  67.984  1.00  0.00    -0.228 OA 
HETATM   15  C   UNL     1      -9.685  18.686  67.193  1.00  0.00    -0.302 C  
HETATM   16  H1  UNL     1     -10.435  17.866  70.510  1.00  0.00     0.000 HD 
HETATM   17  H   UNL     1      -7.116  18.919  67.589  1.00  0.00     0.000 HD 
BRANCH   7  18
HETATM   18  O   UNL     1     -10.024  14.662  68.511  1.00  0.00    -0.222 OA 
BRANCH  18  19
HETATM   19  C   UNL     1     -10.247  13.589  67.579  1.00  0.00    -0.234 C  
HETATM   20  O   UNL     1      -8.770  12.156  68.955  1.00  0.00    -0.368 OA 
HETATM   21  C   UNL     1     -11.754  13.532  67.340  1.00  0.00    -0.380 C  
HETATM   22  C   UNL     1     -11.239  11.834  68.852  1.00  0.00    -0.253 C  
HETATM   23  H   UNL     1      -8.575  11.292  69.298  1.00  0.00     0.000 HD 
HETATM   24  O   UNL     1     -12.303  12.601  68.285  1.00  0.00    -0.085 OA 
HETATM   25  C   UNL     1      -9.935  12.206  68.127  1.00  0.00    -0.201 C  
BRANCH  21  26
HETATM   26  C   UNL     1     -12.142  13.073  65.933  1.00  0.00    -0.444 C  
HETATM   27  H   UNL     1     -13.471  13.558  64.555  1.00  0.00     0.000 HD 
HETATM   28  O   UNL     1     -13.231  13.843  65.429  1.00  0.00    -0.750 OA 
ENDBRANCH  21  26
BRANCH  22  29
HETATM   29  O   UNL     1     -11.473  10.440  68.680  1.00  0.00    -0.245 OA 
BRANCH  29  30
HETATM   30  C   UNL     1     -11.256   9.563  69.802  1.00  0.00    -0.144 C  
HETATM   31  C   UNL     1     -12.293   9.842  70.907  1.00  0.00    -0.290 C  
HETATM   32  O   UNL     1     -13.611   9.916  70.346  1.00  0.00    -0.547 OA 
HETATM   33  C   UNL     1     -12.248   8.744  71.976  1.00  0.00    -0.377 C  
HETATM   34  C   UNL     1     -10.867   8.738  72.631  1.00  0.00     0.092 C  
HETATM   35  N   UNL     1     -13.301   8.948  72.991  1.00  0.00    -0.911 NA 
HETATM   36  H   UNL     1     -14.250  10.087  71.027  1.00  0.00     0.000 HD 
HETATM   37  H1  UNL     1     -13.271   8.218  73.702  1.00  0.00     0.000 HD 
HETATM   38  H2  UNL     1     -14.224   9.020  72.564  1.00  0.00     0.000 HD 
HETATM   39  C   UNL     1      -9.741   8.550  71.599  1.00  0.00    -0.252 C  
HETATM   40  C   UNL     1      -9.813   9.538  70.375  1.00  0.00    -0.271 C  
HETATM   41  N   UNL     1      -8.444   8.651  72.299  1.00  0.00    -0.372 NA 
HETATM   42  H2  UNL     1      -8.370   8.003  73.083  1.00  0.00     0.000 HD 
HETATM   43  H1  UNL     1      -7.698   8.527  71.615  1.00  0.00     0.000 HD 
BRANCH  40  44
HETATM   44  O   UNL     1      -8.805   9.099  69.435  1.00  0.00    -0.137 OA 
BRANCH  44  45
HETATM   45  C   UNL     1      -9.182   8.001  68.592  1.00  0.00    -0.143 C  
HETATM   46  O   UNL     1      -9.577   8.439  67.296  1.00  0.00    -0.149 OA 
HETATM   47  C   UNL     1      -8.536   8.992  66.494  1.00  0.00    -0.119 C  
HETATM   48  C   UNL     1      -7.440   7.947  66.269  1.00  0.00    -0.079 C  
HETATM   49  H1  UNL     1      -6.844   5.737  69.739  1.00  0.00     0.000 HD 
HETATM   50  H2  UNL     1      -8.355   6.099  70.369  1.00  0.00     0.000 HD 
HETATM   51  O   UNL     1      -6.351   8.456  65.497  1.00  0.00    -0.048 OA 
HETATM   52  C   UNL     1      -6.913   7.453  67.624  1.00  0.00    -0.079 C  
HETATM   53  H   UNL     1      -5.671   7.807  65.357  1.00  0.00     0.000 HD 
HETATM   54  O   UNL     1      -5.953   6.403  67.412  1.00  0.00    -0.018 OA 
HETATM   55  N   UNL     1      -7.578   6.442  69.803  1.00  0.00    -0.091 NA 
HETATM   56  C   UNL     1      -8.067   6.929  68.493  1.00  0.00    -0.120 C  
HETATM   57  H   UNL     1      -5.627   6.097  68.250  1.00  0.00     0.000 HD 
BRANCH  47  58
HETATM   58  C   UNL     1      -9.172   9.436  65.169  1.00  0.00    -0.225 C  
HETATM   59  O   UNL     1      -8.829   8.523  64.123  1.00  0.00    -0.411 OA 
HETATM   60  H   UNL     1      -9.223   8.797  63.304  1.00  0.00     0.000 HD 
ENDBRANCH  47  58
ENDBRANCH  44  45
ENDBRANCH  40  44
ENDBRANCH  29  30
ENDBRANCH  22  29
ENDBRANCH  18  19
ENDBRANCH   7  18
ENDBRANCH   2   5
TORSDOF 9
ENDMDL
MODEL       17
REMARK 921   NORMALIZED FREE ENERGY PREDICTED BY IDOCK:   -7.43 KCAL/MOL
REMARK 922        TOTAL FREE ENERGY PREDICTED BY IDOCK:  -13.39 KCAL/MOL
REMARK 923 INTER-LIGAND FREE ENERGY PREDICTED BY IDOCK:  -11.33 KCAL/MOL
REMARK 924 INTRA-LIGAND FREE ENERGY PREDICTED BY IDOCK:   -2.06 KCAL/MOL
REMARK 927      BINDING AFFINITY PREDICTED BY RF-SCORE:    0.00 PKD
ROOT
HETATM    1  N   UNL     1     -12.373  14.529  68.283  1.00  0.00    -0.595 NA 
HETATM    2  C   UNL     1     -11.850  14.856  66.941  1.00  0.00    -0.187 C  
HETATM    3  H1  UNL     1     -12.266  15.333  68.902  1.00  0.00     0.000 HD 
HETATM    4  H2  UNL     1     -11.940  13.689  68.668  1.00  0.00     0.000 HD 
ENDROOT
BRANCH   2   5
HETATM    5  C   UNL     1     -12.012  13.645  66.008  1.00  0.00    -0.413 C  
HETATM    6  O   UNL     1     -10.874  12.789  66.223  1.00  0.00    -0.269 OA 
HETATM    7  C   UNL     1     -11.014  11.535  65.560  1.00  0.00    -0.229 C  
HETATM    8  C   UNL     1     -10.981  11.777  64.023  1.00  0.00    -0.384 C  
HETATM    9  O   UNL     1     -11.007  14.888  64.175  1.00  0.00    -0.552 OA 
HETATM   10  H   UNL     1     -11.065  15.126  63.257  1.00  0.00     0.000 HD 
HETATM   11  N   UNL     1      -9.656  12.318  63.598  1.00  0.00    -0.661 NA 
HETATM   12  C   UNL     1     -12.115  12.756  63.641  1.00  0.00    -0.543 C  
HETATM   13  H2  UNL     1      -8.888  11.718  63.902  1.00  0.00     0.000 HD 
HETATM   14  O   UNL     1     -13.394  12.108  63.690  1.00  0.00    -0.678 OA 
HETATM   15  C   UNL     1     -12.106  14.032  64.517  1.00  0.00    -0.459 C  
HETATM   16  H1  UNL     1      -9.634  12.476  62.591  1.00  0.00     0.000 HD 
HETATM   17  H   UNL     1     -14.091  12.710  63.455  1.00  0.00     0.000 HD 
BRANCH   7  18
HETATM   18  O   UNL     1      -9.947  10.647  65.905  1.00  0.00    -0.232 OA 
BRANCH  18  19
HETATM   19  C   UNL     1      -9.261  11.002  67.119  1.00  0.00    -0.152 C  
HETATM   20  O   UNL     1     -11.435  10.955  68.301  1.00  0.00    -0.294 OA 
HETATM   21  C   UNL     1      -8.050  10.077  67.217  1.00  0.00    -0.114 C  
HETATM   22  C   UNL     1      -9.684   9.214  68.638  1.00  0.00    -0.155 C  
HETATM   23  H   UNL     1     -11.918  10.760  69.096  1.00  0.00     0.000 HD 
HETATM   24  O   UNL     1      -8.450   8.927  67.977  1.00  0.00    -0.124 OA 
HETATM   25  C   UNL     1     -10.033  10.691  68.391  1.00  0.00    -0.163 C  
BRANCH  21  26
HETATM   26  C   UNL     1      -6.839  10.710  67.904  1.00  0.00    -0.073 C  
HETATM   27  H   UNL     1      -5.484  12.087  67.493  1.00  0.00     0.000 HD 
HETATM   28  O   UNL     1      -6.236  11.694  67.067  1.00  0.00    -0.115 OA 
ENDBRANCH  21  26
BRANCH  22  29
HETATM   29  O   UNL     1      -9.567   9.003  70.041  1.00  0.00    -0.169 OA 
BRANCH  29  30
HETATM   30  C   UNL     1     -10.555   8.186  70.698  1.00  0.00    -0.215 C  
HETATM   31  C   UNL     1     -11.389   9.037  71.676  1.00  0.00    -0.360 C  
HETATM   32  O   UNL     1     -11.820  10.248  71.039  1.00  0.00    -0.336 OA 
HETATM   33  C   UNL     1     -12.609   8.250  72.168  1.00  0.00    -0.337 C  
HETATM   34  C   UNL     1     -12.134   7.010  72.925  1.00  0.00     0.395 C  
HETATM   35  N   UNL     1     -13.466   9.086  73.031  1.00  0.00    -0.936 NA 
HETATM   36  H   UNL     1     -12.333  10.772  71.642  1.00  0.00     0.000 HD 
HETATM   37  H1  UNL     1     -14.278   8.564  73.359  1.00  0.00     0.000 HD 
HETATM   38  H2  UNL     1     -13.740   9.951  72.564  1.00  0.00     0.000 HD 
HETATM   39  C   UNL     1     -11.218   6.125  72.063  1.00  0.00    -0.286 C  
HETATM   40  C   UNL     1     -10.025   6.896  71.381  1.00  0.00    -0.181 C  
HETATM   41  N   UNL     1     -10.730   5.006  72.896  1.00  0.00    -0.225 NA 
HETATM   42  H2  UNL     1     -11.489   4.480  73.329  1.00  0.00     0.000 HD 
HETATM   43  H1  UNL     1     -10.123   4.419  72.324  1.00  0.00     0.000 HD 
BRANCH  40  44
HETATM   44  O   UNL     1      -9.394   5.959  70.478  1.00  0.00    -0.159 OA 
BRANCH  44  45
HETATM   45  C   UNL     1     -10.272   5.004  69.864  1.00  0.00    -0.270 C  
HETATM   46  O   UNL     1     -10.768   5.468  68.614  1.00  0.00    -0.197 OA 
HETATM   47  C   UNL     1      -9.797   5.583  67.575  1.00  0.00    -0.144 C  
HETATM   48  C   UNL     1      -9.168   4.215  67.298  1.00  0.00    -0.158 C  
HETATM   49  H1  UNL     1      -8.598   2.156  70.863  1.00  0.00     0.000 HD 
HETATM   50  H2  UNL     1      -9.745   3.049  71.699  1.00  0.00     0.000 HD 
HETATM   51  O   UNL     1      -8.161   4.274  66.285  1.00  0.00    -0.101 OA 
HETATM   52  C   UNL     1      -8.555   3.657  68.590  1.00  0.00    -0.091 C  
HETATM   53  H   UNL     1      -7.771   3.425  66.113  1.00  0.00     0.000 HD 
HETATM   54  O   UNL     1      -8.050   2.332  68.349  1.00  0.00    -0.056 OA 
HETATM   55  N   UNL     1      -9.036   3.072  70.965  1.00  0.00    -0.103 NA 
HETATM   56  C   UNL     1      -9.607   3.613  69.710  1.00  0.00    -0.158 C  
HETATM   57  H   UNL     1      -7.671   1.987  69.149  1.00  0.00     0.000 HD 
BRANCH  47  58
HETATM   58  C   UNL     1     -10.520   6.133  66.338  1.00  0.00    -0.031 C  
HETATM   59  O   UNL     1     -11.173   5.073  65.632  1.00  0.00    -0.817 OA 
HETATM   60  H   UNL     1     -11.620   5.413  64.867  1.00  0.00     0.000 HD 
ENDBRANCH  47  58
ENDBRANCH  44  45
ENDBRANCH  40  44
ENDBRANCH  29  30
ENDBRANCH  22  29
ENDBRANCH  18  19
ENDBRANCH   7  18
ENDBRANCH   2   5
TORSDOF 9
ENDMDL
MODEL       18
REMARK 921   NORMALIZED FREE ENERGY PREDICTED BY IDOCK:   -7.42 KCAL/MOL
REMARK 922        TOTAL FREE ENERGY PREDICTED BY IDOCK:  -13.37 KCAL/MOL
REMARK 923 INTER-LIGAND FREE ENERGY PREDICTED BY IDOCK:  -10.24 KCAL/MOL
REMARK 924 INTRA-LIGAND FREE ENERGY PREDICTED BY IDOCK:   -3.14 KCAL/MOL
REMARK 927      BINDING AFFINITY PREDICTED BY RF-SCORE:    0.00 PKD
ROOT
HETATM    1  N   UNL     1     -11.385  16.286  63.955  1.00  0.00    -1.475 NA 
HETATM    2  C   UNL     1     -11.782  15.022  64.608  1.00  0.00    -0.382 C  
HETATM    3  H1  UNL     1     -12.146  16.626  63.367  1.00  0.00     0.000 HD 
HETATM    4  H2  UNL     1     -10.512  16.192  63.436  1.00  0.00     0.000 HD 
ENDROOT
BRANCH   2   5
HETATM    5  C   UNL     1     -10.635  14.509  65.495  1.00  0.00    -0.351 C  
HETATM    6  O   UNL     1     -11.181  13.481  66.342  1.00  0.00    -0.300 OA 
HETATM    7  C   UNL     1     -10.167  12.791  67.069  1.00  0.00    -0.241 C  
HETATM    8  C   UNL     1      -9.524  13.776  68.088  1.00  0.00    -0.212 C  
HETATM    9  O   UNL     1     -11.012  16.318  67.075  1.00  0.00    -0.231 OA 
HETATM   10  H   UNL     1     -10.615  16.999  67.605  1.00  0.00     0.000 HD 
HETATM   11  N   UNL     1     -10.526  14.218  69.103  1.00  0.00    -0.371 NA 
HETATM   12  C   UNL     1      -8.953  14.992  67.323  1.00  0.00    -0.199 C  
HETATM   13  H2  UNL     1     -10.964  13.424  69.571  1.00  0.00     0.000 HD 
HETATM   14  O   UNL     1      -7.747  14.645  66.629  1.00  0.00    -0.222 OA 
HETATM   15  C   UNL     1      -9.989  15.615  66.356  1.00  0.00    -0.281 C  
HETATM   16  H1  UNL     1     -10.104  14.864  69.771  1.00  0.00     0.000 HD 
HETATM   17  H   UNL     1      -7.396  15.393  66.159  1.00  0.00     0.000 HD 
BRANCH   7  18
HETATM   18  O   UNL     1     -10.713  11.681  67.788  1.00  0.00    -0.190 OA 
BRANCH  18  19
HETATM   19  C   UNL     1      -9.775  10.615  68.018  1.00  0.00    -0.157 C  
HETATM   20  O   UNL     1     -11.519   9.430  69.316  1.00  0.00    -0.439 OA 
HETATM   21  C   UNL     1      -9.146  10.295  66.664  1.00  0.00    -0.144 C  
HETATM   22  C   UNL     1     -10.771   8.672  67.063  1.00  0.00    -0.120 C  
HETATM   23  H   UNL     1     -11.917   8.605  69.567  1.00  0.00     0.000 HD 
HETATM   24  O   UNL     1      -9.929   9.251  66.065  1.00  0.00    -0.290 OA 
HETATM   25  C   UNL     1     -10.412   9.295  68.421  1.00  0.00    -0.206 C  
BRANCH  21  26
HETATM   26  C   UNL     1      -7.695   9.818  66.752  1.00  0.00    -0.098 C  
HETATM   27  H   UNL     1      -6.322   9.093  65.532  1.00  0.00     0.000 HD 
HETATM   28  O   UNL     1      -7.222   9.388  65.477  1.00  0.00    -0.085 OA 
ENDBRANCH  21  26
BRANCH  22  29
HETATM   29  O   UNL     1     -10.568   7.264  67.140  1.00  0.00    -0.288 OA 
BRANCH  29  30
HETATM   30  C   UNL     1      -9.238   6.776  67.403  1.00  0.00    -0.127 C  
HETATM   31  C   UNL     1      -8.632   6.159  66.127  1.00  0.00    -0.141 C  
HETATM   32  O   UNL     1      -8.827   7.037  65.010  1.00  0.00    -0.359 OA 
HETATM   33  C   UNL     1      -7.135   5.891  66.317  1.00  0.00    -0.068 C  
HETATM   34  C   UNL     1      -6.947   4.882  67.450  1.00  0.00    -0.061 C  
HETATM   35  N   UNL     1      -6.524   5.389  65.071  1.00  0.00    -0.038 NA 
HETATM   36  H   UNL     1      -8.454   6.658  64.224  1.00  0.00     0.000 HD 
HETATM   37  H1  UNL     1      -5.528   5.210  65.197  1.00  0.00     0.000 HD 
HETATM   38  H2  UNL     1      -6.696   6.019  64.289  1.00  0.00     0.000 HD 
HETATM   39  C   UNL     1      -7.593   5.362  68.762  1.00  0.00    -0.079 C  
HETATM   40  C   UNL     1      -9.094   5.817  68.617  1.00  0.00    -0.114 C  
HETATM   41  N   UNL     1      -7.449   4.293  69.772  1.00  0.00    -0.050 NA 
HETATM   42  H2  UNL     1      -6.480   4.000  69.897  1.00  0.00     0.000 HD 
HETATM   43  H1  UNL     1      -7.877   4.612  70.641  1.00  0.00     0.000 HD 
BRANCH  40  44
HETATM   44  O   UNL     1      -9.470   6.401  69.886  1.00  0.00    -0.153 OA 
BRANCH  44  45
HETATM   45  C   UNL     1     -10.217   5.547  70.763  1.00  0.00    -0.235 C  
HETATM   46  O   UNL     1      -9.388   4.947  71.752  1.00  0.00    -0.138 OA 
HETATM   47  C   UNL     1      -8.842   5.843  72.719  1.00  0.00    -0.124 C  
HETATM   48  C   UNL     1      -9.974   6.536  73.482  1.00  0.00    -0.214 C  
HETATM   49  H1  UNL     1     -13.093   7.450  70.891  1.00  0.00     0.000 HD 
HETATM   50  H2  UNL     1     -12.640   6.305  69.754  1.00  0.00     0.000 HD 
HETATM   51  O   UNL     1      -9.487   7.473  74.446  1.00  0.00    -0.414 OA 
HETATM   52  C   UNL     1     -10.896   7.260  72.492  1.00  0.00    -0.272 C  
HETATM   53  H   UNL     1     -10.189   7.902  74.920  1.00  0.00     0.000 HD 
HETATM   54  O   UNL     1     -12.010   7.830  73.202  1.00  0.00    -0.644 OA 
HETATM   55  N   UNL     1     -12.307   6.964  70.459  1.00  0.00    -0.236 NA 
HETATM   56  C   UNL     1     -11.410   6.285  71.421  1.00  0.00    -0.296 C  
HETATM   57  H   UNL     1     -12.581   8.278  72.589  1.00  0.00     0.000 HD 
BRANCH  47  58
HETATM   58  C   UNL     1      -7.955   5.012  73.657  1.00  0.00    -0.106 C  
HETATM   59  O   UNL     1      -7.131   5.870  74.450  1.00  0.00    -0.087 OA 
HETATM   60  H   UNL     1      -6.583   5.356  75.030  1.00  0.00     0.000 HD 
ENDBRANCH  47  58
ENDBRANCH  44  45
ENDBRANCH  40  44
ENDBRANCH  29  30
ENDBRANCH  22  29
ENDBRANCH  18  19
ENDBRANCH   7  18
ENDBRANCH   2   5
TORSDOF 9
ENDMDL
MODEL       19
REMARK 921   NORMALIZED FREE ENERGY PREDICTED BY IDOCK:   -7.40 KCAL/MOL
REMARK 922        TOTAL FREE ENERGY PREDICTED BY IDOCK:  -13.34 KCAL/MOL
REMARK 923 INTER-LIGAND FREE ENERGY PREDICTED BY IDOCK:  -10.79 KCAL/MOL
REMARK 924 INTRA-LIGAND FREE ENERGY PREDICTED BY IDOCK:   -2.55 KCAL/MOL
REMARK 927      BINDING AFFINITY PREDICTED BY RF-SCORE:    0.00 PKD
ROOT
HETATM    1  N   UNL     1     -10.616  18.425  65.575  1.00  0.00    -0.567 NA 
HETATM    2  C   UNL     1      -9.723  17.456  66.242  1.00  0.00    -0.261 C  
HETATM    3  H1  UNL     1     -10.150  19.329  65.498  1.00  0.00     0.000 HD 
HETATM    4  H2  UNL     1     -11.520  18.497  66.043  1.00  0.00     0.000 HD 
ENDROOT
BRANCH   2   5
HETATM    5  C   UNL     1     -10.425  16.092  66.357  1.00  0.00    -0.301 C  
HETATM    6  O   UNL     1      -9.405  15.081  66.257  1.00  0.00    -0.282 OA 
HETATM    7  C   UNL     1      -9.909  13.780  66.551  1.00  0.00    -0.290 C  
HETATM    8  C   UNL     1     -10.916  13.371  65.437  1.00  0.00    -0.286 C  
HETATM    9  O   UNL     1     -10.936  16.124  63.980  1.00  0.00    -1.033 OA 
HETATM   10  H   UNL     1     -11.598  15.985  63.313  1.00  0.00     0.000 HD 
HETATM   11  N   UNL     1     -10.228  13.253  64.117  1.00  0.00    -0.724 NA 
HETATM   12  C   UNL     1     -12.048  14.422  65.368  1.00  0.00    -0.364 C  
HETATM   13  H2  UNL     1      -9.434  12.614  64.162  1.00  0.00     0.000 HD 
HETATM   14  O   UNL     1     -12.947  14.285  66.476  1.00  0.00    -0.353 OA 
HETATM   15  C   UNL     1     -11.500  15.866  65.273  1.00  0.00     0.078 C  
HETATM   16  H1  UNL     1     -10.888  12.984  63.387  1.00  0.00     0.000 HD 
HETATM   17  H   UNL     1     -13.643  14.931  66.433  1.00  0.00     0.000 HD 
BRANCH   7  18
HETATM   18  O   UNL     1      -8.855  12.815  66.591  1.00  0.00    -0.196 OA 
BRANCH  18  19
HETATM   19  C   UNL     1      -8.435  12.462  67.922  1.00  0.00    -0.166 C  
HETATM   20  O   UNL     1     -10.424  11.000  68.106  1.00  0.00    -0.175 OA 
HETATM   21  C   UNL     1      -6.949  12.121  67.828  1.00  0.00    -0.109 C  
HETATM   22  C   UNL     1      -8.111  10.101  67.883  1.00  0.00    -0.109 C  
HETATM   23  H   UNL     1     -10.808  10.197  68.438  1.00  0.00     0.000 HD 
HETATM   24  O   UNL     1      -6.848  10.707  67.602  1.00  0.00    -0.072 OA 
HETATM   25  C   UNL     1      -9.049  11.177  68.453  1.00  0.00    -0.168 C  
BRANCH  21  26
HETATM   26  C   UNL     1      -6.154  12.464  69.089  1.00  0.00    -0.087 C  
HETATM   27  H   UNL     1      -5.990  13.982  70.341  1.00  0.00     0.000 HD 
HETATM   28  O   UNL     1      -6.484  13.769  69.559  1.00  0.00    -0.110 OA 
ENDBRANCH  21  26
BRANCH  22  29
HETATM   29  O   UNL     1      -7.970   9.063  68.848  1.00  0.00    -0.097 OA 
BRANCH  29  30
HETATM   30  C   UNL     1      -8.350   7.723  68.477  1.00  0.00    -0.129 C  
HETATM   31  C   UNL     1      -7.292   7.108  67.539  1.00  0.00    -0.092 C  
HETATM   32  O   UNL     1      -5.975   7.321  68.067  1.00  0.00    -0.031 OA 
HETATM   33  C   UNL     1      -7.539   5.606  67.362  1.00  0.00    -0.089 C  
HETATM   34  C   UNL     1      -8.908   5.397  66.713  1.00  0.00    -0.112 C  
HETATM   35  N   UNL     1      -6.479   4.987  66.543  1.00  0.00    -0.040 NA 
HETATM   36  H   UNL     1      -5.324   6.942  67.490  1.00  0.00     0.000 HD 
HETATM   37  H1  UNL     1      -6.643   3.987  66.424  1.00  0.00     0.000 HD 
HETATM   38  H2  UNL     1      -5.552   5.172  66.926  1.00  0.00     0.000 HD 
HETATM   39  C   UNL     1     -10.037   6.049  67.529  1.00  0.00    -0.159 C  
HETATM   40  C   UNL     1      -9.781   7.559  67.898  1.00  0.00    -0.146 C  
HETATM   41  N   UNL     1     -11.305   5.883  66.788  1.00  0.00    -0.552 NA 
HETATM   42  H2  UNL     1     -11.500   4.908  66.558  1.00  0.00     0.000 HD 
HETATM   43  H1  UNL     1     -12.054   6.316  67.328  1.00  0.00     0.000 HD 
BRANCH  40  44
HETATM   44  O   UNL     1     -10.839   7.943  68.806  1.00  0.00    -0.105 OA 
BRANCH  44  45
HETATM   45  C   UNL     1     -10.452   8.097  70.179  1.00  0.00    -0.225 C  
HETATM   46  O   UNL     1     -10.791   9.383  70.685  1.00  0.00    -0.236 OA 
HETATM   47  C   UNL     1     -12.189   9.640  70.815  1.00  0.00    -0.230 C  
HETATM   48  C   UNL     1     -12.816   8.629  71.778  1.00  0.00    -0.359 C  
HETATM   49  H1  UNL     1     -11.135   4.872  71.198  1.00  0.00     0.000 HD 
HETATM   50  H2  UNL     1      -9.748   5.474  70.476  1.00  0.00     0.000 HD 
HETATM   51  O   UNL     1     -14.225   8.817  71.923  1.00  0.00    -0.410 OA 
HETATM   52  C   UNL     1     -12.543   7.203  71.280  1.00  0.00    -0.380 C  
HETATM   53  H   UNL     1     -14.614   8.189  72.521  1.00  0.00     0.000 HD 
HETATM   54  O   UNL     1     -13.050   6.255  72.235  1.00  0.00    -0.489 OA 
HETATM   55  N   UNL     1     -10.751   5.607  70.605  1.00  0.00    -0.275 NA 
HETATM   56  C   UNL     1     -11.036   6.980  71.081  1.00  0.00    -0.247 C  
HETATM   57  H   UNL     1     -12.881   5.372  71.926  1.00  0.00     0.000 HD 
BRANCH  47  58
HETATM   58  C   UNL     1     -12.340  11.078  71.329  1.00  0.00    -0.321 C  
HETATM   59  O   UNL     1     -11.573  11.977  70.522  1.00  0.00    -0.491 OA 
HETATM   60  H   UNL     1     -11.666  12.867  70.840  1.00  0.00     0.000 HD 
ENDBRANCH  47  58
ENDBRANCH  44  45
ENDBRANCH  40  44
ENDBRANCH  29  30
ENDBRANCH  22  29
ENDBRANCH  18  19
ENDBRANCH   7  18
ENDBRANCH   2   5
TORSDOF 9
ENDMDL
MODEL       20
REMARK 921   NORMALIZED FREE ENERGY PREDICTED BY IDOCK:   -7.23 KCAL/MOL
REMARK 922        TOTAL FREE ENERGY PREDICTED BY IDOCK:  -13.08 KCAL/MOL
REMARK 923 INTER-LIGAND FREE ENERGY PREDICTED BY IDOCK:  -11.21 KCAL/MOL
REMARK 924 INTRA-LIGAND FREE ENERGY PREDICTED BY IDOCK:   -1.87 KCAL/MOL
REMARK 927      BINDING AFFINITY PREDICTED BY RF-SCORE:    0.00 PKD
ROOT
HETATM    1  N   UNL     1      -9.866   3.208  72.767  1.00  0.00    -0.129 NA 
HETATM    2  C   UNL     1      -9.112   4.112  71.873  1.00  0.00    -0.122 C  
HETATM    3  H1  UNL     1      -9.499   2.260  72.690  1.00  0.00     0.000 HD 
HETATM    4  H2  UNL     1     -10.870   3.246  72.591  1.00  0.00     0.000 HD 
ENDROOT
BRANCH   2   5
HETATM    5  C   UNL     1      -9.665   5.542  71.990  1.00  0.00    -0.160 C  
HETATM    6  O   UNL     1      -8.819   6.390  71.191  1.00  0.00    -0.137 OA 
HETATM    7  C   UNL     1      -9.351   7.706  71.059  1.00  0.00    -0.152 C  
HETATM    8  C   UNL     1      -9.321   8.399  72.452  1.00  0.00    -0.285 C  
HETATM    9  O   UNL     1      -8.428   5.882  74.055  1.00  0.00    -0.116 OA 
HETATM   10  H   UNL     1      -8.457   6.201  74.949  1.00  0.00     0.000 HD 
HETATM   11  N   UNL     1      -7.917   8.572  72.929  1.00  0.00    -0.376 NA 
HETATM   12  C   UNL     1     -10.135   7.550  73.456  1.00  0.00    -0.323 C  
HETATM   13  H2  UNL     1      -7.345   9.071  72.248  1.00  0.00     0.000 HD 
HETATM   14  O   UNL     1     -11.544   7.686  73.223  1.00  0.00    -0.643 OA 
HETATM   15  C   UNL     1      -9.712   6.062  73.443  1.00  0.00    -0.158 C  
HETATM   16  H1  UNL     1      -7.897   9.025  73.843  1.00  0.00     0.000 HD 
HETATM   17  H   UNL     1     -12.044   7.164  73.840  1.00  0.00     0.000 HD 
BRANCH   7  18
HETATM   18  O   UNL     1      -8.576   8.486  70.145  1.00  0.00    -0.124 OA 
BRANCH  18  19
HETATM   19  C   UNL     1      -9.090   9.812  69.925  1.00  0.00    -0.229 C  
HETATM   20  O   UNL     1      -6.797  10.551  69.357  1.00  0.00    -0.064 OA 
HETATM   21  C   UNL     1     -10.334   9.654  69.054  1.00  0.00    -0.205 C  
HETATM   22  C   UNL     1      -8.597  10.320  67.649  1.00  0.00    -0.118 C  
HETATM   23  H   UNL     1      -6.235  11.107  68.829  1.00  0.00     0.000 HD 
HETATM   24  O   UNL     1      -9.916   9.771  67.686  1.00  0.00    -0.159 OA 
HETATM   25  C   UNL     1      -8.192  10.702  69.082  1.00  0.00    -0.139 C  
BRANCH  21  26
HETATM   26  C   UNL     1     -11.414  10.704  69.319  1.00  0.00    -0.281 C  
HETATM   27  H   UNL     1     -12.647  11.827  68.261  1.00  0.00     0.000 HD 
HETATM   28  O   UNL     1     -11.977  11.175  68.097  1.00  0.00    -0.615 OA 
ENDBRANCH  21  26
BRANCH  22  29
HETATM   29  O   UNL     1      -8.559  11.490  66.838  1.00  0.00    -0.151 OA 
BRANCH  29  30
HETATM   30  C   UNL     1      -9.611  11.691  65.874  1.00  0.00    -0.229 C  
HETATM   31  C   UNL     1      -9.243  11.026  64.533  1.00  0.00    -0.164 C  
HETATM   32  O   UNL     1      -8.768   9.691  64.754  1.00  0.00    -0.166 OA 
HETATM   33  C   UNL     1     -10.457  10.994  63.598  1.00  0.00    -0.322 C  
HETATM   34  C   UNL     1     -10.895  12.427  63.297  1.00  0.00    -0.300 C  
HETATM   35  N   UNL     1     -10.144  10.275  62.347  1.00  0.00    -0.666 NA 
HETATM   36  H   UNL     1      -8.542   9.281  63.928  1.00  0.00     0.000 HD 
HETATM   37  H1  UNL     1     -10.951  10.254  61.724  1.00  0.00     0.000 HD 
HETATM   38  H2  UNL     1      -9.787   9.338  62.532  1.00  0.00     0.000 HD 
HETATM   39  C   UNL     1     -11.208  13.216  64.580  1.00  0.00    -0.354 C  
HETATM   40  C   UNL     1     -10.071  13.160  65.668  1.00  0.00    -0.271 C  
HETATM   41  N   UNL     1     -11.529  14.609  64.206  1.00  0.00    -0.639 NA 
HETATM   42  H2  UNL     1     -12.279  14.667  63.517  1.00  0.00     0.000 HD 
HETATM   43  H1  UNL     1     -11.737  15.131  65.057  1.00  0.00     0.000 HD 
BRANCH  40  44
HETATM   44  O   UNL     1     -10.609  13.788  66.855  1.00  0.00    -0.273 OA 
BRANCH  44  45
HETATM   45  C   UNL     1      -9.649  14.131  67.865  1.00  0.00    -0.223 C  
HETATM   46  O   UNL     1      -8.589  14.923  67.341  1.00  0.00    -0.169 OA 
HETATM   47  C   UNL     1      -8.957  16.237  66.924  1.00  0.00    -0.217 C  
HETATM   48  C   UNL     1      -9.522  17.021  68.112  1.00  0.00    -0.262 C  
HETATM   49  H1  UNL     1     -11.871  14.534  70.473  1.00  0.00     0.000 HD 
HETATM   50  H2  UNL     1     -11.154  13.127  69.912  1.00  0.00     0.000 HD 
HETATM   51  O   UNL     1      -9.939  18.338  67.747  1.00  0.00    -0.304 OA 
HETATM   52  C   UNL     1     -10.712  16.260  68.712  1.00  0.00    -0.309 C  
HETATM   53  H   UNL     1     -10.289  18.824  68.484  1.00  0.00     0.000 HD 
HETATM   54  O   UNL     1     -11.181  16.949  69.884  1.00  0.00    -0.361 OA 
HETATM   55  N   UNL     1     -11.439  14.077  69.671  1.00  0.00    -0.266 NA 
HETATM   56  C   UNL     1     -10.304  14.826  69.084  1.00  0.00    -0.233 C  
HETATM   57  H   UNL     1     -11.918  16.479  70.256  1.00  0.00     0.000 HD 
BRANCH  47  58
HETATM   58  C   UNL     1      -7.694  16.903  66.358  1.00  0.00    -0.310 C  
HETATM   59  O   UNL     1      -8.036  18.106  65.664  1.00  0.00    -0.488 OA 
HETATM   60  H   UNL     1      -7.255  18.518  65.315  1.00  0.00     0.000 HD 
ENDBRANCH  47  58
ENDBRANCH  44  45
ENDBRANCH  40  44
ENDBRANCH  29  30
ENDBRANCH  22  29
ENDBRANCH  18  19
ENDBRANCH   7  18
ENDBRANCH   2   5
TORSDOF 9
ENDMDL
MODEL       21
REMARK 921   NORMALIZED FREE ENERGY PREDICTED BY IDOCK:   -7.22 KCAL/MOL
REMARK 922        TOTAL FREE ENERGY PREDICTED BY IDOCK:  -13.06 KCAL/MOL
REMARK 923 INTER-LIGAND FREE ENERGY PREDICTED BY IDOCK:  -11.64 KCAL/MOL
REMARK 924 INTRA-LIGAND FREE ENERGY PREDICTED BY IDOCK:   -1.43 KCAL/MOL
REMARK 927      BINDING AFFINITY PREDICTED BY RF-SCORE:    0.00 PKD
ROOT
HETATM    1  N   UNL     1      -7.560   8.704  73.477  1.00  0.00    -0.393 NA 
HETATM    2  C   UNL     1      -7.424   7.267  73.166  1.00  0.00    -0.072 C  
HETATM    3  H1  UNL     1      -6.727   9.035  73.964  1.00  0.00     0.000 HD 
HETATM    4  H2  UNL     1      -8.414   8.904  73.999  1.00  0.00     0.000 HD 
ENDROOT
BRANCH   2   5
HETATM    5  C   UNL     1      -8.680   6.769  72.432  1.00  0.00    -0.127 C  
HETATM    6  O   UNL     1      -9.298   7.918  71.823  1.00  0.00    -0.139 OA 
HETATM    7  C   UNL     1     -10.361   7.553  70.946  1.00  0.00    -0.201 C  
HETATM    8  C   UNL     1     -11.517   6.943  71.790  1.00  0.00    -0.275 C  
HETATM    9  O   UNL     1      -9.967   6.895  74.491  1.00  0.00    -0.462 OA 
HETATM   10  H   UNL     1     -10.587   6.457  75.063  1.00  0.00     0.000 HD 
HETATM   11  N   UNL     1     -12.088   7.960  72.722  1.00  0.00    -0.614 NA 
HETATM   12  C   UNL     1     -10.980   5.725  72.577  1.00  0.00    -0.263 C  
HETATM   13  H2  UNL     1     -12.385   8.801  72.227  1.00  0.00     0.000 HD 
HETATM   14  O   UNL     1     -10.781   4.599  71.712  1.00  0.00    -0.073 OA 
HETATM   15  C   UNL     1      -9.688   6.059  73.360  1.00  0.00    -0.158 C  
HETATM   16  H1  UNL     1     -12.846   7.560  73.276  1.00  0.00     0.000 HD 
HETATM   17  H   UNL     1     -10.451   3.851  72.196  1.00  0.00     0.000 HD 
BRANCH   7  18
HETATM   18  O   UNL     1     -10.862   8.692  70.241  1.00  0.00    -0.230 OA 
BRANCH  18  19
HETATM   19  C   UNL     1     -10.563   8.687  68.833  1.00  0.00    -0.144 C  
HETATM   20  O   UNL     1     -12.024  10.667  68.568  1.00  0.00    -0.743 OA 
HETATM   21  C   UNL     1      -9.047   8.540  68.716  1.00  0.00    -0.143 C  
HETATM   22  C   UNL     1      -9.541  10.795  68.391  1.00  0.00    -0.176 C  
HETATM   23  H   UNL     1     -12.193  11.492  68.127  1.00  0.00     0.000 HD 
HETATM   24  O   UNL     1      -8.492   9.863  68.658  1.00  0.00    -0.108 OA 
HETATM   25  C   UNL     1     -10.834  10.006  68.129  1.00  0.00    -0.255 C  
BRANCH  21  26
HETATM   26  C   UNL     1      -8.593   7.773  67.472  1.00  0.00    -0.122 C  
HETATM   27  H   UNL     1      -9.403   7.080  65.810  1.00  0.00     0.000 HD 
HETATM   28  O   UNL     1      -9.685   7.556  66.582  1.00  0.00    -0.200 OA 
ENDBRANCH  21  26
BRANCH  22  29
HETATM   29  O   UNL     1      -9.242  11.574  67.237  1.00  0.00    -0.164 OA 
BRANCH  29  30
HETATM   30  C   UNL     1     -10.235  11.672  66.198  1.00  0.00    -0.226 C  
HETATM   31  C   UNL     1      -9.631  11.263  64.840  1.00  0.00    -0.232 C  
HETATM   32  O   UNL     1      -8.900  10.036  64.970  1.00  0.00    -0.160 OA 
HETATM   33  C   UNL     1     -10.734  11.097  63.788  1.00  0.00    -0.329 C  
HETATM   34  C   UNL     1     -11.445  12.436  63.592  1.00  0.00    -0.568 C  
HETATM   35  N   UNL     1     -10.179  10.614  62.509  1.00  0.00    -0.752 NA 
HETATM   36  H   UNL     1      -8.528   9.784  64.134  1.00  0.00     0.000 HD 
HETATM   37  H1  UNL     1     -10.912  10.504  61.809  1.00  0.00     0.000 HD 
HETATM   38  H2  UNL     1      -9.645   9.754  62.633  1.00  0.00     0.000 HD 
HETATM   39  C   UNL     1     -12.018  12.983  64.911  1.00  0.00    -0.396 C  
HETATM   40  C   UNL     1     -10.982  13.030  66.098  1.00  0.00    -0.280 C  
HETATM   41  N   UNL     1     -12.600  14.316  64.651  1.00  0.00    -0.665 NA 
HETATM   42  H2  UNL     1     -13.290  14.302  63.900  1.00  0.00     0.000 HD 
HETATM   43  H1  UNL     1     -12.980  14.678  65.526  1.00  0.00     0.000 HD 
BRANCH  40  44
HETATM   44  O   UNL     1     -11.733  13.386  67.282  1.00  0.00    -0.337 OA 
BRANCH  44  45
HETATM   45  C   UNL     1     -11.884  14.793  67.519  1.00  0.00    -0.301 C  
HETATM   46  O   UNL     1     -12.734  15.055  68.630  1.00  0.00     0.308 OA 
HETATM   47  C   UNL     1     -12.217  14.666  69.901  1.00  0.00    -0.316 C  
HETATM   48  C   UNL     1     -10.912  15.415  70.183  1.00  0.00    -0.310 C  
HETATM   49  H1  UNL     1      -8.666  15.730  66.700  1.00  0.00     0.000 HD 
HETATM   50  H2  UNL     1      -9.983  15.503  65.690  1.00  0.00     0.000 HD 
HETATM   51  O   UNL     1     -10.328  15.041  71.433  1.00  0.00    -0.140 OA 
HETATM   52  C   UNL     1      -9.908  15.146  69.054  1.00  0.00    -0.238 C  
HETATM   53  H   UNL     1      -9.518  15.507  71.608  1.00  0.00     0.000 HD 
HETATM   54  O   UNL     1      -8.719  15.926  69.271  1.00  0.00    -0.246 OA 
HETATM   55  N   UNL     1      -9.564  15.260  66.587  1.00  0.00    -0.242 NA 
HETATM   56  C   UNL     1     -10.520  15.507  67.691  1.00  0.00    -0.279 C  
HETATM   57  H   UNL     1      -8.098  15.760  68.572  1.00  0.00     0.000 HD 
BRANCH  47  58
HETATM   58  C   UNL     1     -13.292  14.992  70.947  1.00  0.00    -0.380 C  
HETATM   59  O   UNL     1     -12.861  16.070  71.782  1.00  0.00    -0.485 OA 
HETATM   60  H   UNL     1     -13.526  16.272  72.429  1.00  0.00     0.000 HD 
ENDBRANCH  47  58
ENDBRANCH  44  45
ENDBRANCH  40  44
ENDBRANCH  29  30
ENDBRANCH  22  29
ENDBRANCH  18  19
ENDBRANCH   7  18
ENDBRANCH   2   5
TORSDOF 9
ENDMDL
MODEL       22
REMARK 921   NORMALIZED FREE ENERGY PREDICTED BY IDOCK:   -7.22 KCAL/MOL
REMARK 922        TOTAL FREE ENERGY PREDICTED BY IDOCK:  -13.06 KCAL/MOL
REMARK 923 INTER-LIGAND FREE ENERGY PREDICTED BY IDOCK:  -10.45 KCAL/MOL
REMARK 924 INTRA-LIGAND FREE ENERGY PREDICTED BY IDOCK:   -2.62 KCAL/MOL
REMARK 927      BINDING AFFINITY PREDICTED BY RF-SCORE:    0.00 PKD
ROOT
HETATM    1  N   UNL     1     -12.419  12.608  63.097  1.00  0.00    -0.755 NA 
HETATM    2  C   UNL     1     -12.129  11.886  64.353  1.00  0.00    -0.214 C  
HETATM    3  H1  UNL     1     -12.944  12.005  62.464  1.00  0.00     0.000 HD 
HETATM    4  H2  UNL     1     -11.572  12.975  62.662  1.00  0.00     0.000 HD 
ENDROOT
BRANCH   2   5
HETATM    5  C   UNL     1     -11.337  12.794  65.307  1.00  0.00    -0.303 C  
HETATM    6  O   UNL     1     -11.318  12.145  66.592  1.00  0.00    -0.311 OA 
HETATM    7  C   UNL     1     -10.441  12.796  67.509  1.00  0.00    -0.218 C  
HETATM    8  C   UNL     1     -11.018  14.203  67.839  1.00  0.00    -0.251 C  
HETATM    9  O   UNL     1     -13.333  14.108  65.757  1.00  0.00    -0.677 OA 
HETATM   10  H   UNL     1     -13.703  14.980  65.839  1.00  0.00     0.000 HD 
HETATM   11  N   UNL     1     -12.330  14.086  68.542  1.00  0.00    -0.506 NA 
HETATM   12  C   UNL     1     -11.174  15.006  66.527  1.00  0.00    -0.312 C  
HETATM   13  H2  UNL     1     -12.262  13.502  69.375  1.00  0.00     0.000 HD 
HETATM   14  O   UNL     1      -9.901  15.449  66.039  1.00  0.00    -0.278 OA 
HETATM   15  C   UNL     1     -11.938  14.210  65.441  1.00  0.00    -0.381 C  
HETATM   16  H1  UNL     1     -12.709  15.008  68.758  1.00  0.00     0.000 HD 
HETATM   17  H   UNL     1      -9.997  15.942  65.232  1.00  0.00     0.000 HD 
BRANCH   7  18
HETATM   18  O   UNL     1     -10.323  12.053  68.725  1.00  0.00    -0.218 OA 
BRANCH  18  19
HETATM   19  C   UNL     1     -11.320  11.028  68.884  1.00  0.00    -0.280 C  
HETATM   20  O   UNL     1      -9.878   9.497  67.578  1.00  0.00    -0.153 OA 
HETATM   21  C   UNL     1     -11.702  11.024  70.363  1.00  0.00    -0.343 C  
HETATM   22  C   UNL     1     -10.228   9.248  70.033  1.00  0.00    -0.215 C  
HETATM   23  H   UNL     1      -9.559   8.613  67.437  1.00  0.00     0.000 HD 
HETATM   24  O   UNL     1     -10.856  10.068  71.020  1.00  0.00    -0.298 OA 
HETATM   25  C   UNL     1     -10.808   9.615  68.658  1.00  0.00    -0.167 C  
BRANCH  21  26
HETATM   26  C   UNL     1     -13.159  10.638  70.625  1.00  0.00    -0.169 C  
HETATM   27  H   UNL     1     -14.190   9.700  72.024  1.00  0.00     0.000 HD 
HETATM   28  O   UNL     1     -13.285   9.939  71.861  1.00  0.00    -0.408 OA 
ENDBRANCH  21  26
BRANCH  22  29
HETATM   29  O   UNL     1     -10.485   7.870  70.283  1.00  0.00    -0.216 OA 
BRANCH  29  30
HETATM   30  C   UNL     1      -9.406   7.047  70.767  1.00  0.00    -0.161 C  
HETATM   31  C   UNL     1      -8.665   7.757  71.917  1.00  0.00    -0.118 C  
HETATM   32  O   UNL     1      -9.605   8.277  72.868  1.00  0.00    -0.270 OA 
HETATM   33  C   UNL     1      -7.704   6.789  72.617  1.00  0.00    -0.099 C  
HETATM   34  C   UNL     1      -6.653   6.315  71.614  1.00  0.00    -0.055 C  
HETATM   35  N   UNL     1      -7.059   7.430  73.779  1.00  0.00    -0.082 NA 
HETATM   36  H   UNL     1      -9.148   8.714  73.576  1.00  0.00     0.000 HD 
HETATM   37  H1  UNL     1      -6.420   6.787  74.245  1.00  0.00     0.000 HD 
HETATM   38  H2  UNL     1      -7.747   7.811  74.428  1.00  0.00     0.000 HD 
HETATM   39  C   UNL     1      -7.291   5.660  70.376  1.00  0.00    -0.079 C  
HETATM   40  C   UNL     1      -8.414   6.526  69.691  1.00  0.00    -0.131 C  
HETATM   41  N   UNL     1      -6.215   5.319  69.422  1.00  0.00    -0.028 NA 
HETATM   42  H2  UNL     1      -5.489   4.739  69.841  1.00  0.00     0.000 HD 
HETATM   43  H1  UNL     1      -6.639   4.885  68.602  1.00  0.00     0.000 HD 
BRANCH  40  44
HETATM   44  O   UNL     1      -9.017   5.688  68.679  1.00  0.00    -0.111 OA 
BRANCH  44  45
HETATM   45  C   UNL     1      -8.717   6.042  67.321  1.00  0.00    -0.105 C  
HETATM   46  O   UNL     1      -7.667   5.244  66.786  1.00  0.00    -0.094 OA 
HETATM   47  C   UNL     1      -7.984   3.866  66.595  1.00  0.00    -0.096 C  
HETATM   48  C   UNL     1      -9.156   3.732  65.619  1.00  0.00    -0.147 C  
HETATM   49  H1  UNL     1     -11.945   6.734  66.318  1.00  0.00     0.000 HD 
HETATM   50  H2  UNL     1     -10.846   7.738  67.088  1.00  0.00     0.000 HD 
HETATM   51  O   UNL     1      -9.540   2.371  65.413  1.00  0.00    -0.351 OA 
HETATM   52  C   UNL     1     -10.360   4.524  66.147  1.00  0.00    -0.223 C  
HETATM   53  H   UNL     1     -10.268   2.287  64.808  1.00  0.00     0.000 HD 
HETATM   54  O   UNL     1     -11.427   4.475  65.184  1.00  0.00    -1.105 OA 
HETATM   55  N   UNL     1     -11.120   6.770  66.916  1.00  0.00    -0.348 NA 
HETATM   56  C   UNL     1      -9.969   5.987  66.411  1.00  0.00    -0.093 C  
HETATM   57  H   UNL     1     -12.172   4.966  65.511  1.00  0.00     0.000 HD 
BRANCH  47  58
HETATM   58  C   UNL     1      -6.720   3.181  66.055  1.00  0.00    -0.044 C  
HETATM   59  O   UNL     1      -6.828   1.762  66.192  1.00  0.00    -0.036 OA 
HETATM   60  H   UNL     1      -6.046   1.338  65.858  1.00  0.00     0.000 HD 
ENDBRANCH  47  58
ENDBRANCH  44  45
ENDBRANCH  40  44
ENDBRANCH  29  30
ENDBRANCH  22  29
ENDBRANCH  18  19
ENDBRANCH   7  18
ENDBRANCH   2   5
TORSDOF 9
ENDMDL
MODEL       23
REMARK 921   NORMALIZED FREE ENERGY PREDICTED BY IDOCK:   -7.20 KCAL/MOL
REMARK 922        TOTAL FREE ENERGY PREDICTED BY IDOCK:  -13.03 KCAL/MOL
REMARK 923 INTER-LIGAND FREE ENERGY PREDICTED BY IDOCK:  -10.15 KCAL/MOL
REMARK 924 INTRA-LIGAND FREE ENERGY PREDICTED BY IDOCK:   -2.89 KCAL/MOL
REMARK 927      BINDING AFFINITY PREDICTED BY RF-SCORE:    0.00 PKD
ROOT
HETATM    1  N   UNL     1     -14.328  15.013  72.081  1.00  0.00    -0.529 NA 
HETATM    2  C   UNL     1     -13.357  13.936  71.803  1.00  0.00    -0.381 C  
HETATM    3  H1  UNL     1     -14.753  14.869  72.997  1.00  0.00     0.000 HD 
HETATM    4  H2  UNL     1     -15.027  15.099  71.343  1.00  0.00     0.000 HD 
ENDROOT
BRANCH   2   5
HETATM    5  C   UNL     1     -12.716  14.154  70.422  1.00  0.00    -0.279 C  
HETATM    6  O   UNL     1     -11.589  13.262  70.332  1.00  0.00    -0.143 OA 
HETATM    7  C   UNL     1     -11.035  13.229  69.018  1.00  0.00    -0.206 C  
HETATM    8  C   UNL     1     -10.406  14.618  68.707  1.00  0.00    -0.248 C  
HETATM    9  O   UNL     1     -11.438  16.035  71.281  1.00  0.00    -0.407 OA 
HETATM   10  H   UNL     1     -11.156  16.931  71.136  1.00  0.00     0.000 HD 
HETATM   11  N   UNL     1      -9.263  14.900  69.625  1.00  0.00    -0.446 NA 
HETATM   12  C   UNL     1     -11.494  15.708  68.843  1.00  0.00    -0.361 C  
HETATM   13  H2  UNL     1      -8.566  14.156  69.600  1.00  0.00     0.000 HD 
HETATM   14  O   UNL     1     -12.400  15.673  67.732  1.00  0.00    -0.027 OA 
HETATM   15  C   UNL     1     -12.258  15.608  70.185  1.00  0.00    -0.361 C  
HETATM   16  H1  UNL     1      -8.850  15.810  69.421  1.00  0.00     0.000 HD 
HETATM   17  H   UNL     1     -13.069  16.343  67.815  1.00  0.00     0.000 HD 
BRANCH   7  18
HETATM   18  O   UNL     1     -10.016  12.231  68.913  1.00  0.00    -0.093 OA 
BRANCH  18  19
HETATM   19  C   UNL     1      -9.841  11.712  67.583  1.00  0.00    -0.186 C  
HETATM   20  O   UNL     1      -8.554   9.828  68.544  1.00  0.00    -0.116 OA 
HETATM   21  C   UNL     1     -11.216  11.748  66.921  1.00  0.00    -0.327 C  
HETATM   22  C   UNL     1     -10.846   9.551  67.604  1.00  0.00    -0.187 C  
HETATM   23  H   UNL     1      -8.325   8.907  68.509  1.00  0.00     0.000 HD 
HETATM   24  O   UNL     1     -11.838  10.476  67.155  1.00  0.00     0.059 OA 
HETATM   25  C   UNL     1      -9.473  10.239  67.528  1.00  0.00    -0.152 C  
BRANCH  21  26
HETATM   26  C   UNL     1     -11.172  11.992  65.412  1.00  0.00    -0.322 C  
HETATM   27  H   UNL     1     -11.942  13.269  64.117  1.00  0.00     0.000 HD 
HETATM   28  O   UNL     1     -11.970  13.118  65.054  1.00  0.00    -0.343 OA 
ENDBRANCH  21  26
BRANCH  22  29
HETATM   29  O   UNL     1     -10.822   8.394  66.774  1.00  0.00    -0.172 OA 
BRANCH  29  30
HETATM   30  C   UNL     1      -9.830   7.382  67.035  1.00  0.00    -0.209 C  
HETATM   31  C   UNL     1      -9.024   7.079  65.756  1.00  0.00    -0.005 C  
HETATM   32  O   UNL     1      -8.604   8.301  65.132  1.00  0.00    -0.250 OA 
HETATM   33  C   UNL     1      -7.799   6.218  66.082  1.00  0.00    -0.105 C  
HETATM   34  C   UNL     1      -8.265   4.882  66.660  1.00  0.00    -0.107 C  
HETATM   35  N   UNL     1      -6.968   6.001  64.882  1.00  0.00    -0.054 NA 
HETATM   36  H   UNL     1      -8.108   8.114  64.344  1.00  0.00     0.000 HD 
HETATM   37  H1  UNL     1      -6.153   5.428  65.098  1.00  0.00     0.000 HD 
HETATM   38  H2  UNL     1      -6.702   6.883  64.445  1.00  0.00     0.000 HD 
HETATM   39  C   UNL     1      -9.154   5.070  67.902  1.00  0.00    -0.114 C  
HETATM   40  C   UNL     1     -10.349   6.077  67.697  1.00  0.00    -0.206 C  
HETATM   41  N   UNL     1      -9.636   3.743  68.338  1.00  0.00    -0.142 NA 
HETATM   42  H2  UNL     1      -8.875   3.083  68.497  1.00  0.00     0.000 HD 
HETATM   43  H1  UNL     1     -10.225   3.868  69.161  1.00  0.00     0.000 HD 
BRANCH  40  44
HETATM   44  O   UNL     1     -10.951   6.267  68.999  1.00  0.00    -0.305 OA 
BRANCH  44  45
HETATM   45  C   UNL     1     -10.067   6.734  70.028  1.00  0.00    -0.184 C  
HETATM   46  O   UNL     1     -10.256   8.117  70.302  1.00  0.00    -0.195 OA 
HETATM   47  C   UNL     1     -11.504   8.456  70.905  1.00  0.00    -0.267 C  
HETATM   48  C   UNL     1     -11.645   7.737  72.249  1.00  0.00    -0.338 C  
HETATM   49  H1  UNL     1     -10.109   3.885  71.974  1.00  0.00     0.000 HD 
HETATM   50  H2  UNL     1      -9.151   4.235  70.644  1.00  0.00     0.000 HD 
HETATM   51  O   UNL     1     -12.893   8.014  72.887  1.00  0.00    -0.481 OA 
HETATM   52  C   UNL     1     -11.506   6.223  72.041  1.00  0.00    -0.310 C  
HETATM   53  H   UNL     1     -12.980   7.568  73.721  1.00  0.00     0.000 HD 
HETATM   54  O   UNL     1     -11.542   5.558  73.316  1.00  0.00    -0.511 OA 
HETATM   55  N   UNL     1     -10.031   4.437  71.121  1.00  0.00    -0.191 NA 
HETATM   56  C   UNL     1     -10.186   5.895  71.326  1.00  0.00    -0.210 C  
HETATM   57  H   UNL     1     -11.457   4.620  73.187  1.00  0.00     0.000 HD 
BRANCH  47  58
HETATM   58  C   UNL     1     -11.525   9.982  71.076  1.00  0.00    -0.383 C  
HETATM   59  O   UNL     1     -12.614  10.549  70.341  1.00  0.00    -0.351 OA 
HETATM   60  H   UNL     1     -12.627  11.492  70.447  1.00  0.00     0.000 HD 
ENDBRANCH  47  58
ENDBRANCH  44  45
ENDBRANCH  40  44
ENDBRANCH  29  30
ENDBRANCH  22  29
ENDBRANCH  18  19
ENDBRANCH   7  18
ENDBRANCH   2   5
TORSDOF 9
ENDMDL
MODEL       24
REMARK 921   NORMALIZED FREE ENERGY PREDICTED BY IDOCK:   -7.19 KCAL/MOL
REMARK 922        TOTAL FREE ENERGY PREDICTED BY IDOCK:  -13.02 KCAL/MOL
REMARK 923 INTER-LIGAND FREE ENERGY PREDICTED BY IDOCK:  -10.81 KCAL/MOL
REMARK 924 INTRA-LIGAND FREE ENERGY PREDICTED BY IDOCK:   -2.21 KCAL/MOL
REMARK 927      BINDING AFFINITY PREDICTED BY RF-SCORE:    0.00 PKD
ROOT
HETATM    1  N   UNL     1      -8.250   8.584  73.809  1.00  0.00    -0.387 NA 
HETATM    2  C   UNL     1      -9.077   7.381  73.589  1.00  0.00    -0.226 C  
HETATM    3  H1  UNL     1      -7.823   8.546  74.735  1.00  0.00     0.000 HD 
HETATM    4  H2  UNL     1      -8.779   9.444  73.666  1.00  0.00     0.000 HD 
ENDROOT
BRANCH   2   5
HETATM    5  C   UNL     1      -9.721   7.437  72.193  1.00  0.00    -0.150 C  
HETATM    6  O   UNL     1      -9.482   8.757  71.670  1.00  0.00    -0.244 OA 
HETATM    7  C   UNL     1      -9.857   8.866  70.298  1.00  0.00    -0.183 C  
HETATM    8  C   UNL     1     -11.403   8.725  70.191  1.00  0.00    -0.090 C  
HETATM    9  O   UNL     1     -11.876   7.981  73.179  1.00  0.00    -0.625 OA 
HETATM   10  H   UNL     1     -12.808   7.799  73.188  1.00  0.00     0.000 HD 
HETATM   11  N   UNL     1     -12.089   9.850  70.893  1.00  0.00    -0.320 NA 
HETATM   12  C   UNL     1     -11.829   7.367  70.796  1.00  0.00    -0.258 C  
HETATM   13  H2  UNL     1     -11.769  10.757  70.554  1.00  0.00     0.000 HD 
HETATM   14  O   UNL     1     -11.493   6.283  69.919  1.00  0.00    -0.422 OA 
HETATM   15  C   UNL     1     -11.236   7.143  72.207  1.00  0.00    -0.261 C  
HETATM   16  H1  UNL     1     -13.102   9.757  70.823  1.00  0.00     0.000 HD 
HETATM   17  H   UNL     1     -11.755   5.449  70.290  1.00  0.00     0.000 HD 
BRANCH   7  18
HETATM   18  O   UNL     1      -9.476  10.134  69.758  1.00  0.00    -0.220 OA 
BRANCH  18  19
HETATM   19  C   UNL     1      -9.105  10.091  68.369  1.00  0.00    -0.121 C  
HETATM   20  O   UNL     1     -11.127  11.419  67.842  1.00  0.00    -0.223 OA 
HETATM   21  C   UNL     1      -7.624  10.458  68.306  1.00  0.00    -0.095 C  
HETATM   22  C   UNL     1      -8.825  12.365  67.712  1.00  0.00    -0.176 C  
HETATM   23  H   UNL     1     -11.536  12.088  67.305  1.00  0.00     0.000 HD 
HETATM   24  O   UNL     1      -7.543  11.878  68.110  1.00  0.00    -0.105 OA 
HETATM   25  C   UNL     1      -9.760  11.161  67.511  1.00  0.00    -0.176 C  
BRANCH  21  26
HETATM   26  C   UNL     1      -6.863   9.771  67.170  1.00  0.00    -0.083 C  
HETATM   27  H   UNL     1      -5.768   8.147  66.922  1.00  0.00     0.000 HD 
HETATM   28  O   UNL     1      -6.240   8.573  67.627  1.00  0.00    -0.051 OA 
ENDBRANCH  21  26
BRANCH  22  29
HETATM   29  O   UNL     1      -8.734  13.081  66.484  1.00  0.00    -0.086 OA 
BRANCH  29  30
HETATM   30  C   UNL     1      -9.627  14.190  66.268  1.00  0.00    -0.275 C  
HETATM   31  C   UNL     1     -10.501  13.939  65.023  1.00  0.00    -0.410 C  
HETATM   32  O   UNL     1     -11.055  12.616  65.063  1.00  0.00    -0.279 OA 
HETATM   33  C   UNL     1     -11.633  14.970  64.943  1.00  0.00    -0.374 C  
HETATM   34  C   UNL     1     -11.029  16.367  64.808  1.00  0.00    -0.246 C  
HETATM   35  N   UNL     1     -12.533  14.683  63.809  1.00  0.00    -1.068 NA 
HETATM   36  H   UNL     1     -11.594  12.462  64.297  1.00  0.00     0.000 HD 
HETATM   37  H1  UNL     1     -13.286  15.369  63.755  1.00  0.00     0.000 HD 
HETATM   38  H2  UNL     1     -12.895  13.730  63.849  1.00  0.00     0.000 HD 
HETATM   39  C   UNL     1     -10.066  16.693  65.963  1.00  0.00    -0.340 C  
HETATM   40  C   UNL     1      -8.967  15.595  66.219  1.00  0.00    -0.342 C  
HETATM   41  N   UNL     1      -9.458  18.015  65.705  1.00  0.00    -0.432 NA 
HETATM   42  H2  UNL     1     -10.155  18.745  65.558  1.00  0.00     0.000 HD 
HETATM   43  H1  UNL     1      -8.820  18.231  66.471  1.00  0.00     0.000 HD 
BRANCH  40  44
HETATM   44  O   UNL     1      -8.284  15.975  67.437  1.00  0.00    -0.151 OA 
BRANCH  44  45
HETATM   45  C   UNL     1      -6.876  16.216  67.309  1.00  0.00    -0.201 C  
HETATM   46  O   UNL     1      -6.607  17.489  66.731  1.00  0.00    -0.162 OA 
HETATM   47  C   UNL     1      -6.956  18.613  67.538  1.00  0.00    -0.206 C  
HETATM   48  C   UNL     1      -6.173  18.572  68.853  1.00  0.00    -0.225 C  
HETATM   49  H1  UNL     1      -5.891  14.659  70.226  1.00  0.00     0.000 HD 
HETATM   50  H2  UNL     1      -6.168  13.985  68.716  1.00  0.00     0.000 HD 
HETATM   51  O   UNL     1      -6.506  19.659  69.719  1.00  0.00    -0.318 OA 
HETATM   52  C   UNL     1      -6.446  17.246  69.576  1.00  0.00    -0.207 C  
HETATM   53  H   UNL     1      -6.019  19.634  70.535  1.00  0.00     0.000 HD 
HETATM   54  O   UNL     1      -5.637  17.169  70.762  1.00  0.00    -0.169 OA 
HETATM   55  N   UNL     1      -6.382  14.765  69.338  1.00  0.00    -0.115 NA 
HETATM   56  C   UNL     1      -6.130  16.055  68.657  1.00  0.00    -0.108 C  
HETATM   57  H   UNL     1      -5.806  16.348  71.210  1.00  0.00     0.000 HD 
BRANCH  47  58
HETATM   58  C   UNL     1      -6.628  19.873  66.725  1.00  0.00    -0.198 C  
HETATM   59  O   UNL     1      -7.397  20.982  67.199  1.00  0.00    -0.482 OA 
HETATM   60  H   UNL     1      -7.195  21.762  66.696  1.00  0.00     0.000 HD 
ENDBRANCH  47  58
ENDBRANCH  44  45
ENDBRANCH  40  44
ENDBRANCH  29  30
ENDBRANCH  22  29
ENDBRANCH  18  19
ENDBRANCH   7  18
ENDBRANCH   2   5
TORSDOF 9
ENDMDL
MODEL       25
REMARK 921   NORMALIZED FREE ENERGY PREDICTED BY IDOCK:   -7.15 KCAL/MOL
REMARK 922        TOTAL FREE ENERGY PREDICTED BY IDOCK:  -12.95 KCAL/MOL
REMARK 923 INTER-LIGAND FREE ENERGY PREDICTED BY IDOCK:  -10.49 KCAL/MOL
REMARK 924 INTRA-LIGAND FREE ENERGY PREDICTED BY IDOCK:   -2.46 KCAL/MOL
REMARK 927      BINDING AFFINITY PREDICTED BY RF-SCORE:    0.00 PKD
ROOT
HETATM    1  N   UNL     1     -12.513  13.359  62.684  1.00  0.00    -0.574 NA 
HETATM    2  C   UNL     1     -11.766  12.484  63.611  1.00  0.00    -0.515 C  
HETATM    3  H1  UNL     1     -12.990  12.793  61.982  1.00  0.00     0.000 HD 
HETATM    4  H2  UNL     1     -11.915  14.070  62.263  1.00  0.00     0.000 HD 
ENDROOT
BRANCH   2   5
HETATM    5  C   UNL     1     -11.047  13.337  64.670  1.00  0.00    -0.357 C  
HETATM    6  O   UNL     1     -11.069  12.591  65.900  1.00  0.00    -0.279 OA 
HETATM    7  C   UNL     1     -10.256  13.192  66.906  1.00  0.00    -0.245 C  
HETATM    8  C   UNL     1     -10.891  14.552  67.314  1.00  0.00    -0.297 C  
HETATM    9  O   UNL     1     -13.102  14.558  65.119  1.00  0.00    -0.538 OA 
HETATM   10  H   UNL     1     -13.501  15.410  65.249  1.00  0.00     0.000 HD 
HETATM   11  N   UNL     1     -12.231  14.347  67.941  1.00  0.00    -0.620 NA 
HETATM   12  C   UNL     1     -11.010  15.450  66.060  1.00  0.00    -0.286 C  
HETATM   13  H2  UNL     1     -12.183  13.701  68.729  1.00  0.00     0.000 HD 
HETATM   14  O   UNL     1      -9.729  15.964  65.671  1.00  0.00    -0.328 OA 
HETATM   15  C   UNL     1     -11.697  14.721  64.881  1.00  0.00    -0.390 C  
HETATM   16  H1  UNL     1     -12.647  15.239  68.208  1.00  0.00     0.000 HD 
HETATM   17  H   UNL     1      -9.802  16.516  64.901  1.00  0.00     0.000 HD 
BRANCH   7  18
HETATM   18  O   UNL     1     -10.173  12.360  68.067  1.00  0.00    -0.206 OA 
BRANCH  18  19
HETATM   19  C   UNL     1      -8.838  11.923  68.378  1.00  0.00    -0.159 C  
HETATM   20  O   UNL     1      -9.794  10.358  70.041  1.00  0.00    -0.414 OA 
HETATM   21  C   UNL     1      -8.147  11.661  67.041  1.00  0.00    -0.164 C  
HETATM   22  C   UNL     1      -8.801   9.590  67.889  1.00  0.00    -0.119 C  
HETATM   23  H   UNL     1      -9.749   9.514  70.474  1.00  0.00     0.000 HD 
HETATM   24  O   UNL     1      -8.346  10.276  66.721  1.00  0.00    -0.122 OA 
HETATM   25  C   UNL     1      -8.766  10.572  69.071  1.00  0.00    -0.156 C  
BRANCH  21  26
HETATM   26  C   UNL     1      -6.643  11.940  67.056  1.00  0.00    -0.128 C  
HETATM   27  H   UNL     1      -4.988  11.048  66.452  1.00  0.00     0.000 HD 
HETATM   28  O   UNL     1      -5.922  10.875  66.443  1.00  0.00    -0.101 OA 
ENDBRANCH  21  26
BRANCH  22  29
HETATM   29  O   UNL     1      -7.952   8.486  68.188  1.00  0.00    -0.108 OA 
BRANCH  29  30
HETATM   30  C   UNL     1      -8.152   7.252  67.472  1.00  0.00    -0.114 C  
HETATM   31  C   UNL     1      -7.502   7.331  66.077  1.00  0.00    -0.080 C  
HETATM   32  O   UNL     1      -6.170   7.852  66.177  1.00  0.00    -0.044 OA 
HETATM   33  C   UNL     1      -7.467   5.947  65.420  1.00  0.00    -0.082 C  
HETATM   34  C   UNL     1      -8.899   5.444  65.234  1.00  0.00    -0.132 C  
HETATM   35  N   UNL     1      -6.762   5.992  64.124  1.00  0.00    -0.037 NA 
HETATM   36  H   UNL     1      -5.769   7.901  65.318  1.00  0.00     0.000 HD 
HETATM   37  H1  UNL     1      -6.739   5.072  63.687  1.00  0.00     0.000 HD 
HETATM   38  H2  UNL     1      -5.827   6.387  64.219  1.00  0.00     0.000 HD 
HETATM   39  C   UNL     1      -9.673   5.405  66.563  1.00  0.00    -0.164 C  
HETATM   40  C   UNL     1      -9.618   6.748  67.385  1.00  0.00    -0.134 C  
HETATM   41  N   UNL     1     -11.066   5.001  66.281  1.00  0.00    -0.578 NA 
HETATM   42  H2  UNL     1     -11.123   4.121  65.769  1.00  0.00     0.000 HD 
HETATM   43  H1  UNL     1     -11.579   4.975  67.163  1.00  0.00     0.000 HD 
BRANCH  40  44
HETATM   44  O   UNL     1     -10.231   6.469  68.666  1.00  0.00    -0.152 OA 
BRANCH  44  45
HETATM   45  C   UNL     1      -9.377   6.627  69.808  1.00  0.00    -0.145 C  
HETATM   46  O   UNL     1      -9.868   7.619  70.703  1.00  0.00    -0.182 OA 
HETATM   47  C   UNL     1     -11.083   7.290  71.374  1.00  0.00    -0.243 C  
HETATM   48  C   UNL     1     -10.888   6.024  72.212  1.00  0.00    -0.245 C  
HETATM   49  H1  UNL     1      -8.495   3.311  70.165  1.00  0.00     0.000 HD 
HETATM   50  H2  UNL     1      -7.811   4.479  69.177  1.00  0.00     0.000 HD 
HETATM   51  O   UNL     1     -12.085   5.625  72.884  1.00  0.00    -0.550 OA 
HETATM   52  C   UNL     1     -10.407   4.878  71.312  1.00  0.00    -0.148 C  
HETATM   53  H   UNL     1     -11.964   4.840  73.404  1.00  0.00     0.000 HD 
HETATM   54  O   UNL     1     -10.133   3.717  72.116  1.00  0.00    -0.168 OA 
HETATM   55  N   UNL     1      -8.653   4.193  69.678  1.00  0.00    -0.070 NA 
HETATM   56  C   UNL     1      -9.137   5.288  70.549  1.00  0.00    -0.141 C  
HETATM   57  H   UNL     1      -9.834   3.008  71.559  1.00  0.00     0.000 HD 
BRANCH  47  58
HETATM   58  C   UNL     1     -11.458   8.494  72.249  1.00  0.00    -0.375 C  
HETATM   59  O   UNL     1     -12.837   8.425  72.623  1.00  0.00    -0.592 OA 
HETATM   60  H   UNL     1     -13.069   9.170  73.164  1.00  0.00     0.000 HD 
ENDBRANCH  47  58
ENDBRANCH  44  45
ENDBRANCH  40  44
ENDBRANCH  29  30
ENDBRANCH  22  29
ENDBRANCH  18  19
ENDBRANCH   7  18
ENDBRANCH   2   5
TORSDOF 9
ENDMDL
MODEL       26
REMARK 921   NORMALIZED FREE ENERGY PREDICTED BY IDOCK:   -7.14 KCAL/MOL
REMARK 922        TOTAL FREE ENERGY PREDICTED BY IDOCK:  -12.94 KCAL/MOL
REMARK 923 INTER-LIGAND FREE ENERGY PREDICTED BY IDOCK:  -10.49 KCAL/MOL
REMARK 924 INTRA-LIGAND FREE ENERGY PREDICTED BY IDOCK:   -2.45 KCAL/MOL
REMARK 927      BINDING AFFINITY PREDICTED BY RF-SCORE:    0.00 PKD
ROOT
HETATM    1  N   UNL     1     -11.300  11.220  62.985  1.00  0.00    -0.827 NA 
HETATM    2  C   UNL     1     -12.188  12.008  63.864  1.00  0.00    -0.453 C  
HETATM    3  H1  UNL     1     -11.859  10.648  62.352  1.00  0.00     0.000 HD 
HETATM    4  H2  UNL     1     -10.631  10.662  63.517  1.00  0.00     0.000 HD 
ENDROOT
BRANCH   2   5
HETATM    5  C   UNL     1     -11.345  12.871  64.818  1.00  0.00    -0.315 C  
HETATM    6  O   UNL     1     -11.289  12.178  66.079  1.00  0.00    -0.329 OA 
HETATM    7  C   UNL     1     -10.368  12.784  66.983  1.00  0.00    -0.234 C  
HETATM    8  C   UNL     1     -10.909  14.187  67.382  1.00  0.00    -0.287 C  
HETATM    9  O   UNL     1     -13.301  14.200  65.387  1.00  0.00    -0.705 OA 
HETATM   10  H   UNL     1     -13.653  15.074  65.511  1.00  0.00     0.000 HD 
HETATM   11  N   UNL     1     -12.196  14.067  68.130  1.00  0.00    -0.536 NA 
HETATM   12  C   UNL     1     -11.100  15.037  66.104  1.00  0.00    -0.329 C  
HETATM   13  H2  UNL     1     -12.106  13.453  68.940  1.00  0.00     0.000 HD 
HETATM   14  O   UNL     1      -9.838  15.477  65.584  1.00  0.00    -0.334 OA 
HETATM   15  C   UNL     1     -11.917  14.291  65.022  1.00  0.00    -0.410 C  
HETATM   16  H1  UNL     1     -12.551  14.987  68.391  1.00  0.00     0.000 HD 
HETATM   17  H   UNL     1      -9.956  15.999  64.799  1.00  0.00     0.000 HD 
BRANCH   7  18
HETATM   18  O   UNL     1     -10.217  11.998  68.169  1.00  0.00    -0.189 OA 
BRANCH  18  19
HETATM   19  C   UNL     1     -11.292  11.069  68.396  1.00  0.00    -0.295 C  
HETATM   20  O   UNL     1     -10.110   9.431  66.966  1.00  0.00    -0.206 OA 
HETATM   21  C   UNL     1     -11.557  11.076  69.900  1.00  0.00    -0.337 C  
HETATM   22  C   UNL     1     -10.290   9.175  69.438  1.00  0.00    -0.216 C  
HETATM   23  H   UNL     1      -9.888   8.524  66.791  1.00  0.00     0.000 HD 
HETATM   24  O   UNL     1     -10.759  10.033  70.479  1.00  0.00    -0.294 OA 
HETATM   25  C   UNL     1     -10.938   9.618  68.116  1.00  0.00    -0.132 C  
BRANCH  21  26
HETATM   26  C   UNL     1     -13.020  10.825  70.272  1.00  0.00    -0.071 C  
HETATM   27  H   UNL     1     -14.046   9.545  71.372  1.00  0.00     0.000 HD 
HETATM   28  O   UNL     1     -13.138   9.700  71.140  1.00  0.00    -0.348 OA 
ENDBRANCH  21  26
BRANCH  22  29
HETATM   29  O   UNL     1     -10.658   7.823  69.694  1.00  0.00    -0.239 OA 
BRANCH  29  30
HETATM   30  C   UNL     1      -9.937   7.095  70.708  1.00  0.00    -0.189 C  
HETATM   31  C   UNL     1     -10.438   7.492  72.110  1.00  0.00    -0.214 C  
HETATM   32  O   UNL     1     -11.872   7.476  72.149  1.00  0.00    -0.287 OA 
HETATM   33  C   UNL     1      -9.882   6.536  73.171  1.00  0.00    -0.170 C  
HETATM   34  C   UNL     1      -8.356   6.633  73.182  1.00  0.00    -0.122 C  
HETATM   35  N   UNL     1     -10.430   6.848  74.505  1.00  0.00    -0.461 NA 
HETATM   36  H   UNL     1     -12.181   7.720  73.013  1.00  0.00     0.000 HD 
HETATM   37  H1  UNL     1     -10.060   6.213  75.212  1.00  0.00     0.000 HD 
HETATM   38  H2  UNL     1     -11.450   6.852  74.501  1.00  0.00     0.000 HD 
HETATM   39  C   UNL     1      -7.750   6.336  71.800  1.00  0.00    -0.100 C  
HETATM   40  C   UNL     1      -8.388   7.164  70.621  1.00  0.00    -0.126 C  
HETATM   41  N   UNL     1      -6.289   6.544  71.876  1.00  0.00    -0.045 NA 
HETATM   42  H2  UNL     1      -5.854   5.999  72.620  1.00  0.00     0.000 HD 
HETATM   43  H1  UNL     1      -5.888   6.347  70.959  1.00  0.00     0.000 HD 
BRANCH  40  44
HETATM   44  O   UNL     1      -7.834   6.627  69.397  1.00  0.00    -0.108 OA 
BRANCH  44  45
HETATM   45  C   UNL     1      -8.118   5.243  69.144  1.00  0.00    -0.089 C  
HETATM   46  O   UNL     1      -9.299   5.078  68.368  1.00  0.00    -0.115 OA 
HETATM   47  C   UNL     1      -9.216   5.541  67.021  1.00  0.00    -0.116 C  
HETATM   48  C   UNL     1      -8.113   4.783  66.278  1.00  0.00    -0.107 C  
HETATM   49  H1  UNL     1      -4.855   4.180  68.788  1.00  0.00     0.000 HD 
HETATM   50  H2  UNL     1      -5.752   4.367  70.191  1.00  0.00     0.000 HD 
HETATM   51  O   UNL     1      -7.960   5.228  64.928  1.00  0.00    -0.094 OA 
HETATM   52  C   UNL     1      -6.780   4.951  67.021  1.00  0.00    -0.055 C  
HETATM   53  H   UNL     1      -7.276   4.758  64.467  1.00  0.00     0.000 HD 
HETATM   54  O   UNL     1      -5.767   4.161  66.375  1.00  0.00    -0.017 OA 
HETATM   55  N   UNL     1      -5.643   4.661  69.220  1.00  0.00    -0.015 NA 
HETATM   56  C   UNL     1      -6.921   4.512  68.487  1.00  0.00    -0.052 C  
HETATM   57  H   UNL     1      -4.942   4.265  66.835  1.00  0.00     0.000 HD 
BRANCH  47  58
HETATM   58  C   UNL     1     -10.590   5.312  66.377  1.00  0.00    -0.276 C  
HETATM   59  O   UNL     1     -11.384   6.498  66.467  1.00  0.00    -0.645 OA 
HETATM   60  H   UNL     1     -12.234   6.357  66.069  1.00  0.00     0.000 HD 
ENDBRANCH  47  58
ENDBRANCH  44  45
ENDBRANCH  40  44
ENDBRANCH  29  30
ENDBRANCH  22  29
ENDBRANCH  18  19
ENDBRANCH   7  18
ENDBRANCH   2   5
TORSDOF 9
ENDMDL
MODEL       27
REMARK 921   NORMALIZED FREE ENERGY PREDICTED BY IDOCK:   -7.09 KCAL/MOL
REMARK 922        TOTAL FREE ENERGY PREDICTED BY IDOCK:  -12.87 KCAL/MOL
REMARK 923 INTER-LIGAND FREE ENERGY PREDICTED BY IDOCK:  -10.74 KCAL/MOL
REMARK 924 INTRA-LIGAND FREE ENERGY PREDICTED BY IDOCK:   -2.13 KCAL/MOL
REMARK 927      BINDING AFFINITY PREDICTED BY RF-SCORE:    0.00 PKD
ROOT
HETATM    1  N   UNL     1     -12.430   6.096  72.509  1.00  0.00    -0.533 NA 
HETATM    2  C   UNL     1     -11.552   5.015  73.002  1.00  0.00    -0.216 C  
HETATM    3  H1  UNL     1     -13.337   6.045  72.972  1.00  0.00     0.000 HD 
HETATM    4  H2  UNL     1     -12.517   6.085  71.492  1.00  0.00     0.000 HD 
ENDROOT
BRANCH   2   5
HETATM    5  C   UNL     1     -10.184   5.093  72.303  1.00  0.00    -0.202 C  
HETATM    6  O   UNL     1     -10.423   5.521  70.950  1.00  0.00    -0.233 OA 
HETATM    7  C   UNL     1      -9.212   5.824  70.261  1.00  0.00    -0.152 C  
HETATM    8  C   UNL     1      -8.404   4.507  70.072  1.00  0.00    -0.066 C  
HETATM    9  O   UNL     1     -10.276   2.716  71.800  1.00  0.00    -0.111 OA 
HETATM   10  H   UNL     1      -9.807   1.890  71.802  1.00  0.00     0.000 HD 
HETATM   11  N   UNL     1      -9.143   3.551  69.196  1.00  0.00    -0.125 NA 
HETATM   12  C   UNL     1      -8.133   3.877  71.458  1.00  0.00    -0.069 C  
HETATM   13  H2  UNL     1      -9.391   3.974  68.301  1.00  0.00     0.000 HD 
HETATM   14  O   UNL     1      -7.121   4.604  72.167  1.00  0.00    -0.061 OA 
HETATM   15  C   UNL     1      -9.422   3.751  72.305  1.00  0.00    -0.129 C  
HETATM   16  H1  UNL     1      -8.614   2.688  69.072  1.00  0.00     0.000 HD 
HETATM   17  H   UNL     1      -6.955   4.217  73.018  1.00  0.00     0.000 HD 
BRANCH   7  18
HETATM   18  O   UNL     1      -9.477   6.386  68.973  1.00  0.00    -0.130 OA 
BRANCH  18  19
HETATM   19  C   UNL     1      -8.505   7.358  68.548  1.00  0.00    -0.125 C  
HETATM   20  O   UNL     1      -9.671   7.494  66.369  1.00  0.00    -0.339 OA 
HETATM   21  C   UNL     1      -8.386   8.373  69.683  1.00  0.00    -0.122 C  
HETATM   22  C   UNL     1      -9.749   9.330  68.053  1.00  0.00    -0.150 C  
HETATM   23  H   UNL     1      -9.946   8.028  65.633  1.00  0.00     0.000 HD 
HETATM   24  O   UNL     1      -9.316   9.432  69.410  1.00  0.00    -0.155 OA 
HETATM   25  C   UNL     1      -8.945   8.211  67.370  1.00  0.00    -0.137 C  
BRANCH  21  26
HETATM   26  C   UNL     1      -6.990   8.983  69.824  1.00  0.00    -0.054 C  
HETATM   27  H   UNL     1      -6.139  10.463  70.817  1.00  0.00     0.000 HD 
HETATM   28  O   UNL     1      -7.005  10.085  70.729  1.00  0.00    -0.305 OA 
ENDBRANCH  21  26
BRANCH  22  29
HETATM   29  O   UNL     1      -9.515  10.549  67.355  1.00  0.00    -0.152 OA 
BRANCH  29  30
HETATM   30  C   UNL     1     -10.510  11.007  66.419  1.00  0.00    -0.258 C  
HETATM   31  C   UNL     1      -9.914  11.085  65.000  1.00  0.00    -0.285 C  
HETATM   32  O   UNL     1      -9.194   9.882  64.696  1.00  0.00    -0.225 OA 
HETATM   33  C   UNL     1     -11.021  11.300  63.962  1.00  0.00    -0.303 C  
HETATM   34  C   UNL     1     -11.719  12.631  64.243  1.00  0.00    -0.446 C  
HETATM   35  N   UNL     1     -10.474  11.282  62.591  1.00  0.00    -0.580 NA 
HETATM   36  H   UNL     1      -8.827   9.930  63.822  1.00  0.00     0.000 HD 
HETATM   37  H1  UNL     1     -11.210  11.425  61.900  1.00  0.00     0.000 HD 
HETATM   38  H2  UNL     1      -9.949  10.427  62.408  1.00  0.00     0.000 HD 
HETATM   39  C   UNL     1     -12.283  12.696  65.673  1.00  0.00    -0.411 C  
HETATM   40  C   UNL     1     -11.244  12.323  66.796  1.00  0.00    -0.318 C  
HETATM   41  N   UNL     1     -12.853  14.042  65.890  1.00  0.00    -0.464 NA 
HETATM   42  H2  UNL     1     -13.545  14.293  65.184  1.00  0.00     0.000 HD 
HETATM   43  H1  UNL     1     -13.226  14.084  66.838  1.00  0.00     0.000 HD 
BRANCH  40  44
HETATM   44  O   UNL     1     -11.987  12.256  68.036  1.00  0.00    -0.425 OA 
BRANCH  44  45
HETATM   45  C   UNL     1     -11.240  12.556  69.223  1.00  0.00    -0.194 C  
HETATM   46  O   UNL     1     -10.793  13.907  69.241  1.00  0.00    -0.221 OA 
HETATM   47  C   UNL     1     -11.820  14.889  69.367  1.00  0.00    -0.324 C  
HETATM   48  C   UNL     1     -12.582  14.680  70.678  1.00  0.00    -0.357 C  
HETATM   49  H1  UNL     1     -13.080  10.618  71.406  1.00  0.00     0.000 HD 
HETATM   50  H2  UNL     1     -11.806  10.164  70.416  1.00  0.00     0.000 HD 
HETATM   51  O   UNL     1     -13.648  15.618  70.844  1.00  0.00    -0.780 OA 
HETATM   52  C   UNL     1     -13.150  13.255  70.723  1.00  0.00     0.076 C  
HETATM   53  H   UNL     1     -14.120  15.488  71.658  1.00  0.00     0.000 HD 
HETATM   54  O   UNL     1     -13.783  13.029  71.994  1.00  0.00    -0.452 OA 
HETATM   55  N   UNL     1     -12.559  10.839  70.558  1.00  0.00    -0.340 NA 
HETATM   56  C   UNL     1     -12.032  12.222  70.512  1.00  0.00    -0.205 C  
HETATM   57  H   UNL     1     -14.135  12.147  72.022  1.00  0.00     0.000 HD 
BRANCH  47  58
HETATM   58  C   UNL     1     -11.139  16.264  69.324  1.00  0.00    -0.325 C  
HETATM   59  O   UNL     1     -11.070  16.742  67.977  1.00  0.00    -0.336 OA 
HETATM   60  H   UNL     1     -10.649  17.593  67.950  1.00  0.00     0.000 HD 
ENDBRANCH  47  58
ENDBRANCH  44  45
ENDBRANCH  40  44
ENDBRANCH  29  30
ENDBRANCH  22  29
ENDBRANCH  18  19
ENDBRANCH   7  18
ENDBRANCH   2   5
TORSDOF 9
ENDMDL
MODEL       28
REMARK 921   NORMALIZED FREE ENERGY PREDICTED BY IDOCK:   -7.07 KCAL/MOL
REMARK 922        TOTAL FREE ENERGY PREDICTED BY IDOCK:  -12.83 KCAL/MOL
REMARK 923 INTER-LIGAND FREE ENERGY PREDICTED BY IDOCK:  -10.42 KCAL/MOL
REMARK 924 INTRA-LIGAND FREE ENERGY PREDICTED BY IDOCK:   -2.41 KCAL/MOL
REMARK 927      BINDING AFFINITY PREDICTED BY RF-SCORE:    0.00 PKD
ROOT
HETATM    1  N   UNL     1      -8.920  16.942  66.055  1.00  0.00    -0.510 NA 
HETATM    2  C   UNL     1     -10.257  16.973  66.682  1.00  0.00    -0.310 C  
HETATM    3  H1  UNL     1      -8.425  17.812  66.249  1.00  0.00     0.000 HD 
HETATM    4  H2  UNL     1      -8.971  16.745  65.055  1.00  0.00     0.000 HD 
ENDROOT
BRANCH   2   5
HETATM    5  C   UNL     1     -11.003  15.661  66.389  1.00  0.00    -0.197 C  
HETATM    6  O   UNL     1     -10.015  14.615  66.336  1.00  0.00    -0.261 OA 
HETATM    7  C   UNL     1     -10.608  13.320  66.270  1.00  0.00    -0.289 C  
HETATM    8  C   UNL     1     -11.341  13.176  64.905  1.00  0.00    -0.309 C  
HETATM    9  O   UNL     1     -10.951  16.132  64.004  1.00  0.00    -1.033 OA 
HETATM   10  H   UNL     1     -11.445  16.154  63.193  1.00  0.00     0.000 HD 
HETATM   11  N   UNL     1     -10.371  13.238  63.772  1.00  0.00    -0.633 NA 
HETATM   12  C   UNL     1     -12.398  14.298  64.778  1.00  0.00    -0.426 C  
HETATM   13  H2  UNL     1      -9.626  12.549  63.874  1.00  0.00     0.000 HD 
HETATM   14  O   UNL     1     -13.533  14.035  65.615  1.00  0.00    -0.713 OA 
HETATM   15  C   UNL     1     -11.805  15.696  65.071  1.00  0.00     0.140 C  
HETATM   16  H1  UNL     1     -10.852  13.144  62.877  1.00  0.00     0.000 HD 
HETATM   17  H   UNL     1     -14.182  14.724  65.537  1.00  0.00     0.000 HD 
BRANCH   7  18
HETATM   18  O   UNL     1      -9.618  12.293  66.367  1.00  0.00    -0.228 OA 
BRANCH  18  19
HETATM   19  C   UNL     1      -8.923  12.268  67.627  1.00  0.00    -0.181 C  
HETATM   20  O   UNL     1     -11.077  11.786  68.747  1.00  0.00    -0.210 OA 
HETATM   21  C   UNL     1      -7.686  11.396  67.419  1.00  0.00    -0.135 C  
HETATM   22  C   UNL     1      -9.275  10.081  68.507  1.00  0.00    -0.141 C  
HETATM   23  H   UNL     1     -11.541  11.337  69.443  1.00  0.00     0.000 HD 
HETATM   24  O   UNL     1      -8.044  10.053  67.781  1.00  0.00    -0.108 OA 
HETATM   25  C   UNL     1      -9.666  11.549  68.740  1.00  0.00    -0.126 C  
BRANCH  21  26
HETATM   26  C   UNL     1      -6.482  11.817  68.263  1.00  0.00    -0.051 C  
HETATM   27  H   UNL     1      -5.012  10.939  69.248  1.00  0.00     0.000 HD 
HETATM   28  O   UNL     1      -5.760  10.677  68.724  1.00  0.00    -0.041 OA 
ENDBRANCH  21  26
BRANCH  22  29
HETATM   29  O   UNL     1      -9.130   9.442  69.771  1.00  0.00    -0.163 OA 
BRANCH  29  30
HETATM   30  C   UNL     1     -10.061   8.401  70.125  1.00  0.00    -0.191 C  
HETATM   31  C   UNL     1     -10.841   8.789  71.396  1.00  0.00    -0.289 C  
HETATM   32  O   UNL     1     -11.332  10.133  71.287  1.00  0.00    -0.325 OA 
HETATM   33  C   UNL     1     -12.014   7.829  71.622  1.00  0.00    -0.297 C  
HETATM   34  C   UNL     1     -11.471   6.415  71.829  1.00  0.00    -0.349 C  
HETATM   35  N   UNL     1     -12.826   8.246  72.782  1.00  0.00    -0.607 NA 
HETATM   36  H   UNL     1     -11.813  10.372  72.070  1.00  0.00     0.000 HD 
HETATM   37  H1  UNL     1     -13.606   7.607  72.933  1.00  0.00     0.000 HD 
HETATM   38  H2  UNL     1     -13.143   9.211  72.691  1.00  0.00     0.000 HD 
HETATM   39  C   UNL     1     -10.600   5.954  70.648  1.00  0.00    -0.268 C  
HETATM   40  C   UNL     1      -9.467   6.970  70.242  1.00  0.00    -0.165 C  
HETATM   41  N   UNL     1     -10.041   4.624  70.969  1.00  0.00    -0.198 NA 
HETATM   42  H2  UNL     1     -10.762   3.945  71.214  1.00  0.00     0.000 HD 
HETATM   43  H1  UNL     1      -9.464   4.319  70.186  1.00  0.00     0.000 HD 
BRANCH  40  44
HETATM   44  O   UNL     1      -8.882   6.466  69.019  1.00  0.00    -0.129 OA 
BRANCH  44  45
HETATM   45  C   UNL     1      -9.809   6.175  67.963  1.00  0.00    -0.127 C  
HETATM   46  O   UNL     1      -9.792   7.178  66.953  1.00  0.00    -0.181 OA 
HETATM   47  C   UNL     1      -8.592   7.252  66.185  1.00  0.00    -0.149 C  
HETATM   48  C   UNL     1      -8.352   5.923  65.465  1.00  0.00    -0.145 C  
HETATM   49  H1  UNL     1      -9.395   2.750  67.938  1.00  0.00     0.000 HD 
HETATM   50  H2  UNL     1     -10.400   3.680  68.905  1.00  0.00     0.000 HD 
HETATM   51  O   UNL     1      -7.142   5.927  64.703  1.00  0.00    -0.056 OA 
HETATM   52  C   UNL     1      -8.301   4.782  66.490  1.00  0.00    -0.107 C  
HETATM   53  H   UNL     1      -6.994   5.103  64.256  1.00  0.00     0.000 HD 
HETATM   54  O   UNL     1      -8.172   3.525  65.804  1.00  0.00    -0.096 OA 
HETATM   55  N   UNL     1      -9.549   3.674  68.342  1.00  0.00    -0.139 NA 
HETATM   56  C   UNL     1      -9.576   4.772  67.349  1.00  0.00    -0.159 C  
HETATM   57  H   UNL     1      -8.140   2.818  66.438  1.00  0.00     0.000 HD 
BRANCH  47  58
HETATM   58  C   UNL     1      -8.761   8.411  65.192  1.00  0.00    -0.083 C  
HETATM   59  O   UNL     1      -9.950   9.149  65.488  1.00  0.00    -0.441 OA 
HETATM   60  H   UNL     1     -10.054   9.865  64.874  1.00  0.00     0.000 HD 
ENDBRANCH  47  58
ENDBRANCH  44  45
ENDBRANCH  40  44
ENDBRANCH  29  30
ENDBRANCH  22  29
ENDBRANCH  18  19
ENDBRANCH   7  18
ENDBRANCH   2   5
TORSDOF 9
ENDMDL
MODEL       29
REMARK 921   NORMALIZED FREE ENERGY PREDICTED BY IDOCK:   -7.05 KCAL/MOL
REMARK 922        TOTAL FREE ENERGY PREDICTED BY IDOCK:  -12.80 KCAL/MOL
REMARK 923 INTER-LIGAND FREE ENERGY PREDICTED BY IDOCK:  -10.54 KCAL/MOL
REMARK 924 INTRA-LIGAND FREE ENERGY PREDICTED BY IDOCK:   -2.26 KCAL/MOL
REMARK 927      BINDING AFFINITY PREDICTED BY RF-SCORE:    0.00 PKD
ROOT
HETATM    1  N   UNL     1      -8.177  16.185  66.257  1.00  0.00    -0.301 NA 
HETATM    2  C   UNL     1      -8.031  16.537  67.684  1.00  0.00    -0.163 C  
HETATM    3  H1  UNL     1      -7.376  16.533  65.730  1.00  0.00     0.000 HD 
HETATM    4  H2  UNL     1      -9.063  16.513  65.870  1.00  0.00     0.000 HD 
ENDROOT
BRANCH   2   5
HETATM    5  C   UNL     1      -9.238  16.011  68.478  1.00  0.00    -0.206 C  
HETATM    6  O   UNL     1      -9.484  14.664  68.034  1.00  0.00    -0.198 OA 
HETATM    7  C   UNL     1     -10.454  14.002  68.842  1.00  0.00    -0.200 C  
HETATM    8  C   UNL     1     -11.833  14.693  68.634  1.00  0.00    -0.311 C  
HETATM    9  O   UNL     1     -10.765  17.046  66.894  1.00  0.00    -0.250 OA 
HETATM   10  H   UNL     1     -11.547  17.574  66.781  1.00  0.00     0.000 HD 
HETATM   11  N   UNL     1     -12.299  14.536  67.225  1.00  0.00    -0.562 NA 
HETATM   12  C   UNL     1     -11.707  16.190  69.001  1.00  0.00    -0.254 C  
HETATM   13  H2  UNL     1     -12.323  13.556  66.942  1.00  0.00     0.000 HD 
HETATM   14  O   UNL     1     -11.633  16.369  70.422  1.00  0.00    -0.465 OA 
HETATM   15  C   UNL     1     -10.509  16.867  68.294  1.00  0.00    -0.352 C  
HETATM   16  H1  UNL     1     -13.203  14.990  67.089  1.00  0.00     0.000 HD 
HETATM   17  H   UNL     1     -11.556  17.289  70.647  1.00  0.00     0.000 HD 
BRANCH   7  18
HETATM   18  O   UNL     1     -10.575  12.624  68.477  1.00  0.00    -0.236 OA 
BRANCH  18  19
HETATM   19  C   UNL     1      -9.544  12.162  67.587  1.00  0.00    -0.190 C  
HETATM   20  O   UNL     1      -8.248  11.415  69.559  1.00  0.00    -0.333 OA 
HETATM   21  C   UNL     1     -10.246  11.362  66.491  1.00  0.00    -0.221 C  
HETATM   22  C   UNL     1      -9.351   9.821  67.994  1.00  0.00    -0.128 C  
HETATM   23  H   UNL     1      -7.655  10.779  69.942  1.00  0.00     0.000 HD 
HETATM   24  O   UNL     1     -10.267   9.989  66.910  1.00  0.00    -0.216 OA 
HETATM   25  C   UNL     1      -8.596  11.144  68.199  1.00  0.00    -0.140 C  
BRANCH  21  26
HETATM   26  C   UNL     1      -9.556  11.440  65.128  1.00  0.00    -0.229 C  
HETATM   27  H   UNL     1      -9.304  10.275  63.553  1.00  0.00     0.000 HD 
HETATM   28  O   UNL     1      -9.732  10.227  64.399  1.00  0.00    -0.297 OA 
ENDBRANCH  21  26
BRANCH  22  29
HETATM   29  O   UNL     1      -8.405   8.797  67.701  1.00  0.00    -0.113 OA 
BRANCH  29  30
HETATM   30  C   UNL     1      -8.807   7.424  67.865  1.00  0.00    -0.132 C  
HETATM   31  C   UNL     1      -9.888   7.055  66.830  1.00  0.00    -0.199 C  
HETATM   32  O   UNL     1      -9.498   7.500  65.523  1.00  0.00    -0.317 OA 
HETATM   33  C   UNL     1     -10.122   5.541  66.811  1.00  0.00    -0.207 C  
HETATM   34  C   UNL     1     -10.627   5.095  68.184  1.00  0.00     0.002 C  
HETATM   35  N   UNL     1     -11.086   5.165  65.759  1.00  0.00    -0.808 NA 
HETATM   36  H   UNL     1     -10.164   7.273  64.886  1.00  0.00     0.000 HD 
HETATM   37  H1  UNL     1     -11.242   4.158  65.746  1.00  0.00     0.000 HD 
HETATM   38  H2  UNL     1     -10.797   5.512  64.844  1.00  0.00     0.000 HD 
HETATM   39  C   UNL     1      -9.657   5.490  69.311  1.00  0.00    -0.136 C  
HETATM   40  C   UNL     1      -9.233   7.007  69.299  1.00  0.00    -0.139 C  
HETATM   41  N   UNL     1     -10.262   5.109  70.604  1.00  0.00    -0.253 NA 
HETATM   42  H2  UNL     1     -10.523   4.123  70.639  1.00  0.00     0.000 HD 
HETATM   43  H1  UNL     1      -9.619   5.371  71.350  1.00  0.00     0.000 HD 
BRANCH  40  44
HETATM   44  O   UNL     1      -8.194   7.150  70.295  1.00  0.00    -0.126 OA 
BRANCH  44  45
HETATM   45  C   UNL     1      -8.265   8.336  71.100  1.00  0.00    -0.120 C  
HETATM   46  O   UNL     1      -9.440   9.091  70.826  1.00  0.00    -0.207 OA 
HETATM   47  C   UNL     1     -10.667   8.478  71.219  1.00  0.00    -0.240 C  
HETATM   48  C   UNL     1     -10.665   8.232  72.730  1.00  0.00    -0.243 C  
HETATM   49  H1  UNL     1      -6.893   7.007  73.973  1.00  0.00     0.000 HD 
HETATM   50  H2  UNL     1      -6.113   7.655  72.639  1.00  0.00     0.000 HD 
HETATM   51  O   UNL     1     -11.860   7.588  73.179  1.00  0.00    -0.577 OA 
HETATM   52  C   UNL     1      -9.452   7.373  73.112  1.00  0.00    -0.201 C  
HETATM   53  H   UNL     1     -11.858   7.436  74.117  1.00  0.00     0.000 HD 
HETATM   54  O   UNL     1      -9.399   7.224  74.542  1.00  0.00    -0.419 OA 
HETATM   55  N   UNL     1      -6.968   7.212  72.977  1.00  0.00    -0.069 NA 
HETATM   56  C   UNL     1      -8.152   8.024  72.613  1.00  0.00    -0.145 C  
HETATM   57  H   UNL     1      -8.648   6.693  74.778  1.00  0.00     0.000 HD 
BRANCH  47  58
HETATM   58  C   UNL     1     -11.801   9.425  70.803  1.00  0.00    -0.256 C  
HETATM   59  O   UNL     1     -11.288  10.739  70.567  1.00  0.00    -0.378 OA 
HETATM   60  H   UNL     1     -11.989  11.325  70.310  1.00  0.00     0.000 HD 
ENDBRANCH  47  58
ENDBRANCH  44  45
ENDBRANCH  40  44
ENDBRANCH  29  30
ENDBRANCH  22  29
ENDBRANCH  18  19
ENDBRANCH   7  18
ENDBRANCH   2   5
TORSDOF 9
ENDMDL
MODEL       30
REMARK 921   NORMALIZED FREE ENERGY PREDICTED BY IDOCK:   -7.04 KCAL/MOL
REMARK 922        TOTAL FREE ENERGY PREDICTED BY IDOCK:  -12.79 KCAL/MOL
REMARK 923 INTER-LIGAND FREE ENERGY PREDICTED BY IDOCK:  -10.46 KCAL/MOL
REMARK 924 INTRA-LIGAND FREE ENERGY PREDICTED BY IDOCK:   -2.34 KCAL/MOL
REMARK 927      BINDING AFFINITY PREDICTED BY RF-SCORE:    0.00 PKD
ROOT
HETATM    1  N   UNL     1     -11.145  11.315  63.287  1.00  0.00    -0.828 NA 
HETATM    2  C   UNL     1     -12.091  12.173  64.028  1.00  0.00    -0.443 C  
HETATM    3  H1  UNL     1     -11.647  10.773  62.583  1.00  0.00     0.000 HD 
HETATM    4  H2  UNL     1     -10.598  10.720  63.910  1.00  0.00     0.000 HD 
ENDROOT
BRANCH   2   5
HETATM    5  C   UNL     1     -11.334  12.990  65.089  1.00  0.00    -0.291 C  
HETATM    6  O   UNL     1     -11.295  12.195  66.288  1.00  0.00    -0.324 OA 
HETATM    7  C   UNL     1     -10.444  12.763  67.281  1.00  0.00    -0.232 C  
HETATM    8  C   UNL     1     -11.072  14.100  67.771  1.00  0.00    -0.276 C  
HETATM    9  O   UNL     1     -13.376  14.172  65.676  1.00  0.00    -0.697 OA 
HETATM   10  H   UNL     1     -13.776  15.014  65.858  1.00  0.00     0.000 HD 
HETATM   11  N   UNL     1     -12.381  13.856  68.446  1.00  0.00    -0.455 NA 
HETATM   12  C   UNL     1     -11.252  15.046  66.561  1.00  0.00    -0.312 C  
HETATM   13  H2  UNL     1     -12.294  13.180  69.205  1.00  0.00     0.000 HD 
HETATM   14  O   UNL     1      -9.994  15.588  66.138  1.00  0.00    -0.268 OA 
HETATM   15  C   UNL     1     -11.984  14.358  65.384  1.00  0.00    -0.369 C  
HETATM   16  H1  UNL     1     -12.792  14.733  68.767  1.00  0.00     0.000 HD 
HETATM   17  H   UNL     1     -10.105  16.169  65.395  1.00  0.00     0.000 HD 
BRANCH   7  18
HETATM   18  O   UNL     1     -10.303  11.887  68.403  1.00  0.00    -0.198 OA 
BRANCH  18  19
HETATM   19  C   UNL     1     -11.424  11.007  68.602  1.00  0.00    -0.308 C  
HETATM   20  O   UNL     1     -10.510   9.526  66.842  1.00  0.00    -0.240 OA 
HETATM   21  C   UNL     1     -11.552  10.807  70.111  1.00  0.00    -0.337 C  
HETATM   22  C   UNL     1     -10.487   8.916  69.258  1.00  0.00    -0.224 C  
HETATM   23  H   UNL     1     -10.378   8.643  66.519  1.00  0.00     0.000 HD 
HETATM   24  O   UNL     1     -10.790   9.639  70.453  1.00  0.00    -0.248 OA 
HETATM   25  C   UNL     1     -11.213   9.594  68.085  1.00  0.00     0.065 C  
BRANCH  21  26
HETATM   26  C   UNL     1     -12.990  10.600  70.589  1.00  0.00    -0.264 C  
HETATM   27  H   UNL     1     -14.162  11.282  72.025  1.00  0.00     0.000 HD 
HETATM   28  O   UNL     1     -13.269  11.411  71.728  1.00  0.00    -0.458 OA 
ENDBRANCH  21  26
BRANCH  22  29
HETATM   29  O   UNL     1     -10.937   7.569  69.355  1.00  0.00    -0.193 OA 
BRANCH  29  30
HETATM   30  C   UNL     1     -10.109   6.527  68.803  1.00  0.00    -0.161 C  
HETATM   31  C   UNL     1     -10.861   5.784  67.681  1.00  0.00    -0.170 C  
HETATM   32  O   UNL     1     -11.465   6.724  66.781  1.00  0.00    -0.733 OA 
HETATM   33  C   UNL     1      -9.905   4.869  66.907  1.00  0.00    -0.197 C  
HETATM   34  C   UNL     1      -9.340   3.815  67.859  1.00  0.00    -0.236 C  
HETATM   35  N   UNL     1     -10.591   4.225  65.770  1.00  0.00    -0.482 NA 
HETATM   36  H   UNL     1     -11.927   6.267  66.089  1.00  0.00     0.000 HD 
HETATM   37  H1  UNL     1      -9.956   3.616  65.255  1.00  0.00     0.000 HD 
HETATM   38  H2  UNL     1     -11.031   4.913  65.159  1.00  0.00     0.000 HD 
HETATM   39  C   UNL     1      -8.636   4.451  69.070  1.00  0.00    -0.083 C  
HETATM   40  C   UNL     1      -9.496   5.532  69.826  1.00  0.00    -0.149 C  
HETATM   41  N   UNL     1      -8.206   3.370  69.981  1.00  0.00    -0.048 NA 
HETATM   42  H2  UNL     1      -7.628   2.670  69.515  1.00  0.00     0.000 HD 
HETATM   43  H1  UNL     1      -7.739   3.792  70.784  1.00  0.00     0.000 HD 
BRANCH  40  44
HETATM   44  O   UNL     1      -8.620   6.144  70.802  1.00  0.00    -0.132 OA 
BRANCH  44  45
HETATM   45  C   UNL     1      -7.254   6.301  70.394  1.00  0.00    -0.083 C  
HETATM   46  O   UNL     1      -7.015   7.584  69.825  1.00  0.00    -0.053 OA 
HETATM   47  C   UNL     1      -7.108   8.682  70.732  1.00  0.00    -0.061 C  
HETATM   48  C   UNL     1      -6.079   8.519  71.853  1.00  0.00    -0.060 C  
HETATM   49  H1  UNL     1      -5.812   4.527  72.978  1.00  0.00     0.000 HD 
HETATM   50  H2  UNL     1      -6.440   3.955  71.533  1.00  0.00     0.000 HD 
HETATM   51  O   UNL     1      -6.147   9.576  72.813  1.00  0.00    -0.301 OA 
HETATM   52  C   UNL     1      -6.296   7.176  72.563  1.00  0.00    -0.052 C  
HETATM   53  H   UNL     1      -5.508   9.475  73.508  1.00  0.00     0.000 HD 
HETATM   54  O   UNL     1      -5.270   6.982  73.552  1.00  0.00    -0.041 OA 
HETATM   55  N   UNL     1      -6.465   4.713  72.217  1.00  0.00    -0.029 NA 
HETATM   56  C   UNL     1      -6.262   6.019  71.551  1.00  0.00    -0.044 C  
HETATM   57  H   UNL     1      -5.404   6.151  73.991  1.00  0.00     0.000 HD 
BRANCH  47  58
HETATM   58  C   UNL     1      -6.862   9.961  69.920  1.00  0.00    -0.096 C  
HETATM   59  O   UNL     1      -8.041  10.770  69.898  1.00  0.00    -0.346 OA 
HETATM   60  H   UNL     1      -7.889  11.561  69.396  1.00  0.00     0.000 HD 
ENDBRANCH  47  58
ENDBRANCH  44  45
ENDBRANCH  40  44
ENDBRANCH  29  30
ENDBRANCH  22  29
ENDBRANCH  18  19
ENDBRANCH   7  18
ENDBRANCH   2   5
TORSDOF 9
ENDMDL
MODEL       31
REMARK 921   NORMALIZED FREE ENERGY PREDICTED BY IDOCK:   -7.02 KCAL/MOL
REMARK 922        TOTAL FREE ENERGY PREDICTED BY IDOCK:  -12.76 KCAL/MOL
REMARK 923 INTER-LIGAND FREE ENERGY PREDICTED BY IDOCK:   -9.49 KCAL/MOL
REMARK 924 INTRA-LIGAND FREE ENERGY PREDICTED BY IDOCK:   -3.27 KCAL/MOL
REMARK 927      BINDING AFFINITY PREDICTED BY RF-SCORE:    0.00 PKD
ROOT
HETATM    1  N   UNL     1     -11.735  11.352  63.087  1.00  0.00    -0.865 NA 
HETATM    2  C   UNL     1     -11.934  12.771  63.447  1.00  0.00    -0.535 C  
HETATM    3  H1  UNL     1     -12.228  11.142  62.219  1.00  0.00     0.000 HD 
HETATM    4  H2  UNL     1     -12.006  10.723  63.843  1.00  0.00     0.000 HD 
ENDROOT
BRANCH   2   5
HETATM    5  C   UNL     1     -11.191  13.087  64.756  1.00  0.00    -0.317 C  
HETATM    6  O   UNL     1     -11.054  11.848  65.475  1.00  0.00    -0.302 OA 
HETATM    7  C   UNL     1     -10.203  11.979  66.612  1.00  0.00    -0.204 C  
HETATM    8  C   UNL     1     -10.897  12.909  67.650  1.00  0.00    -0.232 C  
HETATM    9  O   UNL     1     -13.281  13.728  65.820  1.00  0.00    -0.467 OA 
HETATM   10  H   UNL     1     -13.728  14.369  66.360  1.00  0.00     0.000 HD 
HETATM   11  N   UNL     1     -12.159  12.292  68.154  1.00  0.00    -0.382 NA 
HETATM   12  C   UNL     1     -11.186  14.277  66.989  1.00  0.00    -0.323 C  
HETATM   13  H2  UNL     1     -11.999  11.359  68.532  1.00  0.00     0.000 HD 
HETATM   14  O   UNL     1      -9.983  15.044  66.843  1.00  0.00    -0.238 OA 
HETATM   15  C   UNL     1     -11.917  14.129  65.633  1.00  0.00    -0.396 C  
HETATM   16  H1  UNL     1     -12.614  12.902  68.834  1.00  0.00     0.000 HD 
HETATM   17  H   UNL     1     -10.160  15.884  66.437  1.00  0.00     0.000 HD 
BRANCH   7  18
HETATM   18  O   UNL     1      -9.962  10.710  67.225  1.00  0.00    -0.178 OA 
BRANCH  18  19
HETATM   19  C   UNL     1      -8.855  10.706  68.145  1.00  0.00    -0.134 C  
HETATM   20  O   UNL     1     -10.460  10.340  69.994  1.00  0.00    -0.292 OA 
HETATM   21  C   UNL     1      -7.797   9.784  67.543  1.00  0.00    -0.095 C  
HETATM   22  C   UNL     1      -8.905   8.566  69.193  1.00  0.00    -0.142 C  
HETATM   23  H   UNL     1     -10.648   9.933  70.831  1.00  0.00     0.000 HD 
HETATM   24  O   UNL     1      -8.025   8.469  68.072  1.00  0.00    -0.109 OA 
HETATM   25  C   UNL     1      -9.155  10.054  69.485  1.00  0.00    -0.220 C  
BRANCH  21  26
HETATM   26  C   UNL     1      -6.360  10.192  67.870  1.00  0.00    -0.061 C  
HETATM   27  H   UNL     1      -5.112  11.646  67.391  1.00  0.00     0.000 HD 
HETATM   28  O   UNL     1      -6.004  11.392  67.188  1.00  0.00    -0.071 OA 
ENDBRANCH  21  26
BRANCH  22  29
HETATM   29  O   UNL     1      -8.321   7.968  70.346  1.00  0.00    -0.116 OA 
BRANCH  29  30
HETATM   30  C   UNL     1      -9.057   6.937  71.033  1.00  0.00    -0.155 C  
HETATM   31  C   UNL     1      -9.274   7.328  72.509  1.00  0.00    -0.139 C  
HETATM   32  O   UNL     1      -9.745   8.679  72.602  1.00  0.00    -0.255 OA 
HETATM   33  C   UNL     1     -10.282   6.383  73.173  1.00  0.00    -0.205 C  
HETATM   34  C   UNL     1      -9.725   4.960  73.149  1.00  0.00    -0.161 C  
HETATM   35  N   UNL     1     -10.570   6.803  74.558  1.00  0.00    -0.402 NA 
HETATM   36  H   UNL     1      -9.878   8.919  73.510  1.00  0.00     0.000 HD 
HETATM   37  H1  UNL     1     -11.240   6.175  75.000  1.00  0.00     0.000 HD 
HETATM   38  H2  UNL     1     -10.881   7.773  74.599  1.00  0.00     0.000 HD 
HETATM   39  C   UNL     1      -9.392   4.495  71.721  1.00  0.00    -0.142 C  
HETATM   40  C   UNL     1      -8.489   5.497  70.907  1.00  0.00    -0.123 C  
HETATM   41  N   UNL     1      -8.774   3.154  71.798  1.00  0.00    -0.076 NA 
HETATM   42  H2  UNL     1      -9.354   2.484  72.303  1.00  0.00     0.000 HD 
HETATM   43  H1  UNL     1      -8.553   2.847  70.851  1.00  0.00     0.000 HD 
BRANCH  40  44
HETATM   44  O   UNL     1      -8.436   4.994  69.552  1.00  0.00    -0.087 OA 
BRANCH  44  45
HETATM   45  C   UNL     1      -9.650   4.405  69.063  1.00  0.00    -0.174 C  
HETATM   46  O   UNL     1     -10.493   5.369  68.442  1.00  0.00    -0.178 OA 
HETATM   47  C   UNL     1      -9.999   5.919  67.221  1.00  0.00    -0.153 C  
HETATM   48  C   UNL     1      -9.804   4.803  66.191  1.00  0.00    -0.219 C  
HETATM   49  H1  UNL     1      -8.304   1.397  68.041  1.00  0.00     0.000 HD 
HETATM   50  H2  UNL     1      -8.840   1.845  69.564  1.00  0.00     0.000 HD 
HETATM   51  O   UNL     1      -9.279   5.290  64.954  1.00  0.00    -0.340 OA 
HETATM   52  C   UNL     1      -8.858   3.736  66.758  1.00  0.00    -0.126 C  
HETATM   53  H   UNL     1      -9.158   4.598  64.315  1.00  0.00     0.000 HD 
HETATM   54  O   UNL     1      -8.752   2.644  65.828  1.00  0.00    -0.115 OA 
HETATM   55  N   UNL     1      -8.482   2.180  68.669  1.00  0.00    -0.057 NA 
HETATM   56  C   UNL     1      -9.379   3.216  68.107  1.00  0.00    -0.191 C  
HETATM   57  H   UNL     1      -8.167   1.984  66.179  1.00  0.00     0.000 HD 
BRANCH  47  58
HETATM   58  C   UNL     1     -11.025   6.955  66.743  1.00  0.00    -0.125 C  
HETATM   59  O   UNL     1     -10.364   8.050  66.103  1.00  0.00    -0.391 OA 
HETATM   60  H   UNL     1     -10.998   8.691  65.807  1.00  0.00     0.000 HD 
ENDBRANCH  47  58
ENDBRANCH  44  45
ENDBRANCH  40  44
ENDBRANCH  29  30
ENDBRANCH  22  29
ENDBRANCH  18  19
ENDBRANCH   7  18
ENDBRANCH   2   5
TORSDOF 9
ENDMDL
MODEL       32
REMARK 921   NORMALIZED FREE ENERGY PREDICTED BY IDOCK:   -7.02 KCAL/MOL
REMARK 922        TOTAL FREE ENERGY PREDICTED BY IDOCK:  -12.76 KCAL/MOL
REMARK 923 INTER-LIGAND FREE ENERGY PREDICTED BY IDOCK:  -10.85 KCAL/MOL
REMARK 924 INTRA-LIGAND FREE ENERGY PREDICTED BY IDOCK:   -1.91 KCAL/MOL
REMARK 927      BINDING AFFINITY PREDICTED BY RF-SCORE:    0.00 PKD
ROOT
HETATM    1  N   UNL     1     -11.146   5.715  66.436  1.00  0.00    -0.758 NA 
HETATM    2  C   UNL     1     -10.002   5.857  67.359  1.00  0.00    -0.149 C  
HETATM    3  H1  UNL     1     -11.805   5.029  66.803  1.00  0.00     0.000 HD 
HETATM    4  H2  UNL     1     -10.847   5.489  65.487  1.00  0.00     0.000 HD 
ENDROOT
BRANCH   2   5
HETATM    5  C   UNL     1      -9.008   6.891  66.805  1.00  0.00    -0.132 C  
HETATM    6  O   UNL     1      -9.767   7.834  66.026  1.00  0.00    -0.055 OA 
HETATM    7  C   UNL     1      -8.982   8.955  65.627  1.00  0.00    -0.201 C  
HETATM    8  C   UNL     1      -7.895   8.471  64.623  1.00  0.00    -0.131 C  
HETATM    9  O   UNL     1      -8.489   5.429  64.932  1.00  0.00    -0.145 OA 
HETATM   10  H   UNL     1      -7.806   5.043  64.397  1.00  0.00     0.000 HD 
HETATM   11  N   UNL     1      -8.523   7.946  63.374  1.00  0.00    -0.389 NA 
HETATM   12  C   UNL     1      -7.034   7.379  65.299  1.00  0.00    -0.059 C  
HETATM   13  H2  UNL     1      -9.150   8.630  62.950  1.00  0.00     0.000 HD 
HETATM   14  O   UNL     1      -6.139   7.951  66.263  1.00  0.00    -0.043 OA 
HETATM   15  C   UNL     1      -7.897   6.264  65.936  1.00  0.00    -0.104 C  
HETATM   16  H1  UNL     1      -7.810   7.629  62.716  1.00  0.00     0.000 HD 
HETATM   17  H   UNL     1      -5.610   7.280  66.678  1.00  0.00     0.000 HD 
BRANCH   7  18
HETATM   18  O   UNL     1      -9.788   9.947  64.985  1.00  0.00    -0.317 OA 
BRANCH  18  19
HETATM   19  C   UNL     1      -9.415  11.300  65.304  1.00  0.00    -0.221 C  
HETATM   20  O   UNL     1     -11.551  12.066  64.316  1.00  0.00    -0.349 OA 
HETATM   21  C   UNL     1      -8.932  11.283  66.752  1.00  0.00    -0.171 C  
HETATM   22  C   UNL     1     -11.115  12.101  66.769  1.00  0.00    -0.300 C  
HETATM   23  H   UNL     1     -12.278  12.678  64.339  1.00  0.00     0.000 HD 
HETATM   24  O   UNL     1     -10.064  11.577  67.584  1.00  0.00    -0.181 OA 
HETATM   25  C   UNL     1     -10.576  12.278  65.340  1.00  0.00    -0.274 C  
BRANCH  21  26
HETATM   26  C   UNL     1      -7.836  12.308  67.052  1.00  0.00    -0.108 C  
HETATM   27  H   UNL     1      -7.001  13.128  68.643  1.00  0.00     0.000 HD 
HETATM   28  O   UNL     1      -7.682  12.492  68.457  1.00  0.00    -0.129 OA 
ENDBRANCH  21  26
BRANCH  22  29
HETATM   29  O   UNL     1     -11.545  13.369  67.254  1.00  0.00    -0.321 OA 
BRANCH  29  30
HETATM   30  C   UNL     1     -11.438  13.637  68.666  1.00  0.00    -0.307 C  
HETATM   31  C   UNL     1     -12.509  12.846  69.443  1.00  0.00     0.246 C  
HETATM   32  O   UNL     1     -12.531  11.480  69.009  1.00  0.00    -0.309 OA 
HETATM   33  C   UNL     1     -12.232  12.904  70.950  1.00  0.00    -0.198 C  
HETATM   34  C   UNL     1     -12.304  14.358  71.417  1.00  0.00    -0.433 C  
HETATM   35  N   UNL     1     -13.195  12.073  71.698  1.00  0.00    -0.360 NA 
HETATM   36  H   UNL     1     -13.190  10.992  69.488  1.00  0.00     0.000 HD 
HETATM   37  H1  UNL     1     -13.012  12.112  72.700  1.00  0.00     0.000 HD 
HETATM   38  H2  UNL     1     -13.208  11.113  71.355  1.00  0.00     0.000 HD 
HETATM   39  C   UNL     1     -11.328  15.261  70.641  1.00  0.00    -0.313 C  
HETATM   40  C   UNL     1     -11.435  15.135  69.075  1.00  0.00    -0.309 C  
HETATM   41  N   UNL     1     -11.528  16.656  71.086  1.00  0.00    -0.486 NA 
HETATM   42  H2  UNL     1     -11.441  16.762  72.096  1.00  0.00     0.000 HD 
HETATM   43  H1  UNL     1     -10.881  17.254  70.571  1.00  0.00     0.000 HD 
BRANCH  40  44
HETATM   44  O   UNL     1     -10.336  15.901  68.527  1.00  0.00    -0.222 OA 
BRANCH  44  45
HETATM   45  C   UNL     1     -10.664  16.746  67.415  1.00  0.00    -0.244 C  
HETATM   46  O   UNL     1     -10.951  18.077  67.829  1.00  0.00    -0.317 OA 
HETATM   47  C   UNL     1      -9.841  18.809  68.349  1.00  0.00    -0.382 C  
HETATM   48  C   UNL     1      -8.748  18.924  67.284  1.00  0.00    -0.278 C  
HETATM   49  H1  UNL     1      -8.458  15.371  65.146  1.00  0.00     0.000 HD 
HETATM   50  H2  UNL     1     -10.006  14.868  65.543  1.00  0.00     0.000 HD 
HETATM   51  O   UNL     1      -7.595  19.621  67.760  1.00  0.00    -0.263 OA 
HETATM   52  C   UNL     1      -8.335  17.522  66.814  1.00  0.00    -0.251 C  
HETATM   53  H   UNL     1      -6.917  19.693  67.098  1.00  0.00     0.000 HD 
HETATM   54  O   UNL     1      -7.378  17.636  65.746  1.00  0.00    -0.486 OA 
HETATM   55  N   UNL     1      -9.183  15.379  65.863  1.00  0.00    -0.305 NA 
HETATM   56  C   UNL     1      -9.561  16.734  66.326  1.00  0.00    -0.289 C  
HETATM   57  H   UNL     1      -7.123  16.768  65.455  1.00  0.00     0.000 HD 
BRANCH  47  58
HETATM   58  C   UNL     1     -10.366  20.188  68.771  1.00  0.00    -0.121 C  
HETATM   59  O   UNL     1     -10.470  20.265  70.195  1.00  0.00    -0.683 OA 
HETATM   60  H   UNL     1     -10.795  21.118  70.456  1.00  0.00     0.000 HD 
ENDBRANCH  47  58
ENDBRANCH  44  45
ENDBRANCH  40  44
ENDBRANCH  29  30
ENDBRANCH  22  29
ENDBRANCH  18  19
ENDBRANCH   7  18
ENDBRANCH   2   5
TORSDOF 9
ENDMDL
MODEL       33
REMARK 921   NORMALIZED FREE ENERGY PREDICTED BY IDOCK:   -7.01 KCAL/MOL
REMARK 922        TOTAL FREE ENERGY PREDICTED BY IDOCK:  -12.75 KCAL/MOL
REMARK 923 INTER-LIGAND FREE ENERGY PREDICTED BY IDOCK:  -10.09 KCAL/MOL
REMARK 924 INTRA-LIGAND FREE ENERGY PREDICTED BY IDOCK:   -2.66 KCAL/MOL
REMARK 927      BINDING AFFINITY PREDICTED BY RF-SCORE:    0.00 PKD
ROOT
HETATM    1  N   UNL     1     -11.140  11.178  70.285  1.00  0.00    -0.455 NA 
HETATM    2  C   UNL     1     -12.569  11.548  70.234  1.00  0.00    -0.115 C  
HETATM    3  H1  UNL     1     -11.040  10.167  70.188  1.00  0.00     0.000 HD 
HETATM    4  H2  UNL     1     -10.683  11.530  71.126  1.00  0.00     0.000 HD 
ENDROOT
BRANCH   2   5
HETATM    5  C   UNL     1     -12.720  13.071  70.379  1.00  0.00     0.024 C  
HETATM    6  O   UNL     1     -11.413  13.601  70.670  1.00  0.00    -0.012 OA 
HETATM    7  C   UNL     1     -11.390  15.026  70.627  1.00  0.00    -0.271 C  
HETATM    8  C   UNL     1     -12.256  15.574  71.799  1.00  0.00    -0.394 C  
HETATM    9  O   UNL     1     -13.374  12.812  72.706  1.00  0.00    -0.515 OA 
HETATM   10  H   UNL     1     -13.986  13.065  73.387  1.00  0.00     0.000 HD 
HETATM   11  N   UNL     1     -11.667  15.196  73.117  1.00  0.00    -0.345 NA 
HETATM   12  C   UNL     1     -13.694  15.020  71.666  1.00  0.00    -0.462 C  
HETATM   13  H2  UNL     1     -10.694  15.494  73.195  1.00  0.00     0.000 HD 
HETATM   14  O   UNL     1     -14.402  15.672  70.604  1.00  0.00    -0.688 OA 
HETATM   15  C   UNL     1     -13.714  13.483  71.485  1.00  0.00    -0.098 C  
HETATM   16  H1  UNL     1     -12.235  15.555  73.885  1.00  0.00     0.000 HD 
HETATM   17  H   UNL     1     -15.285  15.331  70.523  1.00  0.00     0.000 HD 
BRANCH   7  18
HETATM   18  O   UNL     1     -10.058  15.525  70.772  1.00  0.00     0.111 OA 
BRANCH  18  19
HETATM   19  C   UNL     1      -9.586  16.272  69.636  1.00  0.00     0.007 C  
HETATM   20  O   UNL     1      -7.742  14.639  69.392  1.00  0.00    -0.275 OA 
HETATM   21  C   UNL     1     -10.808  16.540  68.760  1.00  0.00    -0.342 C  
HETATM   22  C   UNL     1      -9.656  14.755  67.800  1.00  0.00    -0.209 C  
HETATM   23  H   UNL     1      -7.166  14.154  68.814  1.00  0.00     0.000 HD 
HETATM   24  O   UNL     1     -10.893  15.469  67.807  1.00  0.00    -0.292 OA 
HETATM   25  C   UNL     1      -8.664  15.495  68.712  1.00  0.00    -0.192 C  
BRANCH  21  26
HETATM   26  C   UNL     1     -10.743  17.862  67.993  1.00  0.00    -0.294 C  
HETATM   27  H   UNL     1     -10.720  18.456  66.110  1.00  0.00     0.000 HD 
HETATM   28  O   UNL     1     -10.760  17.635  66.585  1.00  0.00    -0.254 OA 
ENDBRANCH  21  26
BRANCH  22  29
HETATM   29  O   UNL     1      -9.112  14.701  66.485  1.00  0.00    -0.261 OA 
BRANCH  29  30
HETATM   30  C   UNL     1      -9.637  13.725  65.564  1.00  0.00     0.044 C  
HETATM   31  C   UNL     1     -10.983  14.204  64.986  1.00  0.00    -0.384 C  
HETATM   32  O   UNL     1     -10.880  15.567  64.549  1.00  0.00    -0.646 OA 
HETATM   33  C   UNL     1     -11.411  13.317  63.812  1.00  0.00    -0.251 C  
HETATM   34  C   UNL     1     -11.606  11.885  64.311  1.00  0.00    -0.405 C  
HETATM   35  N   UNL     1     -12.650  13.822  63.189  1.00  0.00    -0.971 NA 
HETATM   36  H   UNL     1     -11.709  15.861  64.193  1.00  0.00     0.000 HD 
HETATM   37  H1  UNL     1     -12.935  13.232  62.408  1.00  0.00     0.000 HD 
HETATM   38  H2  UNL     1     -12.558  14.798  62.908  1.00  0.00     0.000 HD 
HETATM   39  C   UNL     1     -10.340  11.333  64.987  1.00  0.00    -0.301 C  
HETATM   40  C   UNL     1      -9.738  12.271  66.100  1.00  0.00    -0.245 C  
HETATM   41  N   UNL     1     -10.644   9.989  65.522  1.00  0.00     0.059 NA 
HETATM   42  H2  UNL     1     -11.015   9.359  64.810  1.00  0.00     0.000 HD 
HETATM   43  H1  UNL     1      -9.804   9.623  65.970  1.00  0.00     0.000 HD 
BRANCH  40  44
HETATM   44  O   UNL     1      -8.471  11.688  66.485  1.00  0.00    -0.172 OA 
BRANCH  44  45
HETATM   45  C   UNL     1      -8.272  11.515  67.896  1.00  0.00    -0.134 C  
HETATM   46  O   UNL     1      -9.149  10.534  68.438  1.00  0.00    -0.136 OA 
HETATM   47  C   UNL     1      -8.908   9.195  68.010  1.00  0.00    -0.129 C  
HETATM   48  C   UNL     1      -7.495   8.766  68.413  1.00  0.00    -0.091 C  
HETATM   49  H1  UNL     1      -4.847  11.931  67.916  1.00  0.00     0.000 HD 
HETATM   50  H2  UNL     1      -6.048  13.099  67.973  1.00  0.00     0.000 HD 
HETATM   51  O   UNL     1      -7.183   7.440  67.981  1.00  0.00    -0.085 OA 
HETATM   52  C   UNL     1      -6.470   9.745  67.823  1.00  0.00    -0.057 C  
HETATM   53  H   UNL     1      -6.306   7.174  68.232  1.00  0.00     0.000 HD 
HETATM   54  O   UNL     1      -5.152   9.396  68.282  1.00  0.00    -0.034 OA 
HETATM   55  N   UNL     1      -5.817  12.147  67.688  1.00  0.00    -0.087 NA 
HETATM   56  C   UNL     1      -6.798  11.187  68.243  1.00  0.00    -0.068 C  
HETATM   57  H   UNL     1      -4.518  10.002  67.917  1.00  0.00     0.000 HD 
BRANCH  47  58
HETATM   58  C   UNL     1      -9.975   8.310  68.668  1.00  0.00    -0.190 C  
HETATM   59  O   UNL     1     -11.154   8.269  67.859  1.00  0.00    -0.469 OA 
HETATM   60  H   UNL     1     -11.814   7.721  68.266  1.00  0.00     0.000 HD 
ENDBRANCH  47  58
ENDBRANCH  44  45
ENDBRANCH  40  44
ENDBRANCH  29  30
ENDBRANCH  22  29
ENDBRANCH  18  19
ENDBRANCH   7  18
ENDBRANCH   2   5
TORSDOF 9
ENDMDL
MODEL       34
REMARK 921   NORMALIZED FREE ENERGY PREDICTED BY IDOCK:   -6.95 KCAL/MOL
REMARK 922        TOTAL FREE ENERGY PREDICTED BY IDOCK:  -12.66 KCAL/MOL
REMARK 923 INTER-LIGAND FREE ENERGY PREDICTED BY IDOCK:   -9.84 KCAL/MOL
REMARK 924 INTRA-LIGAND FREE ENERGY PREDICTED BY IDOCK:   -2.82 KCAL/MOL
REMARK 927      BINDING AFFINITY PREDICTED BY RF-SCORE:    0.00 PKD
ROOT
HETATM    1  N   UNL     1     -12.536  11.628  63.151  1.00  0.00    -0.949 NA 
HETATM    2  C   UNL     1     -11.077  11.848  63.094  1.00  0.00    -0.183 C  
HETATM    3  H1  UNL     1     -12.833  11.065  62.354  1.00  0.00     0.000 HD 
HETATM    4  H2  UNL     1     -13.053  12.505  63.216  1.00  0.00     0.000 HD 
ENDROOT
BRANCH   2   5
HETATM    5  C   UNL     1     -10.628  12.696  64.296  1.00  0.00    -0.384 C  
HETATM    6  O   UNL     1     -11.180  12.083  65.476  1.00  0.00    -0.313 OA 
HETATM    7  C   UNL     1     -10.666  12.665  66.672  1.00  0.00    -0.253 C  
HETATM    8  C   UNL     1     -11.175  14.133  66.772  1.00  0.00    -0.323 C  
HETATM    9  O   UNL     1     -12.491  14.220  63.950  1.00  0.00    -0.854 OA 
HETATM   10  H   UNL     1     -12.769  15.127  63.894  1.00  0.00     0.000 HD 
HETATM   11  N   UNL     1     -12.661  14.172  66.905  1.00  0.00    -0.384 NA 
HETATM   12  C   UNL     1     -10.721  14.911  65.515  1.00  0.00    -0.356 C  
HETATM   13  H2  UNL     1     -12.985  13.606  67.690  1.00  0.00     0.000 HD 
HETATM   14  O   UNL     1      -9.319  15.207  65.570  1.00  0.00    -0.419 OA 
HETATM   15  C   UNL     1     -11.080  14.169  64.206  1.00  0.00    -0.127 C  
HETATM   16  H1  UNL     1     -12.995  15.133  66.970  1.00  0.00     0.000 HD 
HETATM   17  H   UNL     1      -9.041  15.685  64.798  1.00  0.00     0.000 HD 
BRANCH   7  18
HETATM   18  O   UNL     1     -11.111  11.948  67.827  1.00  0.00    -0.211 OA 
BRANCH  18  19
HETATM   19  C   UNL     1     -10.091  11.753  68.823  1.00  0.00    -0.140 C  
HETATM   20  O   UNL     1     -11.680  10.351  70.101  1.00  0.00    -0.270 OA 
HETATM   21  C   UNL     1      -8.816  11.384  68.068  1.00  0.00    -0.155 C  
HETATM   22  C   UNL     1      -9.715   9.401  68.899  1.00  0.00    -0.164 C  
HETATM   23  H   UNL     1     -11.821   9.599  70.665  1.00  0.00     0.000 HD 
HETATM   24  O   UNL     1      -8.769   9.952  67.981  1.00  0.00    -0.124 OA 
HETATM   25  C   UNL     1     -10.316  10.551  69.724  1.00  0.00    -0.166 C  
BRANCH  21  26
HETATM   26  C   UNL     1      -7.533  11.867  68.746  1.00  0.00    -0.100 C  
HETATM   27  H   UNL     1      -6.759  13.580  69.352  1.00  0.00     0.000 HD 
HETATM   28  O   UNL     1      -7.556  13.281  68.931  1.00  0.00    -0.077 OA 
ENDBRANCH  21  26
BRANCH  22  29
HETATM   29  O   UNL     1      -9.082   8.485  69.788  1.00  0.00    -0.149 OA 
BRANCH  29  30
HETATM   30  C   UNL     1      -9.704   7.205  70.013  1.00  0.00    -0.171 C  
HETATM   31  C   UNL     1     -10.264   7.127  71.447  1.00  0.00    -0.192 C  
HETATM   32  O   UNL     1     -11.013   8.312  71.753  1.00  0.00    -0.247 OA 
HETATM   33  C   UNL     1     -11.161   5.894  71.608  1.00  0.00    -0.258 C  
HETATM   34  C   UNL     1     -10.328   4.635  71.370  1.00  0.00    -0.160 C  
HETATM   35  N   UNL     1     -11.779   5.860  72.947  1.00  0.00    -0.520 NA 
HETATM   36  H   UNL     1     -11.358   8.264  72.636  1.00  0.00     0.000 HD 
HETATM   37  H1  UNL     1     -12.375   5.040  73.055  1.00  0.00     0.000 HD 
HETATM   38  H2  UNL     1     -12.286   6.721  73.150  1.00  0.00     0.000 HD 
HETATM   39  C   UNL     1      -9.648   4.647  69.989  1.00  0.00    -0.188 C  
HETATM   40  C   UNL     1      -8.838   5.961  69.677  1.00  0.00    -0.131 C  
HETATM   41  N   UNL     1      -8.792   3.447  69.880  1.00  0.00    -0.081 NA 
HETATM   42  H2  UNL     1      -9.304   2.583  70.057  1.00  0.00     0.000 HD 
HETATM   43  H1  UNL     1      -8.342   3.455  68.965  1.00  0.00     0.000 HD 
BRANCH  40  44
HETATM   44  O   UNL     1      -8.433   5.873  68.291  1.00  0.00    -0.114 OA 
BRANCH  44  45
HETATM   45  C   UNL     1      -9.500   5.886  67.332  1.00  0.00    -0.111 C  
HETATM   46  O   UNL     1      -9.554   7.116  66.617  1.00  0.00    -0.170 OA 
HETATM   47  C   UNL     1      -8.458   7.361  65.738  1.00  0.00    -0.143 C  
HETATM   48  C   UNL     1      -8.385   6.259  64.678  1.00  0.00    -0.026 C  
HETATM   49  H1  UNL     1      -9.287   2.576  66.382  1.00  0.00     0.000 HD 
HETATM   50  H2  UNL     1     -10.108   3.246  67.680  1.00  0.00     0.000 HD 
HETATM   51  O   UNL     1      -7.283   6.433  63.785  1.00  0.00    -0.047 OA 
HETATM   52  C   UNL     1      -8.271   4.890  65.362  1.00  0.00    -0.121 C  
HETATM   53  H   UNL     1      -7.238   5.750  63.127  1.00  0.00     0.000 HD 
HETATM   54  O   UNL     1      -8.299   3.851  64.368  1.00  0.00    -0.092 OA 
HETATM   55  N   UNL     1      -9.336   3.367  67.024  1.00  0.00    -0.192 NA 
HETATM   56  C   UNL     1      -9.425   4.685  66.356  1.00  0.00    -0.166 C  
HETATM   57  H   UNL     1      -8.228   3.004  64.792  1.00  0.00     0.000 HD 
BRANCH  47  58
HETATM   58  C   UNL     1      -8.685   8.740  65.104  1.00  0.00    -0.167 C  
HETATM   59  O   UNL     1      -9.985   9.232  65.438  1.00  0.00    -0.438 OA 
HETATM   60  H   UNL     1     -10.126  10.085  65.046  1.00  0.00     0.000 HD 
ENDBRANCH  47  58
ENDBRANCH  44  45
ENDBRANCH  40  44
ENDBRANCH  29  30
ENDBRANCH  22  29
ENDBRANCH  18  19
ENDBRANCH   7  18
ENDBRANCH   2   5
TORSDOF 9
ENDMDL
MODEL       35
REMARK 921   NORMALIZED FREE ENERGY PREDICTED BY IDOCK:   -6.94 KCAL/MOL
REMARK 922        TOTAL FREE ENERGY PREDICTED BY IDOCK:  -12.63 KCAL/MOL
REMARK 923 INTER-LIGAND FREE ENERGY PREDICTED BY IDOCK:  -10.28 KCAL/MOL
REMARK 924 INTRA-LIGAND FREE ENERGY PREDICTED BY IDOCK:   -2.35 KCAL/MOL
REMARK 927      BINDING AFFINITY PREDICTED BY RF-SCORE:    0.00 PKD
ROOT
HETATM    1  N   UNL     1     -10.252  15.493  70.235  1.00  0.00    -0.392 NA 
HETATM    2  C   UNL     1     -11.293  16.309  69.577  1.00  0.00    -0.276 C  
HETATM    3  H1  UNL     1     -10.501  15.336  71.212  1.00  0.00     0.000 HD 
HETATM    4  H2  UNL     1      -9.324  15.904  70.137  1.00  0.00     0.000 HD 
ENDROOT
BRANCH   2   5
HETATM    5  C   UNL     1     -10.918  16.545  68.104  1.00  0.00    -0.336 C  
HETATM    6  O   UNL     1     -10.108  15.430  67.689  1.00  0.00    -0.233 OA 
HETATM    7  C   UNL     1      -9.867  15.436  66.284  1.00  0.00    -0.297 C  
HETATM    8  C   UNL     1      -8.974  16.662  65.936  1.00  0.00    -0.099 C  
HETATM    9  O   UNL     1      -9.042  17.938  68.776  1.00  0.00    -0.280 OA 
HETATM   10  H   UNL     1      -8.572  18.752  68.634  1.00  0.00     0.000 HD 
HETATM   11  N   UNL     1      -7.632  16.541  66.580  1.00  0.00    -0.277 NA 
HETATM   12  C   UNL     1      -9.686  17.953  66.401  1.00  0.00    -0.316 C  
HETATM   13  H2  UNL     1      -7.176  15.661  66.338  1.00  0.00     0.000 HD 
HETATM   14  O   UNL     1     -10.780  18.281  65.533  1.00  0.00    -0.596 OA 
HETATM   15  C   UNL     1     -10.154  17.866  67.873  1.00  0.00    -0.349 C  
HETATM   16  H1  UNL     1      -7.047  17.345  66.352  1.00  0.00     0.000 HD 
HETATM   17  H   UNL     1     -11.217  19.075  65.819  1.00  0.00     0.000 HD 
BRANCH   7  18
HETATM   18  O   UNL     1      -9.190  14.246  65.871  1.00  0.00    -0.114 OA 
BRANCH  18  19
HETATM   19  C   UNL     1     -10.049  13.262  65.267  1.00  0.00    -0.239 C  
HETATM   20  O   UNL     1      -8.332  11.544  65.743  1.00  0.00    -0.375 OA 
HETATM   21  C   UNL     1     -11.438  13.480  65.864  1.00  0.00    -0.320 C  
HETATM   22  C   UNL     1     -10.493  11.664  66.979  1.00  0.00    -0.224 C  
HETATM   23  H   UNL     1      -8.133  10.647  65.985  1.00  0.00     0.000 HD 
HETATM   24  O   UNL     1     -11.549  12.626  67.013  1.00  0.00    -0.325 OA 
HETATM   25  C   UNL     1      -9.731  11.828  65.654  1.00  0.00    -0.233 C  
BRANCH  21  26
HETATM   26  C   UNL     1     -12.583  13.148  64.906  1.00  0.00    -0.407 C  
HETATM   27  H   UNL     1     -12.861  13.015  62.955  1.00  0.00     0.000 HD 
HETATM   28  O   UNL     1     -12.150  13.222  63.550  1.00  0.00    -0.547 OA 
ENDBRANCH  21  26
BRANCH  22  29
HETATM   29  O   UNL     1     -11.013  10.340  67.045  1.00  0.00    -0.224 OA 
BRANCH  29  30
HETATM   30  C   UNL     1     -10.839   9.594  68.265  1.00  0.00    -0.182 C  
HETATM   31  C   UNL     1     -11.534  10.314  69.437  1.00  0.00    -0.186 C  
HETATM   32  O   UNL     1     -12.862  10.706  69.062  1.00  0.00    -0.555 OA 
HETATM   33  C   UNL     1     -11.593   9.404  70.669  1.00  0.00    -0.269 C  
HETATM   34  C   UNL     1     -10.170   9.068  71.113  1.00  0.00    -0.363 C  
HETATM   35  N   UNL     1     -12.340  10.046  71.767  1.00  0.00    -0.384 NA 
HETATM   36  H   UNL     1     -13.290  11.150  69.784  1.00  0.00     0.000 HD 
HETATM   37  H1  UNL     1     -12.380   9.441  72.587  1.00  0.00     0.000 HD 
HETATM   38  H2  UNL     1     -13.272  10.336  71.469  1.00  0.00     0.000 HD 
HETATM   39  C   UNL     1      -9.352   8.417  69.984  1.00  0.00    -0.159 C  
HETATM   40  C   UNL     1      -9.377   9.211  68.624  1.00  0.00    -0.135 C  
HETATM   41  N   UNL     1      -7.970   8.214  70.465  1.00  0.00    -0.093 NA 
HETATM   42  H2  UNL     1      -7.931   7.682  71.335  1.00  0.00     0.000 HD 
HETATM   43  H1  UNL     1      -7.428   7.782  69.717  1.00  0.00     0.000 HD 
BRANCH  40  44
HETATM   44  O   UNL     1      -8.723   8.369  67.646  1.00  0.00    -0.135 OA 
BRANCH  44  45
HETATM   45  C   UNL     1      -9.506   8.039  66.491  1.00  0.00    -0.214 C  
HETATM   46  O   UNL     1      -8.925   8.546  65.294  1.00  0.00    -0.154 OA 
HETATM   47  C   UNL     1      -7.691   7.941  64.911  1.00  0.00    -0.112 C  
HETATM   48  C   UNL     1      -7.896   6.442  64.679  1.00  0.00    -0.112 C  
HETATM   49  H1  UNL     1     -10.513   4.903  67.517  1.00  0.00     0.000 HD 
HETATM   50  H2  UNL     1     -11.197   6.393  67.866  1.00  0.00     0.000 HD 
HETATM   51  O   UNL     1      -6.683   5.774  64.322  1.00  0.00    -0.043 OA 
HETATM   52  C   UNL     1      -8.476   5.798  65.946  1.00  0.00    -0.139 C  
HETATM   53  H   UNL     1      -6.811   4.844  64.178  1.00  0.00     0.000 HD 
HETATM   54  O   UNL     1      -8.757   4.410  65.694  1.00  0.00    -0.117 OA 
HETATM   55  N   UNL     1     -10.343   5.906  67.593  1.00  0.00    -0.188 NA 
HETATM   56  C   UNL     1      -9.765   6.516  66.375  1.00  0.00    -0.079 C  
HETATM   57  H   UNL     1      -9.115   4.011  66.478  1.00  0.00     0.000 HD 
BRANCH  47  58
HETATM   58  C   UNL     1      -7.216   8.650  63.635  1.00  0.00    -0.094 C  
HETATM   59  O   UNL     1      -6.513   9.850  63.966  1.00  0.00    -0.114 OA 
HETATM   60  H   UNL     1      -6.219  10.289  63.177  1.00  0.00     0.000 HD 
ENDBRANCH  47  58
ENDBRANCH  44  45
ENDBRANCH  40  44
ENDBRANCH  29  30
ENDBRANCH  22  29
ENDBRANCH  18  19
ENDBRANCH   7  18
ENDBRANCH   2   5
TORSDOF 9
ENDMDL
MODEL       36
REMARK 921   NORMALIZED FREE ENERGY PREDICTED BY IDOCK:   -6.93 KCAL/MOL
REMARK 922        TOTAL FREE ENERGY PREDICTED BY IDOCK:  -12.62 KCAL/MOL
REMARK 923 INTER-LIGAND FREE ENERGY PREDICTED BY IDOCK:  -10.11 KCAL/MOL
REMARK 924 INTRA-LIGAND FREE ENERGY PREDICTED BY IDOCK:   -2.52 KCAL/MOL
REMARK 927      BINDING AFFINITY PREDICTED BY RF-SCORE:    0.00 PKD
ROOT
HETATM    1  N   UNL     1     -13.803  13.421  72.566  1.00  0.00    -0.738 NA 
HETATM    2  C   UNL     1     -12.938  12.728  71.589  1.00  0.00    -0.303 C  
HETATM    3  H1  UNL     1     -14.111  12.764  73.284  1.00  0.00     0.000 HD 
HETATM    4  H2  UNL     1     -14.588  13.892  72.116  1.00  0.00     0.000 HD 
ENDROOT
BRANCH   2   5
HETATM    5  C   UNL     1     -12.475  13.719  70.508  1.00  0.00    -0.339 C  
HETATM    6  O   UNL     1     -11.292  13.164  69.904  1.00  0.00    -0.139 OA 
HETATM    7  C   UNL     1     -10.885  13.896  68.750  1.00  0.00    -0.263 C  
HETATM    8  C   UNL     1     -10.416  15.311  69.196  1.00  0.00    -0.247 C  
HETATM    9  O   UNL     1     -11.278  15.022  72.176  1.00  0.00    -0.509 OA 
HETATM   10  H   UNL     1     -11.093  15.890  72.516  1.00  0.00     0.000 HD 
HETATM   11  N   UNL     1      -9.208  15.220  70.069  1.00  0.00    -0.370 NA 
HETATM   12  C   UNL     1     -11.573  16.014  69.943  1.00  0.00    -0.299 C  
HETATM   13  H2  UNL     1      -8.456  14.698  69.619  1.00  0.00     0.000 HD 
HETATM   14  O   UNL     1     -12.590  16.446  69.028  1.00  0.00    -0.105 OA 
HETATM   15  C   UNL     1     -12.173  15.128  71.060  1.00  0.00    -0.334 C  
HETATM   16  H1  UNL     1      -8.901  16.147  70.362  1.00  0.00     0.000 HD 
HETATM   17  H   UNL     1     -13.301  16.879  69.487  1.00  0.00     0.000 HD 
BRANCH   7  18
HETATM   18  O   UNL     1      -9.800  13.245  68.082  1.00  0.00    -0.220 OA 
BRANCH  18  19
HETATM   19  C   UNL     1     -10.039  12.995  66.685  1.00  0.00    -0.251 C  
HETATM   20  O   UNL     1      -7.817  11.911  66.553  1.00  0.00    -0.355 OA 
HETATM   21  C   UNL     1     -11.445  12.408  66.587  1.00  0.00    -0.370 C  
HETATM   22  C   UNL     1      -9.949  10.626  66.436  1.00  0.00    -0.222 C  
HETATM   23  H   UNL     1      -7.273  11.229  66.178  1.00  0.00     0.000 HD 
HETATM   24  O   UNL     1     -11.318  10.979  66.648  1.00  0.00    -0.278 OA 
HETATM   25  C   UNL     1      -9.169  11.904  66.086  1.00  0.00    -0.199 C  
BRANCH  21  26
HETATM   26  C   UNL     1     -12.179  12.771  65.294  1.00  0.00    -0.483 C  
HETATM   27  H   UNL     1     -13.559  14.058  64.712  1.00  0.00     0.000 HD 
HETATM   28  O   UNL     1     -13.104  13.833  65.515  1.00  0.00    -0.671 OA 
ENDBRANCH  21  26
BRANCH  22  29
HETATM   29  O   UNL     1      -9.826   9.707  65.356  1.00  0.00    -0.315 OA 
BRANCH  29  30
HETATM   30  C   UNL     1      -8.917   8.598  65.497  1.00  0.00    -0.158 C  
HETATM   31  C   UNL     1      -8.114   8.395  64.198  1.00  0.00    -0.145 C  
HETATM   32  O   UNL     1      -7.594   9.648  63.733  1.00  0.00    -0.115 OA 
HETATM   33  C   UNL     1      -6.962   7.410  64.425  1.00  0.00    -0.059 C  
HETATM   34  C   UNL     1      -7.536   6.052  64.829  1.00  0.00    -0.079 C  
HETATM   35  N   UNL     1      -6.129   7.280  63.214  1.00  0.00    -0.048 NA 
HETATM   36  H   UNL     1      -7.099   9.523  62.933  1.00  0.00     0.000 HD 
HETATM   37  H1  UNL     1      -5.362   6.624  63.364  1.00  0.00     0.000 HD 
HETATM   38  H2  UNL     1      -5.790   8.186  62.892  1.00  0.00     0.000 HD 
HETATM   39  C   UNL     1      -8.430   6.154  66.077  1.00  0.00    -0.141 C  
HETATM   40  C   UNL     1      -9.543   7.265  65.989  1.00  0.00     0.152 C  
HETATM   41  N   UNL     1      -9.016   4.823  66.342  1.00  0.00    -0.112 NA 
HETATM   42  H2  UNL     1      -8.309   4.092  66.424  1.00  0.00     0.000 HD 
HETATM   43  H1  UNL     1      -9.609   4.890  67.169  1.00  0.00     0.000 HD 
BRANCH  40  44
HETATM   44  O   UNL     1     -10.152   7.339  67.299  1.00  0.00    -0.182 OA 
BRANCH  44  45
HETATM   45  C   UNL     1      -9.279   7.066  68.404  1.00  0.00    -0.129 C  
HETATM   46  O   UNL     1      -8.314   8.097  68.584  1.00  0.00    -0.124 OA 
HETATM   47  C   UNL     1      -8.835   9.354  69.013  1.00  0.00    -0.141 C  
HETATM   48  C   UNL     1      -9.538   9.193  70.364  1.00  0.00    -0.224 C  
HETATM   49  H1  UNL     1     -11.622   5.598  70.469  1.00  0.00     0.000 HD 
HETATM   50  H2  UNL     1     -10.709   4.898  69.250  1.00  0.00     0.000 HD 
HETATM   51  O   UNL     1     -10.110  10.417  70.830  1.00  0.00    -0.146 OA 
HETATM   52  C   UNL     1     -10.639   8.130  70.249  1.00  0.00    -0.228 C  
HETATM   53  H   UNL     1     -10.545  10.317  71.668  1.00  0.00     0.000 HD 
HETATM   54  O   UNL     1     -11.233   7.912  71.541  1.00  0.00    -0.241 OA 
HETATM   55  N   UNL     1     -11.107   5.768  69.605  1.00  0.00    -0.338 NA 
HETATM   56  C   UNL     1     -10.061   6.809  69.717  1.00  0.00    -0.183 C  
HETATM   57  H   UNL     1     -11.914   7.254  71.470  1.00  0.00     0.000 HD 
BRANCH  47  58
HETATM   58  C   UNL     1      -7.652  10.328  69.105  1.00  0.00    -0.111 C  
HETATM   59  O   UNL     1      -8.113  11.638  69.445  1.00  0.00    -0.343 OA 
HETATM   60  H   UNL     1      -7.381  12.240  69.502  1.00  0.00     0.000 HD 
ENDBRANCH  47  58
ENDBRANCH  44  45
ENDBRANCH  40  44
ENDBRANCH  29  30
ENDBRANCH  22  29
ENDBRANCH  18  19
ENDBRANCH   7  18
ENDBRANCH   2   5
TORSDOF 9
ENDMDL
MODEL       37
REMARK 921   NORMALIZED FREE ENERGY PREDICTED BY IDOCK:   -6.91 KCAL/MOL
REMARK 922        TOTAL FREE ENERGY PREDICTED BY IDOCK:  -12.59 KCAL/MOL
REMARK 923 INTER-LIGAND FREE ENERGY PREDICTED BY IDOCK:  -11.28 KCAL/MOL
REMARK 924 INTRA-LIGAND FREE ENERGY PREDICTED BY IDOCK:   -1.31 KCAL/MOL
REMARK 927      BINDING AFFINITY PREDICTED BY RF-SCORE:    0.00 PKD
ROOT
HETATM    1  N   UNL     1     -11.125  11.147  63.077  1.00  0.00    -0.801 NA 
HETATM    2  C   UNL     1     -11.935  12.355  63.337  1.00  0.00    -0.504 C  
HETATM    3  H1  UNL     1     -11.629  10.521  62.449  1.00  0.00     0.000 HD 
HETATM    4  H2  UNL     1     -10.845  10.681  63.940  1.00  0.00     0.000 HD 
ENDROOT
BRANCH   2   5
HETATM    5  C   UNL     1     -11.174  13.299  64.284  1.00  0.00    -0.387 C  
HETATM    6  O   UNL     1     -10.758  12.517  65.419  1.00  0.00    -0.268 OA 
HETATM    7  C   UNL     1      -9.871  13.238  66.271  1.00  0.00    -0.285 C  
HETATM    8  C   UNL     1     -10.653  14.413  66.927  1.00  0.00    -0.278 C  
HETATM    9  O   UNL     1     -13.269  14.031  65.280  1.00  0.00    -0.782 OA 
HETATM   10  H   UNL     1     -13.789  14.771  65.569  1.00  0.00     0.000 HD 
HETATM   11  N   UNL     1     -11.740  13.899  67.811  1.00  0.00    -0.346 NA 
HETATM   12  C   UNL     1     -11.237  15.314  65.814  1.00  0.00    -0.247 C  
HETATM   13  H2  UNL     1     -11.382  13.247  68.510  1.00  0.00     0.000 HD 
HETATM   14  O   UNL     1     -10.212  16.106  65.200  1.00  0.00    -0.542 OA 
HETATM   15  C   UNL     1     -12.020  14.502  64.755  1.00  0.00    -0.442 C  
HETATM   16  H1  UNL     1     -12.252  14.669  68.241  1.00  0.00     0.000 HD 
HETATM   17  H   UNL     1     -10.572  16.660  64.517  1.00  0.00     0.000 HD 
BRANCH   7  18
HETATM   18  O   UNL     1      -9.354  12.398  67.307  1.00  0.00    -0.175 OA 
BRANCH  18  19
HETATM   19  C   UNL     1      -8.185  11.651  66.926  1.00  0.00    -0.169 C  
HETATM   20  O   UNL     1      -7.893  10.999  69.296  1.00  0.00    -0.271 OA 
HETATM   21  C   UNL     1      -8.581  10.825  65.704  1.00  0.00    -0.180 C  
HETATM   22  C   UNL     1      -8.641   9.394  67.543  1.00  0.00    -0.122 C  
HETATM   23  H   UNL     1      -7.628  10.338  69.924  1.00  0.00     0.000 HD 
HETATM   24  O   UNL     1      -9.036   9.549  66.178  1.00  0.00    -0.145 OA 
HETATM   25  C   UNL     1      -7.761  10.593  67.931  1.00  0.00    -0.100 C  
BRANCH  21  26
HETATM   26  C   UNL     1      -7.436  10.591  64.717  1.00  0.00     0.029 C  
HETATM   27  H   UNL     1      -6.919   9.235  63.377  1.00  0.00     0.000 HD 
HETATM   28  O   UNL     1      -7.630   9.380  63.989  1.00  0.00    -0.107 OA 
ENDBRANCH  21  26
BRANCH  22  29
HETATM   29  O   UNL     1      -7.886   8.199  67.717  1.00  0.00    -0.114 OA 
BRANCH  29  30
HETATM   30  C   UNL     1      -8.595   6.961  67.913  1.00  0.00    -0.122 C  
HETATM   31  C   UNL     1      -9.635   6.757  66.794  1.00  0.00    -0.166 C  
HETATM   32  O   UNL     1      -9.041   7.006  65.512  1.00  0.00    -0.376 OA 
HETATM   33  C   UNL     1     -10.196   5.331  66.834  1.00  0.00    -0.241 C  
HETATM   34  C   UNL     1     -10.907   5.109  68.169  1.00  0.00     0.319 C  
HETATM   35  N   UNL     1     -11.122   5.093  65.709  1.00  0.00    -0.808 NA 
HETATM   36  H   UNL     1      -9.682   6.880  64.823  1.00  0.00     0.000 HD 
HETATM   37  H1  UNL     1     -11.495   4.145  65.735  1.00  0.00     0.000 HD 
HETATM   38  H2  UNL     1     -10.683   5.299  64.812  1.00  0.00     0.000 HD 
HETATM   39  C   UNL     1      -9.977   5.370  69.367  1.00  0.00    -0.210 C  
HETATM   40  C   UNL     1      -9.229   6.755  69.317  1.00  0.00    -0.141 C  
HETATM   41  N   UNL     1     -10.764   5.227  70.609  1.00  0.00    -0.191 NA 
HETATM   42  H2  UNL     1     -11.239   4.327  70.671  1.00  0.00     0.000 HD 
HETATM   43  H1  UNL     1     -10.148   5.400  71.403  1.00  0.00     0.000 HD 
BRANCH  40  44
HETATM   44  O   UNL     1      -8.276   6.746  70.405  1.00  0.00    -0.121 OA 
BRANCH  44  45
HETATM   45  C   UNL     1      -8.241   7.934  71.208  1.00  0.00    -0.101 C  
HETATM   46  O   UNL     1      -9.206   8.889  70.783  1.00  0.00    -0.183 OA 
HETATM   47  C   UNL     1     -10.568   8.517  70.989  1.00  0.00    -0.216 C  
HETATM   48  C   UNL     1     -10.826   8.293  72.482  1.00  0.00    -0.351 C  
HETATM   49  H1  UNL     1      -7.558   6.410  74.227  1.00  0.00     0.000 HD 
HETATM   50  H2  UNL     1      -6.491   6.888  73.026  1.00  0.00     0.000 HD 
HETATM   51  O   UNL     1     -12.170   7.885  72.747  1.00  0.00    -0.595 OA 
HETATM   52  C   UNL     1      -9.858   7.231  73.019  1.00  0.00    -0.209 C  
HETATM   53  H   UNL     1     -12.329   7.747  73.674  1.00  0.00     0.000 HD 
HETATM   54  O   UNL     1     -10.036   7.091  74.439  1.00  0.00    -0.458 OA 
HETATM   55  N   UNL     1      -7.452   6.614  73.234  1.00  0.00    -0.084 NA 
HETATM   56  C   UNL     1      -8.403   7.625  72.718  1.00  0.00    -0.127 C  
HETATM   57  H   UNL     1      -9.437   6.434  74.772  1.00  0.00     0.000 HD 
BRANCH  47  58
HETATM   58  C   UNL     1     -11.438   9.652  70.430  1.00  0.00    -0.263 C  
HETATM   59  O   UNL     1     -10.682  10.863  70.351  1.00  0.00    -0.399 OA 
HETATM   60  H   UNL     1     -11.220  11.565  70.005  1.00  0.00     0.000 HD 
ENDBRANCH  47  58
ENDBRANCH  44  45
ENDBRANCH  40  44
ENDBRANCH  29  30
ENDBRANCH  22  29
ENDBRANCH  18  19
ENDBRANCH   7  18
ENDBRANCH   2   5
TORSDOF 9
ENDMDL
MODEL       38
REMARK 921   NORMALIZED FREE ENERGY PREDICTED BY IDOCK:   -6.90 KCAL/MOL
REMARK 922        TOTAL FREE ENERGY PREDICTED BY IDOCK:  -12.57 KCAL/MOL
REMARK 923 INTER-LIGAND FREE ENERGY PREDICTED BY IDOCK:  -10.86 KCAL/MOL
REMARK 924 INTRA-LIGAND FREE ENERGY PREDICTED BY IDOCK:   -1.71 KCAL/MOL
REMARK 927      BINDING AFFINITY PREDICTED BY RF-SCORE:    0.00 PKD
ROOT
HETATM    1  N   UNL     1     -12.795  11.399  71.087  1.00  0.00    -0.371 NA 
HETATM    2  C   UNL     1     -12.516  10.091  71.713  1.00  0.00    -0.383 C  
HETATM    3  H1  UNL     1     -13.671  11.776  71.448  1.00  0.00     0.000 HD 
HETATM    4  H2  UNL     1     -12.790  11.345  70.069  1.00  0.00     0.000 HD 
ENDROOT
BRANCH   2   5
HETATM    5  C   UNL     1     -11.194   9.523  71.170  1.00  0.00    -0.376 C  
HETATM    6  O   UNL     1     -10.958  10.145  69.894  1.00  0.00    -0.252 OA 
HETATM    7  C   UNL     1      -9.660   9.848  69.384  1.00  0.00    -0.215 C  
HETATM    8  C   UNL     1      -9.590   8.330  69.049  1.00  0.00    -0.156 C  
HETATM    9  O   UNL     1     -12.364   7.595  70.260  1.00  0.00    -0.377 OA 
HETATM   10  H   UNL     1     -12.373   6.650  70.164  1.00  0.00     0.000 HD 
HETATM   11  N   UNL     1     -10.547   7.984  67.956  1.00  0.00    -0.393 NA 
HETATM   12  C   UNL     1      -9.905   7.516  70.325  1.00  0.00    -0.183 C  
HETATM   13  H2  UNL     1     -10.398   8.560  67.127  1.00  0.00     0.000 HD 
HETATM   14  O   UNL     1      -8.802   7.544  71.240  1.00  0.00    -0.132 OA 
HETATM   15  C   UNL     1     -11.208   7.987  71.013  1.00  0.00    -0.266 C  
HETATM   16  H1  UNL     1     -10.501   6.989  67.736  1.00  0.00     0.000 HD 
HETATM   17  H   UNL     1      -8.995   7.044  72.024  1.00  0.00     0.000 HD 
BRANCH   7  18
HETATM   18  O   UNL     1      -9.391  10.592  68.193  1.00  0.00    -0.144 OA 
BRANCH  18  19
HETATM   19  C   UNL     1      -8.002  10.921  68.009  1.00  0.00    -0.109 C  
HETATM   20  O   UNL     1      -8.548  11.735  65.737  1.00  0.00    -0.391 OA 
HETATM   21  C   UNL     1      -7.569  11.676  69.264  1.00  0.00     0.125 C  
HETATM   22  C   UNL     1      -7.950  13.270  67.607  1.00  0.00    -0.176 C  
HETATM   23  H   UNL     1      -8.381  12.362  65.042  1.00  0.00     0.000 HD 
HETATM   24  O   UNL     1      -7.760  13.076  69.010  1.00  0.00     0.027 OA 
HETATM   25  C   UNL     1      -7.735  11.923  66.898  1.00  0.00    -0.106 C  
BRANCH  21  26
HETATM   26  C   UNL     1      -6.105  11.453  69.647  1.00  0.00    -0.110 C  
HETATM   27  H   UNL     1      -4.969  11.658  71.250  1.00  0.00     0.000 HD 
HETATM   28  O   UNL     1      -5.877  11.797  71.012  1.00  0.00    -0.375 OA 
ENDBRANCH  21  26
BRANCH  22  29
HETATM   29  O   UNL     1      -7.009  14.208  67.095  1.00  0.00    -0.146 OA 
BRANCH  29  30
HETATM   30  C   UNL     1      -7.355  15.607  67.112  1.00  0.00    -0.212 C  
HETATM   31  C   UNL     1      -6.635  16.323  68.271  1.00  0.00    -0.127 C  
HETATM   32  O   UNL     1      -5.246  15.965  68.291  1.00  0.00    -0.094 OA 
HETATM   33  C   UNL     1      -6.774  17.843  68.134  1.00  0.00    -0.200 C  
HETATM   34  C   UNL     1      -8.254  18.220  68.207  1.00  0.00    -0.312 C  
HETATM   35  N   UNL     1      -6.010  18.543  69.184  1.00  0.00    -0.228 NA 
HETATM   36  H   UNL     1      -4.803  16.406  69.005  1.00  0.00     0.000 HD 
HETATM   37  H1  UNL     1      -6.102  19.554  69.094  1.00  0.00     0.000 HD 
HETATM   38  H2  UNL     1      -5.032  18.254  69.192  1.00  0.00     0.000 HD 
HETATM   39  C   UNL     1      -9.088  17.490  67.140  1.00  0.00    -0.243 C  
HETATM   40  C   UNL     1      -8.874  15.930  67.104  1.00  0.00    -0.207 C  
HETATM   41  N   UNL     1     -10.511  17.836  67.341  1.00  0.00    -0.367 NA 
HETATM   42  H2  UNL     1     -10.673  18.843  67.345  1.00  0.00     0.000 HD 
HETATM   43  H1  UNL     1     -11.063  17.352  66.633  1.00  0.00     0.000 HD 
BRANCH  40  44
HETATM   44  O   UNL     1      -9.582  15.447  65.939  1.00  0.00    -0.319 OA 
BRANCH  44  45
HETATM   45  C   UNL     1     -11.010  15.392  66.060  1.00  0.00    -0.286 C  
HETATM   46  O   UNL     1     -11.616  14.794  64.919  1.00  0.00    -0.373 OA 
HETATM   47  C   UNL     1     -11.351  13.403  64.745  1.00  0.00    -0.337 C  
HETATM   48  C   UNL     1     -11.866  12.620  65.955  1.00  0.00    -0.436 C  
HETATM   49  H1  UNL     1     -11.146  14.755  69.448  1.00  0.00     0.000 HD 
HETATM   50  H2  UNL     1     -11.017  16.229  68.660  1.00  0.00     0.000 HD 
HETATM   51  O   UNL     1     -11.599  11.220  65.852  1.00  0.00    -0.127 OA 
HETATM   52  C   UNL     1     -11.220  13.166  67.236  1.00  0.00    -0.287 C  
HETATM   53  H   UNL     1     -11.919  10.734  66.603  1.00  0.00     0.000 HD 
HETATM   54  O   UNL     1     -11.776  12.494  68.380  1.00  0.00    -0.295 OA 
HETATM   55  N   UNL     1     -10.850  15.225  68.592  1.00  0.00    -0.244 NA 
HETATM   56  C   UNL     1     -11.461  14.679  67.359  1.00  0.00    -0.369 C  
HETATM   57  H   UNL     1     -11.376  12.832  69.172  1.00  0.00     0.000 HD 
BRANCH  47  58
HETATM   58  C   UNL     1     -12.052  12.967  63.451  1.00  0.00    -0.530 C  
HETATM   59  O   UNL     1     -13.210  12.183  63.754  1.00  0.00    -0.763 OA 
HETATM   60  H   UNL     1     -13.643  11.913  62.953  1.00  0.00     0.000 HD 
ENDBRANCH  47  58
ENDBRANCH  44  45
ENDBRANCH  40  44
ENDBRANCH  29  30
ENDBRANCH  22  29
ENDBRANCH  18  19
ENDBRANCH   7  18
ENDBRANCH   2   5
TORSDOF 9
ENDMDL
MODEL       39
REMARK 921   NORMALIZED FREE ENERGY PREDICTED BY IDOCK:   -6.86 KCAL/MOL
REMARK 922        TOTAL FREE ENERGY PREDICTED BY IDOCK:  -12.52 KCAL/MOL
REMARK 923 INTER-LIGAND FREE ENERGY PREDICTED BY IDOCK:  -11.10 KCAL/MOL
REMARK 924 INTRA-LIGAND FREE ENERGY PREDICTED BY IDOCK:   -1.42 KCAL/MOL
REMARK 927      BINDING AFFINITY PREDICTED BY RF-SCORE:    0.00 PKD
ROOT
HETATM    1  N   UNL     1     -11.400   4.536  64.814  1.00  0.00    -0.988 NA 
HETATM    2  C   UNL     1     -10.170   3.741  64.617  1.00  0.00    -0.180 C  
HETATM    3  H1  UNL     1     -12.026   4.409  64.018  1.00  0.00     0.000 HD 
HETATM    4  H2  UNL     1     -11.196   5.520  64.988  1.00  0.00     0.000 HD 
ENDROOT
BRANCH   2   5
HETATM    5  C   UNL     1      -9.227   3.933  65.816  1.00  0.00    -0.154 C  
HETATM    6  O   UNL     1      -9.091   5.350  66.027  1.00  0.00    -0.147 OA 
HETATM    7  C   UNL     1      -8.399   5.648  67.237  1.00  0.00    -0.100 C  
HETATM    8  C   UNL     1      -6.923   5.174  67.100  1.00  0.00    -0.064 C  
HETATM    9  O   UNL     1      -7.290   3.740  64.359  1.00  0.00    -0.064 OA 
HETATM   10  H   UNL     1      -6.435   3.347  64.230  1.00  0.00     0.000 HD 
HETATM   11  N   UNL     1      -6.218   5.937  66.028  1.00  0.00    -0.036 NA 
HETATM   12  C   UNL     1      -6.907   3.659  66.788  1.00  0.00    -0.054 C  
HETATM   13  H2  UNL     1      -6.278   6.944  66.180  1.00  0.00     0.000 HD 
HETATM   14  O   UNL     1      -7.231   2.889  67.954  1.00  0.00    -0.049 OA 
HETATM   15  C   UNL     1      -7.837   3.294  65.607  1.00  0.00    -0.085 C  
HETATM   16  H1  UNL     1      -5.251   5.626  65.937  1.00  0.00     0.000 HD 
HETATM   17  H   UNL     1      -7.220   1.959  67.763  1.00  0.00     0.000 HD 
BRANCH   7  18
HETATM   18  O   UNL     1      -8.404   7.054  67.501  1.00  0.00    -0.118 OA 
BRANCH  18  19
HETATM   19  C   UNL     1      -9.336   7.797  66.695  1.00  0.00    -0.188 C  
HETATM   20  O   UNL     1     -11.063   7.409  68.426  1.00  0.00    -0.439 OA 
HETATM   21  C   UNL     1      -8.615   9.075  66.271  1.00  0.00    -0.128 C  
HETATM   22  C   UNL     1     -10.019   9.640  68.044  1.00  0.00    -0.160 C  
HETATM   23  H   UNL     1     -11.818   7.737  68.900  1.00  0.00     0.000 HD 
HETATM   24  O   UNL     1      -8.917  10.082  67.249  1.00  0.00    -0.134 OA 
HETATM   25  C   UNL     1     -10.544   8.321  67.454  1.00  0.00    -0.253 C  
BRANCH  21  26
HETATM   26  C   UNL     1      -9.037   9.598  64.897  1.00  0.00    -0.232 C  
HETATM   27  H   UNL     1      -9.876  11.222  64.149  1.00  0.00     0.000 HD 
HETATM   28  O   UNL     1      -9.614  10.898  65.002  1.00  0.00    -0.220 OA 
ENDBRANCH  21  26
BRANCH  22  29
HETATM   29  O   UNL     1     -11.072  10.598  68.025  1.00  0.00    -0.259 OA 
BRANCH  29  30
HETATM   30  C   UNL     1     -11.411  11.272  69.253  1.00  0.00    -0.287 C  
HETATM   31  C   UNL     1     -12.499  10.486  70.011  1.00  0.00    -0.175 C  
HETATM   32  O   UNL     1     -12.158   9.094  70.068  1.00  0.00    -0.375 OA 
HETATM   33  C   UNL     1     -12.668  11.035  71.432  1.00  0.00    -0.429 C  
HETATM   34  C   UNL     1     -13.120  12.493  71.355  1.00  0.00    -0.303 C  
HETATM   35  N   UNL     1     -13.639  10.231  72.200  1.00  0.00    -0.487 NA 
HETATM   36  H   UNL     1     -12.828   8.610  70.536  1.00  0.00     0.000 HD 
HETATM   37  H1  UNL     1     -13.751  10.596  73.145  1.00  0.00     0.000 HD 
HETATM   38  H2  UNL     1     -13.386   9.243  72.206  1.00  0.00     0.000 HD 
HETATM   39  C   UNL     1     -12.142  13.358  70.542  1.00  0.00    -0.323 C  
HETATM   40  C   UNL     1     -11.785  12.773  69.124  1.00  0.00    -0.322 C  
HETATM   41  N   UNL     1     -12.700  14.722  70.438  1.00  0.00    -0.488 NA 
HETATM   42  H2  UNL     1     -12.918  15.127  71.348  1.00  0.00     0.000 HD 
HETATM   43  H1  UNL     1     -12.052  15.295  69.898  1.00  0.00     0.000 HD 
BRANCH  40  44
HETATM   44  O   UNL     1     -10.730  13.607  68.591  1.00  0.00    -0.247 OA 
BRANCH  44  45
HETATM   45  C   UNL     1     -10.254  13.246  67.286  1.00  0.00    -0.240 C  
HETATM   46  O   UNL     1     -11.115  13.724  66.258  1.00  0.00    -0.299 OA 
HETATM   47  C   UNL     1     -11.152  15.141  66.101  1.00  0.00    -0.311 C  
HETATM   48  C   UNL     1      -9.755  15.664  65.758  1.00  0.00    -0.345 C  
HETATM   49  H1  UNL     1      -6.882  13.590  67.931  1.00  0.00     0.000 HD 
HETATM   50  H2  UNL     1      -7.876  12.270  68.210  1.00  0.00     0.000 HD 
HETATM   51  O   UNL     1      -9.724  17.086  65.620  1.00  0.00    -0.543 OA 
HETATM   52  C   UNL     1      -8.763  15.238  66.848  1.00  0.00    -0.258 C  
HETATM   53  H   UNL     1      -8.857  17.410  65.406  1.00  0.00     0.000 HD 
HETATM   54  O   UNL     1      -7.435  15.647  66.476  1.00  0.00    -0.217 OA 
HETATM   55  N   UNL     1      -7.841  13.283  68.090  1.00  0.00    -0.134 NA 
HETATM   56  C   UNL     1      -8.797  13.714  67.045  1.00  0.00    -0.223 C  
HETATM   57  H   UNL     1      -6.820  15.384  67.151  1.00  0.00     0.000 HD 
BRANCH  47  58
HETATM   58  C   UNL     1     -12.160  15.447  64.983  1.00  0.00     0.149 C  
HETATM   59  O   UNL     1     -11.487  15.992  63.845  1.00  0.00    -1.188 OA 
HETATM   60  H   UNL     1     -12.110  16.181  63.154  1.00  0.00     0.000 HD 
ENDBRANCH  47  58
ENDBRANCH  44  45
ENDBRANCH  40  44
ENDBRANCH  29  30
ENDBRANCH  22  29
ENDBRANCH  18  19
ENDBRANCH   7  18
ENDBRANCH   2   5
TORSDOF 9
ENDMDL
MODEL       40
REMARK 921   NORMALIZED FREE ENERGY PREDICTED BY IDOCK:   -6.85 KCAL/MOL
REMARK 922        TOTAL FREE ENERGY PREDICTED BY IDOCK:  -12.50 KCAL/MOL
REMARK 923 INTER-LIGAND FREE ENERGY PREDICTED BY IDOCK:   -9.96 KCAL/MOL
REMARK 924 INTRA-LIGAND FREE ENERGY PREDICTED BY IDOCK:   -2.54 KCAL/MOL
REMARK 927      BINDING AFFINITY PREDICTED BY RF-SCORE:    0.00 PKD
ROOT
HETATM    1  N   UNL     1     -11.183   5.918  66.170  1.00  0.00    -0.610 NA 
HETATM    2  C   UNL     1     -10.052   4.988  66.364  1.00  0.00    -0.249 C  
HETATM    3  H1  UNL     1     -12.062   5.441  66.373  1.00  0.00     0.000 HD 
HETATM    4  H2  UNL     1     -11.180   6.336  65.239  1.00  0.00     0.000 HD 
ENDROOT
BRANCH   2   5
HETATM    5  C   UNL     1      -8.727   5.707  66.057  1.00  0.00    -0.144 C  
HETATM    6  O   UNL     1      -9.002   7.120  66.053  1.00  0.00    -0.161 OA 
HETATM    7  C   UNL     1      -7.810   7.899  65.979  1.00  0.00    -0.095 C  
HETATM    8  C   UNL     1      -7.150   7.669  64.588  1.00  0.00    -0.065 C  
HETATM    9  O   UNL     1      -9.086   5.408  63.670  1.00  0.00    -0.343 OA 
HETATM   10  H   UNL     1      -8.702   5.149  62.841  1.00  0.00     0.000 HD 
HETATM   11  N   UNL     1      -8.033   8.169  63.493  1.00  0.00    -0.180 NA 
HETATM   12  C   UNL     1      -6.862   6.161  64.408  1.00  0.00    -0.046 C  
HETATM   13  H2  UNL     1      -8.290   9.146  63.631  1.00  0.00     0.000 HD 
HETATM   14  O   UNL     1      -5.741   5.751  65.204  1.00  0.00    -0.022 OA 
HETATM   15  C   UNL     1      -8.104   5.288  64.709  1.00  0.00    -0.124 C  
HETATM   16  H1  UNL     1      -7.600   8.018  62.581  1.00  0.00     0.000 HD 
HETATM   17  H   UNL     1      -5.564   4.824  65.094  1.00  0.00     0.000 HD 
BRANCH   7  18
HETATM   18  O   UNL     1      -8.094   9.293  66.125  1.00  0.00    -0.108 OA 
BRANCH  18  19
HETATM   19  C   UNL     1      -9.411   9.671  65.684  1.00  0.00    -0.237 C  
HETATM   20  O   UNL     1     -10.329   8.717  67.776  1.00  0.00    -0.215 OA 
HETATM   21  C   UNL     1      -9.306  11.117  65.206  1.00  0.00    -0.219 C  
HETATM   22  C   UNL     1     -10.234  11.170  67.344  1.00  0.00    -0.190 C  
HETATM   23  H   UNL     1     -10.976   8.767  68.469  1.00  0.00     0.000 HD 
HETATM   24  O   UNL     1      -9.621  11.961  66.324  1.00  0.00    -0.218 OA 
HETATM   25  C   UNL     1     -10.445   9.750  66.794  1.00  0.00    -0.189 C  
BRANCH  21  26
HETATM   26  C   UNL     1     -10.258  11.462  64.060  1.00  0.00    -0.346 C  
HETATM   27  H   UNL     1     -10.125  11.982  62.159  1.00  0.00     0.000 HD 
HETATM   28  O   UNL     1      -9.534  11.768  62.871  1.00  0.00    -0.364 OA 
ENDBRANCH  21  26
BRANCH  22  29
HETATM   29  O   UNL     1     -11.500  11.709  67.710  1.00  0.00    -0.284 OA 
BRANCH  29  30
HETATM   30  C   UNL     1     -11.640  12.312  69.012  1.00  0.00    -0.316 C  
HETATM   31  C   UNL     1     -12.618  11.494  69.877  1.00  0.00     0.017 C  
HETATM   32  O   UNL     1     -12.300  10.097  69.803  1.00  0.00    -0.505 OA 
HETATM   33  C   UNL     1     -12.564  11.959  71.337  1.00  0.00    -0.240 C  
HETATM   34  C   UNL     1     -12.994  13.423  71.412  1.00  0.00    -0.412 C  
HETATM   35  N   UNL     1     -13.425  11.121  72.193  1.00  0.00    -0.526 NA 
HETATM   36  H   UNL     1     -12.903   9.593  70.336  1.00  0.00     0.000 HD 
HETATM   37  H1  UNL     1     -13.390  11.430  73.164  1.00  0.00     0.000 HD 
HETATM   38  H2  UNL     1     -13.194  10.132  72.105  1.00  0.00     0.000 HD 
HETATM   39  C   UNL     1     -12.131  14.325  70.513  1.00  0.00    -0.343 C  
HETATM   40  C   UNL     1     -12.000  13.822  69.026  1.00  0.00    -0.360 C  
HETATM   41  N   UNL     1     -12.672  15.699  70.572  1.00  0.00    -0.522 NA 
HETATM   42  H2  UNL     1     -12.744  16.051  71.526  1.00  0.00     0.000 HD 
HETATM   43  H1  UNL     1     -12.099  16.296  69.976  1.00  0.00     0.000 HD 
BRANCH  40  44
HETATM   44  O   UNL     1     -11.019  14.675  68.391  1.00  0.00    -0.238 OA 
BRANCH  44  45
HETATM   45  C   UNL     1      -9.954  15.131  69.237  1.00  0.00    -0.242 C  
HETATM   46  O   UNL     1      -8.829  14.260  69.188  1.00  0.00    -0.009 OA 
HETATM   47  C   UNL     1      -8.132  14.230  67.943  1.00  0.00    -0.151 C  
HETATM   48  C   UNL     1      -7.599  15.627  67.612  1.00  0.00    -0.158 C  
HETATM   49  H1  UNL     1     -10.382  18.513  68.707  1.00  0.00     0.000 HD 
HETATM   50  H2  UNL     1     -11.163  17.514  69.803  1.00  0.00     0.000 HD 
HETATM   51  O   UNL     1      -6.918  15.666  66.356  1.00  0.00    -0.038 OA 
HETATM   52  C   UNL     1      -8.760  16.630  67.590  1.00  0.00    -0.202 C  
HETATM   53  H   UNL     1      -6.587  16.533  66.151  1.00  0.00     0.000 HD 
HETATM   54  O   UNL     1      -8.246  17.956  67.373  1.00  0.00    -0.216 OA 
HETATM   55  N   UNL     1     -10.657  17.554  68.917  1.00  0.00    -0.273 NA 
HETATM   56  C   UNL     1      -9.535  16.588  68.916  1.00  0.00    -0.260 C  
HETATM   57  H   UNL     1      -8.964  18.577  67.360  1.00  0.00     0.000 HD 
BRANCH  47  58
HETATM   58  C   UNL     1      -6.993  13.211  68.086  1.00  0.00    -0.108 C  
HETATM   59  O   UNL     1      -6.642  12.678  66.806  1.00  0.00    -0.452 OA 
HETATM   60  H   UNL     1      -5.937  12.047  66.895  1.00  0.00     0.000 HD 
ENDBRANCH  47  58
ENDBRANCH  44  45
ENDBRANCH  40  44
ENDBRANCH  29  30
ENDBRANCH  22  29
ENDBRANCH  18  19
ENDBRANCH   7  18
ENDBRANCH   2   5
TORSDOF 9
ENDMDL
MODEL       41
REMARK 921   NORMALIZED FREE ENERGY PREDICTED BY IDOCK:   -6.82 KCAL/MOL
REMARK 922        TOTAL FREE ENERGY PREDICTED BY IDOCK:  -12.44 KCAL/MOL
REMARK 923 INTER-LIGAND FREE ENERGY PREDICTED BY IDOCK:  -10.63 KCAL/MOL
REMARK 924 INTRA-LIGAND FREE ENERGY PREDICTED BY IDOCK:   -1.82 KCAL/MOL
REMARK 927      BINDING AFFINITY PREDICTED BY RF-SCORE:    0.00 PKD
ROOT
HETATM    1  N   UNL     1     -11.852  11.222  63.315  1.00  0.00    -0.710 NA 
HETATM    2  C   UNL     1     -12.073  12.682  63.283  1.00  0.00    -0.433 C  
HETATM    3  H1  UNL     1     -12.462  10.764  62.638  1.00  0.00     0.000 HD 
HETATM    4  H2  UNL     1     -11.965  10.839  64.254  1.00  0.00     0.000 HD 
ENDROOT
BRANCH   2   5
HETATM    5  C   UNL     1     -11.153  13.373  64.304  1.00  0.00    -0.373 C  
HETATM    6  O   UNL     1     -10.871  12.412  65.338  1.00  0.00    -0.271 OA 
HETATM    7  C   UNL     1      -9.865  12.872  66.237  1.00  0.00    -0.273 C  
HETATM    8  C   UNL     1     -10.425  14.086  67.034  1.00  0.00    -0.275 C  
HETATM    9  O   UNL     1     -13.081  14.342  65.426  1.00  0.00    -0.685 OA 
HETATM   10  H   UNL     1     -13.462  15.125  65.805  1.00  0.00     0.000 HD 
HETATM   11  N   UNL     1     -11.579  13.674  67.888  1.00  0.00    -0.320 NA 
HETATM   12  C   UNL     1     -10.853  15.190  66.039  1.00  0.00    -0.335 C  
HETATM   13  H2  UNL     1     -11.334  12.898  68.504  1.00  0.00     0.000 HD 
HETATM   14  O   UNL     1      -9.710  15.856  65.485  1.00  0.00    -0.376 OA 
HETATM   15  C   UNL     1     -11.773  14.645  64.921  1.00  0.00    -0.403 C  
HETATM   16  H1  UNL     1     -11.946  14.469  68.410  1.00  0.00     0.000 HD 
HETATM   17  H   UNL     1      -9.973  16.534  64.874  1.00  0.00     0.000 HD 
BRANCH   7  18
HETATM   18  O   UNL     1      -9.495  11.849  67.165  1.00  0.00    -0.174 OA 
BRANCH  18  19
HETATM   19  C   UNL     1     -10.574  10.969  67.526  1.00  0.00    -0.227 C  
HETATM   20  O   UNL     1     -10.144   9.676  65.459  1.00  0.00    -0.318 OA 
HETATM   21  C   UNL     1     -10.361  10.606  68.995  1.00  0.00    -0.218 C  
HETATM   22  C   UNL     1      -9.594   8.805  67.728  1.00  0.00    -0.148 C  
HETATM   23  H   UNL     1     -10.125   8.832  65.025  1.00  0.00     0.000 HD 
HETATM   24  O   UNL     1      -9.588   9.397  69.029  1.00  0.00    -0.158 OA 
HETATM   25  C   UNL     1     -10.542   9.618  66.831  1.00  0.00    -0.171 C  
BRANCH  21  26
HETATM   26  C   UNL     1     -11.659  10.369  69.769  1.00  0.00    -0.269 C  
HETATM   27  H   UNL     1     -13.568  10.845  69.597  1.00  0.00     0.000 HD 
HETATM   28  O   UNL     1     -12.762  10.993  69.116  1.00  0.00    -0.277 OA 
ENDBRANCH  21  26
BRANCH  22  29
HETATM   29  O   UNL     1     -10.063   7.462  67.787  1.00  0.00    -0.164 OA 
BRANCH  29  30
HETATM   30  C   UNL     1      -9.096   6.395  67.737  1.00  0.00    -0.111 C  
HETATM   31  C   UNL     1      -9.022   5.806  66.314  1.00  0.00    -0.146 C  
HETATM   32  O   UNL     1      -8.926   6.859  65.345  1.00  0.00    -0.369 OA 
HETATM   33  C   UNL     1      -7.816   4.870  66.181  1.00  0.00    -0.099 C  
HETATM   34  C   UNL     1      -7.977   3.703  67.155  1.00  0.00    -0.087 C  
HETATM   35  N   UNL     1      -7.679   4.374  64.798  1.00  0.00    -0.077 NA 
HETATM   36  H   UNL     1      -8.880   6.496  64.469  1.00  0.00     0.000 HD 
HETATM   37  H1  UNL     1      -6.877   3.751  64.709  1.00  0.00     0.000 HD 
HETATM   38  H2  UNL     1      -7.636   5.141  64.127  1.00  0.00     0.000 HD 
HETATM   39  C   UNL     1      -8.146   4.183  68.607  1.00  0.00    -0.072 C  
HETATM   40  C   UNL     1      -9.262   5.277  68.803  1.00  0.00    -0.116 C  
HETATM   41  N   UNL     1      -8.390   3.004  69.464  1.00  0.00    -0.057 NA 
HETATM   42  H2  UNL     1      -7.665   2.293  69.368  1.00  0.00     0.000 HD 
HETATM   43  H1  UNL     1      -8.501   3.323  70.426  1.00  0.00     0.000 HD 
BRANCH  40  44
HETATM   44  O   UNL     1      -9.151   5.736  70.170  1.00  0.00    -0.137 OA 
BRANCH  44  45
HETATM   45  C   UNL     1     -10.041   5.112  71.107  1.00  0.00    -0.222 C  
HETATM   46  O   UNL     1      -9.343   4.580  72.227  1.00  0.00    -0.124 OA 
HETATM   47  C   UNL     1      -8.746   5.546  73.091  1.00  0.00    -0.120 C  
HETATM   48  C   UNL     1      -9.825   6.467  73.665  1.00  0.00    -0.213 C  
HETATM   49  H1  UNL     1     -12.671   7.318  70.757  1.00  0.00     0.000 HD 
HETATM   50  H2  UNL     1     -12.298   5.972  69.831  1.00  0.00     0.000 HD 
HETATM   51  O   UNL     1      -9.282   7.479  74.516  1.00  0.00    -0.428 OA 
HETATM   52  C   UNL     1     -10.601   7.131  72.519  1.00  0.00    -0.240 C  
HETATM   53  H   UNL     1      -9.952   8.051  74.872  1.00  0.00     0.000 HD 
HETATM   54  O   UNL     1     -11.675   7.921  73.059  1.00  0.00    -0.604 OA 
HETATM   55  N   UNL     1     -11.927   6.689  70.455  1.00  0.00    -0.383 NA 
HETATM   56  C   UNL     1     -11.170   6.068  71.566  1.00  0.00    -0.264 C  
HETATM   57  H   UNL     1     -12.155   8.332  72.349  1.00  0.00     0.000 HD 
BRANCH  47  58
HETATM   58  C   UNL     1      -8.016   4.773  74.199  1.00  0.00    -0.101 C  
HETATM   59  O   UNL     1      -8.693   3.545  74.476  1.00  0.00    -0.086 OA 
HETATM   60  H   UNL     1      -8.242   3.067  75.161  1.00  0.00     0.000 HD 
ENDBRANCH  47  58
ENDBRANCH  44  45
ENDBRANCH  40  44
ENDBRANCH  29  30
ENDBRANCH  22  29
ENDBRANCH  18  19
ENDBRANCH   7  18
ENDBRANCH   2   5
TORSDOF 9
ENDMDL
MODEL       42
REMARK 921   NORMALIZED FREE ENERGY PREDICTED BY IDOCK:   -6.81 KCAL/MOL
REMARK 922        TOTAL FREE ENERGY PREDICTED BY IDOCK:  -12.44 KCAL/MOL
REMARK 923 INTER-LIGAND FREE ENERGY PREDICTED BY IDOCK:  -11.15 KCAL/MOL
REMARK 924 INTRA-LIGAND FREE ENERGY PREDICTED BY IDOCK:   -1.29 KCAL/MOL
REMARK 927      BINDING AFFINITY PREDICTED BY RF-SCORE:    0.00 PKD
ROOT
HETATM    1  N   UNL     1     -10.252   3.409  72.861  1.00  0.00    -0.158 NA 
HETATM    2  C   UNL     1      -9.599   4.198  71.797  1.00  0.00    -0.156 C  
HETATM    3  H1  UNL     1      -9.881   2.459  72.865  1.00  0.00     0.000 HD 
HETATM    4  H2  UNL     1     -11.269   3.423  72.780  1.00  0.00     0.000 HD 
ENDROOT
BRANCH   2   5
HETATM    5  C   UNL     1     -10.159   5.631  71.792  1.00  0.00    -0.192 C  
HETATM    6  O   UNL     1      -9.216   6.451  71.078  1.00  0.00    -0.153 OA 
HETATM    7  C   UNL     1      -9.723   7.761  70.833  1.00  0.00    -0.168 C  
HETATM    8  C   UNL     1      -9.868   8.503  72.194  1.00  0.00    -0.318 C  
HETATM    9  O   UNL     1      -9.192   6.045  73.984  1.00  0.00    -0.126 OA 
HETATM   10  H   UNL     1      -9.333   6.396  74.856  1.00  0.00     0.000 HD 
HETATM   11  N   UNL     1      -8.535   8.695  72.838  1.00  0.00    -0.410 NA 
HETATM   12  C   UNL     1     -10.805   7.688  73.115  1.00  0.00    -0.382 C  
HETATM   13  H2  UNL     1      -7.880   9.171  72.217  1.00  0.00     0.000 HD 
HETATM   14  O   UNL     1     -12.172   7.813  72.701  1.00  0.00    -0.558 OA 
HETATM   15  C   UNL     1     -10.387   6.201  73.208  1.00  0.00    -0.227 C  
HETATM   16  H1  UNL     1      -8.630   9.180  73.730  1.00  0.00     0.000 HD 
HETATM   17  H   UNL     1     -12.748   7.313  73.267  1.00  0.00     0.000 HD 
BRANCH   7  18
HETATM   18  O   UNL     1      -8.836   8.510  69.997  1.00  0.00    -0.135 OA 
BRANCH  18  19
HETATM   19  C   UNL     1      -9.392   8.855  68.716  1.00  0.00    -0.137 C  
HETATM   20  O   UNL     1      -9.692  11.174  69.529  1.00  0.00    -0.418 OA 
HETATM   21  C   UNL     1      -8.444   8.279  67.666  1.00  0.00    -0.130 C  
HETATM   22  C   UNL     1      -7.968  10.554  67.839  1.00  0.00    -0.106 C  
HETATM   23  H   UNL     1      -9.685  12.104  69.336  1.00  0.00     0.000 HD 
HETATM   24  O   UNL     1      -7.492   9.303  67.341  1.00  0.00    -0.087 OA 
HETATM   25  C   UNL     1      -9.381  10.343  68.407  1.00  0.00    -0.150 C  
BRANCH  21  26
HETATM   26  C   UNL     1      -9.141   7.843  66.375  1.00  0.00    -0.179 C  
HETATM   27  H   UNL     1      -8.690   6.813  64.751  1.00  0.00     0.000 HD 
HETATM   28  O   UNL     1      -8.258   7.084  65.552  1.00  0.00    -0.126 OA 
ENDBRANCH  21  26
BRANCH  22  29
HETATM   29  O   UNL     1      -8.036  11.521  66.796  1.00  0.00    -0.156 OA 
BRANCH  29  30
HETATM   30  C   UNL     1      -9.295  11.715  66.121  1.00  0.00    -0.224 C  
HETATM   31  C   UNL     1      -9.189  11.263  64.651  1.00  0.00    -0.073 C  
HETATM   32  O   UNL     1      -8.563   9.974  64.570  1.00  0.00    -0.161 OA 
HETATM   33  C   UNL     1     -10.577  11.204  64.004  1.00  0.00    -0.368 C  
HETATM   34  C   UNL     1     -11.193  12.603  64.014  1.00  0.00    -0.459 C  
HETATM   35  N   UNL     1     -10.499  10.682  62.626  1.00  0.00    -0.666 NA 
HETATM   36  H   UNL     1      -8.498   9.696  63.665  1.00  0.00     0.000 HD 
HETATM   37  H1  UNL     1     -11.422  10.643  62.196  1.00  0.00     0.000 HD 
HETATM   38  H2  UNL     1     -10.031   9.777  62.594  1.00  0.00     0.000 HD 
HETATM   39  C   UNL     1     -11.270  13.189  65.434  1.00  0.00    -0.291 C  
HETATM   40  C   UNL     1      -9.913  13.135  66.232  1.00  0.00    -0.285 C  
HETATM   41  N   UNL     1     -11.786  14.571  65.342  1.00  0.00    -0.356 NA 
HETATM   42  H2  UNL     1     -12.676  14.625  64.847  1.00  0.00     0.000 HD 
HETATM   43  H1  UNL     1     -11.837  14.960  66.284  1.00  0.00     0.000 HD 
BRANCH  40  44
HETATM   44  O   UNL     1     -10.217  13.549  67.584  1.00  0.00    -0.233 OA 
BRANCH  44  45
HETATM   45  C   UNL     1     -11.544  14.052  67.795  1.00  0.00    -0.345 C  
HETATM   46  O   UNL     1     -12.277  13.247  68.711  1.00  0.00    -0.278 OA 
HETATM   47  C   UNL     1     -11.809  13.274  70.059  1.00  0.00    -0.295 C  
HETATM   48  C   UNL     1     -11.876  14.702  70.605  1.00  0.00    -0.305 C  
HETATM   49  H1  UNL     1     -10.771  17.412  67.654  1.00  0.00     0.000 HD 
HETATM   50  H2  UNL     1     -11.101  16.356  66.395  1.00  0.00     0.000 HD 
HETATM   51  O   UNL     1     -11.388  14.797  71.945  1.00  0.00    -0.476 OA 
HETATM   52  C   UNL     1     -11.062  15.639  69.702  1.00  0.00    -0.299 C  
HETATM   53  H   UNL     1     -11.430  15.683  72.284  1.00  0.00     0.000 HD 
HETATM   54  O   UNL     1     -11.205  16.995  70.162  1.00  0.00    -0.336 OA 
HETATM   55  N   UNL     1     -10.772  16.436  67.358  1.00  0.00    -0.309 NA 
HETATM   56  C   UNL     1     -11.542  15.535  68.245  1.00  0.00    -0.334 C  
HETATM   57  H   UNL     1     -10.702  17.574  69.602  1.00  0.00     0.000 HD 
BRANCH  47  58
HETATM   58  C   UNL     1     -12.698  12.318  70.866  1.00  0.00    -0.187 C  
HETATM   59  O   UNL     1     -13.519  13.055  71.777  1.00  0.00    -0.402 OA 
HETATM   60  H   UNL     1     -14.069  12.464  72.277  1.00  0.00     0.000 HD 
ENDBRANCH  47  58
ENDBRANCH  44  45
ENDBRANCH  40  44
ENDBRANCH  29  30
ENDBRANCH  22  29
ENDBRANCH  18  19
ENDBRANCH   7  18
ENDBRANCH   2   5
TORSDOF 9
ENDMDL
MODEL       43
REMARK 921   NORMALIZED FREE ENERGY PREDICTED BY IDOCK:   -6.81 KCAL/MOL
REMARK 922        TOTAL FREE ENERGY PREDICTED BY IDOCK:  -12.44 KCAL/MOL
REMARK 923 INTER-LIGAND FREE ENERGY PREDICTED BY IDOCK:  -10.10 KCAL/MOL
REMARK 924 INTRA-LIGAND FREE ENERGY PREDICTED BY IDOCK:   -2.34 KCAL/MOL
REMARK 927      BINDING AFFINITY PREDICTED BY RF-SCORE:    0.00 PKD
ROOT
HETATM    1  N   UNL     1     -14.194  15.543  70.927  1.00  0.00    -0.829 NA 
HETATM    2  C   UNL     1     -12.723  15.657  70.862  1.00  0.00    -0.445 C  
HETATM    3  H1  UNL     1     -14.540  15.994  71.774  1.00  0.00     0.000 HD 
HETATM    4  H2  UNL     1     -14.508  14.575  70.852  1.00  0.00     0.000 HD 
ENDROOT
BRANCH   2   5
HETATM    5  C   UNL     1     -12.203  14.977  69.584  1.00  0.00    -0.258 C  
HETATM    6  O   UNL     1     -11.473  13.806  69.994  1.00  0.00    -0.219 OA 
HETATM    7  C   UNL     1     -11.113  12.983  68.887  1.00  0.00    -0.262 C  
HETATM    8  C   UNL     1     -10.078  13.749  68.012  1.00  0.00    -0.245 C  
HETATM    9  O   UNL     1     -10.264  16.445  69.561  1.00  0.00    -0.270 OA 
HETATM   10  H   UNL     1      -9.706  17.008  69.038  1.00  0.00     0.000 HD 
HETATM   11  N   UNL     1      -8.815  13.987  68.771  1.00  0.00    -0.356 NA 
HETATM   12  C   UNL     1     -10.697  15.089  67.553  1.00  0.00    -0.284 C  
HETATM   13  H2  UNL     1      -8.427  13.119  69.141  1.00  0.00     0.000 HD 
HETATM   14  O   UNL     1     -11.675  14.881  66.525  1.00  0.00    -0.312 OA 
HETATM   15  C   UNL     1     -11.296  15.892  68.733  1.00  0.00    -0.378 C  
HETATM   16  H1  UNL     1      -8.136  14.489  68.198  1.00  0.00     0.000 HD 
HETATM   17  H   UNL     1     -12.056  15.705  66.244  1.00  0.00     0.000 HD 
BRANCH   7  18
HETATM   18  O   UNL     1     -10.523  11.757  69.325  1.00  0.00    -0.096 OA 
BRANCH  18  19
HETATM   19  C   UNL     1     -11.456  10.668  69.444  1.00  0.00    -0.286 C  
HETATM   20  O   UNL     1      -9.989   9.319  67.976  1.00  0.00    -0.166 OA 
HETATM   21  C   UNL     1     -11.776  10.535  70.931  1.00  0.00    -0.335 C  
HETATM   22  C   UNL     1     -10.223   8.875  70.417  1.00  0.00    -0.200 C  
HETATM   23  H   UNL     1      -9.628   8.467  67.758  1.00  0.00     0.000 HD 
HETATM   24  O   UNL     1     -10.853   9.584  71.484  1.00  0.00    -0.355 OA 
HETATM   25  C   UNL     1     -10.879   9.306  69.095  1.00  0.00    -0.133 C  
BRANCH  21  26
HETATM   26  C   UNL     1     -13.198  10.049  71.218  1.00  0.00    -0.383 C  
HETATM   27  H   UNL     1     -14.071   8.668  72.327  1.00  0.00     0.000 HD 
HETATM   28  O   UNL     1     -13.188   8.969  72.148  1.00  0.00    -0.381 OA 
ENDBRANCH  21  26
BRANCH  22  29
HETATM   29  O   UNL     1     -10.395   7.470  70.573  1.00  0.00    -0.210 OA 
BRANCH  29  30
HETATM   30  C   UNL     1      -9.241   6.667  70.890  1.00  0.00    -0.157 C  
HETATM   31  C   UNL     1      -8.444   7.309  72.043  1.00  0.00    -0.106 C  
HETATM   32  O   UNL     1      -9.327   7.686  73.109  1.00  0.00    -0.185 OA 
HETATM   33  C   UNL     1      -7.383   6.337  72.570  1.00  0.00    -0.085 C  
HETATM   34  C   UNL     1      -6.395   6.017  71.448  1.00  0.00    -0.048 C  
HETATM   35  N   UNL     1      -6.677   6.904  73.736  1.00  0.00    -0.071 NA 
HETATM   36  H   UNL     1      -8.835   8.081  73.819  1.00  0.00     0.000 HD 
HETATM   37  H1  UNL     1      -5.970   6.258  74.086  1.00  0.00     0.000 HD 
HETATM   38  H2  UNL     1      -7.327   7.184  74.469  1.00  0.00     0.000 HD 
HETATM   39  C   UNL     1      -7.100   5.444  70.206  1.00  0.00    -0.062 C  
HETATM   40  C   UNL     1      -8.316   6.305  69.697  1.00  0.00    -0.125 C  
HETATM   41  N   UNL     1      -6.091   5.254  69.143  1.00  0.00    -0.024 NA 
HETATM   42  H2  UNL     1      -5.305   4.680  69.447  1.00  0.00     0.000 HD 
HETATM   43  H1  UNL     1      -6.559   4.874  68.320  1.00  0.00     0.000 HD 
BRANCH  40  44
HETATM   44  O   UNL     1      -8.959   5.531  68.658  1.00  0.00    -0.113 OA 
BRANCH  44  45
HETATM   45  C   UNL     1      -8.723   5.980  67.315  1.00  0.00    -0.105 C  
HETATM   46  O   UNL     1      -7.691   5.233  66.681  1.00  0.00    -0.094 OA 
HETATM   47  C   UNL     1      -8.001   3.867  66.411  1.00  0.00    -0.097 C  
HETATM   48  C   UNL     1      -9.214   3.783  65.482  1.00  0.00    -0.153 C  
HETATM   49  H1  UNL     1     -12.000   6.693  66.504  1.00  0.00     0.000 HD 
HETATM   50  H2  UNL     1     -10.879   7.658  67.291  1.00  0.00     0.000 HD 
HETATM   51  O   UNL     1      -9.593   2.433  65.201  1.00  0.00    -0.331 OA 
HETATM   52  C   UNL     1     -10.402   4.521  66.114  1.00  0.00    -0.223 C  
HETATM   53  H   UNL     1     -10.346   2.381  64.624  1.00  0.00     0.000 HD 
HETATM   54  O   UNL     1     -11.511   4.523  65.198  1.00  0.00    -1.105 OA 
HETATM   55  N   UNL     1     -11.150   6.700  67.067  1.00  0.00    -0.403 NA 
HETATM   56  C   UNL     1     -10.015   5.968  66.459  1.00  0.00    -0.141 C  
HETATM   57  H   UNL     1     -12.245   4.980  65.590  1.00  0.00     0.000 HD 
BRANCH  47  58
HETATM   58  C   UNL     1      -6.755   3.238  65.772  1.00  0.00    -0.041 C  
HETATM   59  O   UNL     1      -6.781   1.816  65.931  1.00  0.00    -0.032 OA 
HETATM   60  H   UNL     1      -6.010   1.427  65.535  1.00  0.00     0.000 HD 
ENDBRANCH  47  58
ENDBRANCH  44  45
ENDBRANCH  40  44
ENDBRANCH  29  30
ENDBRANCH  22  29
ENDBRANCH  18  19
ENDBRANCH   7  18
ENDBRANCH   2   5
TORSDOF 9
ENDMDL
MODEL       44
REMARK 921   NORMALIZED FREE ENERGY PREDICTED BY IDOCK:   -6.80 KCAL/MOL
REMARK 922        TOTAL FREE ENERGY PREDICTED BY IDOCK:  -12.42 KCAL/MOL
REMARK 923 INTER-LIGAND FREE ENERGY PREDICTED BY IDOCK:   -9.95 KCAL/MOL
REMARK 924 INTRA-LIGAND FREE ENERGY PREDICTED BY IDOCK:   -2.47 KCAL/MOL
REMARK 927      BINDING AFFINITY PREDICTED BY RF-SCORE:    0.00 PKD
ROOT
HETATM    1  N   UNL     1     -13.331  11.918  63.566  1.00  0.00    -0.434 NA 
HETATM    2  C   UNL     1     -11.907  12.099  63.219  1.00  0.00    -0.372 C  
HETATM    3  H1  UNL     1     -13.832  11.511  62.776  1.00  0.00     0.000 HD 
HETATM    4  H2  UNL     1     -13.761  12.786  63.887  1.00  0.00     0.000 HD 
ENDROOT
BRANCH   2   5
HETATM    5  C   UNL     1     -11.152  12.711  64.411  1.00  0.00    -0.345 C  
HETATM    6  O   UNL     1     -11.686  12.110  65.605  1.00  0.00    -0.375 OA 
HETATM    7  C   UNL     1     -10.927  12.450  66.763  1.00  0.00    -0.263 C  
HETATM    8  C   UNL     1     -11.091  13.973  67.038  1.00  0.00    -0.304 C  
HETATM    9  O   UNL     1     -12.668  14.613  64.429  1.00  0.00    -0.636 OA 
HETATM   10  H   UNL     1     -12.748  15.558  64.478  1.00  0.00     0.000 HD 
HETATM   11  N   UNL     1     -12.509  14.303  67.368  1.00  0.00    -0.534 NA 
HETATM   12  C   UNL     1     -10.625  14.764  65.793  1.00  0.00    -0.327 C  
HETATM   13  H2  UNL     1     -12.856  13.739  68.145  1.00  0.00     0.000 HD 
HETATM   14  O   UNL     1      -9.195  14.759  65.684  1.00  0.00    -0.489 OA 
HETATM   15  C   UNL     1     -11.283  14.247  64.491  1.00  0.00    -0.322 C  
HETATM   16  H1  UNL     1     -12.617  15.301  67.548  1.00  0.00     0.000 HD 
HETATM   17  H   UNL     1      -8.909  15.245  64.920  1.00  0.00     0.000 HD 
BRANCH   7  18
HETATM   18  O   UNL     1     -11.382  11.727  67.909  1.00  0.00    -0.247 OA 
BRANCH  18  19
HETATM   19  C   UNL     1     -10.382  11.559  68.930  1.00  0.00    -0.169 C  
HETATM   20  O   UNL     1     -11.891   9.964  70.073  1.00  0.00    -0.411 OA 
HETATM   21  C   UNL     1      -9.058  11.336  68.203  1.00  0.00    -0.166 C  
HETATM   22  C   UNL     1      -9.817   9.243  68.895  1.00  0.00    -0.165 C  
HETATM   23  H   UNL     1     -11.987   9.173  70.590  1.00  0.00     0.000 HD 
HETATM   24  O   UNL     1      -8.891   9.919  68.042  1.00  0.00    -0.125 OA 
HETATM   25  C   UNL     1     -10.536  10.293  69.757  1.00  0.00    -0.271 C  
BRANCH  21  26
HETATM   26  C   UNL     1      -7.841  11.882  68.952  1.00  0.00     0.015 C  
HETATM   27  H   UNL     1      -6.554  13.368  68.758  1.00  0.00     0.000 HD 
HETATM   28  O   UNL     1      -7.309  13.029  68.293  1.00  0.00    -0.097 OA 
ENDBRANCH  21  26
BRANCH  22  29
HETATM   29  O   UNL     1      -9.140   8.333  69.756  1.00  0.00    -0.145 OA 
BRANCH  29  30
HETATM   30  C   UNL     1      -9.794   7.097  70.100  1.00  0.00    -0.179 C  
HETATM   31  C   UNL     1      -9.953   6.983  71.629  1.00  0.00    -0.178 C  
HETATM   32  O   UNL     1     -10.478   8.205  72.167  1.00  0.00    -0.239 OA 
HETATM   33  C   UNL     1     -10.884   5.819  71.988  1.00  0.00    -0.251 C  
HETATM   34  C   UNL     1     -10.267   4.513  71.490  1.00  0.00    -0.195 C  
HETATM   35  N   UNL     1     -11.120   5.759  73.444  1.00  0.00    -0.448 NA 
HETATM   36  H   UNL     1     -10.576   8.135  73.108  1.00  0.00     0.000 HD 
HETATM   37  H1  UNL     1     -11.738   4.985  73.683  1.00  0.00     0.000 HD 
HETATM   38  H2  UNL     1     -11.471   6.646  73.804  1.00  0.00     0.000 HD 
HETATM   39  C   UNL     1      -9.985   4.548  69.978  1.00  0.00    -0.210 C  
HETATM   40  C   UNL     1      -9.170   5.808  69.500  1.00  0.00    -0.130 C  
HETATM   41  N   UNL     1      -9.306   3.291  69.600  1.00  0.00    -0.163 NA 
HETATM   42  H2  UNL     1      -9.830   2.462  69.882  1.00  0.00     0.000 HD 
HETATM   43  H1  UNL     1      -9.120   3.314  68.597  1.00  0.00     0.000 HD 
BRANCH  40  44
HETATM   44  O   UNL     1      -9.164   5.766  68.054  1.00  0.00    -0.110 OA 
BRANCH  44  45
HETATM   45  C   UNL     1      -7.985   5.207  67.456  1.00  0.00    -0.100 C  
HETATM   46  O   UNL     1      -8.246   3.944  66.854  1.00  0.00    -0.099 OA 
HETATM   47  C   UNL     1      -9.089   3.976  65.703  1.00  0.00    -0.142 C  
HETATM   48  C   UNL     1      -8.448   4.839  64.613  1.00  0.00    -0.139 C  
HETATM   49  H1  UNL     1      -6.621   8.163  66.313  1.00  0.00     0.000 HD 
HETATM   50  H2  UNL     1      -6.489   7.462  67.830  1.00  0.00     0.000 HD 
HETATM   51  O   UNL     1      -9.265   4.936  63.444  1.00  0.00    -0.332 OA 
HETATM   52  C   UNL     1      -8.179   6.247  65.161  1.00  0.00    -0.138 C  
HETATM   53  H   UNL     1      -8.868   5.471  62.768  1.00  0.00     0.000 HD 
HETATM   54  O   UNL     1      -7.491   7.027  64.167  1.00  0.00    -0.083 OA 
HETATM   55  N   UNL     1      -7.053   7.525  66.982  1.00  0.00    -0.082 NA 
HETATM   56  C   UNL     1      -7.329   6.175  66.440  1.00  0.00    -0.085 C  
HETATM   57  H   UNL     1      -7.324   7.898  64.506  1.00  0.00     0.000 HD 
BRANCH  47  58
HETATM   58  C   UNL     1      -9.276   2.526  65.237  1.00  0.00    -0.107 C  
HETATM   59  O   UNL     1     -10.359   2.439  64.306  1.00  0.00    -0.361 OA 
HETATM   60  H   UNL     1     -10.475   1.542  64.018  1.00  0.00     0.000 HD 
ENDBRANCH  47  58
ENDBRANCH  44  45
ENDBRANCH  40  44
ENDBRANCH  29  30
ENDBRANCH  22  29
ENDBRANCH  18  19
ENDBRANCH   7  18
ENDBRANCH   2   5
TORSDOF 9
ENDMDL
MODEL       45
REMARK 921   NORMALIZED FREE ENERGY PREDICTED BY IDOCK:   -6.79 KCAL/MOL
REMARK 922        TOTAL FREE ENERGY PREDICTED BY IDOCK:  -12.41 KCAL/MOL
REMARK 923 INTER-LIGAND FREE ENERGY PREDICTED BY IDOCK:  -10.30 KCAL/MOL
REMARK 924 INTRA-LIGAND FREE ENERGY PREDICTED BY IDOCK:   -2.11 KCAL/MOL
REMARK 927      BINDING AFFINITY PREDICTED BY RF-SCORE:    0.00 PKD
ROOT
HETATM    1  N   UNL     1     -12.464   5.578  72.733  1.00  0.00    -0.382 NA 
HETATM    2  C   UNL     1     -11.396   4.770  73.356  1.00  0.00    -0.312 C  
HETATM    3  H1  UNL     1     -13.370   5.308  73.116  1.00  0.00     0.000 HD 
HETATM    4  H2  UNL     1     -12.444   5.518  71.714  1.00  0.00     0.000 HD 
ENDROOT
BRANCH   2   5
HETATM    5  C   UNL     1     -10.029   5.177  72.779  1.00  0.00    -0.161 C  
HETATM    6  O   UNL     1     -10.284   6.011  71.634  1.00  0.00    -0.193 OA 
HETATM    7  C   UNL     1      -9.092   6.614  71.135  1.00  0.00    -0.152 C  
HETATM    8  C   UNL     1      -8.174   5.500  70.555  1.00  0.00    -0.112 C  
HETATM    9  O   UNL     1      -9.914   3.102  71.516  1.00  0.00    -0.160 OA 
HETATM   10  H   UNL     1      -9.377   2.360  71.264  1.00  0.00     0.000 HD 
HETATM   11  N   UNL     1      -8.818   4.837  69.383  1.00  0.00    -0.082 NA 
HETATM   12  C   UNL     1      -7.871   4.466  71.665  1.00  0.00    -0.080 C  
HETATM   13  H2  UNL     1      -9.088   5.513  68.668  1.00  0.00     0.000 HD 
HETATM   14  O   UNL     1      -6.934   4.990  72.616  1.00  0.00    -0.074 OA 
HETATM   15  C   UNL     1      -9.157   3.971  72.369  1.00  0.00    -0.114 C  
HETATM   16  H1  UNL     1      -8.216   4.106  69.003  1.00  0.00     0.000 HD 
HETATM   17  H   UNL     1      -6.748   4.355  73.297  1.00  0.00     0.000 HD 
BRANCH   7  18
HETATM   18  O   UNL     1      -9.385   7.551  70.095  1.00  0.00    -0.158 OA 
BRANCH  18  19
HETATM   19  C   UNL     1      -8.219   8.086  69.443  1.00  0.00    -0.122 C  
HETATM   20  O   UNL     1      -9.279   7.601  67.260  1.00  0.00    -0.127 OA 
HETATM   21  C   UNL     1      -7.911   9.414  70.132  1.00  0.00    -0.150 C  
HETATM   22  C   UNL     1      -9.002   9.918  68.135  1.00  0.00    -0.118 C  
HETATM   23  H   UNL     1      -9.417   7.856  66.355  1.00  0.00     0.000 HD 
HETATM   24  O   UNL     1      -8.588  10.444  69.397  1.00  0.00    -0.165 OA 
HETATM   25  C   UNL     1      -8.440   8.493  67.996  1.00  0.00    -0.131 C  
BRANCH  21  26
HETATM   26  C   UNL     1      -6.421   9.756  70.180  1.00  0.00    -0.083 C  
HETATM   27  H   UNL     1      -5.271  11.154  70.970  1.00  0.00     0.000 HD 
HETATM   28  O   UNL     1      -6.196  10.941  70.940  1.00  0.00    -0.352 OA 
ENDBRANCH  21  26
BRANCH  22  29
HETATM   29  O   UNL     1      -8.497  10.712  67.066  1.00  0.00    -0.127 OA 
BRANCH  29  30
HETATM   30  C   UNL     1      -9.431  11.252  66.111  1.00  0.00    -0.208 C  
HETATM   31  C   UNL     1      -9.184  10.642  64.717  1.00  0.00    -0.220 C  
HETATM   32  O   UNL     1      -9.056   9.216  64.814  1.00  0.00    -0.377 OA 
HETATM   33  C   UNL     1     -10.333  10.993  63.765  1.00  0.00    -0.364 C  
HETATM   34  C   UNL     1     -10.400  12.511  63.598  1.00  0.00    -0.382 C  
HETATM   35  N   UNL     1     -10.156  10.336  62.455  1.00  0.00    -0.645 NA 
HETATM   36  H   UNL     1      -8.904   8.840  63.955  1.00  0.00     0.000 HD 
HETATM   37  H1  UNL     1     -10.919  10.569  61.821  1.00  0.00     0.000 HD 
HETATM   38  H2  UNL     1     -10.044   9.327  62.553  1.00  0.00     0.000 HD 
HETATM   39  C   UNL     1     -10.561  13.232  64.948  1.00  0.00    -0.366 C  
HETATM   40  C   UNL     1      -9.514  12.801  66.042  1.00  0.00    -0.120 C  
HETATM   41  N   UNL     1     -10.521  14.689  64.707  1.00  0.00    -0.543 NA 
HETATM   42  H2  UNL     1     -11.208  14.991  64.016  1.00  0.00     0.000 HD 
HETATM   43  H1  UNL     1     -10.629  15.167  65.601  1.00  0.00     0.000 HD 
BRANCH  40  44
HETATM   44  O   UNL     1      -9.929  13.431  67.277  1.00  0.00    -0.227 OA 
BRANCH  44  45
HETATM   45  C   UNL     1     -11.327  13.739  67.375  1.00  0.00    -0.324 C  
HETATM   46  O   UNL     1     -12.045  12.726  68.071  1.00  0.00    -0.302 OA 
HETATM   47  C   UNL     1     -11.742  12.606  69.460  1.00  0.00    -0.308 C  
HETATM   48  C   UNL     1     -12.063  13.920  70.178  1.00  0.00    -0.349 C  
HETATM   49  H1  UNL     1     -11.004  17.149  67.786  1.00  0.00     0.000 HD 
HETATM   50  H2  UNL     1     -11.042  16.261  66.365  1.00  0.00     0.000 HD 
HETATM   51  O   UNL     1     -11.748  13.870  71.571  1.00  0.00    -0.268 OA 
HETATM   52  C   UNL     1     -11.286  15.069  69.523  1.00  0.00    -0.276 C  
HETATM   53  H   UNL     1     -11.948  14.685  72.016  1.00  0.00     0.000 HD 
HETATM   54  O   UNL     1     -11.662  16.315  70.136  1.00  0.00    -0.378 OA 
HETATM   55  N   UNL     1     -10.840  16.235  67.365  1.00  0.00    -0.286 NA 
HETATM   56  C   UNL     1     -11.577  15.128  68.015  1.00  0.00    -0.328 C  
HETATM   57  H   UNL     1     -11.180  17.027  69.731  1.00  0.00     0.000 HD 
BRANCH  47  58
HETATM   58  C   UNL     1     -12.581  11.443  70.008  1.00  0.00    -0.059 C  
HETATM   59  O   UNL     1     -12.389  10.273  69.209  1.00  0.00    -0.617 OA 
HETATM   60  H   UNL     1     -12.908   9.554  69.548  1.00  0.00     0.000 HD 
ENDBRANCH  47  58
ENDBRANCH  44  45
ENDBRANCH  40  44
ENDBRANCH  29  30
ENDBRANCH  22  29
ENDBRANCH  18  19
ENDBRANCH   7  18
ENDBRANCH   2   5
TORSDOF 9
ENDMDL
MODEL       46
REMARK 921   NORMALIZED FREE ENERGY PREDICTED BY IDOCK:   -6.79 KCAL/MOL
REMARK 922        TOTAL FREE ENERGY PREDICTED BY IDOCK:  -12.40 KCAL/MOL
REMARK 923 INTER-LIGAND FREE ENERGY PREDICTED BY IDOCK:  -10.83 KCAL/MOL
REMARK 924 INTRA-LIGAND FREE ENERGY PREDICTED BY IDOCK:   -1.57 KCAL/MOL
REMARK 927      BINDING AFFINITY PREDICTED BY RF-SCORE:    0.00 PKD
ROOT
HETATM    1  N   UNL     1      -8.129   8.657  74.040  1.00  0.00    -0.366 NA 
HETATM    2  C   UNL     1      -9.141   7.588  73.916  1.00  0.00    -0.264 C  
HETATM    3  H1  UNL     1      -7.838   8.747  75.014  1.00  0.00     0.000 HD 
HETATM    4  H2  UNL     1      -8.459   9.542  73.655  1.00  0.00     0.000 HD 
ENDROOT
BRANCH   2   5
HETATM    5  C   UNL     1      -9.580   7.452  72.448  1.00  0.00    -0.153 C  
HETATM    6  O   UNL     1      -9.323   8.716  71.810  1.00  0.00    -0.226 OA 
HETATM    7  C   UNL     1      -9.502   8.650  70.397  1.00  0.00    -0.170 C  
HETATM    8  C   UNL     1     -11.010   8.409  70.096  1.00  0.00    -0.215 C  
HETATM    9  O   UNL     1     -11.874   7.977  73.058  1.00  0.00    -0.587 OA 
HETATM   10  H   UNL     1     -12.790   7.744  72.960  1.00  0.00     0.000 HD 
HETATM   11  N   UNL     1     -11.835   9.564  70.559  1.00  0.00    -0.410 NA 
HETATM   12  C   UNL     1     -11.462   7.105  70.793  1.00  0.00    -0.305 C  
HETATM   13  H2  UNL     1     -11.508  10.445  70.163  1.00  0.00     0.000 HD 
HETATM   14  O   UNL     1     -10.959   5.951  70.105  1.00  0.00    -0.326 OA 
HETATM   15  C   UNL     1     -11.068   7.074  72.289  1.00  0.00    -0.252 C  
HETATM   16  H1  UNL     1     -12.824   9.406  70.362  1.00  0.00     0.000 HD 
HETATM   17  H   UNL     1     -11.237   5.150  70.533  1.00  0.00     0.000 HD 
BRANCH   7  18
HETATM   18  O   UNL     1      -9.101   9.871  69.769  1.00  0.00    -0.212 OA 
BRANCH  18  19
HETATM   19  C   UNL     1      -8.717   9.720  68.390  1.00  0.00    -0.120 C  
HETATM   20  O   UNL     1     -10.974  10.491  67.730  1.00  0.00    -0.271 OA 
HETATM   21  C   UNL     1      -7.351  10.388  68.248  1.00  0.00    -0.088 C  
HETATM   22  C   UNL     1      -8.933  11.889  67.426  1.00  0.00    -0.173 C  
HETATM   23  H   UNL     1     -11.514  10.976  67.117  1.00  0.00     0.000 HD 
HETATM   24  O   UNL     1      -7.579  11.751  67.860  1.00  0.00    -0.107 OA 
HETATM   25  C   UNL     1      -9.581  10.494  67.409  1.00  0.00    -0.158 C  
BRANCH  21  26
HETATM   26  C   UNL     1      -6.448   9.734  67.200  1.00  0.00    -0.069 C  
HETATM   27  H   UNL     1      -5.278  10.313  65.717  1.00  0.00     0.000 HD 
HETATM   28  O   UNL     1      -5.839  10.719  66.367  1.00  0.00    -0.081 OA 
ENDBRANCH  21  26
BRANCH  22  29
HETATM   29  O   UNL     1      -8.989  12.432  66.111  1.00  0.00    -0.112 OA 
BRANCH  29  30
HETATM   30  C   UNL     1     -10.167  13.164  65.719  1.00  0.00    -0.289 C  
HETATM   31  C   UNL     1     -11.032  12.315  64.767  1.00  0.00    -0.303 C  
HETATM   32  O   UNL     1     -11.196  10.990  65.291  1.00  0.00    -0.023 OA 
HETATM   33  C   UNL     1     -12.406  12.964  64.566  1.00  0.00    -0.417 C  
HETATM   34  C   UNL     1     -12.222  14.338  63.921  1.00  0.00    -0.233 C  
HETATM   35  N   UNL     1     -13.278  12.114  63.732  1.00  0.00    -0.683 NA 
HETATM   36  H   UNL     1     -11.729  10.468  64.704  1.00  0.00     0.000 HD 
HETATM   37  H1  UNL     1     -14.192  12.545  63.597  1.00  0.00     0.000 HD 
HETATM   38  H2  UNL     1     -13.359  11.172  64.113  1.00  0.00     0.000 HD 
HETATM   39  C   UNL     1     -11.299  15.246  64.753  1.00  0.00    -0.391 C  
HETATM   40  C   UNL     1      -9.924  14.586  65.145  1.00  0.00    -0.233 C  
HETATM   41  N   UNL     1     -11.100  16.511  64.016  1.00  0.00    -1.245 NA 
HETATM   42  H2  UNL     1     -11.980  16.965  63.771  1.00  0.00     0.000 HD 
HETATM   43  H1  UNL     1     -10.488  17.112  64.567  1.00  0.00     0.000 HD 
BRANCH  40  44
HETATM   44  O   UNL     1      -9.280  15.498  66.065  1.00  0.00    -0.326 OA 
BRANCH  44  45
HETATM   45  C   UNL     1      -9.893  15.609  67.358  1.00  0.00    -0.225 C  
HETATM   46  O   UNL     1      -9.162  14.901  68.353  1.00  0.00    -0.177 OA 
HETATM   47  C   UNL     1      -7.877  15.437  68.665  1.00  0.00    -0.142 C  
HETATM   48  C   UNL     1      -8.024  16.869  69.188  1.00  0.00    -0.102 C  
HETATM   49  H1  UNL     1     -10.978  18.871  67.058  1.00  0.00     0.000 HD 
HETATM   50  H2  UNL     1     -11.728  17.462  66.545  1.00  0.00     0.000 HD 
HETATM   51  O   UNL     1      -6.763  17.471  69.488  1.00  0.00    -0.223 OA 
HETATM   52  C   UNL     1      -8.760  17.725  68.149  1.00  0.00    -0.266 C  
HETATM   53  H   UNL     1      -6.854  18.359  69.813  1.00  0.00     0.000 HD 
HETATM   54  O   UNL     1      -8.981  19.043  68.681  1.00  0.00    -0.352 OA 
HETATM   55  N   UNL     1     -10.837  17.899  66.781  1.00  0.00    -0.128 NA 
HETATM   56  C   UNL     1     -10.107  17.085  67.779  1.00  0.00    -0.302 C  
HETATM   57  H   UNL     1      -9.437  19.573  68.038  1.00  0.00     0.000 HD 
BRANCH  47  58
HETATM   58  C   UNL     1      -7.244  14.514  69.717  1.00  0.00    -0.005 C  
HETATM   59  O   UNL     1      -5.820  14.514  69.584  1.00  0.00    -0.095 OA 
HETATM   60  H   UNL     1      -5.429  13.943  70.234  1.00  0.00     0.000 HD 
ENDBRANCH  47  58
ENDBRANCH  44  45
ENDBRANCH  40  44
ENDBRANCH  29  30
ENDBRANCH  22  29
ENDBRANCH  18  19
ENDBRANCH   7  18
ENDBRANCH   2   5
TORSDOF 9
ENDMDL
MODEL       47
REMARK 921   NORMALIZED FREE ENERGY PREDICTED BY IDOCK:   -6.78 KCAL/MOL
REMARK 922        TOTAL FREE ENERGY PREDICTED BY IDOCK:  -12.40 KCAL/MOL
REMARK 923 INTER-LIGAND FREE ENERGY PREDICTED BY IDOCK:  -10.20 KCAL/MOL
REMARK 924 INTRA-LIGAND FREE ENERGY PREDICTED BY IDOCK:   -2.19 KCAL/MOL
REMARK 927      BINDING AFFINITY PREDICTED BY RF-SCORE:    0.00 PKD
ROOT
HETATM    1  N   UNL     1     -11.568  12.962  66.217  1.00  0.00    -0.352 NA 
HETATM    2  C   UNL     1     -10.873  13.941  65.356  1.00  0.00    -0.319 C  
HETATM    3  H1  UNL     1     -12.398  12.610  65.742  1.00  0.00     0.000 HD 
HETATM    4  H2  UNL     1     -11.786  13.347  67.136  1.00  0.00     0.000 HD 
ENDROOT
BRANCH   2   5
HETATM    5  C   UNL     1      -9.620  14.471  66.073  1.00  0.00    -0.275 C  
HETATM    6  O   UNL     1      -9.356  13.585  67.176  1.00  0.00    -0.222 OA 
HETATM    7  C   UNL     1      -8.101  13.859  67.796  1.00  0.00    -0.172 C  
HETATM    8  C   UNL     1      -8.178  15.254  68.481  1.00  0.00    -0.146 C  
HETATM    9  O   UNL     1     -10.980  16.023  67.360  1.00  0.00    -0.315 OA 
HETATM   10  H   UNL     1     -11.077  16.914  67.675  1.00  0.00     0.000 HD 
HETATM   11  N   UNL     1      -9.185  15.250  69.583  1.00  0.00    -0.425 NA 
HETATM   12  C   UNL     1      -8.538  16.320  67.420  1.00  0.00    -0.178 C  
HETATM   13  H2  UNL     1      -9.002  14.508  70.259  1.00  0.00     0.000 HD 
HETATM   14  O   UNL     1      -7.417  16.602  66.571  1.00  0.00    -0.252 OA 
HETATM   15  C   UNL     1      -9.778  15.918  66.585  1.00  0.00    -0.253 C  
HETATM   16  H1  UNL     1      -9.235  16.165  70.032  1.00  0.00     0.000 HD 
HETATM   17  H   UNL     1      -7.638  17.256  65.919  1.00  0.00     0.000 HD 
BRANCH   7  18
HETATM   18  O   UNL     1      -7.792  12.878  68.790  1.00  0.00    -0.076 OA 
BRANCH  18  19
HETATM   19  C   UNL     1      -6.750  11.964  68.404  1.00  0.00    -0.067 C  
HETATM   20  O   UNL     1      -6.902  10.926  70.646  1.00  0.00    -0.472 OA 
HETATM   21  C   UNL     1      -7.134  11.428  67.027  1.00  0.00    -0.138 C  
HETATM   22  C   UNL     1      -7.711   9.790  68.581  1.00  0.00    -0.080 C  
HETATM   23  H   UNL     1      -6.854  10.139  71.176  1.00  0.00     0.000 HD 
HETATM   24  O   UNL     1      -7.886  10.222  67.231  1.00  0.00    -0.102 OA 
HETATM   25  C   UNL     1      -6.674  10.705  69.252  1.00  0.00    -0.075 C  
BRANCH  21  26
HETATM   26  C   UNL     1      -5.937  11.103  66.132  1.00  0.00    -0.103 C  
HETATM   27  H   UNL     1      -5.519   9.871  64.645  1.00  0.00     0.000 HD 
HETATM   28  O   UNL     1      -6.262  10.073  65.201  1.00  0.00    -0.092 OA 
ENDBRANCH  21  26
BRANCH  22  29
HETATM   29  O   UNL     1      -7.230   8.450  68.624  1.00  0.00    -0.077 OA 
BRANCH  29  30
HETATM   30  C   UNL     1      -8.159   7.379  68.366  1.00  0.00    -0.125 C  
HETATM   31  C   UNL     1      -8.419   7.250  66.852  1.00  0.00    -0.119 C  
HETATM   32  O   UNL     1      -7.180   7.265  66.131  1.00  0.00    -0.071 OA 
HETATM   33  C   UNL     1      -9.179   5.954  66.545  1.00  0.00    -0.145 C  
HETATM   34  C   UNL     1     -10.537   5.992  67.245  1.00  0.00    -0.367 C  
HETATM   35  N   UNL     1      -9.351   5.772  65.091  1.00  0.00    -0.344 NA 
HETATM   36  H   UNL     1      -7.340   7.186  65.199  1.00  0.00     0.000 HD 
HETATM   37  H1  UNL     1      -9.856   4.911  64.886  1.00  0.00     0.000 HD 
HETATM   38  H2  UNL     1      -8.458   5.810  64.600  1.00  0.00     0.000 HD 
HETATM   39  C   UNL     1     -10.398   6.204  68.763  1.00  0.00    -0.209 C  
HETATM   40  C   UNL     1      -9.489   7.426  69.166  1.00  0.00    -0.149 C  
HETATM   41  N   UNL     1     -11.751   6.323  69.345  1.00  0.00    -0.450 NA 
HETATM   42  H2  UNL     1     -12.348   5.529  69.113  1.00  0.00     0.000 HD 
HETATM   43  H1  UNL     1     -11.658   6.463  70.350  1.00  0.00     0.000 HD 
BRANCH  40  44
HETATM   44  O   UNL     1      -9.325   7.357  70.601  1.00  0.00    -0.160 OA 
BRANCH  44  45
HETATM   45  C   UNL     1      -9.421   8.609  71.296  1.00  0.00    -0.224 C  
HETATM   46  O   UNL     1      -9.806   9.669  70.428  1.00  0.00    -0.248 OA 
HETATM   47  C   UNL     1     -11.137   9.590  69.920  1.00  0.00    -0.216 C  
HETATM   48  C   UNL     1     -12.138   9.608  71.078  1.00  0.00    -0.337 C  
HETATM   49  H1  UNL     1     -10.675   7.375  74.264  1.00  0.00     0.000 HD 
HETATM   50  H2  UNL     1      -9.079   7.488  73.764  1.00  0.00     0.000 HD 
HETATM   51  O   UNL     1     -13.491   9.498  70.631  1.00  0.00    -0.583 OA 
HETATM   52  C   UNL     1     -11.829   8.458  72.046  1.00  0.00    -0.353 C  
HETATM   53  H   UNL     1     -14.112   9.510  71.350  1.00  0.00     0.000 HD 
HETATM   54  O   UNL     1     -12.709   8.534  73.181  1.00  0.00    -0.637 OA 
HETATM   55  N   UNL     1     -10.051   7.429  73.459  1.00  0.00    -0.327 NA 
HETATM   56  C   UNL     1     -10.368   8.528  72.519  1.00  0.00    -0.244 C  
HETATM   57  H   UNL     1     -12.517   7.822  73.780  1.00  0.00     0.000 HD 
BRANCH  47  58
HETATM   58  C   UNL     1     -11.337  10.789  68.983  1.00  0.00    -0.284 C  
HETATM   59  O   UNL     1     -10.329  11.776  69.219  1.00  0.00    -0.421 OA 
HETATM   60  H   UNL     1     -10.453  12.518  68.640  1.00  0.00     0.000 HD 
ENDBRANCH  47  58
ENDBRANCH  44  45
ENDBRANCH  40  44
ENDBRANCH  29  30
ENDBRANCH  22  29
ENDBRANCH  18  19
ENDBRANCH   7  18
ENDBRANCH   2   5
TORSDOF 9
ENDMDL
MODEL       48
REMARK 921   NORMALIZED FREE ENERGY PREDICTED BY IDOCK:   -6.75 KCAL/MOL
REMARK 922        TOTAL FREE ENERGY PREDICTED BY IDOCK:  -12.35 KCAL/MOL
REMARK 923 INTER-LIGAND FREE ENERGY PREDICTED BY IDOCK:   -9.82 KCAL/MOL
REMARK 924 INTRA-LIGAND FREE ENERGY PREDICTED BY IDOCK:   -2.53 KCAL/MOL
REMARK 927      BINDING AFFINITY PREDICTED BY RF-SCORE:    0.00 PKD
ROOT
HETATM    1  N   UNL     1     -12.542  15.602  70.042  1.00  0.00    -0.554 NA 
HETATM    2  C   UNL     1     -11.218  16.234  69.870  1.00  0.00    -0.317 C  
HETATM    3  H1  UNL     1     -12.751  15.502  71.035  1.00  0.00     0.000 HD 
HETATM    4  H2  UNL     1     -12.610  14.714  69.544  1.00  0.00     0.000 HD 
ENDROOT
BRANCH   2   5
HETATM    5  C   UNL     1     -10.902  16.386  68.372  1.00  0.00    -0.342 C  
HETATM    6  O   UNL     1     -10.080  15.265  67.997  1.00  0.00    -0.226 OA 
HETATM    7  C   UNL     1      -9.890  15.188  66.586  1.00  0.00    -0.252 C  
HETATM    8  C   UNL     1      -9.041  16.410  66.130  1.00  0.00    -0.326 C  
HETATM    9  O   UNL     1      -9.039  17.861  68.886  1.00  0.00    -0.238 OA 
HETATM   10  H   UNL     1      -8.594  18.674  68.677  1.00  0.00     0.000 HD 
HETATM   11  N   UNL     1      -7.674  16.361  66.730  1.00  0.00    -0.236 NA 
HETATM   12  C   UNL     1      -9.767  17.712  66.540  1.00  0.00    -0.304 C  
HETATM   13  H2  UNL     1      -7.205  15.478  66.526  1.00  0.00     0.000 HD 
HETATM   14  O   UNL     1     -10.899  17.959  65.695  1.00  0.00    -0.397 OA 
HETATM   15  C   UNL     1     -10.180  17.706  68.032  1.00  0.00    -0.362 C  
HETATM   16  H1  UNL     1      -7.118  17.162  66.431  1.00  0.00     0.000 HD 
HETATM   17  H   UNL     1     -11.346  18.759  65.947  1.00  0.00     0.000 HD 
BRANCH   7  18
HETATM   18  O   UNL     1      -9.198  13.990  66.223  1.00  0.00    -0.214 OA 
BRANCH  18  19
HETATM   19  C   UNL     1     -10.035  12.996  65.606  1.00  0.00    -0.230 C  
HETATM   20  O   UNL     1      -8.311  11.297  66.127  1.00  0.00    -0.216 OA 
HETATM   21  C   UNL     1     -11.438  13.202  66.171  1.00  0.00    -0.330 C  
HETATM   22  C   UNL     1     -10.499  11.402  67.315  1.00  0.00    -0.206 C  
HETATM   23  H   UNL     1      -8.109  10.403  66.378  1.00  0.00     0.000 HD 
HETATM   24  O   UNL     1     -11.565  12.353  67.321  1.00  0.00    -0.330 OA 
HETATM   25  C   UNL     1      -9.710  11.566  66.006  1.00  0.00    -0.226 C  
BRANCH  21  26
HETATM   26  C   UNL     1     -12.559  12.854  65.189  1.00  0.00    -0.471 C  
HETATM   27  H   UNL     1     -13.110  13.367  63.364  1.00  0.00     0.000 HD 
HETATM   28  O   UNL     1     -12.415  13.583  63.973  1.00  0.00    -0.645 OA 
ENDBRANCH  21  26
BRANCH  22  29
HETATM   29  O   UNL     1     -11.008  10.073  67.376  1.00  0.00    -0.283 OA 
BRANCH  29  30
HETATM   30  C   UNL     1     -10.953   9.373  68.635  1.00  0.00    -0.032 C  
HETATM   31  C   UNL     1     -11.632  10.207  69.740  1.00  0.00    -0.182 C  
HETATM   32  O   UNL     1     -12.903  10.694  69.286  1.00  0.00    -0.630 OA 
HETATM   33  C   UNL     1     -11.825   9.365  71.007  1.00  0.00    -0.322 C  
HETATM   34  C   UNL     1     -10.457   8.930  71.532  1.00  0.00    -0.393 C  
HETATM   35  N   UNL     1     -12.559  10.122  72.039  1.00  0.00    -0.334 NA 
HETATM   36  H   UNL     1     -13.321  11.207  69.966  1.00  0.00     0.000 HD 
HETATM   37  H1  UNL     1     -12.687   9.563  72.882  1.00  0.00     0.000 HD 
HETATM   38  H2  UNL     1     -13.447  10.476  71.685  1.00  0.00     0.000 HD 
HETATM   39  C   UNL     1      -9.652   8.157  70.473  1.00  0.00    -0.170 C  
HETATM   40  C   UNL     1      -9.548   8.884  69.080  1.00  0.00    -0.158 C  
HETATM   41  N   UNL     1      -8.315   7.859  71.028  1.00  0.00    -0.108 NA 
HETATM   42  H2  UNL     1      -8.361   7.369  71.920  1.00  0.00     0.000 HD 
HETATM   43  H1  UNL     1      -7.782   7.347  70.325  1.00  0.00     0.000 HD 
BRANCH  40  44
HETATM   44  O   UNL     1      -8.929   7.943  68.172  1.00  0.00    -0.132 OA 
BRANCH  44  45
HETATM   45  C   UNL     1      -7.636   8.319  67.677  1.00  0.00    -0.098 C  
HETATM   46  O   UNL     1      -6.590   7.857  68.524  1.00  0.00    -0.057 OA 
HETATM   47  C   UNL     1      -6.414   6.441  68.563  1.00  0.00    -0.049 C  
HETATM   48  C   UNL     1      -6.084   5.919  67.163  1.00  0.00    -0.022 C  
HETATM   49  H1  UNL     1      -8.325   7.956  64.315  1.00  0.00     0.000 HD 
HETATM   50  H2  UNL     1      -8.606   9.276  65.309  1.00  0.00     0.000 HD 
HETATM   51  O   UNL     1      -5.929   4.499  67.134  1.00  0.00    -0.022 OA 
HETATM   52  C   UNL     1      -7.194   6.328  66.185  1.00  0.00    -0.075 C  
HETATM   53  H   UNL     1      -5.724   4.175  66.264  1.00  0.00     0.000 HD 
HETATM   54  O   UNL     1      -6.836   5.919  64.853  1.00  0.00    -0.046 OA 
HETATM   55  N   UNL     1      -8.474   8.265  65.276  1.00  0.00    -0.172 NA 
HETATM   56  C   UNL     1      -7.409   7.849  66.218  1.00  0.00    -0.075 C  
HETATM   57  H   UNL     1      -7.523   6.172  64.248  1.00  0.00     0.000 HD 
BRANCH  47  58
HETATM   58  C   UNL     1      -5.279   6.153  69.555  1.00  0.00    -0.012 C  
HETATM   59  O   UNL     1      -5.662   6.544  70.876  1.00  0.00    -0.025 OA 
HETATM   60  H   UNL     1      -4.960   6.366  71.490  1.00  0.00     0.000 HD 
ENDBRANCH  47  58
ENDBRANCH  44  45
ENDBRANCH  40  44
ENDBRANCH  29  30
ENDBRANCH  22  29
ENDBRANCH  18  19
ENDBRANCH   7  18
ENDBRANCH   2   5
TORSDOF 9
ENDMDL
MODEL       49
REMARK 921   NORMALIZED FREE ENERGY PREDICTED BY IDOCK:   -6.74 KCAL/MOL
REMARK 922        TOTAL FREE ENERGY PREDICTED BY IDOCK:  -12.34 KCAL/MOL
REMARK 923 INTER-LIGAND FREE ENERGY PREDICTED BY IDOCK:  -10.23 KCAL/MOL
REMARK 924 INTRA-LIGAND FREE ENERGY PREDICTED BY IDOCK:   -2.11 KCAL/MOL
REMARK 927      BINDING AFFINITY PREDICTED BY RF-SCORE:    0.00 PKD
ROOT
HETATM    1  N   UNL     1     -10.275  17.480  65.789  1.00  0.00    -0.602 NA 
HETATM    2  C   UNL     1      -9.753  16.292  66.495  1.00  0.00    -0.263 C  
HETATM    3  H1  UNL     1      -9.567  18.213  65.774  1.00  0.00     0.000 HD 
HETATM    4  H2  UNL     1     -11.156  17.806  66.187  1.00  0.00     0.000 HD 
ENDROOT
BRANCH   2   5
HETATM    5  C   UNL     1     -10.822  15.186  66.517  1.00  0.00    -0.317 C  
HETATM    6  O   UNL     1     -10.226  14.034  67.142  1.00  0.00    -0.254 OA 
HETATM    7  C   UNL     1     -11.184  13.010  67.401  1.00  0.00    -0.288 C  
HETATM    8  C   UNL     1     -11.691  12.445  66.043  1.00  0.00    -0.410 C  
HETATM    9  O   UNL     1     -10.233  14.534  64.250  1.00  0.00    -0.465 OA 
HETATM   10  H   UNL     1     -10.554  14.305  63.386  1.00  0.00     0.000 HD 
HETATM   11  N   UNL     1     -10.580  11.785  65.294  1.00  0.00    -0.269 NA 
HETATM   12  C   UNL     1     -12.297  13.599  65.211  1.00  0.00    -0.465 C  
HETATM   13  H2  UNL     1     -10.122  11.066  65.854  1.00  0.00     0.000 HD 
HETATM   14  O   UNL     1     -13.577  13.990  65.727  1.00  0.00    -0.576 OA 
HETATM   15  C   UNL     1     -11.343  14.814  65.113  1.00  0.00    -0.379 C  
HETATM   16  H1  UNL     1     -10.912  11.415  64.403  1.00  0.00     0.000 HD 
HETATM   17  H   UNL     1     -13.949  14.699  65.215  1.00  0.00     0.000 HD 
BRANCH   7  18
HETATM   18  O   UNL     1     -10.604  11.940  68.153  1.00  0.00    -0.194 OA 
BRANCH  18  19
HETATM   19  C   UNL     1     -11.548  10.934  68.562  1.00  0.00    -0.290 C  
HETATM   20  O   UNL     1     -10.495   9.367  66.961  1.00  0.00    -0.251 OA 
HETATM   21  C   UNL     1     -11.555  10.947  70.089  1.00  0.00    -0.338 C  
HETATM   22  C   UNL     1     -10.236   9.142  69.429  1.00  0.00    -0.210 C  
HETATM   23  H   UNL     1     -10.234   8.477  66.755  1.00  0.00     0.000 HD 
HETATM   24  O   UNL     1     -10.590   9.980  70.530  1.00  0.00    -0.292 OA 
HETATM   25  C   UNL     1     -11.130   9.510  68.234  1.00  0.00     0.009 C  
BRANCH  21  26
HETATM   26  C   UNL     1     -12.909  10.589  70.705  1.00  0.00    -0.367 C  
HETATM   27  H   UNL     1     -14.004  11.154  72.249  1.00  0.00     0.000 HD 
HETATM   28  O   UNL     1     -13.164  11.376  71.867  1.00  0.00    -0.484 OA 
ENDBRANCH  21  26
BRANCH  22  29
HETATM   29  O   UNL     1     -10.446   7.771  69.750  1.00  0.00    -0.223 OA 
BRANCH  29  30
HETATM   30  C   UNL     1      -9.306   6.967  70.110  1.00  0.00    -0.162 C  
HETATM   31  C   UNL     1      -9.519   6.328  71.496  1.00  0.00    -0.151 C  
HETATM   32  O   UNL     1     -10.822   5.735  71.576  1.00  0.00    -0.251 OA 
HETATM   33  C   UNL     1      -8.450   5.263  71.768  1.00  0.00    -0.126 C  
HETATM   34  C   UNL     1      -7.073   5.925  71.772  1.00  0.00    -0.085 C  
HETATM   35  N   UNL     1      -8.699   4.577  73.051  1.00  0.00    -0.111 NA 
HETATM   36  H   UNL     1     -10.954   5.341  72.430  1.00  0.00     0.000 HD 
HETATM   37  H1  UNL     1      -7.988   3.869  73.232  1.00  0.00     0.000 HD 
HETATM   38  H2  UNL     1      -9.639   4.184  73.091  1.00  0.00     0.000 HD 
HETATM   39  C   UNL     1      -6.787   6.671  70.457  1.00  0.00    -0.062 C  
HETATM   40  C   UNL     1      -7.923   7.670  70.019  1.00  0.00    -0.114 C  
HETATM   41  N   UNL     1      -5.484   7.357  70.582  1.00  0.00    -0.024 NA 
HETATM   42  H2  UNL     1      -4.731   6.722  70.844  1.00  0.00     0.000 HD 
HETATM   43  H1  UNL     1      -5.296   7.851  69.710  1.00  0.00     0.000 HD 
BRANCH  40  44
HETATM   44  O   UNL     1      -7.575   8.129  68.692  1.00  0.00    -0.098 OA 
BRANCH  44  45
HETATM   45  C   UNL     1      -6.421   8.978  68.614  1.00  0.00    -0.054 C  
HETATM   46  O   UNL     1      -6.025   9.212  67.267  1.00  0.00    -0.049 OA 
HETATM   47  C   UNL     1      -6.932   9.992  66.490  1.00  0.00    -0.095 C  
HETATM   48  C   UNL     1      -7.105  11.374  67.125  1.00  0.00    -0.134 C  
HETATM   49  H1  UNL     1      -7.206  11.041  71.266  1.00  0.00     0.000 HD 
HETATM   50  H2  UNL     1      -6.425   9.557  71.284  1.00  0.00     0.000 HD 
HETATM   51  O   UNL     1      -8.031  12.192  66.405  1.00  0.00    -0.386 OA 
HETATM   52  C   UNL     1      -7.585  11.220  68.574  1.00  0.00    -0.123 C  
HETATM   53  H   UNL     1      -8.138  13.050  66.799  1.00  0.00     0.000 HD 
HETATM   54  O   UNL     1      -7.655  12.515  69.198  1.00  0.00    -0.325 OA 
HETATM   55  N   UNL     1      -7.070  10.160  70.771  1.00  0.00    -0.305 NA 
HETATM   56  C   UNL     1      -6.627  10.317  69.366  1.00  0.00    -0.058 C  
HETATM   57  H   UNL     1      -7.952  12.419  70.095  1.00  0.00     0.000 HD 
BRANCH  47  58
HETATM   58  C   UNL     1      -6.347  10.090  65.074  1.00  0.00    -0.116 C  
HETATM   59  O   UNL     1      -5.404  11.163  65.000  1.00  0.00    -0.470 OA 
HETATM   60  H   UNL     1      -5.042  11.224  64.125  1.00  0.00     0.000 HD 
ENDBRANCH  47  58
ENDBRANCH  44  45
ENDBRANCH  40  44
ENDBRANCH  29  30
ENDBRANCH  22  29
ENDBRANCH  18  19
ENDBRANCH   7  18
ENDBRANCH   2   5
TORSDOF 9
ENDMDL
MODEL       50
REMARK 921   NORMALIZED FREE ENERGY PREDICTED BY IDOCK:   -6.72 KCAL/MOL
REMARK 922        TOTAL FREE ENERGY PREDICTED BY IDOCK:  -12.31 KCAL/MOL
REMARK 923 INTER-LIGAND FREE ENERGY PREDICTED BY IDOCK:  -10.34 KCAL/MOL
REMARK 924 INTRA-LIGAND FREE ENERGY PREDICTED BY IDOCK:   -1.97 KCAL/MOL
REMARK 927      BINDING AFFINITY PREDICTED BY RF-SCORE:    0.00 PKD
ROOT
HETATM    1  N   UNL     1     -10.843  15.301  70.832  1.00  0.00    -0.520 NA 
HETATM    2  C   UNL     1     -11.911  15.164  69.821  1.00  0.00    -0.333 C  
HETATM    3  H1  UNL     1     -11.254  15.362  71.764  1.00  0.00     0.000 HD 
HETATM    4  H2  UNL     1     -10.225  16.088  70.633  1.00  0.00     0.000 HD 
ENDROOT
BRANCH   2   5
HETATM    5  C   UNL     1     -11.291  15.070  68.416  1.00  0.00    -0.309 C  
HETATM    6  O   UNL     1     -10.096  14.276  68.532  1.00  0.00    -0.235 OA 
HETATM    7  C   UNL     1      -9.543  13.952  67.259  1.00  0.00    -0.243 C  
HETATM    8  C   UNL     1      -9.028  15.259  66.590  1.00  0.00    -0.291 C  
HETATM    9  O   UNL     1     -10.168  17.203  68.741  1.00  0.00    -0.294 OA 
HETATM   10  H   UNL     1      -9.960  18.051  68.366  1.00  0.00     0.000 HD 
HETATM   11  N   UNL     1      -7.910  15.855  67.381  1.00  0.00    -0.153 NA 
HETATM   12  C   UNL     1     -10.200  16.260  66.467  1.00  0.00    -0.300 C  
HETATM   13  H2  UNL     1      -7.155  15.186  67.531  1.00  0.00     0.000 HD 
HETATM   14  O   UNL     1     -11.102  15.872  65.422  1.00  0.00    -0.285 OA 
HETATM   15  C   UNL     1     -10.952  16.447  67.807  1.00  0.00    -0.261 C  
HETATM   16  H1  UNL     1      -7.573  16.713  66.943  1.00  0.00     0.000 HD 
HETATM   17  H   UNL     1     -11.823  16.487  65.347  1.00  0.00     0.000 HD 
BRANCH   7  18
HETATM   18  O   UNL     1      -8.446  13.043  67.389  1.00  0.00    -0.180 OA 
BRANCH  18  19
HETATM   19  C   UNL     1      -8.646  11.785  66.719  1.00  0.00    -0.185 C  
HETATM   20  O   UNL     1      -7.605  10.647  68.655  1.00  0.00    -0.089 OA 
HETATM   21  C   UNL     1     -10.088  11.788  66.218  1.00  0.00    -0.217 C  
HETATM   22  C   UNL     1     -10.044  10.506  68.164  1.00  0.00    -0.158 C  
HETATM   23  H   UNL     1      -7.578   9.889  69.227  1.00  0.00     0.000 HD 
HETATM   24  O   UNL     1     -10.896  11.181  67.237  1.00  0.00    -0.242 OA 
HETATM   25  C   UNL     1      -8.603  10.573  67.634  1.00  0.00    -0.118 C  
BRANCH  21  26
HETATM   26  C   UNL     1     -10.294  11.012  64.916  1.00  0.00    -0.313 C  
HETATM   27  H   UNL     1     -10.299  11.391  62.977  1.00  0.00     0.000 HD 
HETATM   28  O   UNL     1     -10.172  11.873  63.785  1.00  0.00    -0.340 OA 
ENDBRANCH  21  26
BRANCH  22  29
HETATM   29  O   UNL     1     -10.420   9.138  68.292  1.00  0.00    -0.211 OA 
BRANCH  29  30
HETATM   30  C   UNL     1     -11.024   8.704  69.526  1.00  0.00    -0.055 C  
HETATM   31  C   UNL     1     -11.742   9.882  70.213  1.00  0.00    -0.216 C  
HETATM   32  O   UNL     1     -12.556  10.589  69.268  1.00  0.00    -0.726 OA 
HETATM   33  C   UNL     1     -12.612   9.380  71.371  1.00  0.00    -0.348 C  
HETATM   34  C   UNL     1     -11.719   8.711  72.416  1.00  0.00    -0.393 C  
HETATM   35  N   UNL     1     -13.378  10.487  71.977  1.00  0.00    -0.504 NA 
HETATM   36  H   UNL     1     -12.999  11.314  69.691  1.00  0.00     0.000 HD 
HETATM   37  H1  UNL     1     -13.957  10.153  72.747  1.00  0.00     0.000 HD 
HETATM   38  H2  UNL     1     -13.931  10.986  71.281  1.00  0.00     0.000 HD 
HETATM   39  C   UNL     1     -10.887   7.566  71.814  1.00  0.00    -0.227 C  
HETATM   40  C   UNL     1     -10.087   7.959  70.515  1.00  0.00    -0.192 C  
HETATM   41  N   UNL     1      -9.988   7.040  72.862  1.00  0.00    -0.176 NA 
HETATM   42  H2  UNL     1     -10.491   6.759  73.705  1.00  0.00     0.000 HD 
HETATM   43  H1  UNL     1      -9.437   6.281  72.463  1.00  0.00     0.000 HD 
BRANCH  40  44
HETATM   44  O   UNL     1      -9.524   6.732  69.994  1.00  0.00    -0.158 OA 
BRANCH  44  45
HETATM   45  C   UNL     1     -10.457   5.661  69.790  1.00  0.00    -0.306 C  
HETATM   46  O   UNL     1     -10.972   5.652  68.464  1.00  0.00    -0.184 OA 
HETATM   47  C   UNL     1     -10.028   5.327  67.443  1.00  0.00    -0.174 C  
HETATM   48  C   UNL     1      -9.462   3.926  67.685  1.00  0.00    -0.185 C  
HETATM   49  H1  UNL     1      -8.867   3.310  71.753  1.00  0.00     0.000 HD 
HETATM   50  H2  UNL     1      -9.952   4.502  72.212  1.00  0.00     0.000 HD 
HETATM   51  O   UNL     1      -8.484   3.558  66.710  1.00  0.00    -0.102 OA 
HETATM   52  C   UNL     1      -8.833   3.858  69.084  1.00  0.00    -0.101 C  
HETATM   53  H   UNL     1      -8.133   2.688  66.860  1.00  0.00     0.000 HD 
HETATM   54  O   UNL     1      -8.387   2.516  69.346  1.00  0.00    -0.050 OA 
HETATM   55  N   UNL     1      -9.265   4.217  71.513  1.00  0.00    -0.127 NA 
HETATM   56  C   UNL     1      -9.851   4.282  70.154  1.00  0.00    -0.201 C  
HETATM   57  H   UNL     1      -7.998   2.473  70.212  1.00  0.00     0.000 HD 
BRANCH  47  58
HETATM   58  C   UNL     1     -10.766   5.413  66.100  1.00  0.00    -0.095 C  
HETATM   59  O   UNL     1     -10.947   4.106  65.548  1.00  0.00    -0.538 OA 
HETATM   60  H   UNL     1     -11.403   4.159  64.718  1.00  0.00     0.000 HD 
ENDBRANCH  47  58
ENDBRANCH  44  45
ENDBRANCH  40  44
ENDBRANCH  29  30
ENDBRANCH  22  29
ENDBRANCH  18  19
ENDBRANCH   7  18
ENDBRANCH   2   5
TORSDOF 9
ENDMDL
MODEL       51
REMARK 921   NORMALIZED FREE ENERGY PREDICTED BY IDOCK:   -6.71 KCAL/MOL
REMARK 922        TOTAL FREE ENERGY PREDICTED BY IDOCK:  -12.29 KCAL/MOL
REMARK 923 INTER-LIGAND FREE ENERGY PREDICTED BY IDOCK:  -10.79 KCAL/MOL
REMARK 924 INTRA-LIGAND FREE ENERGY PREDICTED BY IDOCK:   -1.50 KCAL/MOL
REMARK 927      BINDING AFFINITY PREDICTED BY RF-SCORE:    0.00 PKD
ROOT
HETATM    1  N   UNL     1     -11.168  17.485  64.750  1.00  0.00    -0.709 NA 
HETATM    2  C   UNL     1     -10.778  18.540  65.707  1.00  0.00    -0.156 C  
HETATM    3  H1  UNL     1     -12.138  17.619  64.463  1.00  0.00     0.000 HD 
HETATM    4  H2  UNL     1     -11.005  16.550  65.124  1.00  0.00     0.000 HD 
ENDROOT
BRANCH   2   5
HETATM    5  C   UNL     1      -9.316  18.338  66.140  1.00  0.00    -0.133 C  
HETATM    6  O   UNL     1      -9.339  17.826  67.485  1.00  0.00    -0.243 OA 
HETATM    7  C   UNL     1      -8.048  17.409  67.922  1.00  0.00    -0.220 C  
HETATM    8  C   UNL     1      -7.133  18.662  68.043  1.00  0.00    -0.237 C  
HETATM    9  O   UNL     1      -9.159  20.674  66.798  1.00  0.00    -0.576 OA 
HETATM   10  H   UNL     1      -8.644  21.471  66.763  1.00  0.00     0.000 HD 
HETATM   11  N   UNL     1      -7.641  19.590  69.097  1.00  0.00    -0.335 NA 
HETATM   12  C   UNL     1      -7.071  19.377  66.673  1.00  0.00    -0.211 C  
HETATM   13  H2  UNL     1      -7.754  19.117  69.994  1.00  0.00     0.000 HD 
HETATM   14  O   UNL     1      -6.251  18.650  65.749  1.00  0.00    -0.195 OA 
HETATM   15  C   UNL     1      -8.479  19.633  66.083  1.00  0.00    -0.334 C  
HETATM   16  H1  UNL     1      -7.042  20.412  69.176  1.00  0.00     0.000 HD 
HETATM   17  H   UNL     1      -6.213  19.089  64.907  1.00  0.00     0.000 HD 
BRANCH   7  18
HETATM   18  O   UNL     1      -8.117  16.769  69.199  1.00  0.00    -0.214 OA 
BRANCH  18  19
HETATM   19  C   UNL     1      -7.938  15.342  69.149  1.00  0.00    -0.214 C  
HETATM   20  O   UNL     1     -10.111  15.080  70.306  1.00  0.00    -0.502 OA 
HETATM   21  C   UNL     1      -7.521  15.010  67.718  1.00  0.00    -0.159 C  
HETATM   22  C   UNL     1      -9.790  14.510  67.901  1.00  0.00    -0.222 C  
HETATM   23  H   UNL     1     -10.911  14.580  70.417  1.00  0.00     0.000 HD 
HETATM   24  O   UNL     1      -8.717  14.717  66.981  1.00  0.00    -0.215 OA 
HETATM   25  C   UNL     1      -9.217  14.542  69.328  1.00  0.00     0.110 C  
BRANCH  21  26
HETATM   26  C   UNL     1      -6.582  13.807  67.610  1.00  0.00    -0.168 C  
HETATM   27  H   UNL     1      -4.653  13.483  67.338  1.00  0.00     0.000 HD 
HETATM   28  O   UNL     1      -5.235  14.230  67.405  1.00  0.00    -0.328 OA 
ENDBRANCH  21  26
BRANCH  22  29
HETATM   29  O   UNL     1     -10.403  13.242  67.685  1.00  0.00    -0.225 OA 
BRANCH  29  30
HETATM   30  C   UNL     1     -10.038  12.495  66.508  1.00  0.00    -0.238 C  
HETATM   31  C   UNL     1     -10.972  12.855  65.336  1.00  0.00    -0.278 C  
HETATM   32  O   UNL     1     -11.106  14.279  65.225  1.00  0.00    -0.307 OA 
HETATM   33  C   UNL     1     -10.430  12.283  64.021  1.00  0.00    -0.399 C  
HETATM   34  C   UNL     1     -10.381  10.759  64.120  1.00  0.00    -0.382 C  
HETATM   35  N   UNL     1     -11.264  12.701  62.878  1.00  0.00    -0.523 NA 
HETATM   36  H   UNL     1     -11.681  14.500  64.503  1.00  0.00     0.000 HD 
HETATM   37  H1  UNL     1     -10.904  12.321  62.003  1.00  0.00     0.000 HD 
HETATM   38  H2  UNL     1     -11.362  13.715  62.834  1.00  0.00     0.000 HD 
HETATM   39  C   UNL     1      -9.537  10.286  65.317  1.00  0.00    -0.264 C  
HETATM   40  C   UNL     1      -9.925  10.956  66.688  1.00  0.00    -0.208 C  
HETATM   41  N   UNL     1      -9.620   8.812  65.394  1.00  0.00    -0.426 NA 
HETATM   42  H2  UNL     1      -9.351   8.358  64.521  1.00  0.00     0.000 HD 
HETATM   43  H1  UNL     1      -9.061   8.500  66.188  1.00  0.00     0.000 HD 
BRANCH  40  44
HETATM   44  O   UNL     1      -8.923  10.540  67.645  1.00  0.00    -0.137 OA 
BRANCH  44  45
HETATM   45  C   UNL     1      -9.427  10.014  68.881  1.00  0.00    -0.172 C  
HETATM   46  O   UNL     1     -10.352   8.953  68.667  1.00  0.00    -0.200 OA 
HETATM   47  C   UNL     1      -9.795   7.758  68.122  1.00  0.00    -0.167 C  
HETATM   48  C   UNL     1      -8.728   7.202  69.069  1.00  0.00    -0.132 C  
HETATM   49  H1  UNL     1      -6.519  10.316  70.713  1.00  0.00     0.000 HD 
HETATM   50  H2  UNL     1      -7.705  11.465  70.427  1.00  0.00     0.000 HD 
HETATM   51  O   UNL     1      -8.110   6.019  68.560  1.00  0.00    -0.105 OA 
HETATM   52  C   UNL     1      -7.653   8.269  69.317  1.00  0.00    -0.094 C  
HETATM   53  H   UNL     1      -7.449   5.674  69.148  1.00  0.00     0.000 HD 
HETATM   54  O   UNL     1      -6.703   7.780  70.281  1.00  0.00    -0.038 OA 
HETATM   55  N   UNL     1      -7.267  10.609  70.085  1.00  0.00    -0.178 NA 
HETATM   56  C   UNL     1      -8.290   9.568  69.834  1.00  0.00    -0.170 C  
HETATM   57  H   UNL     1      -6.038   8.440  70.434  1.00  0.00     0.000 HD 
BRANCH  47  58
HETATM   58  C   UNL     1     -10.952   6.766  67.932  1.00  0.00    -0.227 C  
HETATM   59  O   UNL     1     -11.062   6.391  66.556  1.00  0.00    -0.658 OA 
HETATM   60  H   UNL     1     -11.777   5.778  66.437  1.00  0.00     0.000 HD 
ENDBRANCH  47  58
ENDBRANCH  44  45
ENDBRANCH  40  44
ENDBRANCH  29  30
ENDBRANCH  22  29
ENDBRANCH  18  19
ENDBRANCH   7  18
ENDBRANCH   2   5
TORSDOF 9
ENDMDL
MODEL       52
REMARK 921   NORMALIZED FREE ENERGY PREDICTED BY IDOCK:   -6.70 KCAL/MOL
REMARK 922        TOTAL FREE ENERGY PREDICTED BY IDOCK:  -12.27 KCAL/MOL
REMARK 923 INTER-LIGAND FREE ENERGY PREDICTED BY IDOCK:  -10.65 KCAL/MOL
REMARK 924 INTRA-LIGAND FREE ENERGY PREDICTED BY IDOCK:   -1.62 KCAL/MOL
REMARK 927      BINDING AFFINITY PREDICTED BY RF-SCORE:    0.00 PKD
ROOT
HETATM    1  N   UNL     1     -11.083  16.696  69.381  1.00  0.00    -0.307 NA 
HETATM    2  C   UNL     1     -10.523  17.258  68.135  1.00  0.00    -0.382 C  
HETATM    3  H1  UNL     1     -10.682  17.174  70.188  1.00  0.00     0.000 HD 
HETATM    4  H2  UNL     1     -10.960  15.684  69.434  1.00  0.00     0.000 HD 
ENDROOT
BRANCH   2   5
HETATM    5  C   UNL     1     -11.128  16.538  66.918  1.00  0.00     0.149 C  
HETATM    6  O   UNL     1     -11.097  15.127  67.202  1.00  0.00    -0.329 OA 
HETATM    7  C   UNL     1     -11.817  14.370  66.232  1.00  0.00    -0.379 C  
HETATM    8  C   UNL     1     -11.070  14.466  64.870  1.00  0.00    -0.398 C  
HETATM    9  O   UNL     1      -8.975  16.580  65.789  1.00  0.00    -0.481 OA 
HETATM   10  H   UNL     1      -8.511  16.758  64.979  1.00  0.00     0.000 HD 
HETATM   11  N   UNL     1      -9.718  13.837  64.960  1.00  0.00    -0.573 NA 
HETATM   12  C   UNL     1     -10.951  15.953  64.463  1.00  0.00    -0.179 C  
HETATM   13  H2  UNL     1      -9.771  12.875  65.293  1.00  0.00     0.000 HD 
HETATM   14  O   UNL     1     -12.211  16.466  64.009  1.00  0.00    -0.971 OA 
HETATM   15  C   UNL     1     -10.375  16.827  65.602  1.00  0.00    -0.265 C  
HETATM   16  H1  UNL     1      -9.229  13.901  64.067  1.00  0.00     0.000 HD 
HETATM   17  H   UNL     1     -12.138  17.379  63.759  1.00  0.00     0.000 HD 
BRANCH   7  18
HETATM   18  O   UNL     1     -11.900  12.993  66.611  1.00  0.00    -0.367 OA 
BRANCH  18  19
HETATM   19  C   UNL     1     -10.711  12.488  67.246  1.00  0.00    -0.233 C  
HETATM   20  O   UNL     1     -11.554  13.366  69.402  1.00  0.00    -0.279 OA 
HETATM   21  C   UNL     1     -10.534  11.054  66.751  1.00  0.00    -0.251 C  
HETATM   22  C   UNL     1     -11.475  10.930  68.881  1.00  0.00    -0.300 C  
HETATM   23  H   UNL     1     -11.627  13.260  70.343  1.00  0.00     0.000 HD 
HETATM   24  O   UNL     1     -11.198  10.193  67.688  1.00  0.00    -0.284 OA 
HETATM   25  C   UNL     1     -10.829  12.319  68.752  1.00  0.00    -0.229 C  
BRANCH  21  26
HETATM   26  C   UNL     1      -9.073  10.613  66.644  1.00  0.00    -0.160 C  
HETATM   27  H   UNL     1      -7.546  10.908  65.427  1.00  0.00     0.000 HD 
HETATM   28  O   UNL     1      -8.453  11.182  65.493  1.00  0.00    -0.124 OA 
ENDBRANCH  21  26
BRANCH  22  29
HETATM   29  O   UNL     1     -10.923  10.275  70.019  1.00  0.00    -0.270 OA 
BRANCH  29  30
HETATM   30  C   UNL     1     -11.602   9.117  70.541  1.00  0.00    -0.197 C  
HETATM   31  C   UNL     1     -12.416   9.493  71.794  1.00  0.00    -0.401 C  
HETATM   32  O   UNL     1     -13.183  10.681  71.551  1.00  0.00    -0.389 OA 
HETATM   33  C   UNL     1     -13.352   8.347  72.193  1.00  0.00    -0.315 C  
HETATM   34  C   UNL     1     -12.516   7.115  72.538  1.00  0.00     0.162 C  
HETATM   35  N   UNL     1     -14.205   8.731  73.334  1.00  0.00    -1.077 NA 
HETATM   36  H   UNL     1     -13.684  10.913  72.323  1.00  0.00     0.000 HD 
HETATM   37  H1  UNL     1     -14.828   7.969  73.600  1.00  0.00     0.000 HD 
HETATM   38  H2  UNL     1     -14.722   9.589  73.145  1.00  0.00     0.000 HD 
HETATM   39  C   UNL     1     -11.596   6.698  71.378  1.00  0.00    -0.313 C  
HETATM   40  C   UNL     1     -10.715   7.868  70.797  1.00  0.00    -0.223 C  
HETATM   41  N   UNL     1     -10.760   5.565  71.827  1.00  0.00    -0.235 NA 
HETATM   42  H2  UNL     1     -11.314   4.788  72.187  1.00  0.00     0.000 HD 
HETATM   43  H1  UNL     1     -10.151   5.290  71.058  1.00  0.00     0.000 HD 
BRANCH  40  44
HETATM   44  O   UNL     1     -10.067   7.344  69.615  1.00  0.00    -0.179 OA 
BRANCH  44  45
HETATM   45  C   UNL     1      -8.737   7.826  69.373  1.00  0.00    -0.135 C  
HETATM   46  O   UNL     1      -7.978   7.911  70.573  1.00  0.00    -0.093 OA 
HETATM   47  C   UNL     1      -7.657   6.662  71.184  1.00  0.00    -0.089 C  
HETATM   48  C   UNL     1      -6.829   5.809  70.220  1.00  0.00    -0.049 C  
HETATM   49  H1  UNL     1      -8.243   6.259  66.338  1.00  0.00     0.000 HD 
HETATM   50  H2  UNL     1      -8.988   7.727  66.654  1.00  0.00     0.000 HD 
HETATM   51  O   UNL     1      -6.504   4.529  70.767  1.00  0.00    -0.028 OA 
HETATM   52  C   UNL     1      -7.599   5.618  68.907  1.00  0.00    -0.088 C  
HETATM   53  H   UNL     1      -5.990   4.000  70.169  1.00  0.00     0.000 HD 
HETATM   54  O   UNL     1      -6.780   4.898  67.969  1.00  0.00    -0.051 OA 
HETATM   55  N   UNL     1      -8.733   6.817  67.038  1.00  0.00    -0.113 NA 
HETATM   56  C   UNL     1      -7.993   6.979  68.310  1.00  0.00    -0.123 C  
HETATM   57  H   UNL     1      -7.257   4.780  67.156  1.00  0.00     0.000 HD 
BRANCH  47  58
HETATM   58  C   UNL     1      -6.882   6.974  72.472  1.00  0.00    -0.065 C  
HETATM   59  O   UNL     1      -5.478   6.801  72.259  1.00  0.00    -0.036 OA 
HETATM   60  H   UNL     1      -4.998   6.993  73.056  1.00  0.00     0.000 HD 
ENDBRANCH  47  58
ENDBRANCH  44  45
ENDBRANCH  40  44
ENDBRANCH  29  30
ENDBRANCH  22  29
ENDBRANCH  18  19
ENDBRANCH   7  18
ENDBRANCH   2   5
TORSDOF 9
ENDMDL
MODEL       53
REMARK 921   NORMALIZED FREE ENERGY PREDICTED BY IDOCK:   -6.70 KCAL/MOL
REMARK 922        TOTAL FREE ENERGY PREDICTED BY IDOCK:  -12.27 KCAL/MOL
REMARK 923 INTER-LIGAND FREE ENERGY PREDICTED BY IDOCK:   -9.29 KCAL/MOL
REMARK 924 INTRA-LIGAND FREE ENERGY PREDICTED BY IDOCK:   -2.98 KCAL/MOL
REMARK 927      BINDING AFFINITY PREDICTED BY RF-SCORE:    0.00 PKD
ROOT
HETATM    1  N   UNL     1      -9.285   2.625  71.085  1.00  0.00    -0.113 NA 
HETATM    2  C   UNL     1      -9.075   3.938  70.443  1.00  0.00    -0.118 C  
HETATM    3  H1  UNL     1      -8.672   1.929  70.660  1.00  0.00     0.000 HD 
HETATM    4  H2  UNL     1     -10.264   2.339  71.061  1.00  0.00     0.000 HD 
ENDROOT
BRANCH   2   5
HETATM    5  C   UNL     1      -9.999   4.987  71.085  1.00  0.00    -0.207 C  
HETATM    6  O   UNL     1      -9.418   6.278  70.825  1.00  0.00    -0.169 OA 
HETATM    7  C   UNL     1     -10.290   7.343  71.197  1.00  0.00    -0.201 C  
HETATM    8  C   UNL     1     -10.450   7.339  72.745  1.00  0.00    -0.260 C  
HETATM    9  O   UNL     1      -8.900   4.681  73.232  1.00  0.00    -0.107 OA 
HETATM   10  H   UNL     1      -9.014   4.559  74.167  1.00  0.00     0.000 HD 
HETATM   11  N   UNL     1      -9.146   7.626  73.415  1.00  0.00    -0.215 NA 
HETATM   12  C   UNL     1     -11.000   5.965  73.193  1.00  0.00    -0.253 C  
HETATM   13  H2  UNL     1      -8.734   8.497  73.080  1.00  0.00     0.000 HD 
HETATM   14  O   UNL     1     -12.392   5.836  72.872  1.00  0.00    -0.519 OA 
HETATM   15  C   UNL     1     -10.184   4.788  72.604  1.00  0.00    -0.189 C  
HETATM   16  H1  UNL     1      -9.251   7.623  74.429  1.00  0.00     0.000 HD 
HETATM   17  H   UNL     1     -12.729   4.992  73.147  1.00  0.00     0.000 HD 
BRANCH   7  18
HETATM   18  O   UNL     1      -9.759   8.609  70.796  1.00  0.00    -0.174 OA 
BRANCH  18  19
HETATM   19  C   UNL     1     -10.658   9.713  71.005  1.00  0.00    -0.292 C  
HETATM   20  O   UNL     1      -9.194  11.108  69.578  1.00  0.00    -0.372 OA 
HETATM   21  C   UNL     1     -12.067   9.173  70.765  1.00  0.00    -0.149 C  
HETATM   22  C   UNL     1     -11.437  10.319  68.835  1.00  0.00    -0.127 C  
HETATM   23  H   UNL     1      -9.118  11.803  68.934  1.00  0.00     0.000 HD 
HETATM   24  O   UNL     1     -12.381   9.396  69.382  1.00  0.00     0.968 OA 
HETATM   25  C   UNL     1     -10.537  10.824  69.975  1.00  0.00     0.005 C  
BRANCH  21  26
HETATM   26  C   UNL     1     -13.143   9.847  71.617  1.00  0.00    -0.437 C  
HETATM   27  H   UNL     1     -14.310   9.371  73.138  1.00  0.00     0.000 HD 
HETATM   28  O   UNL     1     -13.642   8.952  72.608  1.00  0.00    -0.439 OA 
ENDBRANCH  21  26
BRANCH  22  29
HETATM   29  O   UNL     1     -12.103  11.435  68.252  1.00  0.00    -0.606 OA 
BRANCH  29  30
HETATM   30  C   UNL     1     -11.306  12.463  67.632  1.00  0.00    -0.312 C  
HETATM   31  C   UNL     1     -11.710  13.850  68.169  1.00  0.00    -0.353 C  
HETATM   32  O   UNL     1     -11.794  13.825  69.601  1.00  0.00    -0.293 OA 
HETATM   33  C   UNL     1     -10.696  14.913  67.730  1.00  0.00    -0.271 C  
HETATM   34  C   UNL     1     -10.684  14.995  66.204  1.00  0.00    -0.328 C  
HETATM   35  N   UNL     1     -11.019  16.228  68.317  1.00  0.00    -0.338 NA 
HETATM   36  H   UNL     1     -12.042  14.679  69.931  1.00  0.00     0.000 HD 
HETATM   37  H1  UNL     1     -10.345  16.936  68.025  1.00  0.00     0.000 HD 
HETATM   38  H2  UNL     1     -11.095  16.178  69.332  1.00  0.00     0.000 HD 
HETATM   39  C   UNL     1     -10.373  13.634  65.557  1.00  0.00    -0.309 C  
HETATM   40  C   UNL     1     -11.267  12.448  66.080  1.00  0.00    -0.335 C  
HETATM   41  N   UNL     1     -10.475  13.780  64.090  1.00  0.00    -0.605 NA 
HETATM   42  H2  UNL     1      -9.885  14.530  63.729  1.00  0.00     0.000 HD 
HETATM   43  H1  UNL     1     -10.268  12.878  63.661  1.00  0.00     0.000 HD 
BRANCH  40  44
HETATM   44  O   UNL     1     -10.717  11.238  65.509  1.00  0.00    -0.267 OA 
BRANCH  44  45
HETATM   45  C   UNL     1      -9.285  11.182  65.438  1.00  0.00    -0.205 C  
HETATM   46  O   UNL     1      -8.731  10.408  66.495  1.00  0.00    -0.133 OA 
HETATM   47  C   UNL     1      -9.014   9.010  66.443  1.00  0.00    -0.155 C  
HETATM   48  C   UNL     1      -8.456   8.415  65.147  1.00  0.00    -0.160 C  
HETATM   49  H1  UNL     1      -9.015  11.071  62.000  1.00  0.00     0.000 HD 
HETATM   50  H2  UNL     1      -9.164  12.408  62.999  1.00  0.00     0.000 HD 
HETATM   51  O   UNL     1      -8.739   7.019  65.023  1.00  0.00    -0.358 OA 
HETATM   52  C   UNL     1      -9.045   9.160  63.942  1.00  0.00     0.165 C  
HETATM   53  H   UNL     1      -8.392   6.650  64.219  1.00  0.00     0.000 HD 
HETATM   54  O   UNL     1      -8.447   8.664  62.731  1.00  0.00    -0.273 OA 
HETATM   55  N   UNL     1      -9.342  11.408  62.905  1.00  0.00    -0.362 NA 
HETATM   56  C   UNL     1      -8.787  10.670  64.062  1.00  0.00    -0.164 C  
HETATM   57  H   UNL     1      -8.811   9.125  61.985  1.00  0.00     0.000 HD 
BRANCH  47  58
HETATM   58  C   UNL     1      -8.370   8.371  67.681  1.00  0.00    -0.130 C  
HETATM   59  O   UNL     1      -9.124   7.228  68.098  1.00  0.00    -0.135 OA 
HETATM   60  H   UNL     1      -8.725   6.833  68.864  1.00  0.00     0.000 HD 
ENDBRANCH  47  58
ENDBRANCH  44  45
ENDBRANCH  40  44
ENDBRANCH  29  30
ENDBRANCH  22  29
ENDBRANCH  18  19
ENDBRANCH   7  18
ENDBRANCH   2   5
TORSDOF 9
ENDMDL
MODEL       54
REMARK 921   NORMALIZED FREE ENERGY PREDICTED BY IDOCK:   -6.69 KCAL/MOL
REMARK 922        TOTAL FREE ENERGY PREDICTED BY IDOCK:  -12.26 KCAL/MOL
REMARK 923 INTER-LIGAND FREE ENERGY PREDICTED BY IDOCK:  -10.05 KCAL/MOL
REMARK 924 INTRA-LIGAND FREE ENERGY PREDICTED BY IDOCK:   -2.21 KCAL/MOL
REMARK 927      BINDING AFFINITY PREDICTED BY RF-SCORE:    0.00 PKD
ROOT
HETATM    1  N   UNL     1     -10.368  17.439  65.465  1.00  0.00    -0.644 NA 
HETATM    2  C   UNL     1      -9.880  16.300  66.268  1.00  0.00    -0.313 C  
HETATM    3  H1  UNL     1      -9.640  18.149  65.392  1.00  0.00     0.000 HD 
HETATM    4  H2  UNL     1     -11.241  17.821  65.832  1.00  0.00     0.000 HD 
ENDROOT
BRANCH   2   5
HETATM    5  C   UNL     1     -10.978  15.229  66.378  1.00  0.00    -0.299 C  
HETATM    6  O   UNL     1     -10.433  14.139  67.145  1.00  0.00    -0.267 OA 
HETATM    7  C   UNL     1     -11.426  13.174  67.485  1.00  0.00    -0.328 C  
HETATM    8  C   UNL     1     -11.907  12.473  66.181  1.00  0.00    -0.397 C  
HETATM    9  O   UNL     1     -10.340  14.314  64.217  1.00  0.00    -0.533 OA 
HETATM   10  H   UNL     1     -10.642  13.998  63.373  1.00  0.00     0.000 HD 
HETATM   11  N   UNL     1     -10.793  11.708  65.546  1.00  0.00    -0.287 NA 
HETATM   12  C   UNL     1     -12.457  13.541  65.207  1.00  0.00    -0.482 C  
HETATM   13  H2  UNL     1     -10.372  11.045  66.197  1.00  0.00     0.000 HD 
HETATM   14  O   UNL     1     -13.740  14.018  65.635  1.00  0.00    -0.523 OA 
HETATM   15  C   UNL     1     -11.468  14.715  65.007  1.00  0.00    -0.386 C  
HETATM   16  H1  UNL     1     -11.109  11.250  64.691  1.00  0.00     0.000 HD 
HETATM   17  H   UNL     1     -14.078  14.674  65.036  1.00  0.00     0.000 HD 
BRANCH   7  18
HETATM   18  O   UNL     1     -10.898  12.180  68.368  1.00  0.00    -0.205 OA 
BRANCH  18  19
HETATM   19  C   UNL     1     -11.890  11.283  68.899  1.00  0.00    -0.345 C  
HETATM   20  O   UNL     1     -11.131   9.571  67.280  1.00  0.00    -0.336 OA 
HETATM   21  C   UNL     1     -11.760  11.348  70.419  1.00  0.00    -0.268 C  
HETATM   22  C   UNL     1     -10.675   9.406  69.724  1.00  0.00    -0.234 C  
HETATM   23  H   UNL     1     -10.972   8.653  67.090  1.00  0.00     0.000 HD 
HETATM   24  O   UNL     1     -10.852  10.310  70.816  1.00  0.00    -0.269 OA 
HETATM   25  C   UNL     1     -11.635   9.816  68.595  1.00  0.00     0.353 C  
BRANCH  21  26
HETATM   26  C   UNL     1     -13.081  11.141  71.163  1.00  0.00    -0.190 C  
HETATM   27  H   UNL     1     -13.876   9.804  72.378  1.00  0.00     0.000 HD 
HETATM   28  O   UNL     1     -13.057   9.932  71.917  1.00  0.00    -0.404 OA 
ENDBRANCH  21  26
BRANCH  22  29
HETATM   29  O   UNL     1     -10.981   8.072  70.119  1.00  0.00    -0.249 OA 
BRANCH  29  30
HETATM   30  C   UNL     1      -9.983   7.324  70.842  1.00  0.00    -0.185 C  
HETATM   31  C   UNL     1     -10.284   7.354  72.353  1.00  0.00    -0.199 C  
HETATM   32  O   UNL     1     -11.667   7.054  72.592  1.00  0.00    -0.456 OA 
HETATM   33  C   UNL     1      -9.402   6.346  73.098  1.00  0.00    -0.134 C  
HETATM   34  C   UNL     1      -7.934   6.732  72.912  1.00  0.00    -0.107 C  
HETATM   35  N   UNL     1      -9.746   6.296  74.532  1.00  0.00    -0.262 NA 
HETATM   36  H   UNL     1     -11.852   7.072  73.522  1.00  0.00     0.000 HD 
HETATM   37  H1  UNL     1      -9.159   5.626  75.028  1.00  0.00     0.000 HD 
HETATM   38  H2  UNL     1     -10.738   6.104  74.674  1.00  0.00     0.000 HD 
HETATM   39  C   UNL     1      -7.544   6.815  71.426  1.00  0.00    -0.092 C  
HETATM   40  C   UNL     1      -8.506   7.706  70.553  1.00  0.00    -0.128 C  
HETATM   41  N   UNL     1      -6.145   7.284  71.336  1.00  0.00    -0.036 NA 
HETATM   42  H2  UNL     1      -5.503   6.706  71.878  1.00  0.00     0.000 HD 
HETATM   43  H1  UNL     1      -5.887   7.339  70.351  1.00  0.00     0.000 HD 
BRANCH  40  44
HETATM   44  O   UNL     1      -8.100   7.519  69.177  1.00  0.00    -0.119 OA 
BRANCH  44  45
HETATM   45  C   UNL     1      -7.658   6.197  68.836  1.00  0.00    -0.092 C  
HETATM   46  O   UNL     1      -8.711   5.410  68.291  1.00  0.00    -0.103 OA 
HETATM   47  C   UNL     1      -9.186   5.826  67.012  1.00  0.00    -0.118 C  
HETATM   48  C   UNL     1      -8.047   5.772  65.991  1.00  0.00    -0.110 C  
HETATM   49  H1  UNL     1      -4.501   7.055  67.739  1.00  0.00     0.000 HD 
HETATM   50  H2  UNL     1      -5.023   6.749  69.302  1.00  0.00     0.000 HD 
HETATM   51  O   UNL     1      -8.457   6.210  64.693  1.00  0.00    -0.292 OA 
HETATM   52  C   UNL     1      -6.879   6.642  66.474  1.00  0.00    -0.061 C  
HETATM   53  H   UNL     1      -7.750   6.176  64.060  1.00  0.00     0.000 HD 
HETATM   54  O   UNL     1      -5.774   6.513  65.562  1.00  0.00    -0.024 OA 
HETATM   55  N   UNL     1      -5.305   7.041  68.366  1.00  0.00    -0.016 NA 
HETATM   56  C   UNL     1      -6.436   6.217  67.883  1.00  0.00    -0.049 C  
HETATM   57  H   UNL     1      -5.051   7.052  65.861  1.00  0.00     0.000 HD 
BRANCH  47  58
HETATM   58  C   UNL     1     -10.335   4.883  66.626  1.00  0.00    -0.242 C  
HETATM   59  O   UNL     1     -11.453   5.634  66.145  1.00  0.00    -0.619 OA 
HETATM   60  H   UNL     1     -12.163   5.051  65.907  1.00  0.00     0.000 HD 
ENDBRANCH  47  58
ENDBRANCH  44  45
ENDBRANCH  40  44
ENDBRANCH  29  30
ENDBRANCH  22  29
ENDBRANCH  18  19
ENDBRANCH   7  18
ENDBRANCH   2   5
TORSDOF 9
ENDMDL
MODEL       55
REMARK 921   NORMALIZED FREE ENERGY PREDICTED BY IDOCK:   -6.69 KCAL/MOL
REMARK 922        TOTAL FREE ENERGY PREDICTED BY IDOCK:  -12.25 KCAL/MOL
REMARK 923 INTER-LIGAND FREE ENERGY PREDICTED BY IDOCK:  -10.48 KCAL/MOL
REMARK 924 INTRA-LIGAND FREE ENERGY PREDICTED BY IDOCK:   -1.77 KCAL/MOL
REMARK 927      BINDING AFFINITY PREDICTED BY RF-SCORE:    0.00 PKD
ROOT
HETATM    1  N   UNL     1     -11.221   5.998  69.718  1.00  0.00    -0.411 NA 
HETATM    2  C   UNL     1     -10.133   5.008  69.587  1.00  0.00    -0.251 C  
HETATM    3  H1  UNL     1     -12.111   5.519  69.853  1.00  0.00     0.000 HD 
HETATM    4  H2  UNL     1     -11.248   6.644  68.929  1.00  0.00     0.000 HD 
ENDROOT
BRANCH   2   5
HETATM    5  C   UNL     1      -8.790   5.731  69.385  1.00  0.00    -0.117 C  
HETATM    6  O   UNL     1      -8.882   6.455  68.144  1.00  0.00    -0.116 OA 
HETATM    7  C   UNL     1      -7.770   7.326  67.948  1.00  0.00    -0.113 C  
HETATM    8  C   UNL     1      -6.489   6.463  67.754  1.00  0.00    -0.052 C  
HETATM    9  O   UNL     1      -7.830   3.727  68.397  1.00  0.00    -0.067 OA 
HETATM   10  H   UNL     1      -7.086   3.136  68.375  1.00  0.00     0.000 HD 
HETATM   11  N   UNL     1      -6.586   5.640  66.512  1.00  0.00    -0.054 NA 
HETATM   12  C   UNL     1      -6.297   5.558  68.992  1.00  0.00    -0.034 C  
HETATM   13  H2  UNL     1      -6.782   6.215  65.692  1.00  0.00     0.000 HD 
HETATM   14  O   UNL     1      -5.830   6.314  70.118  1.00  0.00    -0.017 OA 
HETATM   15  C   UNL     1      -7.581   4.772  69.348  1.00  0.00    -0.056 C  
HETATM   16  H1  UNL     1      -5.747   5.075  66.385  1.00  0.00     0.000 HD 
HETATM   17  H   UNL     1      -5.712   5.758  70.878  1.00  0.00     0.000 HD 
BRANCH   7  18
HETATM   18  O   UNL     1      -7.951   8.142  66.788  1.00  0.00    -0.100 OA 
BRANCH  18  19
HETATM   19  C   UNL     1      -8.304   9.505  67.081  1.00  0.00    -0.131 C  
HETATM   20  O   UNL     1     -10.079   9.362  65.362  1.00  0.00    -0.392 OA 
HETATM   21  C   UNL     1      -8.392   9.610  68.602  1.00  0.00    -0.114 C  
HETATM   22  C   UNL     1     -10.575   9.436  67.802  1.00  0.00    -0.258 C  
HETATM   23  H   UNL     1     -10.951   9.611  65.079  1.00  0.00     0.000 HD 
HETATM   24  O   UNL     1      -9.756   9.354  68.971  1.00  0.00    -0.159 OA 
HETATM   25  C   UNL     1      -9.699   9.904  66.629  1.00  0.00    -0.198 C  
BRANCH  21  26
HETATM   26  C   UNL     1      -7.994  10.980  69.153  1.00  0.00    -0.078 C  
HETATM   27  H   UNL     1      -6.356  12.074  69.299  1.00  0.00     0.000 HD 
HETATM   28  O   UNL     1      -6.603  11.223  68.958  1.00  0.00    -0.064 OA 
ENDBRANCH  21  26
BRANCH  22  29
HETATM   29  O   UNL     1     -11.628  10.377  67.988  1.00  0.00    -0.392 OA 
BRANCH  29  30
HETATM   30  C   UNL     1     -11.752  11.024  69.270  1.00  0.00    -0.326 C  
HETATM   31  C   UNL     1     -12.573  10.147  70.235  1.00  0.00    -0.073 C  
HETATM   32  O   UNL     1     -12.102   8.792  70.198  1.00  0.00    -0.375 OA 
HETATM   33  C   UNL     1     -12.479  10.687  71.666  1.00  0.00    -0.311 C  
HETATM   34  C   UNL     1     -13.069  12.096  71.709  1.00  0.00    -0.457 C  
HETATM   35  N   UNL     1     -13.182   9.802  72.615  1.00  0.00    -0.503 NA 
HETATM   36  H   UNL     1     -12.608   8.252  70.793  1.00  0.00     0.000 HD 
HETATM   37  H1  UNL     1     -13.120  10.161  73.567  1.00  0.00     0.000 HD 
HETATM   38  H2  UNL     1     -12.845   8.842  72.553  1.00  0.00     0.000 HD 
HETATM   39  C   UNL     1     -12.374  13.043  70.715  1.00  0.00    -0.310 C  
HETATM   40  C   UNL     1     -12.281  12.484  69.245  1.00  0.00    -0.036 C  
HETATM   41  N   UNL     1     -13.064  14.349  70.753  1.00  0.00    -0.395 NA 
HETATM   42  H2  UNL     1     -13.115  14.738  71.694  1.00  0.00     0.000 HD 
HETATM   43  H1  UNL     1     -12.603  14.976  70.093  1.00  0.00     0.000 HD 
BRANCH  40  44
HETATM   44  O   UNL     1     -11.447  13.408  68.508  1.00  0.00    -0.267 OA 
BRANCH  44  45
HETATM   45  C   UNL     1     -12.148  14.388  67.729  1.00  0.00    -0.269 C  
HETATM   46  O   UNL     1     -11.772  15.714  68.084  1.00  0.00    -0.331 OA 
HETATM   47  C   UNL     1     -10.432  16.079  67.754  1.00  0.00    -0.298 C  
HETATM   48  C   UNL     1     -10.221  15.971  66.241  1.00  0.00    -0.316 C  
HETATM   49  H1  UNL     1     -12.208  12.635  64.758  1.00  0.00     0.000 HD 
HETATM   50  H2  UNL     1     -13.266  12.542  66.054  1.00  0.00     0.000 HD 
HETATM   51  O   UNL     1      -8.884  16.294  65.853  1.00  0.00    -0.392 OA 
HETATM   52  C   UNL     1     -10.555  14.548  65.774  1.00  0.00    -0.317 C  
HETATM   53  H   UNL     1      -8.754  16.227  64.915  1.00  0.00     0.000 HD 
HETATM   54  O   UNL     1     -10.448  14.474  64.342  1.00  0.00    -0.535 OA 
HETATM   55  N   UNL     1     -12.321  12.788  65.760  1.00  0.00    -0.594 NA 
HETATM   56  C   UNL     1     -11.977  14.157  66.206  1.00  0.00    -0.429 C  
HETATM   57  H   UNL     1     -10.655  13.593  64.052  1.00  0.00     0.000 HD 
BRANCH  47  58
HETATM   58  C   UNL     1     -10.218  17.515  68.252  1.00  0.00    -0.365 C  
HETATM   59  O   UNL     1     -10.643  18.453  67.260  1.00  0.00    -0.406 OA 
HETATM   60  H   UNL     1     -10.511  19.342  67.569  1.00  0.00     0.000 HD 
ENDBRANCH  47  58
ENDBRANCH  44  45
ENDBRANCH  40  44
ENDBRANCH  29  30
ENDBRANCH  22  29
ENDBRANCH  18  19
ENDBRANCH   7  18
ENDBRANCH   2   5
TORSDOF 9
ENDMDL
MODEL       56
REMARK 921   NORMALIZED FREE ENERGY PREDICTED BY IDOCK:   -6.68 KCAL/MOL
REMARK 922        TOTAL FREE ENERGY PREDICTED BY IDOCK:  -12.24 KCAL/MOL
REMARK 923 INTER-LIGAND FREE ENERGY PREDICTED BY IDOCK:  -10.12 KCAL/MOL
REMARK 924 INTRA-LIGAND FREE ENERGY PREDICTED BY IDOCK:   -2.12 KCAL/MOL
REMARK 927      BINDING AFFINITY PREDICTED BY RF-SCORE:    0.00 PKD
ROOT
HETATM    1  N   UNL     1      -8.192   3.756  69.120  1.00  0.00    -0.060 NA 
HETATM    2  C   UNL     1      -9.047   2.895  69.963  1.00  0.00    -0.123 C  
HETATM    3  H1  UNL     1      -7.897   3.243  68.289  1.00  0.00     0.000 HD 
HETATM    4  H2  UNL     1      -7.399   4.134  69.639  1.00  0.00     0.000 HD 
ENDROOT
BRANCH   2   5
HETATM    5  C   UNL     1      -9.491   3.668  71.216  1.00  0.00    -0.161 C  
HETATM    6  O   UNL     1      -8.886   4.972  71.147  1.00  0.00    -0.125 OA 
HETATM    7  C   UNL     1      -9.387   5.850  72.153  1.00  0.00    -0.145 C  
HETATM    8  C   UNL     1      -8.928   5.327  73.545  1.00  0.00    -0.121 C  
HETATM    9  O   UNL     1      -7.694   2.661  72.508  1.00  0.00    -0.051 OA 
HETATM   10  H   UNL     1      -7.450   2.233  73.320  1.00  0.00     0.000 HD 
HETATM   11  N   UNL     1      -7.440   5.374  73.666  1.00  0.00    -0.090 NA 
HETATM   12  C   UNL     1      -9.443   3.882  73.737  1.00  0.00    -0.098 C  
HETATM   13  H2  UNL     1      -7.076   6.308  73.474  1.00  0.00     0.000 HD 
HETATM   14  O   UNL     1     -10.853   3.867  74.000  1.00  0.00    -0.220 OA 
HETATM   15  C   UNL     1      -9.094   2.972  72.535  1.00  0.00    -0.088 C  
HETATM   16  H1  UNL     1      -7.140   5.031  74.578  1.00  0.00     0.000 HD 
HETATM   17  H   UNL     1     -11.169   2.979  74.118  1.00  0.00     0.000 HD 
BRANCH   7  18
HETATM   18  O   UNL     1      -8.886   7.177  71.976  1.00  0.00    -0.126 OA 
BRANCH  18  19
HETATM   19  C   UNL     1      -9.875   8.206  72.160  1.00  0.00    -0.246 C  
HETATM   20  O   UNL     1      -8.351   9.801  71.037  1.00  0.00    -0.352 OA 
HETATM   21  C   UNL     1     -11.206   7.609  71.709  1.00  0.00    -0.247 C  
HETATM   22  C   UNL     1     -10.436   8.953  69.967  1.00  0.00    -0.213 C  
HETATM   23  H   UNL     1      -8.248  10.552  70.465  1.00  0.00     0.000 HD 
HETATM   24  O   UNL     1     -11.372   7.933  70.320  1.00  0.00    -0.247 OA 
HETATM   25  C   UNL     1      -9.710   9.407  71.244  1.00  0.00    -0.139 C  
BRANCH  21  26
HETATM   26  C   UNL     1     -12.417   8.144  72.476  1.00  0.00    -0.199 C  
HETATM   27  H   UNL     1     -14.054   9.175  72.080  1.00  0.00     0.000 HD 
HETATM   28  O   UNL     1     -13.303   8.843  71.604  1.00  0.00    -0.341 OA 
ENDBRANCH  21  26
BRANCH  22  29
HETATM   29  O   UNL     1     -11.103  10.076  69.399  1.00  0.00    -0.232 OA 
BRANCH  29  30
HETATM   30  C   UNL     1     -10.617  10.602  68.148  1.00  0.00    -0.202 C  
HETATM   31  C   UNL     1     -10.076   9.462  67.262  1.00  0.00    -0.226 C  
HETATM   32  O   UNL     1     -11.009   8.373  67.227  1.00  0.00    -0.460 OA 
HETATM   33  C   UNL     1      -9.816   9.965  65.838  1.00  0.00    -0.274 C  
HETATM   34  C   UNL     1      -8.752  11.061  65.880  1.00  0.00    -0.182 C  
HETATM   35  N   UNL     1      -9.388   8.862  64.956  1.00  0.00    -0.430 NA 
HETATM   36  H   UNL     1     -10.676   7.671  66.682  1.00  0.00     0.000 HD 
HETATM   37  H1  UNL     1      -9.215   9.195  64.008  1.00  0.00     0.000 HD 
HETATM   38  H2  UNL     1     -10.057   8.092  64.966  1.00  0.00     0.000 HD 
HETATM   39  C   UNL     1      -9.155  12.219  66.809  1.00  0.00    -0.211 C  
HETATM   40  C   UNL     1      -9.598  11.769  68.252  1.00  0.00    -0.199 C  
HETATM   41  N   UNL     1      -8.036  13.184  66.865  1.00  0.00    -0.404 NA 
HETATM   42  H2  UNL     1      -7.748  13.505  65.941  1.00  0.00     0.000 HD 
HETATM   43  H1  UNL     1      -8.304  13.951  67.481  1.00  0.00     0.000 HD 
BRANCH  40  44
HETATM   44  O   UNL     1     -10.110  12.951  68.910  1.00  0.00    -0.098 OA 
BRANCH  44  45
HETATM   45  C   UNL     1     -11.456  13.315  68.571  1.00  0.00    -0.312 C  
HETATM   46  O   UNL     1     -12.360  13.057  69.639  1.00  0.00    -0.189 OA 
HETATM   47  C   UNL     1     -12.190  13.875  70.796  1.00  0.00    -0.369 C  
HETATM   48  C   UNL     1     -12.384  15.347  70.425  1.00  0.00    -0.402 C  
HETATM   49  H1  UNL     1     -10.700  16.116  66.704  1.00  0.00     0.000 HD 
HETATM   50  H2  UNL     1     -10.745  14.512  66.220  1.00  0.00     0.000 HD 
HETATM   51  O   UNL     1     -12.193  16.220  71.540  1.00  0.00    -0.607 OA 
HETATM   52  C   UNL     1     -11.405  15.732  69.307  1.00  0.00    -0.350 C  
HETATM   53  H   UNL     1     -12.314  17.134  71.310  1.00  0.00     0.000 HD 
HETATM   54  O   UNL     1     -11.654  17.087  68.894  1.00  0.00    -0.027 OA 
HETATM   55  N   UNL     1     -10.630  15.147  67.011  1.00  0.00    -0.293 NA 
HETATM   56  C   UNL     1     -11.563  14.789  68.104  1.00  0.00    -0.332 C  
HETATM   57  H   UNL     1     -11.048  17.325  68.203  1.00  0.00     0.000 HD 
BRANCH  47  58
HETATM   58  C   UNL     1     -13.223  13.413  71.833  1.00  0.00    -0.431 C  
HETATM   59  O   UNL     1     -13.192  11.989  71.964  1.00  0.00    -0.499 OA 
HETATM   60  H   UNL     1     -13.831  11.703  72.606  1.00  0.00     0.000 HD 
ENDBRANCH  47  58
ENDBRANCH  44  45
ENDBRANCH  40  44
ENDBRANCH  29  30
ENDBRANCH  22  29
ENDBRANCH  18  19
ENDBRANCH   7  18
ENDBRANCH   2   5
TORSDOF 9
ENDMDL
MODEL       57
REMARK 921   NORMALIZED FREE ENERGY PREDICTED BY IDOCK:   -6.66 KCAL/MOL
REMARK 922        TOTAL FREE ENERGY PREDICTED BY IDOCK:  -12.21 KCAL/MOL
REMARK 923 INTER-LIGAND FREE ENERGY PREDICTED BY IDOCK:  -10.70 KCAL/MOL
REMARK 924 INTRA-LIGAND FREE ENERGY PREDICTED BY IDOCK:   -1.51 KCAL/MOL
REMARK 927      BINDING AFFINITY PREDICTED BY RF-SCORE:    0.00 PKD
ROOT
HETATM    1  N   UNL     1     -10.420  20.255  68.669  1.00  0.00    -0.324 NA 
HETATM    2  C   UNL     1     -10.021  20.331  67.249  1.00  0.00    -0.440 C  
HETATM    3  H1  UNL     1     -10.986  21.068  68.913  1.00  0.00     0.000 HD 
HETATM    4  H2  UNL     1      -9.616  20.147  69.287  1.00  0.00     0.000 HD 
ENDROOT
BRANCH   2   5
HETATM    5  C   UNL     1      -9.168  19.106  66.879  1.00  0.00    -0.310 C  
HETATM    6  O   UNL     1      -9.819  17.951  67.441  1.00  0.00    -0.287 OA 
HETATM    7  C   UNL     1      -9.229  16.732  66.994  1.00  0.00    -0.225 C  
HETATM    8  C   UNL     1      -7.788  16.634  67.573  1.00  0.00    -0.171 C  
HETATM    9  O   UNL     1      -7.726  19.497  68.798  1.00  0.00    -0.344 OA 
HETATM   10  H   UNL     1      -6.833  19.552  69.116  1.00  0.00     0.000 HD 
HETATM   11  N   UNL     1      -7.819  16.550  69.063  1.00  0.00    -0.237 NA 
HETATM   12  C   UNL     1      -6.974  17.866  67.115  1.00  0.00    -0.180 C  
HETATM   13  H2  UNL     1      -8.409  15.782  69.386  1.00  0.00     0.000 HD 
HETATM   14  O   UNL     1      -6.615  17.762  65.731  1.00  0.00    -0.245 OA 
HETATM   15  C   UNL     1      -7.716  19.195  67.396  1.00  0.00    -0.238 C  
HETATM   16  H1  UNL     1      -6.875  16.486  69.443  1.00  0.00     0.000 HD 
HETATM   17  H   UNL     1      -6.115  18.519  65.449  1.00  0.00     0.000 HD 
BRANCH   7  18
HETATM   18  O   UNL     1      -9.980  15.601  67.443  1.00  0.00    -0.229 OA 
BRANCH  18  19
HETATM   19  C   UNL     1      -9.697  14.388  66.722  1.00  0.00    -0.270 C  
HETATM   20  O   UNL     1      -8.625  13.487  68.764  1.00  0.00    -0.349 OA 
HETATM   21  C   UNL     1     -10.992  13.994  66.016  1.00  0.00    -0.298 C  
HETATM   22  C   UNL     1     -10.818  12.658  67.919  1.00  0.00    -0.219 C  
HETATM   23  H   UNL     1      -8.445  12.735  69.316  1.00  0.00     0.000 HD 
HETATM   24  O   UNL     1     -11.705  13.108  66.892  1.00  0.00    -0.347 OA 
HETATM   25  C   UNL     1      -9.409  13.186  67.606  1.00  0.00    -0.205 C  
BRANCH  21  26
HETATM   26  C   UNL     1     -10.777  13.279  64.681  1.00  0.00    -0.400 C  
HETATM   27  H   UNL     1     -11.765  13.017  62.991  1.00  0.00     0.000 HD 
HETATM   28  O   UNL     1     -11.899  13.460  63.820  1.00  0.00    -0.446 OA 
ENDBRANCH  21  26
BRANCH  22  29
HETATM   29  O   UNL     1     -10.773  11.235  67.959  1.00  0.00    -0.183 OA 
BRANCH  29  30
HETATM   30  C   UNL     1     -11.458  10.557  69.030  1.00  0.00    -0.237 C  
HETATM   31  C   UNL     1     -11.828  11.555  70.145  1.00  0.00    -0.356 C  
HETATM   32  O   UNL     1     -12.435  12.726  69.583  1.00  0.00    -0.055 OA 
HETATM   33  C   UNL     1     -12.788  10.907  71.150  1.00  0.00    -0.409 C  
HETATM   34  C   UNL     1     -12.095   9.715  71.809  1.00  0.00    -0.446 C  
HETATM   35  N   UNL     1     -13.225  11.881  72.169  1.00  0.00    -0.508 NA 
HETATM   36  H   UNL     1     -12.664  13.341  70.270  1.00  0.00     0.000 HD 
HETATM   37  H1  UNL     1     -13.864  11.451  72.838  1.00  0.00     0.000 HD 
HETATM   38  H2  UNL     1     -13.632  12.713  71.743  1.00  0.00     0.000 HD 
HETATM   39  C   UNL     1     -11.605   8.689  70.773  1.00  0.00    -0.242 C  
HETATM   40  C   UNL     1     -10.743   9.305  69.608  1.00  0.00    -0.230 C  
HETATM   41  N   UNL     1     -10.867   7.623  71.484  1.00  0.00    -0.226 NA 
HETATM   42  H2  UNL     1     -11.417   7.197  72.230  1.00  0.00     0.000 HD 
HETATM   43  H1  UNL     1     -10.542   6.943  70.797  1.00  0.00     0.000 HD 
BRANCH  40  44
HETATM   44  O   UNL     1     -10.534   8.242  68.648  1.00  0.00    -0.211 OA 
BRANCH  44  45
HETATM   45  C   UNL     1      -9.163   7.918  68.372  1.00  0.00    -0.134 C  
HETATM   46  O   UNL     1      -8.707   6.829  69.166  1.00  0.00    -0.130 OA 
HETATM   47  C   UNL     1      -9.301   5.566  68.872  1.00  0.00    -0.125 C  
HETATM   48  C   UNL     1      -9.010   5.180  67.419  1.00  0.00    -0.109 C  
HETATM   49  H1  UNL     1      -9.235   8.538  64.979  1.00  0.00     0.000 HD 
HETATM   50  H2  UNL     1      -8.989   9.615  66.239  1.00  0.00     0.000 HD 
HETATM   51  O   UNL     1      -9.610   3.935  67.055  1.00  0.00    -0.198 OA 
HETATM   52  C   UNL     1      -9.521   6.282  66.480  1.00  0.00    -0.152 C  
HETATM   53  H   UNL     1      -9.429   3.696  66.154  1.00  0.00     0.000 HD 
HETATM   54  O   UNL     1      -9.162   5.963  65.125  1.00  0.00    -0.365 OA 
HETATM   55  N   UNL     1      -9.395   8.719  65.969  1.00  0.00    -0.226 NA 
HETATM   56  C   UNL     1      -8.919   7.642  66.867  1.00  0.00    -0.138 C  
HETATM   57  H   UNL     1      -9.478   6.645  64.544  1.00  0.00     0.000 HD 
BRANCH  47  58
HETATM   58  C   UNL     1      -8.710   4.547  69.855  1.00  0.00    -0.073 C  
HETATM   59  O   UNL     1      -9.596   3.435  70.010  1.00  0.00    -0.181 OA 
HETATM   60  H   UNL     1      -9.230   2.804  70.618  1.00  0.00     0.000 HD 
ENDBRANCH  47  58
ENDBRANCH  44  45
ENDBRANCH  40  44
ENDBRANCH  29  30
ENDBRANCH  22  29
ENDBRANCH  18  19
ENDBRANCH   7  18
ENDBRANCH   2   5
TORSDOF 9
ENDMDL
MODEL       58
REMARK 921   NORMALIZED FREE ENERGY PREDICTED BY IDOCK:   -6.62 KCAL/MOL
REMARK 922        TOTAL FREE ENERGY PREDICTED BY IDOCK:  -12.15 KCAL/MOL
REMARK 923 INTER-LIGAND FREE ENERGY PREDICTED BY IDOCK:   -9.60 KCAL/MOL
REMARK 924 INTRA-LIGAND FREE ENERGY PREDICTED BY IDOCK:   -2.55 KCAL/MOL
REMARK 927      BINDING AFFINITY PREDICTED BY RF-SCORE:    0.00 PKD
ROOT
HETATM    1  N   UNL     1     -12.053  15.145  68.313  1.00  0.00    -0.543 NA 
HETATM    2  C   UNL     1     -11.073  14.848  67.249  1.00  0.00    -0.336 C  
HETATM    3  H1  UNL     1     -11.744  15.952  68.854  1.00  0.00     0.000 HD 
HETATM    4  H2  UNL     1     -12.234  14.333  68.905  1.00  0.00     0.000 HD 
ENDROOT
BRANCH   2   5
HETATM    5  C   UNL     1     -11.540  13.631  66.433  1.00  0.00    -0.350 C  
HETATM    6  O   UNL     1     -10.678  12.531  66.782  1.00  0.00    -0.232 OA 
HETATM    7  C   UNL     1     -11.140  11.296  66.239  1.00  0.00    -0.166 C  
HETATM    8  C   UNL     1     -11.018  11.355  64.689  1.00  0.00    -0.255 C  
HETATM    9  O   UNL     1     -10.207  14.359  64.534  1.00  0.00    -0.552 OA 
HETATM   10  H   UNL     1     -10.183  14.505  63.596  1.00  0.00     0.000 HD 
HETATM   11  N   UNL     1      -9.589  11.475  64.273  1.00  0.00    -0.382 NA 
HETATM   12  C   UNL     1     -11.840  12.555  64.163  1.00  0.00    -0.411 C  
HETATM   13  H2  UNL     1      -9.017  10.729  64.668  1.00  0.00     0.000 HD 
HETATM   14  O   UNL     1     -13.246  12.280  64.218  1.00  0.00    -0.785 OA 
HETATM   15  C   UNL     1     -11.501  13.868  64.909  1.00  0.00    -0.350 C  
HETATM   16  H1  UNL     1      -9.509  11.514  63.257  1.00  0.00     0.000 HD 
HETATM   17  H   UNL     1     -13.751  13.018  63.895  1.00  0.00     0.000 HD 
BRANCH   7  18
HETATM   18  O   UNL     1     -10.358  10.198  66.717  1.00  0.00    -0.223 OA 
BRANCH  18  19
HETATM   19  C   UNL     1      -9.481  10.535  67.807  1.00  0.00    -0.149 C  
HETATM   20  O   UNL     1     -11.094   9.482  69.362  1.00  0.00    -0.359 OA 
HETATM   21  C   UNL     1      -8.079  10.107  67.381  1.00  0.00    -0.114 C  
HETATM   22  C   UNL     1      -8.889   8.458  68.816  1.00  0.00    -0.140 C  
HETATM   23  H   UNL     1     -11.241   8.978  70.153  1.00  0.00     0.000 HD 
HETATM   24  O   UNL     1      -7.878   8.767  67.855  1.00  0.00    -0.101 OA 
HETATM   25  C   UNL     1      -9.716   9.729  69.074  1.00  0.00    -0.177 C  
BRANCH  21  26
HETATM   26  C   UNL     1      -6.963  10.989  67.945  1.00  0.00    -0.073 C  
HETATM   27  H   UNL     1      -6.599  12.918  68.164  1.00  0.00     0.000 HD 
HETATM   28  O   UNL     1      -7.291  12.371  67.814  1.00  0.00    -0.100 OA 
ENDBRANCH  21  26
BRANCH  22  29
HETATM   29  O   UNL     1      -8.305   8.038  70.045  1.00  0.00    -0.120 OA 
BRANCH  29  30
HETATM   30  C   UNL     1      -8.978   7.019  70.811  1.00  0.00    -0.150 C  
HETATM   31  C   UNL     1      -9.296   7.537  72.227  1.00  0.00    -0.145 C  
HETATM   32  O   UNL     1      -9.891   8.841  72.158  1.00  0.00    -0.314 OA 
HETATM   33  C   UNL     1     -10.245   6.576  72.951  1.00  0.00    -0.193 C  
HETATM   34  C   UNL     1      -9.563   5.216  73.101  1.00  0.00    -0.155 C  
HETATM   35  N   UNL     1     -10.634   7.108  74.272  1.00  0.00    -0.518 NA 
HETATM   36  H   UNL     1     -10.087   9.160  73.030  1.00  0.00     0.000 HD 
HETATM   37  H1  UNL     1     -11.264   6.468  74.754  1.00  0.00     0.000 HD 
HETATM   38  H2  UNL     1     -11.032   8.043  74.197  1.00  0.00     0.000 HD 
HETATM   39  C   UNL     1      -9.123   4.640  71.743  1.00  0.00    -0.135 C  
HETATM   40  C   UNL     1      -8.278   5.634  70.861  1.00  0.00    -0.120 C  
HETATM   41  N   UNL     1      -8.392   3.378  71.986  1.00  0.00    -0.073 NA 
HETATM   42  H2  UNL     1      -8.933   2.713  72.538  1.00  0.00     0.000 HD 
HETATM   43  H1  UNL     1      -8.101   2.997  71.086  1.00  0.00     0.000 HD 
BRANCH  40  44
HETATM   44  O   UNL     1      -8.117   5.000  69.570  1.00  0.00    -0.077 OA 
BRANCH  44  45
HETATM   45  C   UNL     1      -9.200   4.155  69.156  1.00  0.00    -0.147 C  
HETATM   46  O   UNL     1     -10.134   4.854  68.340  1.00  0.00    -0.145 OA 
HETATM   47  C   UNL     1      -9.651   5.247  67.057  1.00  0.00    -0.142 C  
HETATM   48  C   UNL     1      -9.234   4.010  66.257  1.00  0.00    -0.158 C  
HETATM   49  H1  UNL     1      -7.374   1.256  68.753  1.00  0.00     0.000 HD 
HETATM   50  H2  UNL     1      -8.062   1.879  70.149  1.00  0.00     0.000 HD 
HETATM   51  O   UNL     1      -8.709   4.345  64.970  1.00  0.00    -0.123 OA 
HETATM   52  C   UNL     1      -8.180   3.218  67.043  1.00  0.00    -0.084 C  
HETATM   53  H   UNL     1      -8.450   3.577  64.474  1.00  0.00     0.000 HD 
HETATM   54  O   UNL     1      -7.861   2.008  66.334  1.00  0.00    -0.072 OA 
HETATM   55  N   UNL     1      -7.702   2.101  69.220  1.00  0.00    -0.043 NA 
HETATM   56  C   UNL     1      -8.703   2.871  68.446  1.00  0.00    -0.103 C  
HETATM   57  H   UNL     1      -7.209   1.517  66.821  1.00  0.00     0.000 HD 
BRANCH  47  58
HETATM   58  C   UNL     1     -10.784   6.013  66.361  1.00  0.00    -0.054 C  
HETATM   59  O   UNL     1     -11.377   5.204  65.341  1.00  0.00    -0.732 OA 
HETATM   60  H   UNL     1     -12.078   5.678  64.910  1.00  0.00     0.000 HD 
ENDBRANCH  47  58
ENDBRANCH  44  45
ENDBRANCH  40  44
ENDBRANCH  29  30
ENDBRANCH  22  29
ENDBRANCH  18  19
ENDBRANCH   7  18
ENDBRANCH   2   5
TORSDOF 9
ENDMDL
MODEL       59
REMARK 921   NORMALIZED FREE ENERGY PREDICTED BY IDOCK:   -6.62 KCAL/MOL
REMARK 922        TOTAL FREE ENERGY PREDICTED BY IDOCK:  -12.15 KCAL/MOL
REMARK 923 INTER-LIGAND FREE ENERGY PREDICTED BY IDOCK:   -9.86 KCAL/MOL
REMARK 924 INTRA-LIGAND FREE ENERGY PREDICTED BY IDOCK:   -2.29 KCAL/MOL
REMARK 927      BINDING AFFINITY PREDICTED BY RF-SCORE:    0.00 PKD
ROOT
HETATM    1  N   UNL     1     -10.550   4.083  73.042  1.00  0.00    -0.173 NA 
HETATM    2  C   UNL     1      -9.220   3.985  73.678  1.00  0.00    -0.096 C  
HETATM    3  H1  UNL     1     -11.243   3.600  73.613  1.00  0.00     0.000 HD 
HETATM    4  H2  UNL     1     -10.540   3.743  72.080  1.00  0.00     0.000 HD 
ENDROOT
BRANCH   2   5
HETATM    5  C   UNL     1      -8.174   4.713  72.817  1.00  0.00    -0.100 C  
HETATM    6  O   UNL     1      -8.884   5.667  72.005  1.00  0.00    -0.137 OA 
HETATM    7  C   UNL     1      -7.999   6.543  71.310  1.00  0.00    -0.108 C  
HETATM    8  C   UNL     1      -7.201   5.716  70.260  1.00  0.00    -0.067 C  
HETATM    9  O   UNL     1      -8.246   2.926  71.169  1.00  0.00    -0.059 OA 
HETATM   10  H   UNL     1      -7.741   2.341  70.617  1.00  0.00     0.000 HD 
HETATM   11  N   UNL     1      -8.115   5.153  69.222  1.00  0.00    -0.083 NA 
HETATM   12  C   UNL     1      -6.436   4.584  70.983  1.00  0.00    -0.029 C  
HETATM   13  H2  UNL     1      -8.680   5.879  68.781  1.00  0.00     0.000 HD 
HETATM   14  O   UNL     1      -5.304   5.100  71.696  1.00  0.00    -0.004 OA 
HETATM   15  C   UNL     1      -7.354   3.762  71.919  1.00  0.00    -0.055 C  
HETATM   16  H1  UNL     1      -7.593   4.611  68.534  1.00  0.00     0.000 HD 
HETATM   17  H   UNL     1      -4.834   4.404  72.140  1.00  0.00     0.000 HD 
BRANCH   7  18
HETATM   18  O   UNL     1      -8.721   7.572  70.629  1.00  0.00    -0.139 OA 
BRANCH  18  19
HETATM   19  C   UNL     1      -9.589   8.340  71.482  1.00  0.00    -0.188 C  
HETATM   20  O   UNL     1      -9.207  10.299  70.017  1.00  0.00    -0.399 OA 
HETATM   21  C   UNL     1     -10.836   7.489  71.707  1.00  0.00    -0.227 C  
HETATM   22  C   UNL     1     -11.375   9.071  70.083  1.00  0.00    -0.121 C  
HETATM   23  H   UNL     1      -9.555  11.087  69.616  1.00  0.00     0.000 HD 
HETATM   24  O   UNL     1     -11.789   7.849  70.696  1.00  0.00    -0.226 OA 
HETATM   25  C   UNL     1     -10.145   9.600  70.839  1.00  0.00    -0.186 C  
BRANCH  21  26
HETATM   26  C   UNL     1     -11.487   7.694  73.076  1.00  0.00    -0.213 C  
HETATM   27  H   UNL     1     -11.176   7.119  74.940  1.00  0.00     0.000 HD 
HETATM   28  O   UNL     1     -10.772   6.992  74.090  1.00  0.00    -0.226 OA 
ENDBRANCH  21  26
BRANCH  22  29
HETATM   29  O   UNL     1     -12.409  10.048  70.155  1.00  0.00    -0.143 OA 
BRANCH  29  30
HETATM   30  C   UNL     1     -12.039  11.425  70.364  1.00  0.00    -0.384 C  
HETATM   31  C   UNL     1     -13.000  12.091  71.368  1.00  0.00    -0.262 C  
HETATM   32  O   UNL     1     -13.178  11.251  72.518  1.00  0.00    -0.452 OA 
HETATM   33  C   UNL     1     -12.460  13.457  71.806  1.00  0.00    -0.023 C  
HETATM   34  C   UNL     1     -12.363  14.372  70.585  1.00  0.00    -0.422 C  
HETATM   35  N   UNL     1     -13.323  14.063  72.839  1.00  0.00    -0.648 NA 
HETATM   36  H   UNL     1     -13.770  11.662  73.136  1.00  0.00     0.000 HD 
HETATM   37  H1  UNL     1     -12.964  14.971  73.130  1.00  0.00     0.000 HD 
HETATM   38  H2  UNL     1     -13.452  13.438  73.634  1.00  0.00     0.000 HD 
HETATM   39  C   UNL     1     -11.488  13.761  69.476  1.00  0.00    -0.267 C  
HETATM   40  C   UNL     1     -11.876  12.287  69.082  1.00  0.00    -0.301 C  
HETATM   41  N   UNL     1     -11.525  14.660  68.304  1.00  0.00    -0.299 NA 
HETATM   42  H2  UNL     1     -11.255  15.617  68.535  1.00  0.00     0.000 HD 
HETATM   43  H1  UNL     1     -10.945  14.256  67.569  1.00  0.00     0.000 HD 
BRANCH  40  44
HETATM   44  O   UNL     1     -10.848  11.821  68.177  1.00  0.00    -0.197 OA 
BRANCH  44  45
HETATM   45  C   UNL     1     -11.294  10.947  67.130  1.00  0.00    -0.088 C  
HETATM   46  O   UNL     1     -12.144  11.618  66.207  1.00  0.00    -0.333 OA 
HETATM   47  C   UNL     1     -11.513  12.620  65.411  1.00  0.00    -0.338 C  
HETATM   48  C   UNL     1     -10.394  11.993  64.576  1.00  0.00    -0.296 C  
HETATM   49  H1  UNL     1      -8.386   9.118  66.808  1.00  0.00     0.000 HD 
HETATM   50  H2  UNL     1      -9.656   8.894  67.879  1.00  0.00     0.000 HD 
HETATM   51  O   UNL     1      -9.701  12.957  63.780  1.00  0.00    -0.669 OA 
HETATM   52  C   UNL     1      -9.393  11.286  65.500  1.00  0.00    -0.221 C  
HETATM   53  H   UNL     1      -9.008  12.567  63.261  1.00  0.00     0.000 HD 
HETATM   54  O   UNL     1      -8.396  10.617  64.709  1.00  0.00    -0.270 OA 
HETATM   55  N   UNL     1      -9.164   9.567  67.292  1.00  0.00    -0.133 NA 
HETATM   56  C   UNL     1     -10.113  10.265  66.395  1.00  0.00    -0.234 C  
HETATM   57  H   UNL     1      -7.777  10.179  65.281  1.00  0.00     0.000 HD 
BRANCH  47  58
HETATM   58  C   UNL     1     -12.598  13.244  64.523  1.00  0.00    -0.251 C  
HETATM   59  O   UNL     1     -12.049  14.312  63.745  1.00  0.00    -0.786 OA 
HETATM   60  H   UNL     1     -12.721  14.698  63.196  1.00  0.00     0.000 HD 
ENDBRANCH  47  58
ENDBRANCH  44  45
ENDBRANCH  40  44
ENDBRANCH  29  30
ENDBRANCH  22  29
ENDBRANCH  18  19
ENDBRANCH   7  18
ENDBRANCH   2   5
TORSDOF 9
ENDMDL
MODEL       60
REMARK 921   NORMALIZED FREE ENERGY PREDICTED BY IDOCK:   -6.62 KCAL/MOL
REMARK 922        TOTAL FREE ENERGY PREDICTED BY IDOCK:  -12.14 KCAL/MOL
REMARK 923 INTER-LIGAND FREE ENERGY PREDICTED BY IDOCK:  -10.42 KCAL/MOL
REMARK 924 INTRA-LIGAND FREE ENERGY PREDICTED BY IDOCK:   -1.72 KCAL/MOL
REMARK 927      BINDING AFFINITY PREDICTED BY RF-SCORE:    0.00 PKD
ROOT
HETATM    1  N   UNL     1      -8.448  18.722  68.514  1.00  0.00    -0.339 NA 
HETATM    2  C   UNL     1      -8.197  17.380  67.952  1.00  0.00    -0.225 C  
HETATM    3  H1  UNL     1      -7.904  19.419  68.005  1.00  0.00     0.000 HD 
HETATM    4  H2  UNL     1      -8.272  18.757  69.518  1.00  0.00     0.000 HD 
ENDROOT
BRANCH   2   5
HETATM    5  C   UNL     1      -9.018  16.330  68.720  1.00  0.00    -0.243 C  
HETATM    6  O   UNL     1      -9.131  15.175  67.868  1.00  0.00    -0.176 OA 
HETATM    7  C   UNL     1      -9.700  14.060  68.550  1.00  0.00    -0.215 C  
HETATM    8  C   UNL     1     -11.183  14.387  68.892  1.00  0.00    -0.262 C  
HETATM    9  O   UNL     1     -11.088  17.360  67.968  1.00  0.00    -0.259 OA 
HETATM   10  H   UNL     1     -11.952  17.667  68.215  1.00  0.00     0.000 HD 
HETATM   11  N   UNL     1     -11.989  14.559  67.647  1.00  0.00    -0.543 NA 
HETATM   12  C   UNL     1     -11.232  15.671  69.752  1.00  0.00    -0.321 C  
HETATM   13  H2  UNL     1     -11.913  13.747  67.033  1.00  0.00     0.000 HD 
HETATM   14  O   UNL     1     -10.797  15.410  71.093  1.00  0.00    -0.449 OA 
HETATM   15  C   UNL     1     -10.422  16.829  69.122  1.00  0.00    -0.343 C  
HETATM   16  H1  UNL     1     -12.961  14.773  67.870  1.00  0.00     0.000 HD 
HETATM   17  H   UNL     1     -10.827  16.199  71.622  1.00  0.00     0.000 HD 
BRANCH   7  18
HETATM   18  O   UNL     1      -9.668  12.885  67.735  1.00  0.00    -0.202 OA 
BRANCH  18  19
HETATM   19  C   UNL     1      -9.899  11.664  68.460  1.00  0.00    -0.193 C  
HETATM   20  O   UNL     1     -12.028  11.395  67.226  1.00  0.00    -0.580 OA 
HETATM   21  C   UNL     1      -8.596  10.869  68.391  1.00  0.00    -0.146 C  
HETATM   22  C   UNL     1     -10.038   9.955  66.803  1.00  0.00    -0.230 C  
HETATM   23  H   UNL     1     -12.657  10.810  66.820  1.00  0.00     0.000 HD 
HETATM   24  O   UNL     1      -8.680  10.008  67.246  1.00  0.00    -0.125 OA 
HETATM   25  C   UNL     1     -10.905  10.729  67.810  1.00  0.00    -0.269 C  
BRANCH  21  26
HETATM   26  C   UNL     1      -8.332  10.004  69.625  1.00  0.00    -0.176 C  
HETATM   27  H   UNL     1      -7.165   8.491  70.123  1.00  0.00     0.000 HD 
HETATM   28  O   UNL     1      -7.329   9.027  69.357  1.00  0.00    -0.072 OA 
ENDBRANCH  21  26
BRANCH  22  29
HETATM   29  O   UNL     1     -10.498   8.609  66.746  1.00  0.00    -0.291 OA 
BRANCH  29  30
HETATM   30  C   UNL     1      -9.565   7.551  67.037  1.00  0.00    -0.170 C  
HETATM   31  C   UNL     1      -8.633   7.313  65.833  1.00  0.00    -0.149 C  
HETATM   32  O   UNL     1      -8.119   8.561  65.348  1.00  0.00    -0.112 OA 
HETATM   33  C   UNL     1      -7.470   6.394  66.225  1.00  0.00    -0.085 C  
HETATM   34  C   UNL     1      -8.028   5.036  66.652  1.00  0.00    -0.107 C  
HETATM   35  N   UNL     1      -6.519   6.235  65.107  1.00  0.00    -0.038 NA 
HETATM   36  H   UNL     1      -7.544   8.415  64.606  1.00  0.00     0.000 HD 
HETATM   37  H1  UNL     1      -5.746   5.623  65.367  1.00  0.00     0.000 HD 
HETATM   38  H2  UNL     1      -6.187   7.137  64.767  1.00  0.00     0.000 HD 
HETATM   39  C   UNL     1      -9.041   5.165  67.801  1.00  0.00    -0.111 C  
HETATM   40  C   UNL     1     -10.183   6.219  67.544  1.00  0.00    -0.173 C  
HETATM   41  N   UNL     1      -9.599   3.826  68.086  1.00  0.00    -0.150 NA 
HETATM   42  H2  UNL     1      -8.875   3.133  68.277  1.00  0.00     0.000 HD 
HETATM   43  H1  UNL     1     -10.270   3.912  68.848  1.00  0.00     0.000 HD 
BRANCH  40  44
HETATM   44  O   UNL     1     -10.918   6.337  68.784  1.00  0.00    -0.298 OA 
BRANCH  44  45
HETATM   45  C   UNL     1     -10.176   6.854  69.898  1.00  0.00    -0.199 C  
HETATM   46  O   UNL     1     -10.510   8.209  70.175  1.00  0.00    -0.215 OA 
HETATM   47  C   UNL     1     -11.832   8.424  70.666  1.00  0.00    -0.092 C  
HETATM   48  C   UNL     1     -12.030   7.664  71.980  1.00  0.00    -0.302 C  
HETATM   49  H1  UNL     1     -10.142   3.966  71.786  1.00  0.00     0.000 HD 
HETATM   50  H2  UNL     1      -9.103   4.429  70.556  1.00  0.00     0.000 HD 
HETATM   51  O   UNL     1     -13.351   7.816  72.505  1.00  0.00    -0.491 OA 
HETATM   52  C   UNL     1     -11.740   6.173  71.762  1.00  0.00    -0.253 C  
HETATM   53  H   UNL     1     -13.473   7.345  73.320  1.00  0.00     0.000 HD 
HETATM   54  O   UNL     1     -11.833   5.476  73.017  1.00  0.00    -0.537 OA 
HETATM   55  N   UNL     1     -10.036   4.543  70.952  1.00  0.00    -0.205 NA 
HETATM   56  C   UNL     1     -10.337   5.977  71.166  1.00  0.00    -0.214 C  
HETATM   57  H   UNL     1     -11.654   4.553  72.882  1.00  0.00     0.000 HD 
BRANCH  47  58
HETATM   58  C   UNL     1     -12.003   9.938  70.859  1.00  0.00    -0.345 C  
HETATM   59  O   UNL     1     -13.327  10.338  70.494  1.00  0.00    -0.515 OA 
HETATM   60  H   UNL     1     -13.432  11.274  70.613  1.00  0.00     0.000 HD 
ENDBRANCH  47  58
ENDBRANCH  44  45
ENDBRANCH  40  44
ENDBRANCH  29  30
ENDBRANCH  22  29
ENDBRANCH  18  19
ENDBRANCH   7  18
ENDBRANCH   2   5
TORSDOF 9
ENDMDL
MODEL       61
REMARK 921   NORMALIZED FREE ENERGY PREDICTED BY IDOCK:   -6.61 KCAL/MOL
REMARK 922        TOTAL FREE ENERGY PREDICTED BY IDOCK:  -12.13 KCAL/MOL
REMARK 923 INTER-LIGAND FREE ENERGY PREDICTED BY IDOCK:  -10.60 KCAL/MOL
REMARK 924 INTRA-LIGAND FREE ENERGY PREDICTED BY IDOCK:   -1.53 KCAL/MOL
REMARK 927      BINDING AFFINITY PREDICTED BY RF-SCORE:    0.00 PKD
ROOT
HETATM    1  N   UNL     1     -14.363   8.680  70.968  1.00  0.00    -0.597 NA 
HETATM    2  C   UNL     1     -13.467   7.724  71.649  1.00  0.00    -0.349 C  
HETATM    3  H1  UNL     1     -15.332   8.493  71.226  1.00  0.00     0.000 HD 
HETATM    4  H2  UNL     1     -14.228   8.677  69.956  1.00  0.00     0.000 HD 
ENDROOT
BRANCH   2   5
HETATM    5  C   UNL     1     -12.007   8.007  71.260  1.00  0.00    -0.296 C  
HETATM    6  O   UNL     1     -11.530   6.856  70.537  1.00  0.00    -0.303 OA 
HETATM    7  C   UNL     1     -10.251   7.084  69.950  1.00  0.00    -0.201 C  
HETATM    8  C   UNL     1      -9.200   7.240  71.087  1.00  0.00    -0.156 C  
HETATM    9  O   UNL     1     -11.248   7.228  73.435  1.00  0.00    -0.584 OA 
HETATM   10  H   UNL     1     -10.686   7.398  74.182  1.00  0.00     0.000 HD 
HETATM   11  N   UNL     1      -9.071   5.974  71.868  1.00  0.00    -0.141 NA 
HETATM   12  C   UNL     1      -9.623   8.407  72.010  1.00  0.00    -0.274 C  
HETATM   13  H2  UNL     1      -8.860   5.179  71.266  1.00  0.00     0.000 HD 
HETATM   14  O   UNL     1      -9.389   9.674  71.379  1.00  0.00    -0.292 OA 
HETATM   15  C   UNL     1     -11.094   8.282  72.474  1.00  0.00    -0.368 C  
HETATM   16  H1  UNL     1      -8.383   6.076  72.614  1.00  0.00     0.000 HD 
HETATM   17  H   UNL     1      -9.649  10.390  71.946  1.00  0.00     0.000 HD 
BRANCH   7  18
HETATM   18  O   UNL     1      -9.863   5.988  69.117  1.00  0.00    -0.139 OA 
BRANCH  18  19
HETATM   19  C   UNL     1     -10.498   5.981  67.826  1.00  0.00    -0.239 C  
HETATM   20  O   UNL     1     -10.841   8.424  68.040  1.00  0.00    -0.454 OA 
HETATM   21  C   UNL     1      -9.586   5.177  66.902  1.00  0.00    -0.148 C  
HETATM   22  C   UNL     1      -9.186   7.431  66.463  1.00  0.00    -0.165 C  
HETATM   23  H   UNL     1     -10.879   9.273  67.617  1.00  0.00     0.000 HD 
HETATM   24  O   UNL     1      -8.691   6.105  66.270  1.00  0.00    -0.133 OA 
HETATM   25  C   UNL     1     -10.559   7.341  67.150  1.00  0.00    -0.346 C  
BRANCH  21  26
HETATM   26  C   UNL     1     -10.333   4.410  65.809  1.00  0.00    -0.217 C  
HETATM   27  H   UNL     1     -10.029   3.882  63.930  1.00  0.00     0.000 HD 
HETATM   28  O   UNL     1      -9.566   4.359  64.608  1.00  0.00    -0.160 OA 
ENDBRANCH  21  26
BRANCH  22  29
HETATM   29  O   UNL     1      -9.345   8.097  65.214  1.00  0.00     0.172 OA 
BRANCH  29  30
HETATM   30  C   UNL     1      -8.191   8.717  64.614  1.00  0.00    -0.165 C  
HETATM   31  C   UNL     1      -7.190   7.642  64.146  1.00  0.00    -0.080 C  
HETATM   32  O   UNL     1      -7.870   6.614  63.412  1.00  0.00    -0.112 OA 
HETATM   33  C   UNL     1      -6.100   8.268  63.268  1.00  0.00    -0.077 C  
HETATM   34  C   UNL     1      -5.323   9.295  64.090  1.00  0.00    -0.060 C  
HETATM   35  N   UNL     1      -5.190   7.235  62.736  1.00  0.00    -0.033 NA 
HETATM   36  H   UNL     1      -7.254   5.953  63.123  1.00  0.00     0.000 HD 
HETATM   37  H1  UNL     1      -4.465   7.651  62.152  1.00  0.00     0.000 HD 
HETATM   38  H2  UNL     1      -5.700   6.505  62.238  1.00  0.00     0.000 HD 
HETATM   39  C   UNL     1      -6.244  10.376  64.681  1.00  0.00    -0.080 C  
HETATM   40  C   UNL     1      -7.489   9.811  65.463  1.00  0.00    -0.115 C  
HETATM   41  N   UNL     1      -5.431  11.268  65.534  1.00  0.00    -0.496 NA 
HETATM   42  H2  UNL     1      -4.631  11.662  65.039  1.00  0.00     0.000 HD 
HETATM   43  H1  UNL     1      -6.042  11.985  65.926  1.00  0.00     0.000 HD 
BRANCH  40  44
HETATM   44  O   UNL     1      -8.325  10.948  65.780  1.00  0.00    -0.166 OA 
BRANCH  44  45
HETATM   45  C   UNL     1      -9.730  10.766  65.552  1.00  0.00    -0.239 C  
HETATM   46  O   UNL     1     -10.472  10.803  66.766  1.00  0.00    -0.234 OA 
HETATM   47  C   UNL     1     -10.512  12.069  67.421  1.00  0.00    -0.216 C  
HETATM   48  C   UNL     1     -11.155  13.111  66.502  1.00  0.00    -0.294 C  
HETATM   49  H1  UNL     1      -9.926  12.504  62.578  1.00  0.00     0.000 HD 
HETATM   50  H2  UNL     1      -9.504  10.902  62.833  1.00  0.00     0.000 HD 
HETATM   51  O   UNL     1     -11.193  14.411  67.094  1.00  0.00    -0.306 OA 
HETATM   52  C   UNL     1     -10.381  13.179  65.178  1.00  0.00    -0.311 C  
HETATM   53  H   UNL     1     -11.592  15.057  66.523  1.00  0.00     0.000 HD 
HETATM   54  O   UNL     1     -11.043  14.087  64.280  1.00  0.00    -0.569 OA 
HETATM   55  N   UNL     1      -9.555  11.833  63.249  1.00  0.00    -0.322 NA 
HETATM   56  C   UNL     1     -10.294  11.787  64.532  1.00  0.00    -0.294 C  
HETATM   57  H   UNL     1     -10.564  14.130  63.461  1.00  0.00     0.000 HD 
BRANCH  47  58
HETATM   58  C   UNL     1     -11.316  11.885  68.715  1.00  0.00    -0.274 C  
HETATM   59  O   UNL     1     -12.394  10.969  68.503  1.00  0.00    -0.762 OA 
HETATM   60  H   UNL     1     -12.892  10.855  69.303  1.00  0.00     0.000 HD 
ENDBRANCH  47  58
ENDBRANCH  44  45
ENDBRANCH  40  44
ENDBRANCH  29  30
ENDBRANCH  22  29
ENDBRANCH  18  19
ENDBRANCH   7  18
ENDBRANCH   2   5
TORSDOF 9
ENDMDL
MODEL       62
REMARK 921   NORMALIZED FREE ENERGY PREDICTED BY IDOCK:   -6.61 KCAL/MOL
REMARK 922        TOTAL FREE ENERGY PREDICTED BY IDOCK:  -12.13 KCAL/MOL
REMARK 923 INTER-LIGAND FREE ENERGY PREDICTED BY IDOCK:   -9.73 KCAL/MOL
REMARK 924 INTRA-LIGAND FREE ENERGY PREDICTED BY IDOCK:   -2.39 KCAL/MOL
REMARK 927      BINDING AFFINITY PREDICTED BY RF-SCORE:    0.00 PKD
ROOT
HETATM    1  N   UNL     1     -10.894  14.675  70.365  1.00  0.00    -0.486 NA 
HETATM    2  C   UNL     1     -12.105  14.010  69.843  1.00  0.00    -0.345 C  
HETATM    3  H1  UNL     1     -11.099  15.112  71.264  1.00  0.00     0.000 HD 
HETATM    4  H2  UNL     1     -10.503  15.339  69.696  1.00  0.00     0.000 HD 
ENDROOT
BRANCH   2   5
HETATM    5  C   UNL     1     -11.796  13.351  68.488  1.00  0.00    -0.366 C  
HETATM    6  O   UNL     1     -10.408  12.969  68.509  1.00  0.00    -0.250 OA 
HETATM    7  C   UNL     1     -10.056  12.167  67.384  1.00  0.00    -0.199 C  
HETATM    8  C   UNL     1     -10.156  13.039  66.099  1.00  0.00    -0.285 C  
HETATM    9  O   UNL     1     -11.406  15.533  67.486  1.00  0.00    -0.314 OA 
HETATM   10  H   UNL     1     -11.574  16.103  66.745  1.00  0.00     0.000 HD 
HETATM   11  N   UNL     1      -9.163  14.153  66.134  1.00  0.00    -0.506 NA 
HETATM   12  C   UNL     1     -11.594  13.597  65.978  1.00  0.00    -0.337 C  
HETATM   13  H2  UNL     1      -8.214  13.808  66.282  1.00  0.00     0.000 HD 
HETATM   14  O   UNL     1     -12.511  12.574  65.568  1.00  0.00    -0.646 OA 
HETATM   15  C   UNL     1     -12.069  14.277  67.284  1.00  0.00    -0.355 C  
HETATM   16  H1  UNL     1      -9.229  14.725  65.292  1.00  0.00     0.000 HD 
HETATM   17  H   UNL     1     -13.394  12.917  65.493  1.00  0.00     0.000 HD 
BRANCH   7  18
HETATM   18  O   UNL     1      -8.718  11.676  67.499  1.00  0.00    -0.147 OA 
BRANCH  18  19
HETATM   19  C   UNL     1      -8.619  10.240  67.494  1.00  0.00    -0.118 C  
HETATM   20  O   UNL     1      -6.397  10.441  68.566  1.00  0.00    -0.051 OA 
HETATM   21  C   UNL     1      -9.947   9.715  68.036  1.00  0.00    -0.160 C  
HETATM   22  C   UNL     1      -8.406   9.608  69.782  1.00  0.00    -0.174 C  
HETATM   23  H   UNL     1      -5.762  10.089  69.179  1.00  0.00     0.000 HD 
HETATM   24  O   UNL     1      -9.796   9.553  69.455  1.00  0.00    -0.170 OA 
HETATM   25  C   UNL     1      -7.603   9.678  68.473  1.00  0.00    -0.080 C  
BRANCH  21  26
HETATM   26  C   UNL     1     -10.371   8.372  67.441  1.00  0.00    -0.285 C  
HETATM   27  H   UNL     1     -10.414   7.513  65.663  1.00  0.00     0.000 HD 
HETATM   28  O   UNL     1     -10.151   8.347  66.032  1.00  0.00    -0.104 OA 
ENDBRANCH  21  26
BRANCH  22  29
HETATM   29  O   UNL     1      -8.010   8.441  70.498  1.00  0.00    -0.088 OA 
BRANCH  29  30
HETATM   30  C   UNL     1      -9.008   7.445  70.793  1.00  0.00    -0.151 C  
HETATM   31  C   UNL     1      -9.174   7.289  72.317  1.00  0.00    -0.131 C  
HETATM   32  O   UNL     1      -9.291   8.577  72.939  1.00  0.00    -0.242 OA 
HETATM   33  C   UNL     1     -10.412   6.445  72.641  1.00  0.00    -0.210 C  
HETATM   34  C   UNL     1     -10.232   5.046  72.051  1.00  0.00    -0.262 C  
HETATM   35  N   UNL     1     -10.635   6.368  74.097  1.00  0.00    -0.432 NA 
HETATM   36  H   UNL     1      -9.393   8.481  73.878  1.00  0.00     0.000 HD 
HETATM   37  H1  UNL     1     -11.458   5.806  74.313  1.00  0.00     0.000 HD 
HETATM   38  H2  UNL     1     -10.692   7.295  74.518  1.00  0.00     0.000 HD 
HETATM   39  C   UNL     1      -9.973   5.089  70.535  1.00  0.00    -0.242 C  
HETATM   40  C   UNL     1      -8.818   6.067  70.102  1.00  0.00    -0.143 C  
HETATM   41  N   UNL     1      -9.718   3.711  70.065  1.00  0.00    -0.168 NA 
HETATM   42  H2  UNL     1     -10.467   3.066  70.318  1.00  0.00     0.000 HD 
HETATM   43  H1  UNL     1      -9.547   3.740  69.061  1.00  0.00     0.000 HD 
BRANCH  40  44
HETATM   44  O   UNL     1      -8.843   6.117  68.656  1.00  0.00    -0.115 OA 
BRANCH  44  45
HETATM   45  C   UNL     1      -8.038   5.135  67.989  1.00  0.00    -0.098 C  
HETATM   46  O   UNL     1      -8.815   4.306  67.132  1.00  0.00    -0.107 OA 
HETATM   47  C   UNL     1      -9.371   4.957  65.990  1.00  0.00    -0.156 C  
HETATM   48  C   UNL     1      -8.248   5.528  65.120  1.00  0.00    -0.141 C  
HETATM   49  H1  UNL     1      -5.240   7.099  67.520  1.00  0.00     0.000 HD 
HETATM   50  H2  UNL     1      -5.676   6.195  68.862  1.00  0.00     0.000 HD 
HETATM   51  O   UNL     1      -8.746   6.222  63.974  1.00  0.00    -0.324 OA 
HETATM   52  C   UNL     1      -7.383   6.483  65.954  1.00  0.00    -0.079 C  
HETATM   53  H   UNL     1      -8.050   6.576  63.434  1.00  0.00     0.000 HD 
HETATM   54  O   UNL     1      -6.274   6.944  65.162  1.00  0.00    -0.035 OA 
HETATM   55  N   UNL     1      -6.016   6.678  68.030  1.00  0.00    -0.023 NA 
HETATM   56  C   UNL     1      -6.859   5.774  67.213  1.00  0.00    -0.064 C  
HETATM   57  H   UNL     1      -5.739   7.534  65.679  1.00  0.00     0.000 HD 
BRANCH  47  58
HETATM   58  C   UNL     1     -10.197   3.911  65.229  1.00  0.00    -0.073 C  
HETATM   59  O   UNL     1     -11.477   4.446  64.882  1.00  0.00    -1.070 OA 
HETATM   60  H   UNL     1     -11.989   3.799  64.412  1.00  0.00     0.000 HD 
ENDBRANCH  47  58
ENDBRANCH  44  45
ENDBRANCH  40  44
ENDBRANCH  29  30
ENDBRANCH  22  29
ENDBRANCH  18  19
ENDBRANCH   7  18
ENDBRANCH   2   5
TORSDOF 9
ENDMDL
MODEL       63
REMARK 921   NORMALIZED FREE ENERGY PREDICTED BY IDOCK:   -6.58 KCAL/MOL
REMARK 922        TOTAL FREE ENERGY PREDICTED BY IDOCK:  -12.08 KCAL/MOL
REMARK 923 INTER-LIGAND FREE ENERGY PREDICTED BY IDOCK:  -10.48 KCAL/MOL
REMARK 924 INTRA-LIGAND FREE ENERGY PREDICTED BY IDOCK:   -1.60 KCAL/MOL
REMARK 927      BINDING AFFINITY PREDICTED BY RF-SCORE:    0.00 PKD
ROOT
HETATM    1  N   UNL     1      -8.504   8.216  74.534  1.00  0.00    -0.423 NA 
HETATM    2  C   UNL     1      -8.002   6.835  74.389  1.00  0.00    -0.122 C  
HETATM    3  H1  UNL     1      -8.032   8.677  75.312  1.00  0.00     0.000 HD 
HETATM    4  H2  UNL     1      -9.519   8.246  74.630  1.00  0.00     0.000 HD 
ENDROOT
BRANCH   2   5
HETATM    5  C   UNL     1      -8.714   6.140  73.216  1.00  0.00    -0.123 C  
HETATM    6  O   UNL     1      -9.227   7.177  72.358  1.00  0.00    -0.134 OA 
HETATM    7  C   UNL     1      -9.733   6.656  71.132  1.00  0.00    -0.174 C  
HETATM    8  C   UNL     1     -10.997   5.799  71.437  1.00  0.00    -0.237 C  
HETATM    9  O   UNL     1     -10.743   5.926  74.538  1.00  0.00    -0.358 OA 
HETATM   10  H   UNL     1     -11.449   5.353  74.814  1.00  0.00     0.000 HD 
HETATM   11  N   UNL     1     -12.088   6.646  72.002  1.00  0.00    -0.401 NA 
HETATM   12  C   UNL     1     -10.616   4.672  72.424  1.00  0.00    -0.157 C  
HETATM   13  H2  UNL     1     -12.306   7.437  71.394  1.00  0.00     0.000 HD 
HETATM   14  O   UNL     1      -9.862   3.644  71.769  1.00  0.00    -0.161 OA 
HETATM   15  C   UNL     1      -9.861   5.210  73.663  1.00  0.00    -0.162 C  
HETATM   16  H1  UNL     1     -12.916   6.085  72.202  1.00  0.00     0.000 HD 
HETATM   17  H   UNL     1      -9.628   2.952  72.376  1.00  0.00     0.000 HD 
BRANCH   7  18
HETATM   18  O   UNL     1     -10.101   7.709  70.236  1.00  0.00    -0.195 OA 
BRANCH  18  19
HETATM   19  C   UNL     1      -9.133   7.961  69.202  1.00  0.00    -0.145 C  
HETATM   20  O   UNL     1     -10.999   8.393  67.634  1.00  0.00    -0.501 OA 
HETATM   21  C   UNL     1      -8.094   8.905  69.804  1.00  0.00    -0.109 C  
HETATM   22  C   UNL     1      -9.522  10.205  68.498  1.00  0.00    -0.158 C  
HETATM   23  H   UNL     1     -11.334   8.887  66.895  1.00  0.00     0.000 HD 
HETATM   24  O   UNL     1      -8.512  10.246  69.508  1.00  0.00    -0.165 OA 
HETATM   25  C   UNL     1      -9.669   8.751  68.020  1.00  0.00    -0.157 C  
BRANCH  21  26
HETATM   26  C   UNL     1      -6.682   8.708  69.250  1.00  0.00    -0.050 C  
HETATM   27  H   UNL     1      -5.110   9.827  68.833  1.00  0.00     0.000 HD 
HETATM   28  O   UNL     1      -5.986   9.950  69.176  1.00  0.00    -0.035 OA 
ENDBRANCH  21  26
BRANCH  22  29
HETATM   29  O   UNL     1      -9.156  11.015  67.385  1.00  0.00    -0.141 OA 
BRANCH  29  30
HETATM   30  C   UNL     1     -10.161  11.319  66.397  1.00  0.00    -0.220 C  
HETATM   31  C   UNL     1      -9.636  10.998  64.984  1.00  0.00    -0.247 C  
HETATM   32  O   UNL     1      -9.030   9.698  64.962  1.00  0.00    -0.184 OA 
HETATM   33  C   UNL     1     -10.776  11.053  63.961  1.00  0.00    -0.261 C  
HETATM   34  C   UNL     1     -11.352  12.468  63.929  1.00  0.00    -0.504 C  
HETATM   35  N   UNL     1     -10.305  10.655  62.620  1.00  0.00    -0.721 NA 
HETATM   36  H   UNL     1      -8.706   9.500  64.091  1.00  0.00     0.000 HD 
HETATM   37  H1  UNL     1     -11.063  10.691  61.939  1.00  0.00     0.000 HD 
HETATM   38  H2  UNL     1      -9.859   9.738  62.636  1.00  0.00     0.000 HD 
HETATM   39  C   UNL     1     -11.833  12.927  65.316  1.00  0.00    -0.392 C  
HETATM   40  C   UNL     1     -10.768  12.746  66.463  1.00  0.00    -0.258 C  
HETATM   41  N   UNL     1     -12.284  14.331  65.215  1.00  0.00    -0.410 NA 
HETATM   42  H2  UNL     1     -12.990  14.464  64.491  1.00  0.00     0.000 HD 
HETATM   43  H1  UNL     1     -12.602  14.634  66.135  1.00  0.00     0.000 HD 
BRANCH  40  44
HETATM   44  O   UNL     1     -11.448  13.048  67.704  1.00  0.00    -0.285 OA 
BRANCH  44  45
HETATM   45  C   UNL     1     -10.607  13.487  68.780  1.00  0.00    -0.218 C  
HETATM   46  O   UNL     1      -9.573  14.352  68.325  1.00  0.00    -0.199 OA 
HETATM   47  C   UNL     1     -10.007  15.624  67.845  1.00  0.00    -0.223 C  
HETATM   48  C   UNL     1     -10.731  16.382  68.961  1.00  0.00    -0.322 C  
HETATM   49  H1  UNL     1     -13.068  13.760  71.184  1.00  0.00     0.000 HD 
HETATM   50  H2  UNL     1     -12.197  12.405  70.721  1.00  0.00     0.000 HD 
HETATM   51  O   UNL     1     -11.219  17.654  68.528  1.00  0.00    -0.110 OA 
HETATM   52  C   UNL     1     -11.905  15.540  69.480  1.00  0.00    -0.372 C  
HETATM   53  H   UNL     1     -11.668  18.124  69.220  1.00  0.00     0.000 HD 
HETATM   54  O   UNL     1     -12.524  16.211  70.591  1.00  0.00    -0.469 OA 
HETATM   55  N   UNL     1     -12.535  13.323  70.432  1.00  0.00    -0.267 NA 
HETATM   56  C   UNL     1     -11.417  14.151  69.922  1.00  0.00    -0.226 C  
HETATM   57  H   UNL     1     -13.250  15.689  70.912  1.00  0.00     0.000 HD 
BRANCH  47  58
HETATM   58  C   UNL     1      -8.758  16.379  67.369  1.00  0.00    -0.182 C  
HETATM   59  O   UNL     1      -8.329  15.878  66.100  1.00  0.00    -0.302 OA 
HETATM   60  H   UNL     1      -7.557  16.345  65.805  1.00  0.00     0.000 HD 
ENDBRANCH  47  58
ENDBRANCH  44  45
ENDBRANCH  40  44
ENDBRANCH  29  30
ENDBRANCH  22  29
ENDBRANCH  18  19
ENDBRANCH   7  18
ENDBRANCH   2   5
TORSDOF 9
ENDMDL
MODEL       64
REMARK 921   NORMALIZED FREE ENERGY PREDICTED BY IDOCK:   -6.58 KCAL/MOL
REMARK 922        TOTAL FREE ENERGY PREDICTED BY IDOCK:  -12.08 KCAL/MOL
REMARK 923 INTER-LIGAND FREE ENERGY PREDICTED BY IDOCK:  -10.40 KCAL/MOL
REMARK 924 INTRA-LIGAND FREE ENERGY PREDICTED BY IDOCK:   -1.68 KCAL/MOL
REMARK 927      BINDING AFFINITY PREDICTED BY RF-SCORE:    0.00 PKD
ROOT
HETATM    1  N   UNL     1     -11.524   5.681  73.234  1.00  0.00    -0.498 NA 
HETATM    2  C   UNL     1     -10.286   4.876  73.255  1.00  0.00    -0.186 C  
HETATM    3  H1  UNL     1     -12.177   5.332  73.936  1.00  0.00     0.000 HD 
HETATM    4  H2  UNL     1     -11.943   5.715  72.304  1.00  0.00     0.000 HD 
ENDROOT
BRANCH   2   5
HETATM    5  C   UNL     1      -9.302   5.403  72.197  1.00  0.00    -0.143 C  
HETATM    6  O   UNL     1     -10.006   6.385  71.416  1.00  0.00    -0.183 OA 
HETATM    7  C   UNL     1      -9.138   7.090  70.531  1.00  0.00    -0.156 C  
HETATM    8  C   UNL     1      -8.613   6.099  69.452  1.00  0.00    -0.123 C  
HETATM    9  O   UNL     1      -9.836   3.536  70.733  1.00  0.00    -0.169 OA 
HETATM   10  H   UNL     1      -9.494   2.854  70.166  1.00  0.00     0.000 HD 
HETATM   11  N   UNL     1      -9.734   5.593  68.606  1.00  0.00    -0.130 NA 
HETATM   12  C   UNL     1      -7.889   4.926  70.153  1.00  0.00    -0.066 C  
HETATM   13  H2  UNL     1     -10.267   6.356  68.189  1.00  0.00     0.000 HD 
HETATM   14  O   UNL     1      -6.609   5.335  70.653  1.00  0.00    -0.035 OA 
HETATM   15  C   UNL     1      -8.747   4.295  71.276  1.00  0.00    -0.102 C  
HETATM   16  H1  UNL     1      -9.391   4.943  67.899  1.00  0.00     0.000 HD 
HETATM   17  H   UNL     1      -6.164   4.614  71.083  1.00  0.00     0.000 HD 
BRANCH   7  18
HETATM   18  O   UNL     1      -9.826   8.158  69.874  1.00  0.00    -0.182 OA 
BRANCH  18  19
HETATM   19  C   UNL     1     -10.384   9.134  70.772  1.00  0.00    -0.258 C  
HETATM   20  O   UNL     1      -9.302  10.910  69.430  1.00  0.00    -0.404 OA 
HETATM   21  C   UNL     1     -11.856   8.769  70.945  1.00  0.00    -0.230 C  
HETATM   22  C   UNL     1     -11.764  10.529  69.420  1.00  0.00    -0.223 C  
HETATM   23  H   UNL     1      -9.339  11.792  69.078  1.00  0.00     0.000 HD 
HETATM   24  O   UNL     1     -12.598   9.501  69.957  1.00  0.00     0.360 OA 
HETATM   25  C   UNL     1     -10.444  10.544  70.208  1.00  0.00     0.076 C  
BRANCH  21  26
HETATM   26  C   UNL     1     -12.423   9.113  72.323  1.00  0.00    -0.333 C  
HETATM   27  H   UNL     1     -14.199   9.375  73.147  1.00  0.00     0.000 HD 
HETATM   28  O   UNL     1     -13.847   9.162  72.291  1.00  0.00    -0.450 OA 
ENDBRANCH  21  26
BRANCH  22  29
HETATM   29  O   UNL     1     -12.387  11.804  69.552  1.00  0.00    -0.190 OA 
BRANCH  29  30
HETATM   30  C   UNL     1     -11.654  12.972  69.135  1.00  0.00    -0.316 C  
HETATM   31  C   UNL     1     -11.943  14.152  70.084  1.00  0.00    -0.332 C  
HETATM   32  O   UNL     1     -11.833  13.729  71.451  1.00  0.00    -0.360 OA 
HETATM   33  C   UNL     1     -10.970  15.306  69.821  1.00  0.00    -0.284 C  
HETATM   34  C   UNL     1     -11.163  15.807  68.390  1.00  0.00    -0.362 C  
HETATM   35  N   UNL     1     -11.175  16.403  70.786  1.00  0.00    -0.434 NA 
HETATM   36  H   UNL     1     -12.011  14.456  72.035  1.00  0.00     0.000 HD 
HETATM   37  H1  UNL     1     -10.528  17.172  70.611  1.00  0.00     0.000 HD 
HETATM   38  H2  UNL     1     -11.114  16.073  71.749  1.00  0.00     0.000 HD 
HETATM   39  C   UNL     1     -10.979  14.683  67.356  1.00  0.00    -0.308 C  
HETATM   40  C   UNL     1     -11.826  13.388  67.649  1.00  0.00    -0.354 C  
HETATM   41  N   UNL     1     -11.275  15.229  66.014  1.00  0.00    -0.284 NA 
HETATM   42  H2  UNL     1     -10.720  16.057  65.797  1.00  0.00     0.000 HD 
HETATM   43  H1  UNL     1     -11.153  14.484  65.329  1.00  0.00     0.000 HD 
BRANCH  40  44
HETATM   44  O   UNL     1     -11.391  12.390  66.696  1.00  0.00    -0.299 OA 
BRANCH  44  45
HETATM   45  C   UNL     1     -10.210  12.719  65.950  1.00  0.00    -0.287 C  
HETATM   46  O   UNL     1      -9.073  11.999  66.414  1.00  0.00    -0.211 OA 
HETATM   47  C   UNL     1      -9.103  10.592  66.181  1.00  0.00    -0.170 C  
HETATM   48  C   UNL     1      -9.193  10.316  64.678  1.00  0.00    -0.244 C  
HETATM   49  H1  UNL     1     -11.717  13.077  62.867  1.00  0.00     0.000 HD 
HETATM   50  H2  UNL     1     -11.559  14.205  64.097  1.00  0.00     0.000 HD 
HETATM   51  O   UNL     1      -9.259   8.919  64.384  1.00  0.00    -0.404 OA 
HETATM   52  C   UNL     1     -10.429  11.015  64.097  1.00  0.00    -0.366 C  
HETATM   53  H   UNL     1      -9.314   8.748  63.451  1.00  0.00     0.000 HD 
HETATM   54  O   UNL     1     -10.459  10.834  62.671  1.00  0.00    -0.760 OA 
HETATM   55  N   UNL     1     -11.588  13.211  63.870  1.00  0.00    -0.426 NA 
HETATM   56  C   UNL     1     -10.405  12.516  64.427  1.00  0.00    -0.352 C  
HETATM   57  H   UNL     1     -11.225  11.267  62.311  1.00  0.00     0.000 HD 
BRANCH  47  58
HETATM   58  C   UNL     1      -7.821  10.005  66.787  1.00  0.00    -0.110 C  
HETATM   59  O   UNL     1      -8.108   8.778  67.463  1.00  0.00    -0.105 OA 
HETATM   60  H   UNL     1      -7.315   8.415  67.838  1.00  0.00     0.000 HD 
ENDBRANCH  47  58
ENDBRANCH  44  45
ENDBRANCH  40  44
ENDBRANCH  29  30
ENDBRANCH  22  29
ENDBRANCH  18  19
ENDBRANCH   7  18
ENDBRANCH   2   5
TORSDOF 9
ENDMDL
MODEL       65
REMARK 921   NORMALIZED FREE ENERGY PREDICTED BY IDOCK:   -6.57 KCAL/MOL
REMARK 922        TOTAL FREE ENERGY PREDICTED BY IDOCK:  -12.07 KCAL/MOL
REMARK 923 INTER-LIGAND FREE ENERGY PREDICTED BY IDOCK:   -9.28 KCAL/MOL
REMARK 924 INTRA-LIGAND FREE ENERGY PREDICTED BY IDOCK:   -2.80 KCAL/MOL
REMARK 927      BINDING AFFINITY PREDICTED BY RF-SCORE:    0.00 PKD
ROOT
HETATM    1  N   UNL     1     -10.108   3.369  63.281  1.00  0.00    -0.146 NA 
HETATM    2  C   UNL     1      -9.850   4.426  64.280  1.00  0.00    -0.004 C  
HETATM    3  H1  UNL     1     -10.230   3.787  62.359  1.00  0.00     0.000 HD 
HETATM    4  H2  UNL     1     -10.898   2.779  63.543  1.00  0.00     0.000 HD 
ENDROOT
BRANCH   2   5
HETATM    5  C   UNL     1      -9.666   3.797  65.671  1.00  0.00    -0.143 C  
HETATM    6  O   UNL     1      -8.775   4.653  66.410  1.00  0.00    -0.112 OA 
HETATM    7  C   UNL     1      -8.687   4.280  67.783  1.00  0.00    -0.106 C  
HETATM    8  C   UNL     1      -7.992   2.891  67.879  1.00  0.00    -0.066 C  
HETATM    9  O   UNL     1      -7.912   2.347  64.813  1.00  0.00    -0.079 OA 
HETATM   10  H   UNL     1      -7.563   1.464  64.781  1.00  0.00     0.000 HD 
HETATM   11  N   UNL     1      -6.585   2.966  67.385  1.00  0.00    -0.036 NA 
HETATM   12  C   UNL     1      -8.802   1.862  67.056  1.00  0.00    -0.128 C  
HETATM   13  H2  UNL     1      -6.053   3.688  67.871  1.00  0.00     0.000 HD 
HETATM   14  O   UNL     1     -10.014   1.499  67.732  1.00  0.00    -0.365 OA 
HETATM   15  C   UNL     1      -9.097   2.363  65.621  1.00  0.00    -0.096 C  
HETATM   16  H1  UNL     1      -6.129   2.055  67.448  1.00  0.00     0.000 HD 
HETATM   17  H   UNL     1     -10.511   0.868  67.226  1.00  0.00     0.000 HD 
BRANCH   7  18
HETATM   18  O   UNL     1      -7.918   5.228  68.527  1.00  0.00    -0.086 OA 
BRANCH  18  19
HETATM   19  C   UNL     1      -8.139   5.175  69.948  1.00  0.00    -0.082 C  
HETATM   20  O   UNL     1      -6.780   7.230  70.185  1.00  0.00    -0.052 OA 
HETATM   21  C   UNL     1      -9.636   4.938  70.142  1.00  0.00    -0.193 C  
HETATM   22  C   UNL     1      -9.252   7.210  70.497  1.00  0.00    -0.158 C  
HETATM   23  H   UNL     1      -6.633   8.053  70.636  1.00  0.00     0.000 HD 
HETATM   24  O   UNL     1     -10.260   6.225  70.262  1.00  0.00    -0.184 OA 
HETATM   25  C   UNL     1      -7.904   6.491  70.669  1.00  0.00    -0.106 C  
BRANCH  21  26
HETATM   26  C   UNL     1      -9.977   4.119  71.388  1.00  0.00    -0.153 C  
HETATM   27  H   UNL     1     -11.249   4.219  72.896  1.00  0.00     0.000 HD 
HETATM   28  O   UNL     1     -11.037   4.728  72.122  1.00  0.00    -0.033 OA 
ENDBRANCH  21  26
BRANCH  22  29
HETATM   29  O   UNL     1      -9.532   7.946  71.684  1.00  0.00    -0.144 OA 
BRANCH  29  30
HETATM   30  C   UNL     1     -10.638   8.869  71.675  1.00  0.00    -0.352 C  
HETATM   31  C   UNL     1     -11.895   8.203  72.267  1.00  0.00    -0.382 C  
HETATM   32  O   UNL     1     -11.574   7.536  73.496  1.00  0.00    -0.568 OA 
HETATM   33  C   UNL     1     -12.990   9.246  72.517  1.00  0.00    -0.313 C  
HETATM   34  C   UNL     1     -13.389   9.883  71.186  1.00  0.00    -0.371 C  
HETATM   35  N   UNL     1     -14.164   8.637  73.172  1.00  0.00    -1.053 NA 
HETATM   36  H   UNL     1     -12.348   7.126  73.861  1.00  0.00     0.000 HD 
HETATM   37  H1  UNL     1     -14.893   9.331  73.338  1.00  0.00     0.000 HD 
HETATM   38  H2  UNL     1     -13.905   8.151  74.030  1.00  0.00     0.000 HD 
HETATM   39  C   UNL     1     -12.183  10.509  70.463  1.00  0.00    -0.344 C  
HETATM   40  C   UNL     1     -10.946   9.547  70.312  1.00  0.00    -0.269 C  
HETATM   41  N   UNL     1     -12.637  11.015  69.150  1.00  0.00    -0.560 NA 
HETATM   42  H2  UNL     1     -13.425  11.658  69.229  1.00  0.00     0.000 HD 
HETATM   43  H1  UNL     1     -11.838  11.430  68.672  1.00  0.00     0.000 HD 
BRANCH  40  44
HETATM   44  O   UNL     1      -9.864  10.350  69.788  1.00  0.00    -0.198 OA 
BRANCH  44  45
HETATM   45  C   UNL     1      -9.253   9.858  68.586  1.00  0.00    -0.139 C  
HETATM   46  O   UNL     1      -9.991  10.227  67.427  1.00  0.00    -0.176 OA 
HETATM   47  C   UNL     1      -9.996  11.621  67.123  1.00  0.00    -0.199 C  
HETATM   48  C   UNL     1      -8.564  12.107  66.884  1.00  0.00    -0.191 C  
HETATM   49  H1  UNL     1      -5.968  10.269  69.559  1.00  0.00     0.000 HD 
HETATM   50  H2  UNL     1      -7.000   8.983  69.860  1.00  0.00     0.000 HD 
HETATM   51  O   UNL     1      -8.503  13.507  66.606  1.00  0.00    -0.433 OA 
HETATM   52  C   UNL     1      -7.701  11.796  68.114  1.00  0.00    -0.124 C  
HETATM   53  H   UNL     1      -7.614  13.808  66.457  1.00  0.00     0.000 HD 
HETATM   54  O   UNL     1      -6.336  12.165  67.850  1.00  0.00    -0.063 OA 
HETATM   55  N   UNL     1      -6.942   9.978  69.642  1.00  0.00    -0.081 NA 
HETATM   56  C   UNL     1      -7.773  10.300  68.460  1.00  0.00    -0.091 C  
HETATM   57  H   UNL     1      -5.802  11.973  68.612  1.00  0.00     0.000 HD 
BRANCH  47  58
HETATM   58  C   UNL     1     -10.872  11.810  65.877  1.00  0.00    -0.291 C  
HETATM   59  O   UNL     1     -12.211  12.139  66.256  1.00  0.00    -0.604 OA 
HETATM   60  H   UNL     1     -12.753  12.256  65.486  1.00  0.00     0.000 HD 
ENDBRANCH  47  58
ENDBRANCH  44  45
ENDBRANCH  40  44
ENDBRANCH  29  30
ENDBRANCH  22  29
ENDBRANCH  18  19
ENDBRANCH   7  18
ENDBRANCH   2   5
TORSDOF 9
ENDMDL
MODEL       66
REMARK 921   NORMALIZED FREE ENERGY PREDICTED BY IDOCK:   -6.55 KCAL/MOL
REMARK 922        TOTAL FREE ENERGY PREDICTED BY IDOCK:  -12.04 KCAL/MOL
REMARK 923 INTER-LIGAND FREE ENERGY PREDICTED BY IDOCK:   -9.66 KCAL/MOL
REMARK 924 INTRA-LIGAND FREE ENERGY PREDICTED BY IDOCK:   -2.38 KCAL/MOL
REMARK 927      BINDING AFFINITY PREDICTED BY RF-SCORE:    0.00 PKD
ROOT
HETATM    1  N   UNL     1      -6.273   5.727  70.229  1.00  0.00    -0.026 NA 
HETATM    2  C   UNL     1      -6.321   5.137  71.582  1.00  0.00    -0.031 C  
HETATM    3  H1  UNL     1      -5.458   5.376  69.726  1.00  0.00     0.000 HD 
HETATM    4  H2  UNL     1      -6.298   6.747  70.255  1.00  0.00     0.000 HD 
ENDROOT
BRANCH   2   5
HETATM    5  C   UNL     1      -7.551   5.665  72.339  1.00  0.00    -0.101 C  
HETATM    6  O   UNL     1      -7.730   7.039  71.950  1.00  0.00    -0.092 OA 
HETATM    7  C   UNL     1      -8.959   7.578  72.433  1.00  0.00    -0.135 C  
HETATM    8  C   UNL     1      -8.890   7.662  73.986  1.00  0.00    -0.252 C  
HETATM    9  O   UNL     1      -6.174   6.166  74.280  1.00  0.00    -0.064 OA 
HETATM   10  H   UNL     1      -6.089   6.104  75.224  1.00  0.00     0.000 HD 
HETATM   11  N   UNL     1      -7.827   8.617  74.419  1.00  0.00    -0.388 NA 
HETATM   12  C   UNL     1      -8.619   6.251  74.557  1.00  0.00    -0.134 C  
HETATM   13  H2  UNL     1      -7.952   9.538  73.996  1.00  0.00     0.000 HD 
HETATM   14  O   UNL     1      -9.790   5.428  74.478  1.00  0.00    -0.174 OA 
HETATM   15  C   UNL     1      -7.412   5.566  73.873  1.00  0.00    -0.090 C  
HETATM   16  H1  UNL     1      -7.782   8.673  75.436  1.00  0.00     0.000 HD 
HETATM   17  H   UNL     1      -9.623   4.562  74.829  1.00  0.00     0.000 HD 
BRANCH   7  18
HETATM   18  O   UNL     1      -9.187   8.891  71.914  1.00  0.00    -0.310 OA 
BRANCH  18  19
HETATM   19  C   UNL     1     -10.437   9.035  71.217  1.00  0.00    -0.311 C  
HETATM   20  O   UNL     1      -9.392  10.783  69.810  1.00  0.00    -0.387 OA 
HETATM   21  C   UNL     1     -10.905   7.623  70.873  1.00  0.00    -0.241 C  
HETATM   22  C   UNL     1      -9.962   8.519  68.939  1.00  0.00    -0.190 C  
HETATM   23  H   UNL     1      -9.321  11.198  68.958  1.00  0.00     0.000 HD 
HETATM   24  O   UNL     1     -10.404   7.312  69.564  1.00  0.00    -0.211 OA 
HETATM   25  C   UNL     1     -10.323   9.699  69.855  1.00  0.00    -0.249 C  
BRANCH  21  26
HETATM   26  C   UNL     1     -12.426   7.460  70.857  1.00  0.00    -0.173 C  
HETATM   27  H   UNL     1     -13.994   8.328  71.687  1.00  0.00     0.000 HD 
HETATM   28  O   UNL     1     -13.050   8.429  71.697  1.00  0.00    -0.328 OA 
ENDBRANCH  21  26
BRANCH  22  29
HETATM   29  O   UNL     1     -10.608   8.702  67.683  1.00  0.00    -0.248 OA 
BRANCH  29  30
HETATM   30  C   UNL     1      -9.792   8.814  66.501  1.00  0.00    -0.279 C  
HETATM   31  C   UNL     1      -9.148   7.454  66.166  1.00  0.00    -0.126 C  
HETATM   32  O   UNL     1     -10.131   6.411  66.219  1.00  0.00    -0.394 OA 
HETATM   33  C   UNL     1      -8.509   7.490  64.773  1.00  0.00     0.080 C  
HETATM   34  C   UNL     1      -7.400   8.542  64.757  1.00  0.00    -0.091 C  
HETATM   35  N   UNL     1      -7.972   6.167  64.401  1.00  0.00    -0.121 NA 
HETATM   36  H   UNL     1      -9.735   5.574  66.012  1.00  0.00     0.000 HD 
HETATM   37  H1  UNL     1      -7.547   6.190  63.475  1.00  0.00     0.000 HD 
HETATM   38  H2  UNL     1      -8.684   5.440  64.469  1.00  0.00     0.000 HD 
HETATM   39  C   UNL     1      -7.919   9.932  65.163  1.00  0.00    -0.139 C  
HETATM   40  C   UNL     1      -8.735   9.952  66.510  1.00  0.00    -0.128 C  
HETATM   41  N   UNL     1      -6.772  10.863  65.214  1.00  0.00    -0.360 NA 
HETATM   42  H2  UNL     1      -6.242  10.881  64.342  1.00  0.00     0.000 HD 
HETATM   43  H1  UNL     1      -7.116  11.784  65.483  1.00  0.00     0.000 HD 
BRANCH  40  44
HETATM   44  O   UNL     1      -9.292  11.282  66.631  1.00  0.00    -0.173 OA 
BRANCH  44  45
HETATM   45  C   UNL     1     -10.721  11.366  66.533  1.00  0.00    -0.277 C  
HETATM   46  O   UNL     1     -11.290  12.041  67.649  1.00  0.00    -0.264 OA 
HETATM   47  C   UNL     1     -10.988  13.432  67.741  1.00  0.00    -0.262 C  
HETATM   48  C   UNL     1     -11.506  14.161  66.499  1.00  0.00    -0.358 C  
HETATM   49  H1  UNL     1     -10.905  11.820  63.117  1.00  0.00     0.000 HD 
HETATM   50  H2  UNL     1     -10.798  10.389  63.983  1.00  0.00     0.000 HD 
HETATM   51  O   UNL     1     -11.203  15.557  66.520  1.00  0.00    -0.243 OA 
HETATM   52  C   UNL     1     -10.898  13.529  65.239  1.00  0.00    -0.310 C  
HETATM   53  H   UNL     1     -11.525  16.009  65.749  1.00  0.00     0.000 HD 
HETATM   54  O   UNL     1     -11.459  14.152  64.070  1.00  0.00    -0.612 OA 
HETATM   55  N   UNL     1     -10.604  11.390  63.992  1.00  0.00    -0.356 NA 
HETATM   56  C   UNL     1     -11.179  12.018  65.204  1.00  0.00    -0.315 C  
HETATM   57  H   UNL     1     -11.083  13.761  63.290  1.00  0.00     0.000 HD 
BRANCH  47  58
HETATM   58  C   UNL     1     -11.654  13.956  69.021  1.00  0.00    -0.310 C  
HETATM   59  O   UNL     1     -11.656  12.942  70.030  1.00  0.00    -0.489 OA 
HETATM   60  H   UNL     1     -12.068  13.266  70.822  1.00  0.00     0.000 HD 
ENDBRANCH  47  58
ENDBRANCH  44  45
ENDBRANCH  40  44
ENDBRANCH  29  30
ENDBRANCH  22  29
ENDBRANCH  18  19
ENDBRANCH   7  18
ENDBRANCH   2   5
TORSDOF 9
ENDMDL
MODEL       67
REMARK 921   NORMALIZED FREE ENERGY PREDICTED BY IDOCK:   -6.54 KCAL/MOL
REMARK 922        TOTAL FREE ENERGY PREDICTED BY IDOCK:  -12.03 KCAL/MOL
REMARK 923 INTER-LIGAND FREE ENERGY PREDICTED BY IDOCK:   -9.48 KCAL/MOL
REMARK 924 INTRA-LIGAND FREE ENERGY PREDICTED BY IDOCK:   -2.55 KCAL/MOL
REMARK 927      BINDING AFFINITY PREDICTED BY RF-SCORE:    0.00 PKD
ROOT
HETATM    1  N   UNL     1     -11.566  12.266  70.124  1.00  0.00    -0.537 NA 
HETATM    2  C   UNL     1     -12.139  11.471  69.019  1.00  0.00    -0.238 C  
HETATM    3  H1  UNL     1     -12.000  11.996  71.007  1.00  0.00     0.000 HD 
HETATM    4  H2  UNL     1     -11.638  13.269  69.952  1.00  0.00     0.000 HD 
ENDROOT
BRANCH   2   5
HETATM    5  C   UNL     1     -11.484  11.877  67.688  1.00  0.00    -0.317 C  
HETATM    6  O   UNL     1     -10.093  12.129  67.960  1.00  0.00    -0.192 OA 
HETATM    7  C   UNL     1      -9.339  12.319  66.765  1.00  0.00    -0.218 C  
HETATM    8  C   UNL     1      -9.805  13.640  66.086  1.00  0.00    -0.293 C  
HETATM    9  O   UNL     1     -12.191  14.181  68.013  1.00  0.00    -0.541 OA 
HETATM   10  H   UNL     1     -12.589  14.948  67.618  1.00  0.00     0.000 HD 
HETATM   11  N   UNL     1      -9.502  14.818  66.951  1.00  0.00    -0.230 NA 
HETATM   12  C   UNL     1     -11.322  13.552  65.798  1.00  0.00    -0.305 C  
HETATM   13  H2  UNL     1      -8.515  14.854  67.208  1.00  0.00     0.000 HD 
HETATM   14  O   UNL     1     -11.588  12.681  64.690  1.00  0.00    -0.315 OA 
HETATM   15  C   UNL     1     -12.130  13.124  67.047  1.00  0.00    -0.307 C  
HETATM   16  H1  UNL     1      -9.808  15.683  66.506  1.00  0.00     0.000 HD 
HETATM   17  H   UNL     1     -12.519  12.627  64.514  1.00  0.00     0.000 HD 
BRANCH   7  18
HETATM   18  O   UNL     1      -7.940  12.420  67.048  1.00  0.00    -0.167 OA 
BRANCH  18  19
HETATM   19  C   UNL     1      -7.134  11.441  66.368  1.00  0.00     0.000 C  
HETATM   20  O   UNL     1      -6.155  10.807  68.551  1.00  0.00    -0.044 OA 
HETATM   21  C   UNL     1      -8.075  10.681  65.435  1.00  0.00    -0.106 C  
HETATM   22  C   UNL     1      -7.746   9.341  67.315  1.00  0.00    -0.095 C  
HETATM   23  H   UNL     1      -5.811  10.122  69.113  1.00  0.00     0.000 HD 
HETATM   24  O   UNL     1      -8.558   9.537  66.155  1.00  0.00    -0.127 OA 
HETATM   25  C   UNL     1      -6.584  10.347  67.267  1.00  0.00    -0.068 C  
BRANCH  21  26
HETATM   26  C   UNL     1      -7.409  10.193  64.147  1.00  0.00    -0.108 C  
HETATM   27  H   UNL     1      -7.743  10.297  62.204  1.00  0.00     0.000 HD 
HETATM   28  O   UNL     1      -8.156  10.599  63.003  1.00  0.00    -0.142 OA 
ENDBRANCH  21  26
BRANCH  22  29
HETATM   29  O   UNL     1      -7.207   8.023  67.337  1.00  0.00    -0.084 OA 
BRANCH  29  30
HETATM   30  C   UNL     1      -8.119   6.908  67.321  1.00  0.00    -0.118 C  
HETATM   31  C   UNL     1      -8.420   6.484  65.870  1.00  0.00    -0.147 C  
HETATM   32  O   UNL     1      -7.202   6.379  65.119  1.00  0.00    -0.065 OA 
HETATM   33  C   UNL     1      -9.159   5.141  65.844  1.00  0.00    -0.153 C  
HETATM   34  C   UNL     1     -10.497   5.292  66.567  1.00  0.00    -0.354 C  
HETATM   35  N   UNL     1      -9.369   4.678  64.458  1.00  0.00    -0.290 NA 
HETATM   36  H   UNL     1      -7.388   6.118  64.226  1.00  0.00     0.000 HD 
HETATM   37  H1  UNL     1      -9.861   3.785  64.440  1.00  0.00     0.000 HD 
HETATM   38  H2  UNL     1      -8.492   4.634  63.940  1.00  0.00     0.000 HD 
HETATM   39  C   UNL     1     -10.319   5.796  68.010  1.00  0.00    -0.206 C  
HETATM   40  C   UNL     1      -9.426   7.087  68.140  1.00  0.00    -0.123 C  
HETATM   41  N   UNL     1     -11.657   6.004  68.602  1.00  0.00    -0.021 NA 
HETATM   42  H2  UNL     1     -12.243   5.171  68.547  1.00  0.00     0.000 HD 
HETATM   43  H1  UNL     1     -11.538   6.338  69.558  1.00  0.00     0.000 HD 
BRANCH  40  44
HETATM   44  O   UNL     1      -9.219   7.301  69.555  1.00  0.00    -0.149 OA 
BRANCH  44  45
HETATM   45  C   UNL     1      -9.775   8.512  70.087  1.00  0.00    -0.170 C  
HETATM   46  O   UNL     1     -11.148   8.360  70.427  1.00  0.00    -0.245 OA 
HETATM   47  C   UNL     1     -11.413   7.489  71.525  1.00  0.00    -0.265 C  
HETATM   48  C   UNL     1     -10.722   8.016  72.786  1.00  0.00    -0.362 C  
HETATM   49  H1  UNL     1      -6.983   9.556  71.826  1.00  0.00     0.000 HD 
HETATM   50  H2  UNL     1      -7.365   9.793  70.211  1.00  0.00     0.000 HD 
HETATM   51  O   UNL     1     -10.926   7.164  73.915  1.00  0.00    -0.526 OA 
HETATM   52  C   UNL     1      -9.217   8.162  72.526  1.00  0.00    -0.251 C  
HETATM   53  H   UNL     1     -10.498   7.492  74.697  1.00  0.00     0.000 HD 
HETATM   54  O   UNL     1      -8.585   8.747  73.678  1.00  0.00    -0.265 OA 
HETATM   55  N   UNL     1      -7.516   9.205  71.031  1.00  0.00    -0.196 NA 
HETATM   56  C   UNL     1      -8.965   9.047  71.295  1.00  0.00    -0.211 C  
HETATM   57  H   UNL     1      -7.653   8.837  73.518  1.00  0.00     0.000 HD 
BRANCH  47  58
HETATM   58  C   UNL     1     -12.937   7.431  71.700  1.00  0.00    -0.366 C  
HETATM   59  O   UNL     1     -13.379   8.485  72.560  1.00  0.00    -0.565 OA 
HETATM   60  H   UNL     1     -14.322   8.450  72.667  1.00  0.00     0.000 HD 
ENDBRANCH  47  58
ENDBRANCH  44  45
ENDBRANCH  40  44
ENDBRANCH  29  30
ENDBRANCH  22  29
ENDBRANCH  18  19
ENDBRANCH   7  18
ENDBRANCH   2   5
TORSDOF 9
ENDMDL
MODEL       68
REMARK 921   NORMALIZED FREE ENERGY PREDICTED BY IDOCK:   -6.53 KCAL/MOL
REMARK 922        TOTAL FREE ENERGY PREDICTED BY IDOCK:  -12.01 KCAL/MOL
REMARK 923 INTER-LIGAND FREE ENERGY PREDICTED BY IDOCK:  -10.66 KCAL/MOL
REMARK 924 INTRA-LIGAND FREE ENERGY PREDICTED BY IDOCK:   -1.35 KCAL/MOL
REMARK 927      BINDING AFFINITY PREDICTED BY RF-SCORE:    0.00 PKD
ROOT
HETATM    1  N   UNL     1     -13.772  14.704  72.305  1.00  0.00    -0.419 NA 
HETATM    2  C   UNL     1     -13.067  15.589  71.356  1.00  0.00    -0.507 C  
HETATM    3  H1  UNL     1     -14.017  15.224  73.147  1.00  0.00     0.000 HD 
HETATM    4  H2  UNL     1     -13.235  13.863  72.516  1.00  0.00     0.000 HD 
ENDROOT
BRANCH   2   5
HETATM    5  C   UNL     1     -12.698  14.805  70.085  1.00  0.00    -0.219 C  
HETATM    6  O   UNL     1     -11.952  13.647  70.503  1.00  0.00    -0.322 OA 
HETATM    7  C   UNL     1     -11.728  12.736  69.429  1.00  0.00    -0.319 C  
HETATM    8  C   UNL     1     -10.777  13.408  68.396  1.00  0.00    -0.256 C  
HETATM    9  O   UNL     1     -10.745  16.213  69.749  1.00  0.00    -0.292 OA 
HETATM   10  H   UNL     1     -10.235  16.722  69.129  1.00  0.00     0.000 HD 
HETATM   11  N   UNL     1      -9.436  13.667  68.998  1.00  0.00    -0.391 NA 
HETATM   12  C   UNL     1     -11.416  14.728  67.905  1.00  0.00    -0.342 C  
HETATM   13  H2  UNL     1      -9.028  12.817  69.390  1.00  0.00     0.000 HD 
HETATM   14  O   UNL     1     -12.502  14.472  67.004  1.00  0.00    -0.547 OA 
HETATM   15  C   UNL     1     -11.870  15.630  69.078  1.00  0.00    -0.364 C  
HETATM   16  H1  UNL     1      -8.813  14.107  68.321  1.00  0.00     0.000 HD 
HETATM   17  H   UNL     1     -12.894  15.283  66.702  1.00  0.00     0.000 HD 
BRANCH   7  18
HETATM   18  O   UNL     1     -11.118  11.530  69.894  1.00  0.00    -0.162 OA 
BRANCH  18  19
HETATM   19  C   UNL     1     -12.034  10.429  70.039  1.00  0.00    -0.247 C  
HETATM   20  O   UNL     1     -11.258   9.563  67.853  1.00  0.00    -0.519 OA 
HETATM   21  C   UNL     1     -11.838   9.890  71.454  1.00  0.00    -0.394 C  
HETATM   22  C   UNL     1     -10.682   8.466  70.015  1.00  0.00    -0.236 C  
HETATM   23  H   UNL     1     -11.058   8.811  67.308  1.00  0.00     0.000 HD 
HETATM   24  O   UNL     1     -10.857   8.845  71.382  1.00  0.00    -0.256 OA 
HETATM   25  C   UNL     1     -11.713   9.227  69.166  1.00  0.00     0.756 C  
BRANCH  21  26
HETATM   26  C   UNL     1     -13.110   9.313  72.078  1.00  0.00    -0.436 C  
HETATM   27  H   UNL     1     -13.855   7.530  72.488  1.00  0.00     0.000 HD 
HETATM   28  O   UNL     1     -13.066   7.888  72.100  1.00  0.00    -0.261 OA 
ENDBRANCH  21  26
BRANCH  22  29
HETATM   29  O   UNL     1     -10.895   7.068  69.847  1.00  0.00    -0.235 OA 
BRANCH  29  30
HETATM   30  C   UNL     1      -9.984   6.331  69.009  1.00  0.00    -0.146 C  
HETATM   31  C   UNL     1     -10.748   5.660  67.850  1.00  0.00    -0.158 C  
HETATM   32  O   UNL     1     -11.636   6.600  67.229  1.00  0.00    -0.747 OA 
HETATM   33  C   UNL     1      -9.768   5.110  66.807  1.00  0.00    -0.165 C  
HETATM   34  C   UNL     1      -8.890   4.042  67.460  1.00  0.00    -0.131 C  
HETATM   35  N   UNL     1     -10.488   4.550  65.647  1.00  0.00    -0.471 NA 
HETATM   36  H   UNL     1     -12.106   6.187  66.515  1.00  0.00     0.000 HD 
HETATM   37  H1  UNL     1      -9.837   4.183  64.953  1.00  0.00     0.000 HD 
HETATM   38  H2  UNL     1     -11.128   5.230  65.238  1.00  0.00     0.000 HD 
HETATM   39  C   UNL     1      -8.141   4.585  68.689  1.00  0.00    -0.081 C  
HETATM   40  C   UNL     1      -9.060   5.317  69.737  1.00  0.00    -0.116 C  
HETATM   41  N   UNL     1      -7.395   3.471  69.311  1.00  0.00    -0.049 NA 
HETATM   42  H2  UNL     1      -6.777   2.997  68.652  1.00  0.00     0.000 HD 
HETATM   43  H1  UNL     1      -6.898   3.831  70.126  1.00  0.00     0.000 HD 
BRANCH  40  44
HETATM   44  O   UNL     1      -8.174   5.913  70.713  1.00  0.00    -0.119 OA 
BRANCH  44  45
HETATM   45  C   UNL     1      -8.109   5.245  71.981  1.00  0.00    -0.114 C  
HETATM   46  O   UNL     1      -7.666   6.115  73.016  1.00  0.00    -0.100 OA 
HETATM   47  C   UNL     1      -8.569   7.165  73.361  1.00  0.00    -0.134 C  
HETATM   48  C   UNL     1      -9.895   6.573  73.845  1.00  0.00    -0.252 C  
HETATM   49  H1  UNL     1     -10.887   3.240  71.568  1.00  0.00     0.000 HD 
HETATM   50  H2  UNL     1      -9.313   2.971  71.062  1.00  0.00     0.000 HD 
HETATM   51  O   UNL     1     -10.853   7.581  74.175  1.00  0.00    -0.417 OA 
HETATM   52  C   UNL     1     -10.477   5.655  72.761  1.00  0.00    -0.211 C  
HETATM   53  H   UNL     1     -11.676   7.214  74.476  1.00  0.00     0.000 HD 
HETATM   54  O   UNL     1     -11.673   5.026  73.255  1.00  0.00    -0.491 OA 
HETATM   55  N   UNL     1     -10.001   3.679  71.319  1.00  0.00    -0.138 NA 
HETATM   56  C   UNL     1      -9.456   4.579  72.360  1.00  0.00    -0.135 C  
HETATM   57  H   UNL     1     -12.033   4.458  72.584  1.00  0.00     0.000 HD 
BRANCH  47  58
HETATM   58  C   UNL     1      -7.892   8.003  74.454  1.00  0.00    -0.238 C  
HETATM   59  O   UNL     1      -7.209   9.118  73.873  1.00  0.00    -0.282 OA 
HETATM   60  H   UNL     1      -6.791   9.636  74.550  1.00  0.00     0.000 HD 
ENDBRANCH  47  58
ENDBRANCH  44  45
ENDBRANCH  40  44
ENDBRANCH  29  30
ENDBRANCH  22  29
ENDBRANCH  18  19
ENDBRANCH   7  18
ENDBRANCH   2   5
TORSDOF 9
ENDMDL
MODEL       69
REMARK 921   NORMALIZED FREE ENERGY PREDICTED BY IDOCK:   -6.52 KCAL/MOL
REMARK 922        TOTAL FREE ENERGY PREDICTED BY IDOCK:  -12.00 KCAL/MOL
REMARK 923 INTER-LIGAND FREE ENERGY PREDICTED BY IDOCK:   -9.73 KCAL/MOL
REMARK 924 INTRA-LIGAND FREE ENERGY PREDICTED BY IDOCK:   -2.27 KCAL/MOL
REMARK 927      BINDING AFFINITY PREDICTED BY RF-SCORE:    0.00 PKD
ROOT
HETATM    1  N   UNL     1     -11.261   5.067  65.799  1.00  0.00    -0.867 NA 
HETATM    2  C   UNL     1      -9.846   4.717  65.559  1.00  0.00    -0.145 C  
HETATM    3  H1  UNL     1     -11.817   4.848  64.973  1.00  0.00     0.000 HD 
HETATM    4  H2  UNL     1     -11.371   6.039  66.089  1.00  0.00     0.000 HD 
ENDROOT
BRANCH   2   5
HETATM    5  C   UNL     1      -9.008   5.047  66.806  1.00  0.00    -0.113 C  
HETATM    6  O   UNL     1      -9.118   6.465  67.028  1.00  0.00    -0.122 OA 
HETATM    7  C   UNL     1      -8.546   6.858  68.273  1.00  0.00    -0.125 C  
HETATM    8  C   UNL     1      -7.007   6.635  68.208  1.00  0.00    -0.077 C  
HETATM    9  O   UNL     1      -6.997   5.194  65.447  1.00  0.00    -0.059 OA 
HETATM   10  H   UNL     1      -6.083   4.949  65.360  1.00  0.00     0.000 HD 
HETATM   11  N   UNL     1      -6.386   7.518  67.177  1.00  0.00    -0.051 NA 
HETATM   12  C   UNL     1      -6.725   5.148  67.893  1.00  0.00    -0.055 C  
HETATM   13  H2  UNL     1      -6.619   8.499  67.330  1.00  0.00     0.000 HD 
HETATM   14  O   UNL     1      -6.974   4.321  69.038  1.00  0.00    -0.049 OA 
HETATM   15  C   UNL     1      -7.523   4.649  66.664  1.00  0.00    -0.086 C  
HETATM   16  H1  UNL     1      -5.377   7.371  67.134  1.00  0.00     0.000 HD 
HETATM   17  H   UNL     1      -6.801   3.408  68.844  1.00  0.00     0.000 HD 
BRANCH   7  18
HETATM   18  O   UNL     1      -8.796   8.240  68.542  1.00  0.00    -0.136 OA 
BRANCH  18  19
HETATM   19  C   UNL     1      -9.895   8.792  67.794  1.00  0.00    -0.174 C  
HETATM   20  O   UNL     1     -11.185   8.945  69.901  1.00  0.00    -0.395 OA 
HETATM   21  C   UNL     1      -9.305   9.882  66.902  1.00  0.00    -0.152 C  
HETATM   22  C   UNL     1     -10.283  10.950  68.729  1.00  0.00    -0.196 C  
HETATM   23  H   UNL     1     -11.819   9.418  70.427  1.00  0.00     0.000 HD 
HETATM   24  O   UNL     1      -9.394  11.120  67.624  1.00  0.00    -0.162 OA 
HETATM   25  C   UNL     1     -10.909   9.549  68.635  1.00  0.00    -0.139 C  
BRANCH  21  26
HETATM   26  C   UNL     1     -10.031  10.051  65.567  1.00  0.00    -0.296 C  
HETATM   27  H   UNL     1     -10.393  11.501  64.276  1.00  0.00     0.000 HD 
HETATM   28  O   UNL     1      -9.942  11.397  65.105  1.00  0.00    -0.240 OA 
ENDBRANCH  21  26
BRANCH  22  29
HETATM   29  O   UNL     1     -11.327  11.919  68.690  1.00  0.00    -0.228 OA 
BRANCH  29  30
HETATM   30  C   UNL     1     -11.469  12.819  69.806  1.00  0.00    -0.129 C  
HETATM   31  C   UNL     1     -12.778  12.527  70.566  1.00  0.00     0.018 C  
HETATM   32  O   UNL     1     -12.911  11.119  70.805  1.00  0.00    -0.305 OA 
HETATM   33  C   UNL     1     -12.807  13.282  71.899  1.00  0.00    -0.234 C  
HETATM   34  C   UNL     1     -12.758  14.785  71.625  1.00  0.00    -0.399 C  
HETATM   35  N   UNL     1     -14.011  12.937  72.679  1.00  0.00    -0.699 NA 
HETATM   36  H   UNL     1     -13.717  10.939  71.273  1.00  0.00     0.000 HD 
HETATM   37  H1  UNL     1     -14.031  13.439  73.566  1.00  0.00     0.000 HD 
HETATM   38  H2  UNL     1     -14.094  11.930  72.816  1.00  0.00     0.000 HD 
HETATM   39  C   UNL     1     -11.526  15.180  70.793  1.00  0.00    -0.309 C  
HETATM   40  C   UNL     1     -11.331  14.331  69.480  1.00  0.00    -0.269 C  
HETATM   41  N   UNL     1     -11.607  16.625  70.494  1.00  0.00    -0.382 NA 
HETATM   42  H2  UNL     1     -11.711  17.194  71.334  1.00  0.00     0.000 HD 
HETATM   43  H1  UNL     1     -10.789  16.886  69.943  1.00  0.00     0.000 HD 
BRANCH  40  44
HETATM   44  O   UNL     1     -10.045  14.709  68.936  1.00  0.00    -0.232 OA 
BRANCH  44  45
HETATM   45  C   UNL     1     -10.055  15.150  67.571  1.00  0.00    -0.232 C  
HETATM   46  O   UNL     1     -10.608  16.455  67.440  1.00  0.00    -0.314 OA 
HETATM   47  C   UNL     1      -9.832  17.508  68.011  1.00  0.00    -0.299 C  
HETATM   48  C   UNL     1      -8.457  17.563  67.341  1.00  0.00    -0.216 C  
HETATM   49  H1  UNL     1      -7.067  13.713  66.617  1.00  0.00     0.000 HD 
HETATM   50  H2  UNL     1      -8.594  13.025  66.670  1.00  0.00     0.000 HD 
HETATM   51  O   UNL     1      -7.621  18.580  67.896  1.00  0.00    -0.232 OA 
HETATM   52  C   UNL     1      -7.760  16.202  67.481  1.00  0.00    -0.147 C  
HETATM   53  H   UNL     1      -6.767  18.614  67.481  1.00  0.00     0.000 HD 
HETATM   54  O   UNL     1      -6.510  16.227  66.769  1.00  0.00    -0.280 OA 
HETATM   55  N   UNL     1      -7.992  13.759  67.043  1.00  0.00    -0.027 NA 
HETATM   56  C   UNL     1      -8.650  15.080  66.923  1.00  0.00    -0.249 C  
HETATM   57  H   UNL     1      -6.079  15.385  66.856  1.00  0.00     0.000 HD 
BRANCH  47  58
HETATM   58  C   UNL     1     -10.614  18.812  67.801  1.00  0.00    -0.390 C  
HETATM   59  O   UNL     1     -10.287  19.756  68.824  1.00  0.00    -0.542 OA 
HETATM   60  H   UNL     1     -10.771  20.563  68.695  1.00  0.00     0.000 HD 
ENDBRANCH  47  58
ENDBRANCH  44  45
ENDBRANCH  40  44
ENDBRANCH  29  30
ENDBRANCH  22  29
ENDBRANCH  18  19
ENDBRANCH   7  18
ENDBRANCH   2   5
TORSDOF 9
ENDMDL
MODEL       70
REMARK 921   NORMALIZED FREE ENERGY PREDICTED BY IDOCK:   -6.52 KCAL/MOL
REMARK 922        TOTAL FREE ENERGY PREDICTED BY IDOCK:  -11.99 KCAL/MOL
REMARK 923 INTER-LIGAND FREE ENERGY PREDICTED BY IDOCK:  -10.76 KCAL/MOL
REMARK 924 INTRA-LIGAND FREE ENERGY PREDICTED BY IDOCK:   -1.23 KCAL/MOL
REMARK 927      BINDING AFFINITY PREDICTED BY RF-SCORE:    0.00 PKD
ROOT
HETATM    1  N   UNL     1     -12.328  10.555  69.171  1.00  0.00    -0.749 NA 
HETATM    2  C   UNL     1     -11.261   9.680  69.696  1.00  0.00    -0.141 C  
HETATM    3  H1  UNL     1     -13.130  10.541  69.800  1.00  0.00     0.000 HD 
HETATM    4  H2  UNL     1     -12.586  10.312  68.214  1.00  0.00     0.000 HD 
ENDROOT
BRANCH   2   5
HETATM    5  C   UNL     1     -10.051   9.702  68.747  1.00  0.00    -0.179 C  
HETATM    6  O   UNL     1     -10.219  10.834  67.874  1.00  0.00    -0.167 OA 
HETATM    7  C   UNL     1      -9.059  11.076  67.081  1.00  0.00    -0.146 C  
HETATM    8  C   UNL     1      -8.878   9.893  66.086  1.00  0.00    -0.144 C  
HETATM    9  O   UNL     1     -11.150   8.118  67.265  1.00  0.00    -0.451 OA 
HETATM   10  H   UNL     1     -11.060   7.323  66.753  1.00  0.00     0.000 HD 
HETATM   11  N   UNL     1     -10.021   9.826  65.127  1.00  0.00    -0.400 NA 
HETATM   12  C   UNL     1      -8.762   8.574  66.885  1.00  0.00    -0.128 C  
HETATM   13  H2  UNL     1     -10.157  10.712  64.640  1.00  0.00     0.000 HD 
HETATM   14  O   UNL     1      -7.480   8.467  67.519  1.00  0.00    -0.091 OA 
HETATM   15  C   UNL     1      -9.905   8.411  67.914  1.00  0.00    -0.170 C  
HETATM   16  H1  UNL     1      -9.903   9.051  64.475  1.00  0.00     0.000 HD 
HETATM   17  H   UNL     1      -7.408   7.657  68.010  1.00  0.00     0.000 HD 
BRANCH   7  18
HETATM   18  O   UNL     1      -9.189  12.287  66.331  1.00  0.00    -0.227 OA 
BRANCH  18  19
HETATM   19  C   UNL     1     -10.366  13.051  66.654  1.00  0.00    -0.260 C  
HETATM   20  O   UNL     1      -9.532  13.257  68.975  1.00  0.00    -0.379 OA 
HETATM   21  C   UNL     1     -10.518  14.095  65.550  1.00  0.00    -0.339 C  
HETATM   22  C   UNL     1      -9.568  15.175  67.384  1.00  0.00    -0.208 C  
HETATM   23  H   UNL     1      -9.454  13.786  69.761  1.00  0.00     0.000 HD 
HETATM   24  O   UNL     1      -9.835  15.280  65.984  1.00  0.00    -0.282 OA 
HETATM   25  C   UNL     1     -10.240  13.896  67.910  1.00  0.00    -0.241 C  
BRANCH  21  26
HETATM   26  C   UNL     1     -11.971  14.462  65.241  1.00  0.00    -0.382 C  
HETATM   27  H   UNL     1     -13.484  13.701  64.226  1.00  0.00     0.000 HD 
HETATM   28  O   UNL     1     -12.582  13.473  64.417  1.00  0.00    -0.618 OA 
ENDBRANCH  21  26
BRANCH  22  29
HETATM   29  O   UNL     1     -10.104  16.292  68.085  1.00  0.00    -0.234 OA 
BRANCH  29  30
HETATM   30  C   UNL     1      -9.241  17.417  68.346  1.00  0.00    -0.277 C  
HETATM   31  C   UNL     1      -9.600  18.594  67.418  1.00  0.00    -0.296 C  
HETATM   32  O   UNL     1     -11.018  18.809  67.414  1.00  0.00    -0.422 OA 
HETATM   33  C   UNL     1      -8.885  19.872  67.869  1.00  0.00    -0.298 C  
HETATM   34  C   UNL     1      -7.374  19.659  67.780  1.00  0.00    -0.306 C  
HETATM   35  N   UNL     1      -9.294  21.027  67.046  1.00  0.00    -0.649 NA 
HETATM   36  H   UNL     1     -11.239  19.534  66.843  1.00  0.00     0.000 HD 
HETATM   37  H1  UNL     1      -8.819  21.878  67.345  1.00  0.00     0.000 HD 
HETATM   38  H2  UNL     1     -10.307  21.145  67.042  1.00  0.00     0.000 HD 
HETATM   39  C   UNL     1      -6.913  18.448  68.608  1.00  0.00    -0.269 C  
HETATM   40  C   UNL     1      -7.716  17.123  68.322  1.00  0.00    -0.220 C  
HETATM   41  N   UNL     1      -5.464  18.257  68.392  1.00  0.00    -0.166 NA 
HETATM   42  H2  UNL     1      -4.923  19.098  68.593  1.00  0.00     0.000 HD 
HETATM   43  H1  UNL     1      -5.159  17.454  68.941  1.00  0.00     0.000 HD 
BRANCH  40  44
HETATM   44  O   UNL     1      -7.279  16.158  69.307  1.00  0.00    -0.209 OA 
BRANCH  44  45
HETATM   45  C   UNL     1      -5.897  15.779  69.231  1.00  0.00    -0.118 C  
HETATM   46  O   UNL     1      -5.329  15.588  70.522  1.00  0.00    -0.134 OA 
HETATM   47  C   UNL     1      -5.831  14.470  71.252  1.00  0.00    -0.096 C  
HETATM   48  C   UNL     1      -5.559  13.178  70.477  1.00  0.00    -0.175 C  
HETATM   49  H1  UNL     1      -6.131  13.809  66.408  1.00  0.00     0.000 HD 
HETATM   50  H2  UNL     1      -5.929  15.469  66.517  1.00  0.00     0.000 HD 
HETATM   51  O   UNL     1      -6.070  12.023  71.146  1.00  0.00    -0.478 OA 
HETATM   52  C   UNL     1      -6.186  13.273  69.079  1.00  0.00    -0.093 C  
HETATM   53  H   UNL     1      -5.901  11.222  70.665  1.00  0.00     0.000 HD 
HETATM   54  O   UNL     1      -5.849  12.099  68.320  1.00  0.00    -0.049 OA 
HETATM   55  N   UNL     1      -6.272  14.633  66.992  1.00  0.00     0.153 NA 
HETATM   56  C   UNL     1      -5.682  14.526  68.346  1.00  0.00    -0.106 C  
HETATM   57  H   UNL     1      -6.237  12.158  67.455  1.00  0.00     0.000 HD 
BRANCH  47  58
HETATM   58  C   UNL     1      -5.128  14.467  72.617  1.00  0.00    -0.219 C  
HETATM   59  O   UNL     1      -5.646  13.418  73.440  1.00  0.00    -0.401 OA 
HETATM   60  H   UNL     1      -5.211  13.417  74.284  1.00  0.00     0.000 HD 
ENDBRANCH  47  58
ENDBRANCH  44  45
ENDBRANCH  40  44
ENDBRANCH  29  30
ENDBRANCH  22  29
ENDBRANCH  18  19
ENDBRANCH   7  18
ENDBRANCH   2   5
TORSDOF 9
ENDMDL
MODEL       71
REMARK 921   NORMALIZED FREE ENERGY PREDICTED BY IDOCK:   -6.50 KCAL/MOL
REMARK 922        TOTAL FREE ENERGY PREDICTED BY IDOCK:  -11.96 KCAL/MOL
REMARK 923 INTER-LIGAND FREE ENERGY PREDICTED BY IDOCK:  -10.46 KCAL/MOL
REMARK 924 INTRA-LIGAND FREE ENERGY PREDICTED BY IDOCK:   -1.50 KCAL/MOL
REMARK 927      BINDING AFFINITY PREDICTED BY RF-SCORE:    0.00 PKD
ROOT
HETATM    1  N   UNL     1      -5.364  15.329  68.511  1.00  0.00    -0.093 NA 
HETATM    2  C   UNL     1      -6.385  15.580  69.548  1.00  0.00    -0.155 C  
HETATM    3  H1  UNL     1      -4.568  14.840  68.920  1.00  0.00     0.000 HD 
HETATM    4  H2  UNL     1      -5.084  16.186  68.034  1.00  0.00     0.000 HD 
ENDROOT
BRANCH   2   5
HETATM    5  C   UNL     1      -7.586  16.316  68.932  1.00  0.00    -0.212 C  
HETATM    6  O   UNL     1      -7.873  15.680  67.673  1.00  0.00    -0.134 OA 
HETATM    7  C   UNL     1      -9.093  16.147  67.102  1.00  0.00    -0.203 C  
HETATM    8  C   UNL     1      -8.918  17.641  66.704  1.00  0.00    -0.265 C  
HETATM    9  O   UNL     1      -6.105  18.001  67.992  1.00  0.00    -0.164 OA 
HETATM   10  H   UNL     1      -5.948  18.928  67.859  1.00  0.00     0.000 HD 
HETATM   11  N   UNL     1      -7.885  17.789  65.636  1.00  0.00    -0.477 NA 
HETATM   12  C   UNL     1      -8.524  18.455  67.958  1.00  0.00    -0.276 C  
HETATM   13  H2  UNL     1      -8.093  17.205  64.826  1.00  0.00     0.000 HD 
HETATM   14  O   UNL     1      -9.648  18.637  68.830  1.00  0.00    -0.349 OA 
HETATM   15  C   UNL     1      -7.331  17.823  68.715  1.00  0.00    -0.271 C  
HETATM   16  H1  UNL     1      -7.770  18.768  65.375  1.00  0.00     0.000 HD 
HETATM   17  H   UNL     1      -9.406  19.137  69.600  1.00  0.00     0.000 HD 
BRANCH   7  18
HETATM   18  O   UNL     1      -9.435  15.399  65.931  1.00  0.00    -0.327 OA 
BRANCH  18  19
HETATM   19  C   UNL     1     -10.610  14.583  66.080  1.00  0.00    -0.306 C  
HETATM   20  O   UNL     1      -9.987  13.397  63.999  1.00  0.00    -0.764 OA 
HETATM   21  C   UNL     1     -10.626  14.112  67.533  1.00  0.00    -0.257 C  
HETATM   22  C   UNL     1      -9.814  12.343  66.250  1.00  0.00    -0.247 C  
HETATM   23  H   UNL     1      -9.964  12.583  63.510  1.00  0.00     0.000 HD 
HETATM   24  O   UNL     1      -9.947  12.848  67.580  1.00  0.00    -0.210 OA 
HETATM   25  C   UNL     1     -10.573  13.281  65.298  1.00  0.00    -0.315 C  
BRANCH  21  26
HETATM   26  C   UNL     1     -12.031  13.925  68.109  1.00  0.00    -0.350 C  
HETATM   27  H   UNL     1     -13.275  12.433  68.464  1.00  0.00     0.000 HD 
HETATM   28  O   UNL     1     -12.403  12.549  68.107  1.00  0.00    -0.165 OA 
ENDBRANCH  21  26
BRANCH  22  29
HETATM   29  O   UNL     1     -10.375  11.038  66.147  1.00  0.00    -0.239 OA 
BRANCH  29  30
HETATM   30  C   UNL     1      -9.482   9.907  66.113  1.00  0.00    -0.200 C  
HETATM   31  C   UNL     1      -8.797   9.808  64.736  1.00  0.00    -0.207 C  
HETATM   32  O   UNL     1      -8.289  11.090  64.340  1.00  0.00    -0.372 OA 
HETATM   33  C   UNL     1      -7.653   8.790  64.776  1.00  0.00    -0.107 C  
HETATM   34  C   UNL     1      -8.221   7.410  65.109  1.00  0.00    -0.115 C  
HETATM   35  N   UNL     1      -6.928   8.755  63.491  1.00  0.00    -0.089 NA 
HETATM   36  H   UNL     1      -7.867  11.029  63.492  1.00  0.00     0.000 HD 
HETATM   37  H1  UNL     1      -6.167   8.077  63.517  1.00  0.00     0.000 HD 
HETATM   38  H2  UNL     1      -6.597   9.681  63.221  1.00  0.00     0.000 HD 
HETATM   39  C   UNL     1      -9.004   7.414  66.433  1.00  0.00    -0.163 C  
HETATM   40  C   UNL     1     -10.095   8.545  66.538  1.00  0.00    -0.258 C  
HETATM   41  N   UNL     1      -9.596   6.074  66.630  1.00  0.00    -0.151 NA 
HETATM   42  H2  UNL     1      -8.901   5.328  66.587  1.00  0.00     0.000 HD 
HETATM   43  H1  UNL     1     -10.115   6.077  67.508  1.00  0.00     0.000 HD 
BRANCH  40  44
HETATM   44  O   UNL     1     -10.589   8.512  67.897  1.00  0.00    -0.220 OA 
BRANCH  44  45
HETATM   45  C   UNL     1      -9.746   9.132  68.879  1.00  0.00    -0.162 C  
HETATM   46  O   UNL     1     -10.389  10.232  69.511  1.00  0.00    -0.217 OA 
HETATM   47  C   UNL     1     -11.497   9.897  70.345  1.00  0.00    -0.301 C  
HETATM   48  C   UNL     1     -11.036   8.972  71.475  1.00  0.00    -0.348 C  
HETATM   49  H1  UNL     1      -8.233   6.257  70.043  1.00  0.00     0.000 HD 
HETATM   50  H2  UNL     1      -7.818   7.202  68.723  1.00  0.00     0.000 HD 
HETATM   51  O   UNL     1     -12.112   8.574  72.327  1.00  0.00    -0.358 OA 
HETATM   52  C   UNL     1     -10.372   7.722  70.880  1.00  0.00    -0.200 C  
HETATM   53  H   UNL     1     -11.826   8.001  73.028  1.00  0.00     0.000 HD 
HETATM   54  O   UNL     1      -9.855   6.901  71.942  1.00  0.00    -0.166 OA 
HETATM   55  N   UNL     1      -8.572   6.925  69.351  1.00  0.00    -0.133 NA 
HETATM   56  C   UNL     1      -9.230   8.118  69.931  1.00  0.00    -0.151 C  
HETATM   57  H   UNL     1      -9.444   6.127  71.574  1.00  0.00     0.000 HD 
BRANCH  47  58
HETATM   58  C   UNL     1     -12.068  11.213  70.891  1.00  0.00    -0.322 C  
HETATM   59  O   UNL     1     -13.213  10.956  71.709  1.00  0.00    -0.444 OA 
HETATM   60  H   UNL     1     -13.566  11.770  72.047  1.00  0.00     0.000 HD 
ENDBRANCH  47  58
ENDBRANCH  44  45
ENDBRANCH  40  44
ENDBRANCH  29  30
ENDBRANCH  22  29
ENDBRANCH  18  19
ENDBRANCH   7  18
ENDBRANCH   2   5
TORSDOF 9
ENDMDL
MODEL       72
REMARK 921   NORMALIZED FREE ENERGY PREDICTED BY IDOCK:   -6.48 KCAL/MOL
REMARK 922        TOTAL FREE ENERGY PREDICTED BY IDOCK:  -11.94 KCAL/MOL
REMARK 923 INTER-LIGAND FREE ENERGY PREDICTED BY IDOCK:   -9.68 KCAL/MOL
REMARK 924 INTRA-LIGAND FREE ENERGY PREDICTED BY IDOCK:   -2.26 KCAL/MOL
REMARK 927      BINDING AFFINITY PREDICTED BY RF-SCORE:    0.00 PKD
ROOT
HETATM    1  N   UNL     1     -12.117  12.424  63.015  1.00  0.00    -0.640 NA 
HETATM    2  C   UNL     1     -11.395  11.900  64.192  1.00  0.00    -0.380 C  
HETATM    3  H1  UNL     1     -12.467  11.650  62.450  1.00  0.00     0.000 HD 
HETATM    4  H2  UNL     1     -11.544  13.069  62.471  1.00  0.00     0.000 HD 
ENDROOT
BRANCH   2   5
HETATM    5  C   UNL     1     -10.869  13.066  65.045  1.00  0.00    -0.308 C  
HETATM    6  O   UNL     1     -10.717  12.574  66.389  1.00  0.00    -0.243 OA 
HETATM    7  C   UNL     1     -10.045  13.509  67.230  1.00  0.00    -0.235 C  
HETATM    8  C   UNL     1     -10.956  14.757  67.418  1.00  0.00    -0.313 C  
HETATM    9  O   UNL     1     -13.135  13.888  65.368  1.00  0.00    -0.752 OA 
HETATM   10  H   UNL     1     -13.708  14.645  65.362  1.00  0.00     0.000 HD 
HETATM   11  N   UNL     1     -12.213  14.393  68.136  1.00  0.00    -0.590 NA 
HETATM   12  C   UNL     1     -11.277  15.361  66.031  1.00  0.00    -0.168 C  
HETATM   13  H2  UNL     1     -12.020  13.930  69.024  1.00  0.00     0.000 HD 
HETATM   14  O   UNL     1     -10.142  16.052  65.493  1.00  0.00    -0.382 OA 
HETATM   15  C   UNL     1     -11.801  14.297  65.036  1.00  0.00    -0.396 C  
HETATM   16  H1  UNL     1     -12.811  15.210  68.259  1.00  0.00     0.000 HD 
HETATM   17  H   UNL     1     -10.339  16.423  64.642  1.00  0.00     0.000 HD 
BRANCH   7  18
HETATM   18  O   UNL     1      -9.773  12.944  68.515  1.00  0.00    -0.206 OA 
BRANCH  18  19
HETATM   19  C   UNL     1      -8.425  12.467  68.672  1.00  0.00     0.019 C  
HETATM   20  O   UNL     1      -9.312  10.524  69.923  1.00  0.00    -0.404 OA 
HETATM   21  C   UNL     1      -7.774  12.555  67.293  1.00  0.00    -0.146 C  
HETATM   22  C   UNL     1      -8.380  10.328  67.621  1.00  0.00    -0.114 C  
HETATM   23  H   UNL     1      -9.245   9.600  70.133  1.00  0.00     0.000 HD 
HETATM   24  O   UNL     1      -7.969  11.288  66.646  1.00  0.00    -0.153 OA 
HETATM   25  C   UNL     1      -8.317  10.989  69.007  1.00  0.00    -0.085 C  
BRANCH  21  26
HETATM   26  C   UNL     1      -6.273  12.848  67.333  1.00  0.00    -0.103 C  
HETATM   27  H   UNL     1      -4.616  12.079  66.584  1.00  0.00     0.000 HD 
HETATM   28  O   UNL     1      -5.547  11.897  66.559  1.00  0.00    -0.289 OA 
ENDBRANCH  21  26
BRANCH  22  29
HETATM   29  O   UNL     1      -7.511   9.199  67.615  1.00  0.00    -0.084 OA 
BRANCH  29  30
HETATM   30  C   UNL     1      -8.065   7.908  67.299  1.00  0.00    -0.118 C  
HETATM   31  C   UNL     1      -7.711   7.513  65.852  1.00  0.00    -0.099 C  
HETATM   32  O   UNL     1      -6.317   7.735  65.602  1.00  0.00    -0.041 OA 
HETATM   33  C   UNL     1      -8.053   6.040  65.597  1.00  0.00    -0.126 C  
HETATM   34  C   UNL     1      -9.558   5.837  65.776  1.00  0.00     0.048 C  
HETATM   35  N   UNL     1      -7.632   5.624  64.245  1.00  0.00    -0.074 NA 
HETATM   36  H   UNL     1      -6.099   7.491  64.711  1.00  0.00     0.000 HD 
HETATM   37  H1  UNL     1      -7.859   4.645  64.075  1.00  0.00     0.000 HD 
HETATM   38  H2  UNL     1      -6.643   5.813  64.085  1.00  0.00     0.000 HD 
HETATM   39  C   UNL     1     -10.037   6.282  67.168  1.00  0.00    -0.168 C  
HETATM   40  C   UNL     1      -9.583   7.734  67.577  1.00  0.00    -0.148 C  
HETATM   41  N   UNL     1     -11.508   6.141  67.223  1.00  0.00    -0.515 NA 
HETATM   42  H2  UNL     1     -11.821   5.201  66.982  1.00  0.00     0.000 HD 
HETATM   43  H1  UNL     1     -11.825   6.437  68.146  1.00  0.00     0.000 HD 
BRANCH  40  44
HETATM   44  O   UNL     1      -9.959   7.905  68.963  1.00  0.00    -0.178 OA 
BRANCH  44  45
HETATM   45  C   UNL     1      -9.776   6.755  69.801  1.00  0.00    -0.156 C  
HETATM   46  O   UNL     1      -8.456   6.687  70.327  1.00  0.00    -0.132 OA 
HETATM   47  C   UNL     1      -8.119   7.706  71.267  1.00  0.00    -0.095 C  
HETATM   48  C   UNL     1      -9.058   7.633  72.474  1.00  0.00    -0.155 C  
HETATM   49  H1  UNL     1     -12.920   6.739  71.224  1.00  0.00     0.000 HD 
HETATM   50  H2  UNL     1     -12.421   6.071  69.770  1.00  0.00     0.000 HD 
HETATM   51  O   UNL     1      -8.788   8.654  73.437  1.00  0.00    -0.297 OA 
HETATM   52  C   UNL     1     -10.514   7.753  72.003  1.00  0.00    -0.224 C  
HETATM   53  H   UNL     1      -9.371   8.608  74.186  1.00  0.00     0.000 HD 
HETATM   54  O   UNL     1     -11.397   7.588  73.125  1.00  0.00    -0.571 OA 
HETATM   55  N   UNL     1     -12.229   6.783  70.475  1.00  0.00    -0.300 NA 
HETATM   56  C   UNL     1     -10.826   6.688  70.939  1.00  0.00    -0.252 C  
HETATM   57  H   UNL     1     -12.299   7.662  72.834  1.00  0.00     0.000 HD 
BRANCH  47  58
HETATM   58  C   UNL     1      -6.656   7.480  71.675  1.00  0.00    -0.042 C  
HETATM   59  O   UNL     1      -6.365   8.183  72.886  1.00  0.00    -0.070 OA 
HETATM   60  H   UNL     1      -5.460   8.043  73.139  1.00  0.00     0.000 HD 
ENDBRANCH  47  58
ENDBRANCH  44  45
ENDBRANCH  40  44
ENDBRANCH  29  30
ENDBRANCH  22  29
ENDBRANCH  18  19
ENDBRANCH   7  18
ENDBRANCH   2   5
TORSDOF 9
ENDMDL
MODEL       73
REMARK 921   NORMALIZED FREE ENERGY PREDICTED BY IDOCK:   -6.43 KCAL/MOL
REMARK 922        TOTAL FREE ENERGY PREDICTED BY IDOCK:  -11.85 KCAL/MOL
REMARK 923 INTER-LIGAND FREE ENERGY PREDICTED BY IDOCK:  -10.65 KCAL/MOL
REMARK 924 INTRA-LIGAND FREE ENERGY PREDICTED BY IDOCK:   -1.20 KCAL/MOL
REMARK 927      BINDING AFFINITY PREDICTED BY RF-SCORE:    0.00 PKD
ROOT
HETATM    1  N   UNL     1     -11.982  11.366  62.958  1.00  0.00    -0.867 NA 
HETATM    2  C   UNL     1     -12.640  11.967  64.136  1.00  0.00    -0.223 C  
HETATM    3  H1  UNL     1     -12.660  10.831  62.417  1.00  0.00     0.000 HD 
HETATM    4  H2  UNL     1     -11.170  10.806  63.218  1.00  0.00     0.000 HD 
ENDROOT
BRANCH   2   5
HETATM    5  C   UNL     1     -11.617  12.775  64.951  1.00  0.00    -0.330 C  
HETATM    6  O   UNL     1     -11.527  12.158  66.249  1.00  0.00    -0.347 OA 
HETATM    7  C   UNL     1     -10.461  12.697  67.027  1.00  0.00    -0.232 C  
HETATM    8  C   UNL     1     -10.793  14.179  67.369  1.00  0.00    -0.287 C  
HETATM    9  O   UNL     1     -13.341  14.368  65.586  1.00  0.00    -0.583 OA 
HETATM   10  H   UNL     1     -13.574  15.284  65.678  1.00  0.00     0.000 HD 
HETATM   11  N   UNL     1     -12.011  14.265  68.229  1.00  0.00    -0.491 NA 
HETATM   12  C   UNL     1     -11.000  14.967  66.054  1.00  0.00    -0.334 C  
HETATM   13  H2  UNL     1     -11.919  13.695  69.070  1.00  0.00     0.000 HD 
HETATM   14  O   UNL     1      -9.749  15.214  65.399  1.00  0.00    -0.334 OA 
HETATM   15  C   UNL     1     -11.996  14.264  65.101  1.00  0.00    -0.395 C  
HETATM   16  H1  UNL     1     -12.228  15.236  68.453  1.00  0.00     0.000 HD 
HETATM   17  H   UNL     1      -9.876  15.698  64.591  1.00  0.00     0.000 HD 
BRANCH   7  18
HETATM   18  O   UNL     1     -10.296  11.973  68.248  1.00  0.00    -0.192 OA 
BRANCH  18  19
HETATM   19  C   UNL     1     -11.380  11.076  68.548  1.00  0.00    -0.287 C  
HETATM   20  O   UNL     1     -10.523   9.540  66.806  1.00  0.00    -0.239 OA 
HETATM   21  C   UNL     1     -11.419  10.940  70.069  1.00  0.00    -0.329 C  
HETATM   22  C   UNL     1     -10.351   9.040  69.241  1.00  0.00    -0.219 C  
HETATM   23  H   UNL     1     -10.384   8.646  66.515  1.00  0.00     0.000 HD 
HETATM   24  O   UNL     1     -10.609   9.808  70.419  1.00  0.00    -0.265 OA 
HETATM   25  C   UNL     1     -11.159   9.646  68.082  1.00  0.00    -0.050 C  
BRANCH  21  26
HETATM   26  C   UNL     1     -12.823  10.719  70.635  1.00  0.00    -0.293 C  
HETATM   27  H   UNL     1     -14.118  11.709  71.750  1.00  0.00     0.000 HD 
HETATM   28  O   UNL     1     -13.247  11.846  71.399  1.00  0.00    -0.290 OA 
ENDBRANCH  21  26
BRANCH  22  29
HETATM   29  O   UNL     1     -10.759   7.688  69.422  1.00  0.00    -0.230 OA 
BRANCH  29  30
HETATM   30  C   UNL     1      -9.928   6.642  68.882  1.00  0.00    -0.152 C  
HETATM   31  C   UNL     1     -10.686   5.868  67.786  1.00  0.00    -0.265 C  
HETATM   32  O   UNL     1     -11.312   6.781  66.874  1.00  0.00    -0.731 OA 
HETATM   33  C   UNL     1      -9.732   4.945  67.020  1.00  0.00    -0.177 C  
HETATM   34  C   UNL     1      -9.143   3.918  67.987  1.00  0.00    -0.183 C  
HETATM   35  N   UNL     1     -10.426   4.269  65.907  1.00  0.00    -0.472 NA 
HETATM   36  H   UNL     1     -11.779   6.304  66.199  1.00  0.00     0.000 HD 
HETATM   37  H1  UNL     1      -9.792   3.655  65.397  1.00  0.00     0.000 HD 
HETATM   38  H2  UNL     1     -10.881   4.938  65.286  1.00  0.00     0.000 HD 
HETATM   39  C   UNL     1      -8.430   4.588  69.174  1.00  0.00    -0.079 C  
HETATM   40  C   UNL     1      -9.291   5.676  69.918  1.00  0.00    -0.147 C  
HETATM   41  N   UNL     1      -7.976   3.531  70.103  1.00  0.00    -0.046 NA 
HETATM   42  H2  UNL     1      -7.398   2.828  69.644  1.00  0.00     0.000 HD 
HETATM   43  H1  UNL     1      -7.503   3.976  70.890  1.00  0.00     0.000 HD 
BRANCH  40  44
HETATM   44  O   UNL     1      -8.409   6.318  70.868  1.00  0.00    -0.123 OA 
BRANCH  44  45
HETATM   45  C   UNL     1      -8.840   6.283  72.236  1.00  0.00    -0.136 C  
HETATM   46  O   UNL     1      -8.241   5.209  72.952  1.00  0.00    -0.107 OA 
HETATM   47  C   UNL     1      -6.834   5.324  73.162  1.00  0.00    -0.078 C  
HETATM   48  C   UNL     1      -6.529   6.590  73.966  1.00  0.00    -0.069 C  
HETATM   49  H1  UNL     1      -9.007   9.693  72.737  1.00  0.00     0.000 HD 
HETATM   50  H2  UNL     1     -10.162   8.669  72.084  1.00  0.00     0.000 HD 
HETATM   51  O   UNL     1      -5.128   6.776  74.180  1.00  0.00    -0.040 OA 
HETATM   52  C   UNL     1      -7.097   7.815  73.236  1.00  0.00    -0.088 C  
HETATM   53  H   UNL     1      -4.939   7.561  74.680  1.00  0.00     0.000 HD 
HETATM   54  O   UNL     1      -6.894   8.991  74.039  1.00  0.00    -0.362 OA 
HETATM   55  N   UNL     1      -9.166   8.805  72.261  1.00  0.00    -0.380 NA 
HETATM   56  C   UNL     1      -8.598   7.631  72.961  1.00  0.00    -0.148 C  
HETATM   57  H   UNL     1      -7.245   9.749  73.587  1.00  0.00     0.000 HD 
BRANCH  47  58
HETATM   58  C   UNL     1      -6.383   4.060  73.907  1.00  0.00    -0.037 C  
HETATM   59  O   UNL     1      -6.512   2.913  73.062  1.00  0.00    -0.016 OA 
HETATM   60  H   UNL     1      -6.233   2.131  73.523  1.00  0.00     0.000 HD 
ENDBRANCH  47  58
ENDBRANCH  44  45
ENDBRANCH  40  44
ENDBRANCH  29  30
ENDBRANCH  22  29
ENDBRANCH  18  19
ENDBRANCH   7  18
ENDBRANCH   2   5
TORSDOF 9
ENDMDL
MODEL       74
REMARK 921   NORMALIZED FREE ENERGY PREDICTED BY IDOCK:   -6.42 KCAL/MOL
REMARK 922        TOTAL FREE ENERGY PREDICTED BY IDOCK:  -11.85 KCAL/MOL
REMARK 923 INTER-LIGAND FREE ENERGY PREDICTED BY IDOCK:   -9.55 KCAL/MOL
REMARK 924 INTRA-LIGAND FREE ENERGY PREDICTED BY IDOCK:   -2.29 KCAL/MOL
REMARK 927      BINDING AFFINITY PREDICTED BY RF-SCORE:    0.00 PKD
ROOT
HETATM    1  N   UNL     1     -10.832  18.139  65.207  1.00  0.00    -0.529 NA 
HETATM    2  C   UNL     1     -10.698  16.669  65.169  1.00  0.00    -0.189 C  
HETATM    3  H1  UNL     1     -11.528  18.441  64.525  1.00  0.00     0.000 HD 
HETATM    4  H2  UNL     1      -9.936  18.609  65.075  1.00  0.00     0.000 HD 
ENDROOT
BRANCH   2   5
HETATM    5  C   UNL     1      -9.649  16.213  66.198  1.00  0.00    -0.327 C  
HETATM    6  O   UNL     1      -9.769  14.784  66.320  1.00  0.00    -0.271 OA 
HETATM    7  C   UNL     1      -8.713  14.222  67.096  1.00  0.00    -0.227 C  
HETATM    8  C   UNL     1      -8.860  14.710  68.567  1.00  0.00    -0.182 C  
HETATM    9  O   UNL     1     -11.178  16.717  68.020  1.00  0.00    -0.295 OA 
HETATM   10  H   UNL     1     -11.285  17.126  68.871  1.00  0.00     0.000 HD 
HETATM   11  N   UNL     1     -10.127  14.201  69.171  1.00  0.00    -0.426 NA 
HETATM   12  C   UNL     1      -8.829  16.256  68.591  1.00  0.00    -0.226 C  
HETATM   13  H2  UNL     1     -10.196  13.185  69.102  1.00  0.00     0.000 HD 
HETATM   14  O   UNL     1      -7.500  16.749  68.374  1.00  0.00    -0.183 OA 
HETATM   15  C   UNL     1      -9.823  16.877  67.580  1.00  0.00    -0.259 C  
HETATM   16  H1  UNL     1     -10.223  14.521  70.135  1.00  0.00     0.000 HD 
HETATM   17  H   UNL     1      -7.482  17.699  68.390  1.00  0.00     0.000 HD 
BRANCH   7  18
HETATM   18  O   UNL     1      -8.766  12.793  67.082  1.00  0.00    -0.190 OA 
BRANCH  18  19
HETATM   19  C   UNL     1      -7.875  12.165  68.021  1.00  0.00    -0.145 C  
HETATM   20  O   UNL     1      -9.849  11.315  69.249  1.00  0.00    -0.412 OA 
HETATM   21  C   UNL     1      -6.822  11.432  67.191  1.00  0.00    -0.124 C  
HETATM   22  C   UNL     1      -8.362   9.835  67.903  1.00  0.00    -0.114 C  
HETATM   23  H   UNL     1     -10.243  10.617  69.758  1.00  0.00     0.000 HD 
HETATM   24  O   UNL     1      -7.290  10.090  66.994  1.00  0.00    -0.090 OA 
HETATM   25  C   UNL     1      -8.506  11.048  68.836  1.00  0.00    -0.122 C  
BRANCH  21  26
HETATM   26  C   UNL     1      -5.445  11.369  67.854  1.00  0.00    -0.044 C  
HETATM   27  H   UNL     1      -4.354  10.042  68.827  1.00  0.00     0.000 HD 
HETATM   28  O   UNL     1      -5.209  10.081  68.416  1.00  0.00    -0.036 OA 
ENDBRANCH  21  26
BRANCH  22  29
HETATM   29  O   UNL     1      -8.090   8.682  68.695  1.00  0.00    -0.113 OA 
BRANCH  29  30
HETATM   30  C   UNL     1      -8.359   7.383  68.132  1.00  0.00    -0.124 C  
HETATM   31  C   UNL     1      -7.355   7.069  67.006  1.00  0.00    -0.086 C  
HETATM   32  O   UNL     1      -6.018   7.361  67.436  1.00  0.00    -0.038 OA 
HETATM   33  C   UNL     1      -7.454   5.596  66.592  1.00  0.00    -0.087 C  
HETATM   34  C   UNL     1      -8.856   5.322  66.050  1.00  0.00    -0.141 C  
HETATM   35  N   UNL     1      -6.432   5.260  65.582  1.00  0.00    -0.039 NA 
HETATM   36  H   UNL     1      -5.400   7.168  66.742  1.00  0.00     0.000 HD 
HETATM   37  H1  UNL     1      -6.498   4.280  65.306  1.00  0.00     0.000 HD 
HETATM   38  H2  UNL     1      -5.494   5.498  65.902  1.00  0.00     0.000 HD 
HETATM   39  C   UNL     1      -9.950   5.683  67.070  1.00  0.00    -0.169 C  
HETATM   40  C   UNL     1      -9.821   7.133  67.672  1.00  0.00    -0.147 C  
HETATM   41  N   UNL     1     -11.268   5.478  66.434  1.00  0.00    -0.678 NA 
HETATM   42  H2  UNL     1     -11.379   4.537  66.057  1.00  0.00     0.000 HD 
HETATM   43  H1  UNL     1     -11.992   5.717  67.111  1.00  0.00     0.000 HD 
BRANCH  40  44
HETATM   44  O   UNL     1     -10.804   7.226  68.729  1.00  0.00    -0.180 OA 
BRANCH  44  45
HETATM   45  C   UNL     1     -10.318   7.723  69.984  1.00  0.00    -0.221 C  
HETATM   46  O   UNL     1     -10.905   8.975  70.320  1.00  0.00    -0.226 OA 
HETATM   47  C   UNL     1     -12.300   8.937  70.618  1.00  0.00     0.116 C  
HETATM   48  C   UNL     1     -12.551   8.018  71.816  1.00  0.00    -0.325 C  
HETATM   49  H1  UNL     1     -10.076   4.686  71.603  1.00  0.00     0.000 HD 
HETATM   50  H2  UNL     1      -8.965   5.429  70.592  1.00  0.00     0.000 HD 
HETATM   51  O   UNL     1     -13.939   7.914  72.141  1.00  0.00    -0.508 OA 
HETATM   52  C   UNL     1     -11.994   6.619  71.519  1.00  0.00    -0.352 C  
HETATM   53  H   UNL     1     -14.095   7.344  72.885  1.00  0.00     0.000 HD 
HETATM   54  O   UNL     1     -12.145   5.784  72.681  1.00  0.00    -0.518 OA 
HETATM   55  N   UNL     1      -9.950   5.359  70.848  1.00  0.00    -0.191 NA 
HETATM   56  C   UNL     1     -10.509   6.701  71.133  1.00  0.00    -0.217 C  
HETATM   57  H   UNL     1     -11.801   4.919  72.497  1.00  0.00     0.000 HD 
BRANCH  47  58
HETATM   58  C   UNL     1     -12.741  10.378  70.910  1.00  0.00    -0.385 C  
HETATM   59  O   UNL     1     -13.089  10.520  72.289  1.00  0.00    -0.537 OA 
HETATM   60  H   UNL     1     -13.362  11.412  72.470  1.00  0.00     0.000 HD 
ENDBRANCH  47  58
ENDBRANCH  44  45
ENDBRANCH  40  44
ENDBRANCH  29  30
ENDBRANCH  22  29
ENDBRANCH  18  19
ENDBRANCH   7  18
ENDBRANCH   2   5
TORSDOF 9
ENDMDL
MODEL       75
REMARK 921   NORMALIZED FREE ENERGY PREDICTED BY IDOCK:   -6.42 KCAL/MOL
REMARK 922        TOTAL FREE ENERGY PREDICTED BY IDOCK:  -11.84 KCAL/MOL
REMARK 923 INTER-LIGAND FREE ENERGY PREDICTED BY IDOCK:  -10.21 KCAL/MOL
REMARK 924 INTRA-LIGAND FREE ENERGY PREDICTED BY IDOCK:   -1.63 KCAL/MOL
REMARK 927      BINDING AFFINITY PREDICTED BY RF-SCORE:    0.00 PKD
ROOT
HETATM    1  N   UNL     1      -8.772   3.236  68.999  1.00  0.00    -0.080 NA 
HETATM    2  C   UNL     1      -9.335   2.959  70.336  1.00  0.00    -0.152 C  
HETATM    3  H1  UNL     1      -8.346   2.390  68.620  1.00  0.00     0.000 HD 
HETATM    4  H2  UNL     1      -8.119   4.020  69.014  1.00  0.00     0.000 HD 
ENDROOT
BRANCH   2   5
HETATM    5  C   UNL     1      -9.977   4.234  70.908  1.00  0.00    -0.155 C  
HETATM    6  O   UNL     1      -9.136   5.339  70.526  1.00  0.00    -0.135 OA 
HETATM    7  C   UNL     1      -9.735   6.597  70.828  1.00  0.00    -0.179 C  
HETATM    8  C   UNL     1      -9.828   6.749  72.374  1.00  0.00    -0.158 C  
HETATM    9  O   UNL     1      -8.884   3.857  73.047  1.00  0.00    -0.097 OA 
HETATM   10  H   UNL     1      -8.984   3.836  73.992  1.00  0.00     0.000 HD 
HETATM   11  N   UNL     1      -8.466   6.788  72.986  1.00  0.00    -0.116 NA 
HETATM   12  C   UNL     1     -10.648   5.571  72.949  1.00  0.00    -0.229 C  
HETATM   13  H2  UNL     1      -7.886   7.516  72.569  1.00  0.00     0.000 HD 
HETATM   14  O   UNL     1     -12.046   5.733  72.673  1.00  0.00    -0.518 OA 
HETATM   15  C   UNL     1     -10.138   4.200  72.442  1.00  0.00    -0.177 C  
HETATM   16  H1  UNL     1      -8.527   6.886  73.999  1.00  0.00     0.000 HD 
HETATM   17  H   UNL     1     -12.550   5.009  73.026  1.00  0.00     0.000 HD 
BRANCH   7  18
HETATM   18  O   UNL     1      -8.955   7.678  70.309  1.00  0.00    -0.145 OA 
BRANCH  18  19
HETATM   19  C   UNL     1      -9.624   8.448  69.294  1.00  0.00    -0.164 C  
HETATM   20  O   UNL     1      -8.486  10.471  70.153  1.00  0.00    -0.300 OA 
HETATM   21  C   UNL     1      -9.448   7.682  67.985  1.00  0.00    -0.143 C  
HETATM   22  C   UNL     1      -7.888   9.414  67.978  1.00  0.00    -0.091 C  
HETATM   23  H   UNL     1      -8.081  11.310  69.967  1.00  0.00     0.000 HD 
HETATM   24  O   UNL     1      -8.263   8.187  67.350  1.00  0.00    -0.119 OA 
HETATM   25  C   UNL     1      -8.976   9.790  68.996  1.00  0.00    -0.154 C  
BRANCH  21  26
HETATM   26  C   UNL     1     -10.619   7.838  67.013  1.00  0.00    -0.326 C  
HETATM   27  H   UNL     1     -11.958   6.676  66.145  1.00  0.00     0.000 HD 
HETATM   28  O   UNL     1     -11.232   6.578  66.748  1.00  0.00    -0.334 OA 
ENDBRANCH  21  26
BRANCH  22  29
HETATM   29  O   UNL     1      -7.782  10.461  67.017  1.00  0.00    -0.102 OA 
BRANCH  29  30
HETATM   30  C   UNL     1      -8.857  10.640  66.075  1.00  0.00    -0.175 C  
HETATM   31  C   UNL     1      -8.455  10.088  64.693  1.00  0.00    -0.176 C  
HETATM   32  O   UNL     1      -7.878   8.782  64.828  1.00  0.00    -0.110 OA 
HETATM   33  C   UNL     1      -9.674  10.020  63.766  1.00  0.00     0.003 C  
HETATM   34  C   UNL     1     -10.224  11.431  63.557  1.00  0.00    -0.461 C  
HETATM   35  N   UNL     1      -9.322   9.405  62.471  1.00  0.00    -0.577 NA 
HETATM   36  H   UNL     1      -7.630   8.442  63.976  1.00  0.00     0.000 HD 
HETATM   37  H1  UNL     1     -10.132   9.360  61.854  1.00  0.00     0.000 HD 
HETATM   38  H2  UNL     1      -8.892   8.489  62.595  1.00  0.00     0.000 HD 
HETATM   39  C   UNL     1     -10.581  12.113  64.889  1.00  0.00    -0.293 C  
HETATM   40  C   UNL     1      -9.431  12.079  65.964  1.00  0.00    -0.219 C  
HETATM   41  N   UNL     1     -11.012  13.498  64.605  1.00  0.00    -0.366 NA 
HETATM   42  H2  UNL     1     -11.772  13.540  63.926  1.00  0.00     0.000 HD 
HETATM   43  H1  UNL     1     -11.249  13.949  65.488  1.00  0.00     0.000 HD 
BRANCH  40  44
HETATM   44  O   UNL     1     -10.001  12.590  67.191  1.00  0.00    -0.212 OA 
BRANCH  44  45
HETATM   45  C   UNL     1     -11.432  12.703  67.209  1.00  0.00    -0.342 C  
HETATM   46  O   UNL     1     -12.033  11.696  68.015  1.00  0.00    -0.577 OA 
HETATM   47  C   UNL     1     -11.781  11.802  69.415  1.00  0.00    -0.341 C  
HETATM   48  C   UNL     1     -12.314  13.137  69.940  1.00  0.00    -0.135 C  
HETATM   49  H1  UNL     1     -11.604  16.149  67.165  1.00  0.00     0.000 HD 
HETATM   50  H2  UNL     1     -11.453  15.088  65.877  1.00  0.00     0.000 HD 
HETATM   51  O   UNL     1     -12.061  13.314  71.336  1.00  0.00    -0.291 OA 
HETATM   52  C   UNL     1     -11.675  14.292  69.158  1.00  0.00    -0.320 C  
HETATM   53  H   UNL     1     -12.392  14.143  71.662  1.00  0.00     0.000 HD 
HETATM   54  O   UNL     1     -12.248  15.540  69.588  1.00  0.00    -0.464 OA 
HETATM   55  N   UNL     1     -11.295  15.221  66.876  1.00  0.00    -0.267 NA 
HETATM   56  C   UNL     1     -11.901  14.113  67.649  1.00  0.00    -0.392 C  
HETATM   57  H   UNL     1     -11.852  16.255  69.104  1.00  0.00     0.000 HD 
BRANCH  47  58
HETATM   58  C   UNL     1     -12.475  10.611  70.092  1.00  0.00    -0.270 C  
HETATM   59  O   UNL     1     -11.982  10.441  71.424  1.00  0.00    -0.354 OA 
HETATM   60  H   UNL     1     -12.411   9.705  71.842  1.00  0.00     0.000 HD 
ENDBRANCH  47  58
ENDBRANCH  44  45
ENDBRANCH  40  44
ENDBRANCH  29  30
ENDBRANCH  22  29
ENDBRANCH  18  19
ENDBRANCH   7  18
ENDBRANCH   2   5
TORSDOF 9
ENDMDL
MODEL       76
REMARK 921   NORMALIZED FREE ENERGY PREDICTED BY IDOCK:   -6.41 KCAL/MOL
REMARK 922        TOTAL FREE ENERGY PREDICTED BY IDOCK:  -11.82 KCAL/MOL
REMARK 923 INTER-LIGAND FREE ENERGY PREDICTED BY IDOCK:   -9.62 KCAL/MOL
REMARK 924 INTRA-LIGAND FREE ENERGY PREDICTED BY IDOCK:   -2.20 KCAL/MOL
REMARK 927      BINDING AFFINITY PREDICTED BY RF-SCORE:    0.00 PKD
ROOT
HETATM    1  N   UNL     1      -8.153  18.016  68.445  1.00  0.00    -0.291 NA 
HETATM    2  C   UNL     1      -8.159  16.645  67.897  1.00  0.00    -0.172 C  
HETATM    3  H1  UNL     1      -7.548  18.612  67.881  1.00  0.00     0.000 HD 
HETATM    4  H2  UNL     1      -7.896  18.032  69.433  1.00  0.00     0.000 HD 
ENDROOT
BRANCH   2   5
HETATM    5  C   UNL     1      -9.072  15.745  68.747  1.00  0.00    -0.213 C  
HETATM    6  O   UNL     1      -9.306  14.543  67.991  1.00  0.00    -0.191 OA 
HETATM    7  C   UNL     1      -9.976  13.547  68.760  1.00  0.00    -0.070 C  
HETATM    8  C   UNL     1     -11.416  14.045  69.077  1.00  0.00    -0.296 C  
HETATM    9  O   UNL     1     -11.038  16.912  67.918  1.00  0.00    -0.301 OA 
HETATM   10  H   UNL     1     -11.866  17.322  68.142  1.00  0.00     0.000 HD 
HETATM   11  N   UNL     1     -12.213  14.196  67.823  1.00  0.00    -0.569 NA 
HETATM   12  C   UNL     1     -11.330  15.392  69.832  1.00  0.00    -0.304 C  
HETATM   13  H2  UNL     1     -12.223  13.335  67.276  1.00  0.00     0.000 HD 
HETATM   14  O   UNL     1     -10.910  15.197  71.189  1.00  0.00    -0.538 OA 
HETATM   15  C   UNL     1     -10.417  16.411  69.110  1.00  0.00    -0.303 C  
HETATM   16  H1  UNL     1     -13.157  14.523  68.031  1.00  0.00     0.000 HD 
HETATM   17  H   UNL     1     -10.858  16.024  71.653  1.00  0.00     0.000 HD 
BRANCH   7  18
HETATM   18  O   UNL     1     -10.067  12.314  68.042  1.00  0.00    -0.194 OA 
BRANCH  18  19
HETATM   19  C   UNL     1      -9.735  11.154  68.826  1.00  0.00    -0.185 C  
HETATM   20  O   UNL     1     -12.107  10.457  68.702  1.00  0.00    -0.751 OA 
HETATM   21  C   UNL     1      -8.482  10.551  68.196  1.00  0.00    -0.123 C  
HETATM   22  C   UNL     1     -10.294   9.281  67.462  1.00  0.00    -0.262 C  
HETATM   23  H   UNL     1     -12.739   9.749  68.642  1.00  0.00     0.000 HD 
HETATM   24  O   UNL     1      -8.913   9.573  67.238  1.00  0.00    -0.130 OA 
HETATM   25  C   UNL     1     -10.745  10.023  68.731  1.00  0.00    -0.223 C  
BRANCH  21  26
HETATM   26  C   UNL     1      -7.552   9.865  69.199  1.00  0.00    -0.090 C  
HETATM   27  H   UNL     1      -6.953  10.146  71.060  1.00  0.00     0.000 HD 
HETATM   28  O   UNL     1      -7.530  10.572  70.437  1.00  0.00    -0.152 OA 
ENDBRANCH  21  26
BRANCH  22  29
HETATM   29  O   UNL     1     -10.489   7.884  67.658  1.00  0.00    -0.228 OA 
BRANCH  29  30
HETATM   30  C   UNL     1      -9.341   7.015  67.598  1.00  0.00    -0.122 C  
HETATM   31  C   UNL     1      -9.104   6.541  66.151  1.00  0.00    -0.124 C  
HETATM   32  O   UNL     1      -9.164   7.654  65.247  1.00  0.00    -0.351 OA 
HETATM   33  C   UNL     1      -7.741   5.850  66.027  1.00  0.00    -0.099 C  
HETATM   34  C   UNL     1      -7.724   4.613  66.926  1.00  0.00    -0.091 C  
HETATM   35  N   UNL     1      -7.460   5.476  64.628  1.00  0.00    -0.064 NA 
HETATM   36  H   UNL     1      -9.017   7.362  64.356  1.00  0.00     0.000 HD 
HETATM   37  H1  UNL     1      -6.555   5.016  64.545  1.00  0.00     0.000 HD 
HETATM   38  H2  UNL     1      -7.532   6.279  64.003  1.00  0.00     0.000 HD 
HETATM   39  C   UNL     1      -8.035   4.962  68.392  1.00  0.00    -0.085 C  
HETATM   40  C   UNL     1      -9.341   5.820  68.590  1.00  0.00    -0.122 C  
HETATM   41  N   UNL     1      -8.092   3.706  69.169  1.00  0.00    -0.057 NA 
HETATM   42  H2  UNL     1      -7.246   3.145  69.070  1.00  0.00     0.000 HD 
HETATM   43  H1  UNL     1      -8.299   3.937  70.140  1.00  0.00     0.000 HD 
BRANCH  40  44
HETATM   44  O   UNL     1      -9.371   6.203  69.985  1.00  0.00    -0.152 OA 
BRANCH  44  45
HETATM   45  C   UNL     1     -10.218   5.409  70.828  1.00  0.00    -0.243 C  
HETATM   46  O   UNL     1      -9.483   4.771  71.867  1.00  0.00    -0.136 OA 
HETATM   47  C   UNL     1      -8.937   5.644  72.854  1.00  0.00    -0.123 C  
HETATM   48  C   UNL     1     -10.063   6.416  73.546  1.00  0.00    -0.226 C  
HETATM   49  H1  UNL     1     -12.971   7.489  70.776  1.00  0.00     0.000 HD 
HETATM   50  H2  UNL     1     -12.529   6.303  69.677  1.00  0.00     0.000 HD 
HETATM   51  O   UNL     1      -9.573   7.333  74.527  1.00  0.00    -0.426 OA 
HETATM   52  C   UNL     1     -10.882   7.183  72.499  1.00  0.00    -0.264 C  
HETATM   53  H   UNL     1     -10.272   7.812  74.956  1.00  0.00     0.000 HD 
HETATM   54  O   UNL     1     -11.996   7.830  73.140  1.00  0.00    -0.644 OA 
HETATM   55  N   UNL     1     -12.195   6.949  70.393  1.00  0.00    -0.225 NA 
HETATM   56  C   UNL     1     -11.397   6.228  71.411  1.00  0.00    -0.296 C  
HETATM   57  H   UNL     1     -12.503   8.305  72.492  1.00  0.00     0.000 HD 
BRANCH  47  58
HETATM   58  C   UNL     1      -8.157   4.772  73.848  1.00  0.00    -0.105 C  
HETATM   59  O   UNL     1      -7.121   5.535  74.471  1.00  0.00    -0.081 OA 
HETATM   60  H   UNL     1      -6.638   4.996  75.086  1.00  0.00     0.000 HD 
ENDBRANCH  47  58
ENDBRANCH  44  45
ENDBRANCH  40  44
ENDBRANCH  29  30
ENDBRANCH  22  29
ENDBRANCH  18  19
ENDBRANCH   7  18
ENDBRANCH   2   5
TORSDOF 9
ENDMDL
MODEL       77
REMARK 921   NORMALIZED FREE ENERGY PREDICTED BY IDOCK:   -6.37 KCAL/MOL
REMARK 922        TOTAL FREE ENERGY PREDICTED BY IDOCK:  -11.77 KCAL/MOL
REMARK 923 INTER-LIGAND FREE ENERGY PREDICTED BY IDOCK:   -9.41 KCAL/MOL
REMARK 924 INTRA-LIGAND FREE ENERGY PREDICTED BY IDOCK:   -2.36 KCAL/MOL
REMARK 927      BINDING AFFINITY PREDICTED BY RF-SCORE:    0.00 PKD
ROOT
HETATM    1  N   UNL     1     -11.622  16.401  63.884  1.00  0.00    -1.602 NA 
HETATM    2  C   UNL     1     -11.965  14.997  64.188  1.00  0.00    -0.201 C  
HETATM    3  H1  UNL     1     -12.177  16.730  63.094  1.00  0.00     0.000 HD 
HETATM    4  H2  UNL     1     -10.622  16.527  63.729  1.00  0.00     0.000 HD 
ENDROOT
BRANCH   2   5
HETATM    5  C   UNL     1     -11.129  14.502  65.380  1.00  0.00    -0.345 C  
HETATM    6  O   UNL     1     -10.749  13.143  65.095  1.00  0.00    -0.295 OA 
HETATM    7  C   UNL     1      -9.802  12.643  66.037  1.00  0.00    -0.254 C  
HETATM    8  C   UNL     1     -10.493  12.526  67.426  1.00  0.00    -0.219 C  
HETATM    9  O   UNL     1     -13.154  13.913  66.591  1.00  0.00    -0.219 OA 
HETATM   10  H   UNL     1     -13.620  13.953  67.418  1.00  0.00     0.000 HD 
HETATM   11  N   UNL     1     -11.599  11.524  67.387  1.00  0.00    -0.556 NA 
HETATM   12  C   UNL     1     -11.033  13.915  67.840  1.00  0.00    -0.250 C  
HETATM   13  H2  UNL     1     -11.274  10.617  67.050  1.00  0.00     0.000 HD 
HETATM   14  O   UNL     1      -9.967  14.783  68.246  1.00  0.00    -0.212 OA 
HETATM   15  C   UNL     1     -11.885  14.567  66.724  1.00  0.00    -0.371 C  
HETATM   16  H1  UNL     1     -12.052  11.447  68.298  1.00  0.00     0.000 HD 
HETATM   17  H   UNL     1     -10.299  15.636  68.500  1.00  0.00     0.000 HD 
BRANCH   7  18
HETATM   18  O   UNL     1      -9.327  11.349  65.653  1.00  0.00    -0.223 OA 
BRANCH  18  19
HETATM   19  C   UNL     1      -8.405  10.763  66.590  1.00  0.00    -0.141 C  
HETATM   20  O   UNL     1     -10.136   9.091  67.168  1.00  0.00    -0.202 OA 
HETATM   21  C   UNL     1      -7.077  10.613  65.851  1.00  0.00    -0.115 C  
HETATM   22  C   UNL     1      -8.096   8.516  65.859  1.00  0.00    -0.116 C  
HETATM   23  H   UNL     1     -10.345   8.199  67.418  1.00  0.00     0.000 HD 
HETATM   24  O   UNL     1      -7.058   9.301  65.268  1.00  0.00    -0.086 OA 
HETATM   25  C   UNL     1      -8.739   9.336  66.989  1.00  0.00    -0.124 C  
BRANCH  21  26
HETATM   26  C   UNL     1      -5.848  10.758  66.749  1.00  0.00    -0.075 C  
HETATM   27  H   UNL     1      -5.041  12.142  67.904  1.00  0.00     0.000 HD 
HETATM   28  O   UNL     1      -5.804  12.052  67.346  1.00  0.00    -0.094 OA 
ENDBRANCH  21  26
BRANCH  22  29
HETATM   29  O   UNL     1      -7.567   7.315  66.412  1.00  0.00    -0.088 OA 
BRANCH  29  30
HETATM   30  C   UNL     1      -7.961   6.058  65.828  1.00  0.00    -0.113 C  
HETATM   31  C   UNL     1      -7.490   5.978  64.363  1.00  0.00    -0.078 C  
HETATM   32  O   UNL     1      -6.115   6.377  64.260  1.00  0.00    -0.026 OA 
HETATM   33  C   UNL     1      -7.656   4.554  63.820  1.00  0.00    -0.067 C  
HETATM   34  C   UNL     1      -9.137   4.177  63.850  1.00  0.00    -0.140 C  
HETATM   35  N   UNL     1      -7.120   4.442  62.450  1.00  0.00    -0.031 NA 
HETATM   36  H   UNL     1      -5.825   6.327  63.357  1.00  0.00     0.000 HD 
HETATM   37  H1  UNL     1      -7.231   3.496  62.088  1.00  0.00     0.000 HD 
HETATM   38  H2  UNL     1      -6.150   4.753  62.399  1.00  0.00     0.000 HD 
HETATM   39  C   UNL     1      -9.736   4.304  65.261  1.00  0.00    -0.197 C  
HETATM   40  C   UNL     1      -9.464   5.689  65.959  1.00  0.00    -0.110 C  
HETATM   41  N   UNL     1     -11.183   4.015  65.182  1.00  0.00    -0.643 NA 
HETATM   42  H2  UNL     1     -11.380   3.111  64.753  1.00  0.00     0.000 HD 
HETATM   43  H1  UNL     1     -11.580   4.099  66.118  1.00  0.00     0.000 HD 
BRANCH  40  44
HETATM   44  O   UNL     1      -9.930   5.560  67.322  1.00  0.00    -0.138 OA 
BRANCH  44  45
HETATM   45  C   UNL     1      -8.957   5.840  68.338  1.00  0.00    -0.111 C  
HETATM   46  O   UNL     1      -9.312   6.982  69.111  1.00  0.00    -0.142 OA 
HETATM   47  C   UNL     1     -10.464   6.826  69.938  1.00  0.00    -0.211 C  
HETATM   48  C   UNL     1     -10.235   5.693  70.941  1.00  0.00    -0.223 C  
HETATM   49  H1  UNL     1      -8.178   2.572  69.123  1.00  0.00     0.000 HD 
HETATM   50  H2  UNL     1      -7.553   3.537  67.904  1.00  0.00     0.000 HD 
HETATM   51  O   UNL     1     -11.371   5.468  71.778  1.00  0.00    -0.172 OA 
HETATM   52  C   UNL     1      -9.896   4.399  70.189  1.00  0.00    -0.217 C  
HETATM   53  H   UNL     1     -11.229   4.765  72.401  1.00  0.00     0.000 HD 
HETATM   54  O   UNL     1      -9.588   3.359  71.134  1.00  0.00    -0.148 OA 
HETATM   55  N   UNL     1      -8.350   3.377  68.521  1.00  0.00    -0.075 NA 
HETATM   56  C   UNL     1      -8.697   4.617  69.253  1.00  0.00    -0.086 C  
HETATM   57  H   UNL     1      -9.378   2.558  70.669  1.00  0.00     0.000 HD 
BRANCH  47  58
HETATM   58  C   UNL     1     -10.697   8.168  70.646  1.00  0.00    -0.224 C  
HETATM   59  O   UNL     1     -12.098   8.402  70.817  1.00  0.00    -0.467 OA 
HETATM   60  H   UNL     1     -12.242   9.232  71.255  1.00  0.00     0.000 HD 
ENDBRANCH  47  58
ENDBRANCH  44  45
ENDBRANCH  40  44
ENDBRANCH  29  30
ENDBRANCH  22  29
ENDBRANCH  18  19
ENDBRANCH   7  18
ENDBRANCH   2   5
TORSDOF 9
ENDMDL
MODEL       78
REMARK 921   NORMALIZED FREE ENERGY PREDICTED BY IDOCK:   -6.37 KCAL/MOL
REMARK 922        TOTAL FREE ENERGY PREDICTED BY IDOCK:  -11.76 KCAL/MOL
REMARK 923 INTER-LIGAND FREE ENERGY PREDICTED BY IDOCK:  -10.09 KCAL/MOL
REMARK 924 INTRA-LIGAND FREE ENERGY PREDICTED BY IDOCK:   -1.67 KCAL/MOL
REMARK 927      BINDING AFFINITY PREDICTED BY RF-SCORE:    0.00 PKD
ROOT
HETATM    1  N   UNL     1     -12.185  13.947  68.196  1.00  0.00    -0.494 NA 
HETATM    2  C   UNL     1     -12.184  14.541  66.844  1.00  0.00    -0.189 C  
HETATM    3  H1  UNL     1     -12.173  14.686  68.899  1.00  0.00     0.000 HD 
HETATM    4  H2  UNL     1     -11.421  13.284  68.324  1.00  0.00     0.000 HD 
ENDROOT
BRANCH   2   5
HETATM    5  C   UNL     1     -12.202  13.427  65.783  1.00  0.00    -0.458 C  
HETATM    6  O   UNL     1     -11.105  12.543  66.078  1.00  0.00    -0.274 OA 
HETATM    7  C   UNL     1     -11.141  11.360  65.283  1.00  0.00    -0.129 C  
HETATM    8  C   UNL     1     -10.884  11.749  63.798  1.00  0.00    -0.424 C  
HETATM    9  O   UNL     1     -10.944  14.831  64.247  1.00  0.00    -0.609 OA 
HETATM   10  H   UNL     1     -10.868  15.157  63.358  1.00  0.00     0.000 HD 
HETATM   11  N   UNL     1      -9.513  12.315  63.627  1.00  0.00    -0.633 NA 
HETATM   12  C   UNL     1     -11.954  12.772  63.352  1.00  0.00    -0.535 C  
HETATM   13  H2  UNL     1      -8.796  11.680  63.980  1.00  0.00     0.000 HD 
HETATM   14  O   UNL     1     -13.224  12.137  63.150  1.00  0.00    -0.535 OA 
HETATM   15  C   UNL     1     -12.078  13.958  64.339  1.00  0.00    -0.443 C  
HETATM   16  H1  UNL     1      -9.345  12.570  62.654  1.00  0.00     0.000 HD 
HETATM   17  H   UNL     1     -13.881  12.766  62.876  1.00  0.00     0.000 HD 
BRANCH   7  18
HETATM   18  O   UNL     1     -10.133  10.432  65.693  1.00  0.00    -0.259 OA 
BRANCH  18  19
HETATM   19  C   UNL     1      -9.500  10.769  66.941  1.00  0.00    -0.168 C  
HETATM   20  O   UNL     1     -11.711  10.614  68.044  1.00  0.00    -0.688 OA 
HETATM   21  C   UNL     1      -8.264   9.879  67.051  1.00  0.00    -0.117 C  
HETATM   22  C   UNL     1      -9.916   8.920  68.387  1.00  0.00    -0.178 C  
HETATM   23  H   UNL     1     -12.213  10.379  68.815  1.00  0.00     0.000 HD 
HETATM   24  O   UNL     1      -8.651   8.694  67.761  1.00  0.00    -0.134 OA 
HETATM   25  C   UNL     1     -10.304  10.392  68.174  1.00  0.00    -0.172 C  
BRANCH  21  26
HETATM   26  C   UNL     1      -7.098  10.529  67.799  1.00  0.00    -0.083 C  
HETATM   27  H   UNL     1      -5.357  11.349  67.357  1.00  0.00     0.000 HD 
HETATM   28  O   UNL     1      -6.080  10.946  66.892  1.00  0.00    -0.062 OA 
ENDBRANCH  21  26
BRANCH  22  29
HETATM   29  O   UNL     1      -9.839   8.667  69.786  1.00  0.00    -0.178 OA 
BRANCH  29  30
HETATM   30  C   UNL     1     -10.758   7.720  70.364  1.00  0.00    -0.236 C  
HETATM   31  C   UNL     1     -11.815   8.451  71.214  1.00  0.00    -0.289 C  
HETATM   32  O   UNL     1     -12.353   9.566  70.489  1.00  0.00    -0.474 OA 
HETATM   33  C   UNL     1     -12.948   7.494  71.604  1.00  0.00    -0.358 C  
HETATM   34  C   UNL     1     -12.376   6.360  72.454  1.00  0.00    -0.061 C  
HETATM   35  N   UNL     1     -14.014   8.204  72.337  1.00  0.00    -0.587 NA 
HETATM   36  H   UNL     1     -13.004  10.016  71.013  1.00  0.00     0.000 HD 
HETATM   37  H1  UNL     1     -14.767   7.568  72.596  1.00  0.00     0.000 HD 
HETATM   38  H2  UNL     1     -14.363   9.005  71.811  1.00  0.00     0.000 HD 
HETATM   39  C   UNL     1     -11.245   5.611  71.729  1.00  0.00    -0.158 C  
HETATM   40  C   UNL     1     -10.116   6.544  71.150  1.00  0.00    -0.183 C  
HETATM   41  N   UNL     1     -10.688   4.600  72.652  1.00  0.00    -0.201 NA 
HETATM   42  H2  UNL     1     -11.401   3.971  73.022  1.00  0.00     0.000 HD 
HETATM   43  H1  UNL     1      -9.938   4.103  72.171  1.00  0.00     0.000 HD 
BRANCH  40  44
HETATM   44  O   UNL     1      -9.253   5.697  70.356  1.00  0.00    -0.147 OA 
BRANCH  44  45
HETATM   45  C   UNL     1      -7.886   5.629  70.787  1.00  0.00    -0.093 C  
HETATM   46  O   UNL     1      -7.705   4.675  71.826  1.00  0.00    -0.090 OA 
HETATM   47  C   UNL     1      -7.889   3.312  71.445  1.00  0.00    -0.056 C  
HETATM   48  C   UNL     1      -6.887   2.939  70.350  1.00  0.00    -0.033 C  
HETATM   49  H1  UNL     1      -6.422   6.106  67.698  1.00  0.00     0.000 HD 
HETATM   50  H2  UNL     1      -6.972   7.254  68.789  1.00  0.00     0.000 HD 
HETATM   51  O   UNL     1      -7.046   1.590  69.903  1.00  0.00    -0.033 OA 
HETATM   52  C   UNL     1      -7.047   3.890  69.156  1.00  0.00    -0.047 C  
HETATM   53  H   UNL     1      -6.423   1.359  69.223  1.00  0.00     0.000 HD 
HETATM   54  O   UNL     1      -6.042   3.599  68.170  1.00  0.00    -0.029 OA 
HETATM   55  N   UNL     1      -7.061   6.288  68.472  1.00  0.00    -0.080 NA 
HETATM   56  C   UNL     1      -6.915   5.353  69.611  1.00  0.00    -0.062 C  
HETATM   57  H   UNL     1      -6.141   4.188  67.432  1.00  0.00     0.000 HD 
BRANCH  47  58
HETATM   58  C   UNL     1      -7.693   2.458  72.705  1.00  0.00    -0.053 C  
HETATM   59  O   UNL     1      -7.509   3.296  73.849  1.00  0.00    -0.057 OA 
HETATM   60  H   UNL     1      -7.388   2.768  74.629  1.00  0.00     0.000 HD 
ENDBRANCH  47  58
ENDBRANCH  44  45
ENDBRANCH  40  44
ENDBRANCH  29  30
ENDBRANCH  22  29
ENDBRANCH  18  19
ENDBRANCH   7  18
ENDBRANCH   2   5
TORSDOF 9
ENDMDL
MODEL       79
REMARK 921   NORMALIZED FREE ENERGY PREDICTED BY IDOCK:   -6.32 KCAL/MOL
REMARK 922        TOTAL FREE ENERGY PREDICTED BY IDOCK:  -11.69 KCAL/MOL
REMARK 923 INTER-LIGAND FREE ENERGY PREDICTED BY IDOCK:   -9.05 KCAL/MOL
REMARK 924 INTRA-LIGAND FREE ENERGY PREDICTED BY IDOCK:   -2.64 KCAL/MOL
REMARK 927      BINDING AFFINITY PREDICTED BY RF-SCORE:    0.00 PKD
ROOT
HETATM    1  N   UNL     1     -10.147  17.907  66.064  1.00  0.00    -0.540 NA 
HETATM    2  C   UNL     1     -10.347  16.516  65.612  1.00  0.00    -0.322 C  
HETATM    3  H1  UNL     1     -10.405  18.554  65.319  1.00  0.00     0.000 HD 
HETATM    4  H2  UNL     1      -9.197  18.068  66.399  1.00  0.00     0.000 HD 
ENDROOT
BRANCH   2   5
HETATM    5  C   UNL     1      -9.958  15.540  66.736  1.00  0.00    -0.249 C  
HETATM    6  O   UNL     1     -10.400  14.231  66.333  1.00  0.00    -0.275 OA 
HETATM    7  C   UNL     1      -9.917  13.210  67.203  1.00  0.00    -0.236 C  
HETATM    8  C   UNL     1     -10.582  13.388  68.599  1.00  0.00    -0.241 C  
HETATM    9  O   UNL     1     -11.988  16.092  67.955  1.00  0.00    -0.090 OA 
HETATM   10  H   UNL     1     -12.367  16.318  68.796  1.00  0.00     0.000 HD 
HETATM   11  N   UNL     1     -12.059  13.185  68.513  1.00  0.00    -0.266 NA 
HETATM   12  C   UNL     1     -10.258  14.801  69.137  1.00  0.00    -0.220 C  
HETATM   13  H2  UNL     1     -12.293  12.284  68.095  1.00  0.00     0.000 HD 
HETATM   14  O   UNL     1      -8.896  14.884  69.579  1.00  0.00    -0.411 OA 
HETATM   15  C   UNL     1     -10.573  15.908  68.102  1.00  0.00    -0.280 C  
HETATM   16  H1  UNL     1     -12.495  13.302  69.428  1.00  0.00     0.000 HD 
HETATM   17  H   UNL     1      -8.697  15.752  69.910  1.00  0.00     0.000 HD 
BRANCH   7  18
HETATM   18  O   UNL     1     -10.243  11.910  66.704  1.00  0.00    -0.204 OA 
BRANCH  18  19
HETATM   19  C   UNL     1      -9.168  11.271  65.991  1.00  0.00    -0.208 C  
HETATM   20  O   UNL     1      -7.980  10.984  68.143  1.00  0.00    -0.109 OA 
HETATM   21  C   UNL     1      -9.817  10.247  65.062  1.00  0.00    -0.329 C  
HETATM   22  C   UNL     1      -9.008   9.078  66.910  1.00  0.00    -0.123 C  
HETATM   23  H   UNL     1      -7.411  10.451  68.686  1.00  0.00     0.000 HD 
HETATM   24  O   UNL     1      -9.865   8.998  65.770  1.00  0.00    -0.262 OA 
HETATM   25  C   UNL     1      -8.258  10.419  66.859  1.00  0.00    -0.124 C  
BRANCH  21  26
HETATM   26  C   UNL     1      -9.056  10.028  63.753  1.00  0.00    -0.267 C  
HETATM   27  H   UNL     1      -9.209  10.592  61.867  1.00  0.00     0.000 HD 
HETATM   28  O   UNL     1      -9.681  10.727  62.679  1.00  0.00    -0.280 OA 
ENDBRANCH  21  26
BRANCH  22  29
HETATM   29  O   UNL     1      -8.053   8.022  66.898  1.00  0.00    -0.105 OA 
BRANCH  29  30
HETATM   30  C   UNL     1      -8.466   6.717  67.348  1.00  0.00    -0.120 C  
HETATM   31  C   UNL     1      -9.286   6.008  66.251  1.00  0.00    -0.154 C  
HETATM   32  O   UNL     1      -8.619   6.113  64.986  1.00  0.00    -0.283 OA 
HETATM   33  C   UNL     1      -9.493   4.531  66.604  1.00  0.00    -0.174 C  
HETATM   34  C   UNL     1     -10.285   4.434  67.908  1.00  0.00     0.092 C  
HETATM   35  N   UNL     1     -10.194   3.819  65.518  1.00  0.00    -0.426 NA 
HETATM   36  H   UNL     1      -9.123   5.676  64.311  1.00  0.00     0.000 HD 
HETATM   37  H1  UNL     1     -10.332   2.837  65.753  1.00  0.00     0.000 HD 
HETATM   38  H2  UNL     1      -9.713   3.928  64.626  1.00  0.00     0.000 HD 
HETATM   39  C   UNL     1      -9.595   5.185  69.059  1.00  0.00    -0.145 C  
HETATM   40  C   UNL     1      -9.196   6.670  68.718  1.00  0.00    -0.129 C  
HETATM   41  N   UNL     1     -10.469   5.122  70.250  1.00  0.00    -0.262 NA 
HETATM   42  H2  UNL     1     -10.721   4.166  70.500  1.00  0.00     0.000 HD 
HETATM   43  H1  UNL     1     -10.011   5.620  71.013  1.00  0.00     0.000 HD 
BRANCH  40  44
HETATM   44  O   UNL     1      -8.406   7.148  69.831  1.00  0.00    -0.131 OA 
BRANCH  44  45
HETATM   45  C   UNL     1      -8.878   8.352  70.454  1.00  0.00    -0.146 C  
HETATM   46  O   UNL     1      -9.923   8.092  71.384  1.00  0.00    -0.170 OA 
HETATM   47  C   UNL     1      -9.537   7.370  72.552  1.00  0.00    -0.157 C  
HETATM   48  C   UNL     1      -8.473   8.157  73.322  1.00  0.00    -0.230 C  
HETATM   49  H1  UNL     1      -5.835   9.965  70.666  1.00  0.00     0.000 HD 
HETATM   50  H2  UNL     1      -6.909   9.911  69.380  1.00  0.00     0.000 HD 
HETATM   51  O   UNL     1      -8.021   7.466  74.489  1.00  0.00    -0.147 OA 
HETATM   52  C   UNL     1      -7.275   8.439  72.405  1.00  0.00    -0.083 C  
HETATM   53  H   UNL     1      -7.362   7.955  74.966  1.00  0.00     0.000 HD 
HETATM   54  O   UNL     1      -6.319   9.259  73.099  1.00  0.00    -0.304 OA 
HETATM   55  N   UNL     1      -6.590   9.438  70.226  1.00  0.00    -0.059 NA 
HETATM   56  C   UNL     1      -7.733   9.152  71.123  1.00  0.00    -0.078 C  
HETATM   57  H   UNL     1      -5.578   9.434  72.531  1.00  0.00     0.000 HD 
BRANCH  47  58
HETATM   58  C   UNL     1     -10.803   7.160  73.395  1.00  0.00    -0.319 C  
HETATM   59  O   UNL     1     -11.829   6.554  72.605  1.00  0.00    -0.483 OA 
HETATM   60  H   UNL     1     -12.612   6.424  73.126  1.00  0.00     0.000 HD 
ENDBRANCH  47  58
ENDBRANCH  44  45
ENDBRANCH  40  44
ENDBRANCH  29  30
ENDBRANCH  22  29
ENDBRANCH  18  19
ENDBRANCH   7  18
ENDBRANCH   2   5
TORSDOF 9
ENDMDL
MODEL       80
REMARK 921   NORMALIZED FREE ENERGY PREDICTED BY IDOCK:   -6.32 KCAL/MOL
REMARK 922        TOTAL FREE ENERGY PREDICTED BY IDOCK:  -11.69 KCAL/MOL
REMARK 923 INTER-LIGAND FREE ENERGY PREDICTED BY IDOCK:   -9.92 KCAL/MOL
REMARK 924 INTRA-LIGAND FREE ENERGY PREDICTED BY IDOCK:   -1.77 KCAL/MOL
REMARK 927      BINDING AFFINITY PREDICTED BY RF-SCORE:    0.00 PKD
ROOT
HETATM    1  N   UNL     1      -9.852   9.978  63.066  1.00  0.00    -0.515 NA 
HETATM    2  C   UNL     1      -8.606   9.217  63.292  1.00  0.00    -0.201 C  
HETATM    3  H1  UNL     1      -9.856  10.364  62.122  1.00  0.00     0.000 HD 
HETATM    4  H2  UNL     1      -9.996  10.697  63.776  1.00  0.00     0.000 HD 
ENDROOT
BRANCH   2   5
HETATM    5  C   UNL     1      -8.601   8.634  64.715  1.00  0.00    -0.111 C  
HETATM    6  O   UNL     1      -7.633   9.381  65.476  1.00  0.00    -0.096 OA 
HETATM    7  C   UNL     1      -7.683   9.064  66.865  1.00  0.00    -0.098 C  
HETATM    8  C   UNL     1      -7.216   7.592  67.058  1.00  0.00    -0.089 C  
HETATM    9  O   UNL     1      -7.044   6.897  64.027  1.00  0.00    -0.053 OA 
HETATM   10  H   UNL     1      -6.833   5.972  64.052  1.00  0.00     0.000 HD 
HETATM   11  N   UNL     1      -5.788   7.431  66.654  1.00  0.00    -0.034 NA 
HETATM   12  C   UNL     1      -8.126   6.660  66.225  1.00  0.00    -0.115 C  
HETATM   13  H2  UNL     1      -5.180   8.087  67.145  1.00  0.00     0.000 HD 
HETATM   14  O   UNL     1      -9.415   6.517  66.836  1.00  0.00    -0.141 OA 
HETATM   15  C   UNL     1      -8.257   7.130  64.756  1.00  0.00    -0.050 C  
HETATM   16  H1  UNL     1      -5.482   6.466  66.780  1.00  0.00     0.000 HD 
HETATM   17  H   UNL     1      -9.974   5.944  66.324  1.00  0.00     0.000 HD 
BRANCH   7  18
HETATM   18  O   UNL     1      -6.821   9.920  67.621  1.00  0.00    -0.082 OA 
BRANCH  18  19
HETATM   19  C   UNL     1      -7.476  10.596  68.708  1.00  0.00    -0.104 C  
HETATM   20  O   UNL     1      -5.538  12.129  68.853  1.00  0.00    -0.050 OA 
HETATM   21  C   UNL     1      -8.914  10.844  68.259  1.00  0.00    -0.150 C  
HETATM   22  C   UNL     1      -7.758  12.849  67.981  1.00  0.00    -0.143 C  
HETATM   23  H   UNL     1      -5.213  13.006  69.022  1.00  0.00     0.000 HD 
HETATM   24  O   UNL     1      -8.955  12.142  67.648  1.00  0.00    -0.165 OA 
HETATM   25  C   UNL     1      -6.956  11.998  68.979  1.00  0.00    -0.094 C  
BRANCH  21  26
HETATM   26  C   UNL     1      -9.933  10.817  69.399  1.00  0.00    -0.110 C  
HETATM   27  H   UNL     1     -11.729  11.550  69.768  1.00  0.00     0.000 HD 
HETATM   28  O   UNL     1     -11.097  11.567  69.060  1.00  0.00    -0.215 OA 
ENDBRANCH  21  26
BRANCH  22  29
HETATM   29  O   UNL     1      -8.064  14.099  68.591  1.00  0.00    -0.140 OA 
BRANCH  29  30
HETATM   30  C   UNL     1      -7.501  15.297  68.020  1.00  0.00    -0.121 C  
HETATM   31  C   UNL     1      -6.799  16.130  69.110  1.00  0.00    -0.196 C  
HETATM   32  O   UNL     1      -5.952  15.292  69.908  1.00  0.00    -0.126 OA 
HETATM   33  C   UNL     1      -5.969  17.253  68.478  1.00  0.00    -0.156 C  
HETATM   34  C   UNL     1      -6.898  18.190  67.707  1.00  0.00    -0.202 C  
HETATM   35  N   UNL     1      -5.216  17.999  69.505  1.00  0.00    -0.180 NA 
HETATM   36  H   UNL     1      -5.519  15.806  70.579  1.00  0.00     0.000 HD 
HETATM   37  H1  UNL     1      -4.664  18.746  69.085  1.00  0.00     0.000 HD 
HETATM   38  H2  UNL     1      -4.639  17.378  70.073  1.00  0.00     0.000 HD 
HETATM   39  C   UNL     1      -7.716  17.442  66.641  1.00  0.00    -0.258 C  
HETATM   40  C   UNL     1      -8.473  16.170  67.180  1.00  0.00    -0.191 C  
HETATM   41  N   UNL     1      -8.651  18.399  66.012  1.00  0.00    -0.511 NA 
HETATM   42  H2  UNL     1      -8.177  19.221  65.637  1.00  0.00     0.000 HD 
HETATM   43  H1  UNL     1      -9.193  17.903  65.306  1.00  0.00     0.000 HD 
BRANCH  40  44
HETATM   44  O   UNL     1      -9.025  15.501  66.022  1.00  0.00    -0.324 OA 
BRANCH  44  45
HETATM   45  C   UNL     1     -10.389  15.823  65.712  1.00  0.00    -0.369 C  
HETATM   46  O   UNL     1     -10.906  14.996  64.677  1.00  0.00    -0.373 OA 
HETATM   47  C   UNL     1     -11.071  13.620  65.017  1.00  0.00    -0.332 C  
HETATM   48  C   UNL     1     -12.046  13.487  66.190  1.00  0.00    -0.436 C  
HETATM   49  H1  UNL     1     -11.413  16.552  68.926  1.00  0.00     0.000 HD 
HETATM   50  H2  UNL     1     -10.660  17.551  67.811  1.00  0.00     0.000 HD 
HETATM   51  O   UNL     1     -12.226  12.130  66.598  1.00  0.00    -0.566 OA 
HETATM   52  C   UNL     1     -11.536  14.311  67.381  1.00  0.00    -0.369 C  
HETATM   53  H   UNL     1     -12.831  12.047  67.326  1.00  0.00     0.000 HD 
HETATM   54  O   UNL     1     -12.500  14.263  68.447  1.00  0.00    -0.564 OA 
HETATM   55  N   UNL     1     -10.813  16.585  68.102  1.00  0.00    -0.340 NA 
HETATM   56  C   UNL     1     -11.300  15.772  66.964  1.00  0.00     0.016 C  
HETATM   57  H   UNL     1     -12.185  14.772  69.184  1.00  0.00     0.000 HD 
BRANCH  47  58
HETATM   58  C   UNL     1     -11.594  12.903  63.765  1.00  0.00    -0.475 C  
HETATM   59  O   UNL     1     -12.367  13.801  62.965  1.00  0.00    -1.089 OA 
HETATM   60  H   UNL     1     -12.690  13.358  62.190  1.00  0.00     0.000 HD 
ENDBRANCH  47  58
ENDBRANCH  44  45
ENDBRANCH  40  44
ENDBRANCH  29  30
ENDBRANCH  22  29
ENDBRANCH  18  19
ENDBRANCH   7  18
ENDBRANCH   2   5
TORSDOF 9
ENDMDL
MODEL       81
REMARK 921   NORMALIZED FREE ENERGY PREDICTED BY IDOCK:   -6.29 KCAL/MOL
REMARK 922        TOTAL FREE ENERGY PREDICTED BY IDOCK:  -11.65 KCAL/MOL
REMARK 923 INTER-LIGAND FREE ENERGY PREDICTED BY IDOCK:   -9.36 KCAL/MOL
REMARK 924 INTRA-LIGAND FREE ENERGY PREDICTED BY IDOCK:   -2.29 KCAL/MOL
REMARK 927      BINDING AFFINITY PREDICTED BY RF-SCORE:    0.00 PKD
ROOT
HETATM    1  N   UNL     1     -14.390  15.040  72.115  1.00  0.00    -0.529 NA 
HETATM    2  C   UNL     1     -13.398  13.996  71.787  1.00  0.00    -0.386 C  
HETATM    3  H1  UNL     1     -14.828  14.832  73.012  1.00  0.00     0.000 HD 
HETATM    4  H2  UNL     1     -15.077  15.162  71.371  1.00  0.00     0.000 HD 
ENDROOT
BRANCH   2   5
HETATM    5  C   UNL     1     -12.736  14.309  70.435  1.00  0.00    -0.295 C  
HETATM    6  O   UNL     1     -11.594  13.442  70.310  1.00  0.00    -0.190 OA 
HETATM    7  C   UNL     1     -11.016  13.500  69.008  1.00  0.00    -0.225 C  
HETATM    8  C   UNL     1     -10.403  14.914  68.796  1.00  0.00    -0.245 C  
HETATM    9  O   UNL     1     -11.504  16.152  71.434  1.00  0.00    -0.421 OA 
HETATM   10  H   UNL     1     -11.234  17.059  71.350  1.00  0.00     0.000 HD 
HETATM   11  N   UNL     1      -9.282  15.156  69.751  1.00  0.00    -0.460 NA 
HETATM   12  C   UNL     1     -11.511  15.978  68.979  1.00  0.00    -0.360 C  
HETATM   13  H2  UNL     1      -8.572  14.425  69.693  1.00  0.00     0.000 HD 
HETATM   14  O   UNL     1     -12.397  15.999  67.851  1.00  0.00     0.164 OA 
HETATM   15  C   UNL     1     -12.297  15.783  70.298  1.00  0.00    -0.310 C  
HETATM   16  H1  UNL     1      -8.880  16.083  69.612  1.00  0.00     0.000 HD 
HETATM   17  H   UNL     1     -13.077  16.652  67.964  1.00  0.00     0.000 HD 
BRANCH   7  18
HETATM   18  O   UNL     1      -9.979  12.526  68.860  1.00  0.00    -0.070 OA 
BRANCH  18  19
HETATM   19  C   UNL     1      -9.906  11.944  67.546  1.00  0.00    -0.188 C  
HETATM   20  O   UNL     1      -8.299  10.281  68.428  1.00  0.00    -0.112 OA 
HETATM   21  C   UNL     1     -11.347  11.785  67.064  1.00  0.00    -0.321 C  
HETATM   22  C   UNL     1     -10.638   9.691  67.804  1.00  0.00    -0.264 C  
HETATM   23  H   UNL     1      -7.968   9.391  68.410  1.00  0.00     0.000 HD 
HETATM   24  O   UNL     1     -11.780  10.469  67.439  1.00  0.00    -0.291 OA 
HETATM   25  C   UNL     1      -9.376  10.521  67.518  1.00  0.00    -0.149 C  
BRANCH  21  26
HETATM   26  C   UNL     1     -11.514  11.934  65.551  1.00  0.00    -0.252 C  
HETATM   27  H   UNL     1     -12.301  13.236  64.292  1.00  0.00     0.000 HD 
HETATM   28  O   UNL     1     -12.197  13.144  65.231  1.00  0.00    -0.401 OA 
ENDBRANCH  21  26
BRANCH  22  29
HETATM   29  O   UNL     1     -10.578   8.492  67.036  1.00  0.00    -0.306 OA 
BRANCH  29  30
HETATM   30  C   UNL     1      -9.365   7.716  67.069  1.00  0.00    -0.157 C  
HETATM   31  C   UNL     1      -8.915   7.366  65.637  1.00  0.00     0.043 C  
HETATM   32  O   UNL     1      -8.955   8.533  64.803  1.00  0.00    -0.412 OA 
HETATM   33  C   UNL     1      -7.496   6.786  65.645  1.00  0.00    -0.082 C  
HETATM   34  C   UNL     1      -7.487   5.493  66.460  1.00  0.00    -0.087 C  
HETATM   35  N   UNL     1      -7.017   6.535  64.272  1.00  0.00    -0.048 NA 
HETATM   36  H   UNL     1      -8.678   8.317  63.921  1.00  0.00     0.000 HD 
HETATM   37  H1  UNL     1      -6.074   6.150  64.276  1.00  0.00     0.000 HD 
HETATM   38  H2  UNL     1      -7.078   7.373  63.694  1.00  0.00     0.000 HD 
HETATM   39  C   UNL     1      -8.002   5.713  67.893  1.00  0.00    -0.097 C  
HETATM   40  C   UNL     1      -9.388   6.457  67.977  1.00  0.00    -0.115 C  
HETATM   41  N   UNL     1      -8.051   4.404  68.578  1.00  0.00    -0.081 NA 
HETATM   42  H2  UNL     1      -7.156   3.915  68.553  1.00  0.00     0.000 HD 
HETATM   43  H1  UNL     1      -8.392   4.550  69.528  1.00  0.00     0.000 HD 
BRANCH  40  44
HETATM   44  O   UNL     1      -9.618   6.736  69.378  1.00  0.00    -0.147 OA 
BRANCH  44  45
HETATM   45  C   UNL     1     -10.817   6.177  69.932  1.00  0.00    -0.353 C  
HETATM   46  O   UNL     1     -10.613   4.850  70.405  1.00  0.00    -0.175 OA 
HETATM   47  C   UNL     1      -9.761   4.730  71.543  1.00  0.00    -0.172 C  
HETATM   48  C   UNL     1     -10.352   5.510  72.720  1.00  0.00    -0.194 C  
HETATM   49  H1  UNL     1     -12.031   9.066  71.375  1.00  0.00     0.000 HD 
HETATM   50  H2  UNL     1     -12.207   8.525  69.798  1.00  0.00     0.000 HD 
HETATM   51  O   UNL     1      -9.523   5.453  73.882  1.00  0.00    -0.135 OA 
HETATM   52  C   UNL     1     -10.558   6.976  72.315  1.00  0.00    -0.213 C  
HETATM   53  H   UNL     1      -9.890   5.937  74.613  1.00  0.00     0.000 HD 
HETATM   54  O   UNL     1     -11.201   7.685  73.389  1.00  0.00    -0.564 OA 
HETATM   55  N   UNL     1     -11.635   8.478  70.642  1.00  0.00    -0.241 NA 
HETATM   56  C   UNL     1     -11.419   7.070  71.046  1.00  0.00    -0.303 C  
HETATM   57  H   UNL     1     -11.329   8.593  73.138  1.00  0.00     0.000 HD 
BRANCH  47  58
HETATM   58  C   UNL     1      -9.639   3.233  71.862  1.00  0.00    -0.151 C  
HETATM   59  O   UNL     1      -8.399   2.720  71.368  1.00  0.00    -0.061 OA 
HETATM   60  H   UNL     1      -8.324   1.794  71.566  1.00  0.00     0.000 HD 
ENDBRANCH  47  58
ENDBRANCH  44  45
ENDBRANCH  40  44
ENDBRANCH  29  30
ENDBRANCH  22  29
ENDBRANCH  18  19
ENDBRANCH   7  18
ENDBRANCH   2   5
TORSDOF 9
ENDMDL
MODEL       82
REMARK 921   NORMALIZED FREE ENERGY PREDICTED BY IDOCK:   -6.27 KCAL/MOL
REMARK 922        TOTAL FREE ENERGY PREDICTED BY IDOCK:  -11.61 KCAL/MOL
REMARK 923 INTER-LIGAND FREE ENERGY PREDICTED BY IDOCK:   -9.02 KCAL/MOL
REMARK 924 INTRA-LIGAND FREE ENERGY PREDICTED BY IDOCK:   -2.59 KCAL/MOL
REMARK 927      BINDING AFFINITY PREDICTED BY RF-SCORE:    0.00 PKD
ROOT
HETATM    1  N   UNL     1      -9.234  17.092  67.827  1.00  0.00    -0.238 NA 
HETATM    2  C   UNL     1      -9.030  15.713  67.339  1.00  0.00    -0.194 C  
HETATM    3  H1  UNL     1      -8.615  17.731  67.329  1.00  0.00     0.000 HD 
HETATM    4  H2  UNL     1      -9.124  17.161  68.839  1.00  0.00     0.000 HD 
ENDROOT
BRANCH   2   5
HETATM    5  C   UNL     1      -9.964  14.749  68.089  1.00  0.00    -0.221 C  
HETATM    6  O   UNL     1      -9.475  13.416  67.854  1.00  0.00    -0.201 OA 
HETATM    7  C   UNL     1     -10.142  12.450  68.664  1.00  0.00    -0.134 C  
HETATM    8  C   UNL     1     -11.628  12.360  68.211  1.00  0.00    -0.333 C  
HETATM    9  O   UNL     1     -11.513  14.748  66.215  1.00  0.00    -0.350 OA 
HETATM   10  H   UNL     1     -12.420  14.815  65.940  1.00  0.00     0.000 HD 
HETATM   11  N   UNL     1     -11.727  11.856  66.809  1.00  0.00    -0.590 NA 
HETATM   12  C   UNL     1     -12.279  13.757  68.333  1.00  0.00    -0.146 C  
HETATM   13  H2  UNL     1     -11.243  10.965  66.693  1.00  0.00     0.000 HD 
HETATM   14  O   UNL     1     -12.533  14.090  69.705  1.00  0.00    -0.359 OA 
HETATM   15  C   UNL     1     -11.438  14.857  67.643  1.00  0.00    -0.352 C  
HETATM   16  H1  UNL     1     -12.701  11.797  66.513  1.00  0.00     0.000 HD 
HETATM   17  H   UNL     1     -12.933  14.949  69.780  1.00  0.00     0.000 HD 
BRANCH   7  18
HETATM   18  O   UNL     1      -9.543  11.159  68.524  1.00  0.00    -0.181 OA 
BRANCH  18  19
HETATM   19  C   UNL     1     -10.219  10.119  69.254  1.00  0.00    -0.223 C  
HETATM   20  O   UNL     1     -10.849   9.084  67.095  1.00  0.00    -0.342 OA 
HETATM   21  C   UNL     1      -9.251   9.655  70.340  1.00  0.00    -0.202 C  
HETATM   22  C   UNL     1      -9.144   8.089  68.616  1.00  0.00    -0.140 C  
HETATM   23  H   UNL     1     -11.005   8.292  66.595  1.00  0.00     0.000 HD 
HETATM   24  O   UNL     1      -8.499   8.557  69.802  1.00  0.00    -0.124 OA 
HETATM   25  C   UNL     1     -10.469   8.851  68.454  1.00  0.00    -0.187 C  
BRANCH  21  26
HETATM   26  C   UNL     1      -9.938   9.184  71.623  1.00  0.00    -0.249 C  
HETATM   27  H   UNL     1     -11.714   9.347  72.470  1.00  0.00     0.000 HD 
HETATM   28  O   UNL     1     -11.288   9.639  71.674  1.00  0.00    -0.374 OA 
ENDBRANCH  21  26
BRANCH  22  29
HETATM   29  O   UNL     1      -9.429   6.697  68.711  1.00  0.00    -0.131 OA 
BRANCH  29  30
HETATM   30  C   UNL     1      -9.383   5.903  67.510  1.00  0.00    -0.110 C  
HETATM   31  C   UNL     1      -9.075   4.432  67.852  1.00  0.00    -0.127 C  
HETATM   32  O   UNL     1      -9.909   3.987  68.931  1.00  0.00    -0.129 OA 
HETATM   33  C   UNL     1      -9.295   3.537  66.627  1.00  0.00    -0.175 C  
HETATM   34  C   UNL     1      -8.335   3.963  65.517  1.00  0.00    -0.105 C  
HETATM   35  N   UNL     1      -9.096   2.115  66.967  1.00  0.00    -0.250 NA 
HETATM   36  H   UNL     1      -9.719   3.081  69.142  1.00  0.00     0.000 HD 
HETATM   37  H1  UNL     1      -9.242   1.519  66.153  1.00  0.00     0.000 HD 
HETATM   38  H2  UNL     1      -9.683   1.830  67.751  1.00  0.00     0.000 HD 
HETATM   39  C   UNL     1      -8.499   5.448  65.152  1.00  0.00    -0.150 C  
HETATM   40  C   UNL     1      -8.451   6.428  66.384  1.00  0.00    -0.123 C  
HETATM   41  N   UNL     1      -7.475   5.798  64.144  1.00  0.00    -0.067 NA 
HETATM   42  H2  UNL     1      -7.505   5.187  63.328  1.00  0.00     0.000 HD 
HETATM   43  H1  UNL     1      -7.584   6.782  63.903  1.00  0.00     0.000 HD 
BRANCH  40  44
HETATM   44  O   UNL     1      -8.803   7.737  65.880  1.00  0.00    -0.167 OA 
BRANCH  44  45
HETATM   45  C   UNL     1      -7.802   8.384  65.082  1.00  0.00    -0.118 C  
HETATM   46  O   UNL     1      -8.353   8.950  63.898  1.00  0.00    -0.168 OA 
HETATM   47  C   UNL     1      -9.229  10.057  64.100  1.00  0.00    -0.271 C  
HETATM   48  C   UNL     1      -8.480  11.193  64.802  1.00  0.00     0.257 C  
HETATM   49  H1  UNL     1      -5.909   9.643  67.677  1.00  0.00     0.000 HD 
HETATM   50  H2  UNL     1      -5.848   8.123  66.973  1.00  0.00     0.000 HD 
HETATM   51  O   UNL     1      -9.319  12.321  65.062  1.00  0.00    -0.441 OA 
HETATM   52  C   UNL     1      -7.892  10.683  66.125  1.00  0.00    -0.152 C  
HETATM   53  H   UNL     1      -8.853  13.025  65.497  1.00  0.00     0.000 HD 
HETATM   54  O   UNL     1      -7.109  11.723  66.736  1.00  0.00    -0.274 OA 
HETATM   55  N   UNL     1      -6.429   8.943  67.149  1.00  0.00    -0.060 NA 
HETATM   56  C   UNL     1      -7.011   9.448  65.884  1.00  0.00    -0.090 C  
HETATM   57  H   UNL     1      -6.745  11.408  67.555  1.00  0.00     0.000 HD 
BRANCH  47  58
HETATM   58  C   UNL     1      -9.741  10.488  62.719  1.00  0.00    -0.226 C  
HETATM   59  O   UNL     1     -10.939  11.260  62.852  1.00  0.00    -0.801 OA 
HETATM   60  H   UNL     1     -11.255  11.526  61.997  1.00  0.00     0.000 HD 
ENDBRANCH  47  58
ENDBRANCH  44  45
ENDBRANCH  40  44
ENDBRANCH  29  30
ENDBRANCH  22  29
ENDBRANCH  18  19
ENDBRANCH   7  18
ENDBRANCH   2   5
TORSDOF 9
ENDMDL
MODEL       83
REMARK 921   NORMALIZED FREE ENERGY PREDICTED BY IDOCK:   -6.25 KCAL/MOL
REMARK 922        TOTAL FREE ENERGY PREDICTED BY IDOCK:  -11.58 KCAL/MOL
REMARK 923 INTER-LIGAND FREE ENERGY PREDICTED BY IDOCK:   -9.86 KCAL/MOL
REMARK 924 INTRA-LIGAND FREE ENERGY PREDICTED BY IDOCK:   -1.72 KCAL/MOL
REMARK 927      BINDING AFFINITY PREDICTED BY RF-SCORE:    0.00 PKD
ROOT
HETATM    1  N   UNL     1     -12.951  14.491  70.186  1.00  0.00    -0.526 NA 
HETATM    2  C   UNL     1     -12.262  15.767  69.904  1.00  0.00    -0.248 C  
HETATM    3  H1  UNL     1     -13.521  14.583  71.027  1.00  0.00     0.000 HD 
HETATM    4  H2  UNL     1     -12.298  13.710  70.249  1.00  0.00     0.000 HD 
ENDROOT
BRANCH   2   5
HETATM    5  C   UNL     1     -11.403  15.628  68.637  1.00  0.00    -0.357 C  
HETATM    6  O   UNL     1     -10.282  14.791  68.975  1.00  0.00    -0.232 OA 
HETATM    7  C   UNL     1      -9.520  14.425  67.826  1.00  0.00    -0.211 C  
HETATM    8  C   UNL     1      -8.840  15.701  67.251  1.00  0.00    -0.198 C  
HETATM    9  O   UNL     1     -10.272  17.721  69.141  1.00  0.00    -0.346 OA 
HETATM   10  H   UNL     1      -9.964  18.554  68.803  1.00  0.00     0.000 HD 
HETATM   11  N   UNL     1      -7.861  16.266  68.227  1.00  0.00    -0.158 NA 
HETATM   12  C   UNL     1      -9.929  16.744  66.909  1.00  0.00    -0.273 C  
HETATM   13  H2  UNL     1      -7.173  15.571  68.518  1.00  0.00     0.000 HD 
HETATM   14  O   UNL     1     -10.641  16.374  65.720  1.00  0.00    -0.350 OA 
HETATM   15  C   UNL     1     -10.903  16.981  68.087  1.00  0.00    -0.338 C  
HETATM   16  H1  UNL     1      -7.415  17.103  67.850  1.00  0.00     0.000 HD 
HETATM   17  H   UNL     1     -11.311  17.015  65.510  1.00  0.00     0.000 HD 
BRANCH   7  18
HETATM   18  O   UNL     1      -8.503  13.477  68.161  1.00  0.00    -0.157 OA 
BRANCH  18  19
HETATM   19  C   UNL     1      -8.580  12.249  67.416  1.00  0.00    -0.178 C  
HETATM   20  O   UNL     1      -7.958  11.022  69.474  1.00  0.00    -0.363 OA 
HETATM   21  C   UNL     1      -9.894  12.297  66.639  1.00  0.00    -0.220 C  
HETATM   22  C   UNL     1     -10.252  10.945  68.504  1.00  0.00    -0.185 C  
HETATM   23  H   UNL     1      -8.055  10.243  70.009  1.00  0.00     0.000 HD 
HETATM   24  O   UNL     1     -10.896  11.669  67.454  1.00  0.00    -0.224 OA 
HETATM   25  C   UNL     1      -8.734  11.003  68.273  1.00  0.00    -0.144 C  
BRANCH  21  26
HETATM   26  C   UNL     1      -9.845  11.573  65.293  1.00  0.00    -0.250 C  
HETATM   27  H   UNL     1     -11.048  10.460  64.191  1.00  0.00     0.000 HD 
HETATM   28  O   UNL     1     -11.078  10.909  65.027  1.00  0.00    -0.061 OA 
ENDBRANCH  21  26
BRANCH  22  29
HETATM   29  O   UNL     1     -10.662   9.581  68.501  1.00  0.00    -0.218 OA 
BRANCH  29  30
HETATM   30  C   UNL     1      -9.655   8.563  68.337  1.00  0.00    -0.147 C  
HETATM   31  C   UNL     1      -9.989   7.671  67.125  1.00  0.00    -0.229 C  
HETATM   32  O   UNL     1     -10.330   8.481  65.991  1.00  0.00    -0.326 OA 
HETATM   33  C   UNL     1      -8.799   6.770  66.776  1.00  0.00    -0.124 C  
HETATM   34  C   UNL     1      -8.505   5.848  67.960  1.00  0.00    -0.110 C  
HETATM   35  N   UNL     1      -9.071   5.980  65.560  1.00  0.00    -0.358 NA 
HETATM   36  H   UNL     1     -10.535   7.931  65.244  1.00  0.00     0.000 HD 
HETATM   37  H1  UNL     1      -8.280   5.380  65.328  1.00  0.00     0.000 HD 
HETATM   38  H2  UNL     1      -9.332   6.576  64.775  1.00  0.00     0.000 HD 
HETATM   39  C   UNL     1      -8.239   6.638  69.253  1.00  0.00    -0.124 C  
HETATM   40  C   UNL     1      -9.341   7.710  69.596  1.00  0.00    -0.156 C  
HETATM   41  N   UNL     1      -8.060   5.675  70.360  1.00  0.00    -0.103 NA 
HETATM   42  H2  UNL     1      -7.334   4.985  70.165  1.00  0.00     0.000 HD 
HETATM   43  H1  UNL     1      -7.883   6.199  71.217  1.00  0.00     0.000 HD 
BRANCH  40  44
HETATM   44  O   UNL     1      -8.838   8.468  70.720  1.00  0.00    -0.139 OA 
BRANCH  44  45
HETATM   45  C   UNL     1      -9.812   8.828  71.710  1.00  0.00    -0.321 C  
HETATM   46  O   UNL     1     -11.121   8.407  71.343  1.00  0.00    -0.236 OA 
HETATM   47  C   UNL     1     -11.327   6.995  71.327  1.00  0.00    -0.274 C  
HETATM   48  C   UNL     1     -11.072   6.416  72.722  1.00  0.00    -0.248 C  
HETATM   49  H1  UNL     1      -7.829   8.324  74.489  1.00  0.00     0.000 HD 
HETATM   50  H2  UNL     1      -7.948   9.683  73.515  1.00  0.00     0.000 HD 
HETATM   51  O   UNL     1     -11.232   4.996  72.760  1.00  0.00    -0.251 OA 
HETATM   52  C   UNL     1      -9.653   6.779  73.180  1.00  0.00    -0.155 C  
HETATM   53  H   UNL     1     -11.074   4.638  73.625  1.00  0.00     0.000 HD 
HETATM   54  O   UNL     1      -9.450   6.317  74.527  1.00  0.00    -0.189 OA 
HETATM   55  N   UNL     1      -8.076   8.672  73.562  1.00  0.00    -0.397 NA 
HETATM   56  C   UNL     1      -9.438   8.300  73.118  1.00  0.00    -0.193 C  
HETATM   57  H   UNL     1      -8.572   6.542  74.811  1.00  0.00     0.000 HD 
BRANCH  47  58
HETATM   58  C   UNL     1     -12.772   6.753  70.871  1.00  0.00    -0.058 C  
HETATM   59  O   UNL     1     -13.644   6.680  72.003  1.00  0.00    -0.481 OA 
HETATM   60  H   UNL     1     -14.538   6.530  71.720  1.00  0.00     0.000 HD 
ENDBRANCH  47  58
ENDBRANCH  44  45
ENDBRANCH  40  44
ENDBRANCH  29  30
ENDBRANCH  22  29
ENDBRANCH  18  19
ENDBRANCH   7  18
ENDBRANCH   2   5
TORSDOF 9
ENDMDL
MODEL       84
REMARK 921   NORMALIZED FREE ENERGY PREDICTED BY IDOCK:   -6.21 KCAL/MOL
REMARK 922        TOTAL FREE ENERGY PREDICTED BY IDOCK:  -11.51 KCAL/MOL
REMARK 923 INTER-LIGAND FREE ENERGY PREDICTED BY IDOCK:   -9.42 KCAL/MOL
REMARK 924 INTRA-LIGAND FREE ENERGY PREDICTED BY IDOCK:   -2.10 KCAL/MOL
REMARK 927      BINDING AFFINITY PREDICTED BY RF-SCORE:    0.00 PKD
ROOT
HETATM    1  N   UNL     1      -7.410   8.584  73.248  1.00  0.00    -0.332 NA 
HETATM    2  C   UNL     1      -6.338   7.912  72.486  1.00  0.00    -0.065 C  
HETATM    3  H1  UNL     1      -7.111   9.523  73.513  1.00  0.00     0.000 HD 
HETATM    4  H2  UNL     1      -7.710   8.035  74.053  1.00  0.00     0.000 HD 
ENDROOT
BRANCH   2   5
HETATM    5  C   UNL     1      -6.790   6.498  72.085  1.00  0.00    -0.068 C  
HETATM    6  O   UNL     1      -8.221   6.536  71.937  1.00  0.00    -0.108 OA 
HETATM    7  C   UNL     1      -8.735   5.332  71.371  1.00  0.00    -0.130 C  
HETATM    8  C   UNL     1      -8.521   4.173  72.387  1.00  0.00    -0.103 C  
HETATM    9  O   UNL     1      -6.829   5.819  74.419  1.00  0.00    -0.079 OA 
HETATM   10  H   UNL     1      -6.585   5.153  75.052  1.00  0.00     0.000 HD 
HETATM   11  N   UNL     1      -9.309   4.406  73.633  1.00  0.00    -0.113 NA 
HETATM   12  C   UNL     1      -7.013   4.057  72.711  1.00  0.00    -0.052 C  
HETATM   13  H2  UNL     1     -10.298   4.554  73.432  1.00  0.00     0.000 HD 
HETATM   14  O   UNL     1      -6.294   3.468  71.618  1.00  0.00    -0.014 OA 
HETATM   15  C   UNL     1      -6.395   5.417  73.113  1.00  0.00    -0.060 C  
HETATM   16  H1  UNL     1      -9.169   3.646  74.299  1.00  0.00     0.000 HD 
HETATM   17  H   UNL     1      -5.368   3.397  71.818  1.00  0.00     0.000 HD 
BRANCH   7  18
HETATM   18  O   UNL     1     -10.133   5.447  71.096  1.00  0.00    -0.193 OA 
BRANCH  18  19
HETATM   19  C   UNL     1     -10.459   5.412  69.695  1.00  0.00    -0.291 C  
HETATM   20  O   UNL     1     -12.284   7.027  70.133  1.00  0.00    -0.618 OA 
HETATM   21  C   UNL     1      -9.140   5.574  68.942  1.00  0.00    -0.118 C  
HETATM   22  C   UNL     1     -10.196   7.652  68.924  1.00  0.00    -0.210 C  
HETATM   23  H   UNL     1     -12.795   7.768  69.830  1.00  0.00     0.000 HD 
HETATM   24  O   UNL     1      -8.959   6.976  68.694  1.00  0.00    -0.131 OA 
HETATM   25  C   UNL     1     -11.277   6.598  69.212  1.00  0.00    -0.266 C  
BRANCH  21  26
HETATM   26  C   UNL     1      -9.098   4.838  67.602  1.00  0.00    -0.115 C  
HETATM   27  H   UNL     1      -7.900   4.728  66.036  1.00  0.00     0.000 HD 
HETATM   28  O   UNL     1      -7.926   5.185  66.868  1.00  0.00    -0.103 OA 
ENDBRANCH  21  26
BRANCH  22  29
HETATM   29  O   UNL     1     -10.584   8.400  67.775  1.00  0.00    -0.229 OA 
BRANCH  29  30
HETATM   30  C   UNL     1      -9.853   9.600  67.459  1.00  0.00    -0.169 C  
HETATM   31  C   UNL     1      -8.813   9.318  66.357  1.00  0.00    -0.146 C  
HETATM   32  O   UNL     1      -9.414   8.583  65.282  1.00  0.00    -0.413 OA 
HETATM   33  C   UNL     1      -8.227  10.629  65.821  1.00  0.00    -0.161 C  
HETATM   34  C   UNL     1      -7.509  11.359  66.956  1.00  0.00    -0.147 C  
HETATM   35  N   UNL     1      -7.300  10.377  64.700  1.00  0.00    -0.311 NA 
HETATM   36  H   UNL     1      -8.773   8.409  64.603  1.00  0.00     0.000 HD 
HETATM   37  H1  UNL     1      -6.910  11.249  64.343  1.00  0.00     0.000 HD 
HETATM   38  H2  UNL     1      -7.745   9.834  63.960  1.00  0.00     0.000 HD 
HETATM   39  C   UNL     1      -8.440  11.618  68.153  1.00  0.00    -0.156 C  
HETATM   40  C   UNL     1      -9.213  10.344  68.663  1.00  0.00    -0.164 C  
HETATM   41  N   UNL     1      -7.648  12.237  69.236  1.00  0.00    -0.317 NA 
HETATM   42  H2  UNL     1      -7.157  13.078  68.931  1.00  0.00     0.000 HD 
HETATM   43  H1  UNL     1      -8.265  12.409  70.029  1.00  0.00     0.000 HD 
BRANCH  40  44
HETATM   44  O   UNL     1     -10.162  10.808  69.650  1.00  0.00    -0.180 OA 
BRANCH  44  45
HETATM   45  C   UNL     1     -11.523  10.898  69.206  1.00  0.00    -0.302 C  
HETATM   46  O   UNL     1     -12.393  10.097  69.998  1.00  0.00    -0.150 OA 
HETATM   47  C   UNL     1     -12.566  10.531  71.346  1.00  0.00    -0.434 C  
HETATM   48  C   UNL     1     -13.158  11.943  71.367  1.00  0.00    -0.204 C  
HETATM   49  H1  UNL     1     -11.484  14.235  68.330  1.00  0.00     0.000 HD 
HETATM   50  H2  UNL     1     -11.013  12.906  67.425  1.00  0.00     0.000 HD 
HETATM   51  O   UNL     1     -13.324  12.445  72.694  1.00  0.00    -0.554 OA 
HETATM   52  C   UNL     1     -12.250  12.894  70.575  1.00  0.00    -0.314 C  
HETATM   53  H   UNL     1     -13.691  13.321  72.707  1.00  0.00     0.000 HD 
HETATM   54  O   UNL     1     -12.856  14.197  70.514  1.00  0.00    -0.328 OA 
HETATM   55  N   UNL     1     -11.155  13.271  68.367  1.00  0.00    -0.257 NA 
HETATM   56  C   UNL     1     -12.024  12.363  69.150  1.00  0.00    -0.240 C  
HETATM   57  H   UNL     1     -12.294  14.786  70.024  1.00  0.00     0.000 HD 
BRANCH  47  58
HETATM   58  C   UNL     1     -13.496   9.520  72.032  1.00  0.00    -0.443 C  
HETATM   59  O   UNL     1     -12.798   8.832  73.074  1.00  0.00    -0.629 OA 
HETATM   60  H   UNL     1     -13.373   8.206  73.498  1.00  0.00     0.000 HD 
ENDBRANCH  47  58
ENDBRANCH  44  45
ENDBRANCH  40  44
ENDBRANCH  29  30
ENDBRANCH  22  29
ENDBRANCH  18  19
ENDBRANCH   7  18
ENDBRANCH   2   5
TORSDOF 9
ENDMDL
MODEL       85
REMARK 921   NORMALIZED FREE ENERGY PREDICTED BY IDOCK:   -6.17 KCAL/MOL
REMARK 922        TOTAL FREE ENERGY PREDICTED BY IDOCK:  -11.45 KCAL/MOL
REMARK 923 INTER-LIGAND FREE ENERGY PREDICTED BY IDOCK:   -9.31 KCAL/MOL
REMARK 924 INTRA-LIGAND FREE ENERGY PREDICTED BY IDOCK:   -2.15 KCAL/MOL
REMARK 927      BINDING AFFINITY PREDICTED BY RF-SCORE:    0.00 PKD
ROOT
HETATM    1  N   UNL     1     -10.270   2.860  64.584  1.00  0.00    -0.377 NA 
HETATM    2  C   UNL     1     -10.101   4.008  65.497  1.00  0.00    -0.134 C  
HETATM    3  H1  UNL     1     -11.118   2.347  64.824  1.00  0.00     0.000 HD 
HETATM    4  H2  UNL     1      -9.447   2.256  64.572  1.00  0.00     0.000 HD 
ENDROOT
BRANCH   2   5
HETATM    5  C   UNL     1      -8.822   4.781  65.135  1.00  0.00    -0.151 C  
HETATM    6  O   UNL     1      -9.017   6.144  65.556  1.00  0.00    -0.106 OA 
HETATM    7  C   UNL     1      -7.821   6.912  65.455  1.00  0.00    -0.115 C  
HETATM    8  C   UNL     1      -7.450   7.063  63.951  1.00  0.00    -0.096 C  
HETATM    9  O   UNL     1      -9.643   5.132  62.873  1.00  0.00    -0.336 OA 
HETATM   10  H   UNL     1      -9.438   5.104  61.946  1.00  0.00     0.000 HD 
HETATM   11  N   UNL     1      -8.496   7.839  63.221  1.00  0.00    -0.379 NA 
HETATM   12  C   UNL     1      -7.282   5.657  63.329  1.00  0.00    -0.052 C  
HETATM   13  H2  UNL     1      -8.670   8.743  63.659  1.00  0.00     0.000 HD 
HETATM   14  O   UNL     1      -6.055   5.049  63.752  1.00  0.00    -0.021 OA 
HETATM   15  C   UNL     1      -8.490   4.737  63.628  1.00  0.00    -0.128 C  
HETATM   16  H1  UNL     1      -8.253   7.937  62.235  1.00  0.00     0.000 HD 
HETATM   17  H   UNL     1      -5.952   4.185  63.370  1.00  0.00     0.000 HD 
BRANCH   7  18
HETATM   18  O   UNL     1      -7.996   8.217  66.015  1.00  0.00    -0.092 OA 
BRANCH  18  19
HETATM   19  C   UNL     1      -7.149   8.487  67.146  1.00  0.00    -0.076 C  
HETATM   20  O   UNL     1      -8.324  10.645  67.445  1.00  0.00    -0.118 OA 
HETATM   21  C   UNL     1      -7.152   7.220  67.999  1.00  0.00    -0.081 C  
HETATM   22  C   UNL     1      -8.622   8.724  69.005  1.00  0.00    -0.132 C  
HETATM   23  H   UNL     1      -8.662  11.304  68.040  1.00  0.00     0.000 HD 
HETATM   24  O   UNL     1      -8.203   7.358  68.966  1.00  0.00    -0.125 OA 
HETATM   25  C   UNL     1      -7.689   9.542  68.097  1.00  0.00    -0.083 C  
BRANCH  21  26
HETATM   26  C   UNL     1      -5.840   6.973  68.746  1.00  0.00    -0.019 C  
HETATM   27  H   UNL     1      -5.273   6.460  70.566  1.00  0.00     0.000 HD 
HETATM   28  O   UNL     1      -6.087   6.613  70.103  1.00  0.00    -0.026 OA 
ENDBRANCH  21  26
BRANCH  22  29
HETATM   29  O   UNL     1      -8.537   9.241  70.329  1.00  0.00    -0.168 OA 
BRANCH  29  30
HETATM   30  C   UNL     1      -9.692   9.133  71.184  1.00  0.00    -0.290 C  
HETATM   31  C   UNL     1      -9.866   7.680  71.666  1.00  0.00    -0.162 C  
HETATM   32  O   UNL     1      -8.617   7.159  72.139  1.00  0.00    -0.111 OA 
HETATM   33  C   UNL     1     -10.913   7.605  72.783  1.00  0.00    -0.377 C  
HETATM   34  C   UNL     1     -12.262   8.075  72.238  1.00  0.00    -0.366 C  
HETATM   35  N   UNL     1     -11.021   6.234  73.318  1.00  0.00    -0.416 NA 
HETATM   36  H   UNL     1      -8.724   6.264  72.436  1.00  0.00     0.000 HD 
HETATM   37  H1  UNL     1     -11.718   6.183  74.061  1.00  0.00     0.000 HD 
HETATM   38  H2  UNL     1     -10.117   5.879  73.627  1.00  0.00     0.000 HD 
HETATM   39  C   UNL     1     -12.182   9.495  71.650  1.00  0.00    -0.398 C  
HETATM   40  C   UNL     1     -11.018   9.701  70.609  1.00  0.00    -0.320 C  
HETATM   41  N   UNL     1     -13.496   9.832  71.063  1.00  0.00    -0.531 NA 
HETATM   42  H2  UNL     1     -14.261   9.726  71.729  1.00  0.00     0.000 HD 
HETATM   43  H1  UNL     1     -13.443  10.773  70.674  1.00  0.00     0.000 HD 
BRANCH  40  44
HETATM   44  O   UNL     1     -10.981  11.116  70.311  1.00  0.00    -0.077 OA 
BRANCH  44  45
HETATM   45  C   UNL     1     -12.113  11.627  69.592  1.00  0.00    -0.280 C  
HETATM   46  O   UNL     1     -12.652  12.790  70.210  1.00  0.00    -0.136 OA 
HETATM   47  C   UNL     1     -11.818  13.947  70.170  1.00  0.00    -0.298 C  
HETATM   48  C   UNL     1     -11.536  14.335  68.717  1.00  0.00    -0.296 C  
HETATM   49  H1  UNL     1     -10.974  10.922  66.412  1.00  0.00     0.000 HD 
HETATM   50  H2  UNL     1     -11.788   9.922  67.482  1.00  0.00     0.000 HD 
HETATM   51  O   UNL     1     -10.676  15.471  68.613  1.00  0.00    -0.236 OA 
HETATM   52  C   UNL     1     -10.899  13.148  67.980  1.00  0.00    -0.242 C  
HETATM   53  H   UNL     1     -10.501  15.712  67.711  1.00  0.00     0.000 HD 
HETATM   54  O   UNL     1     -10.723  13.482  66.592  1.00  0.00    -0.280 OA 
HETATM   55  N   UNL     1     -11.190  10.743  67.392  1.00  0.00    -0.388 NA 
HETATM   56  C   UNL     1     -11.785  11.899  68.102  1.00  0.00    -0.320 C  
HETATM   57  H   UNL     1     -10.328  12.748  66.136  1.00  0.00     0.000 HD 
BRANCH  47  58
HETATM   58  C   UNL     1     -12.558  15.064  70.920  1.00  0.00    -0.356 C  
HETATM   59  O   UNL     1     -12.975  16.082  70.006  1.00  0.00    -0.615 OA 
HETATM   60  H   UNL     1     -13.432  16.773  70.469  1.00  0.00     0.000 HD 
ENDBRANCH  47  58
ENDBRANCH  44  45
ENDBRANCH  40  44
ENDBRANCH  29  30
ENDBRANCH  22  29
ENDBRANCH  18  19
ENDBRANCH   7  18
ENDBRANCH   2   5
TORSDOF 9
ENDMDL
MODEL       86
REMARK 921   NORMALIZED FREE ENERGY PREDICTED BY IDOCK:   -6.15 KCAL/MOL
REMARK 922        TOTAL FREE ENERGY PREDICTED BY IDOCK:  -11.43 KCAL/MOL
REMARK 923 INTER-LIGAND FREE ENERGY PREDICTED BY IDOCK:  -10.12 KCAL/MOL
REMARK 924 INTRA-LIGAND FREE ENERGY PREDICTED BY IDOCK:   -1.30 KCAL/MOL
REMARK 927      BINDING AFFINITY PREDICTED BY RF-SCORE:    0.00 PKD
ROOT
HETATM    1  N   UNL     1     -10.964  15.991  64.558  1.00  0.00    -0.907 NA 
HETATM    2  C   UNL     1     -10.641  17.180  65.373  1.00  0.00    -0.104 C  
HETATM    3  H1  UNL     1     -11.562  16.259  63.777  1.00  0.00     0.000 HD 
HETATM    4  H2  UNL     1     -11.375  15.244  65.118  1.00  0.00     0.000 HD 
ENDROOT
BRANCH   2   5
HETATM    5  C   UNL     1      -9.738  16.777  66.551  1.00  0.00    -0.283 C  
HETATM    6  O   UNL     1     -10.351  15.638  67.184  1.00  0.00    -0.272 OA 
HETATM    7  C   UNL     1      -9.502  15.050  68.167  1.00  0.00    -0.196 C  
HETATM    8  C   UNL     1      -9.332  16.052  69.345  1.00  0.00    -0.218 C  
HETATM    9  O   UNL     1     -10.816  18.425  67.977  1.00  0.00    -0.313 OA 
HETATM   10  H   UNL     1     -10.693  19.122  68.611  1.00  0.00     0.000 HD 
HETATM   11  N   UNL     1     -10.638  16.296  70.026  1.00  0.00    -0.278 NA 
HETATM   12  C   UNL     1      -8.748  17.376  68.801  1.00  0.00    -0.223 C  
HETATM   13  H2  UNL     1     -11.073  15.425  70.332  1.00  0.00     0.000 HD 
HETATM   14  O   UNL     1      -7.355  17.236  68.489  1.00  0.00    -0.213 OA 
HETATM   15  C   UNL     1      -9.538  17.908  67.582  1.00  0.00    -0.270 C  
HETATM   16  H1  UNL     1     -10.527  16.954  70.798  1.00  0.00     0.000 HD 
HETATM   17  H   UNL     1      -6.996  18.049  68.155  1.00  0.00     0.000 HD 
BRANCH   7  18
HETATM   18  O   UNL     1     -10.065  13.838  68.676  1.00  0.00    -0.231 OA 
BRANCH  18  19
HETATM   19  C   UNL     1     -10.023  12.738  67.748  1.00  0.00    -0.219 C  
HETATM   20  O   UNL     1      -8.685  11.466  69.397  1.00  0.00    -0.347 OA 
HETATM   21  C   UNL     1     -11.454  12.537  67.254  1.00  0.00    -0.353 C  
HETATM   22  C   UNL     1     -11.058  10.912  68.877  1.00  0.00    -0.252 C  
HETATM   23  H   UNL     1      -8.475  10.627  69.791  1.00  0.00     0.000 HD 
HETATM   24  O   UNL     1     -12.072  11.569  68.114  1.00  0.00    -0.604 OA 
HETATM   25  C   UNL     1      -9.687  11.397  68.379  1.00  0.00    -0.203 C  
BRANCH  21  26
HETATM   26  C   UNL     1     -11.546  12.030  65.814  1.00  0.00    -0.290 C  
HETATM   27  H   UNL     1     -12.880  12.007  64.358  1.00  0.00     0.000 HD 
HETATM   28  O   UNL     1     -12.823  12.322  65.251  1.00  0.00    -0.464 OA 
ENDBRANCH  21  26
BRANCH  22  29
HETATM   29  O   UNL     1     -11.132   9.500  68.704  1.00  0.00    -0.121 OA 
BRANCH  29  30
HETATM   30  C   UNL     1     -11.166   8.665  69.877  1.00  0.00    -0.041 C  
HETATM   31  C   UNL     1     -12.023   9.323  70.977  1.00  0.00    -0.300 C  
HETATM   32  O   UNL     1     -13.267   9.781  70.430  1.00  0.00    -0.569 OA 
HETATM   33  C   UNL     1     -12.293   8.331  72.114  1.00  0.00    -0.360 C  
HETATM   34  C   UNL     1     -10.964   7.922  72.748  1.00  0.00    -0.456 C  
HETATM   35  N   UNL     1     -13.192   8.918  73.127  1.00  0.00    -0.822 NA 
HETATM   36  H   UNL     1     -13.795  10.186  71.107  1.00  0.00     0.000 HD 
HETATM   37  H1  UNL     1     -13.371   8.259  73.884  1.00  0.00     0.000 HD 
HETATM   38  H2  UNL     1     -14.058   9.256  72.710  1.00  0.00     0.000 HD 
HETATM   39  C   UNL     1      -9.992   7.326  71.715  1.00  0.00    -0.171 C  
HETATM   40  C   UNL     1      -9.787   8.214  70.431  1.00  0.00    -0.186 C  
HETATM   41  N   UNL     1      -8.707   7.047  72.390  1.00  0.00    -0.124 NA 
HETATM   42  H2  UNL     1      -8.816   6.455  73.213  1.00  0.00     0.000 HD 
HETATM   43  H1  UNL     1      -8.063   6.652  71.705  1.00  0.00     0.000 HD 
BRANCH  40  44
HETATM   44  O   UNL     1      -9.004   7.422  69.507  1.00  0.00    -0.143 OA 
BRANCH  44  45
HETATM   45  C   UNL     1      -7.659   7.141  69.919  1.00  0.00    -0.098 C  
HETATM   46  O   UNL     1      -7.394   5.743  69.943  1.00  0.00    -0.067 OA 
HETATM   47  C   UNL     1      -7.379   5.100  68.669  1.00  0.00    -0.066 C  
HETATM   48  C   UNL     1      -6.293   5.720  67.786  1.00  0.00    -0.042 C  
HETATM   49  H1  UNL     1      -6.150   9.833  68.375  1.00  0.00     0.000 HD 
HETATM   50  H2  UNL     1      -6.891   9.762  69.876  1.00  0.00     0.000 HD 
HETATM   51  O   UNL     1      -6.252   5.138  66.482  1.00  0.00    -0.033 OA 
HETATM   52  C   UNL     1      -6.531   7.231  67.659  1.00  0.00    -0.052 C  
HETATM   53  H   UNL     1      -5.577   5.522  65.935  1.00  0.00     0.000 HD 
HETATM   54  O   UNL     1      -5.457   7.826  66.910  1.00  0.00    -0.030 OA 
HETATM   55  N   UNL     1      -6.838   9.343  68.947  1.00  0.00    -0.055 NA 
HETATM   56  C   UNL     1      -6.613   7.883  69.049  1.00  0.00    -0.044 C  
HETATM   57  H   UNL     1      -5.604   8.761  66.831  1.00  0.00     0.000 HD 
BRANCH  47  58
HETATM   58  C   UNL     1      -7.121   3.608  68.917  1.00  0.00    -0.050 C  
HETATM   59  O   UNL     1      -7.409   2.852  67.737  1.00  0.00    -0.053 OA 
HETATM   60  H   UNL     1      -7.249   1.928  67.891  1.00  0.00     0.000 HD 
ENDBRANCH  47  58
ENDBRANCH  44  45
ENDBRANCH  40  44
ENDBRANCH  29  30
ENDBRANCH  22  29
ENDBRANCH  18  19
ENDBRANCH   7  18
ENDBRANCH   2   5
TORSDOF 9
ENDMDL
MODEL       87
REMARK 921   NORMALIZED FREE ENERGY PREDICTED BY IDOCK:   -6.13 KCAL/MOL
REMARK 922        TOTAL FREE ENERGY PREDICTED BY IDOCK:  -11.40 KCAL/MOL
REMARK 923 INTER-LIGAND FREE ENERGY PREDICTED BY IDOCK:   -9.23 KCAL/MOL
REMARK 924 INTRA-LIGAND FREE ENERGY PREDICTED BY IDOCK:   -2.16 KCAL/MOL
REMARK 927      BINDING AFFINITY PREDICTED BY RF-SCORE:    0.00 PKD
ROOT
HETATM    1  N   UNL     1     -11.637  11.457  62.963  1.00  0.00    -0.853 NA 
HETATM    2  C   UNL     1     -11.929  12.878  63.240  1.00  0.00    -0.440 C  
HETATM    3  H1  UNL     1     -12.127  11.161  62.119  1.00  0.00     0.000 HD 
HETATM    4  H2  UNL     1     -11.851  10.859  63.761  1.00  0.00     0.000 HD 
ENDROOT
BRANCH   2   5
HETATM    5  C   UNL     1     -11.189  13.325  64.512  1.00  0.00    -0.362 C  
HETATM    6  O   UNL     1     -11.029  12.159  65.341  1.00  0.00    -0.285 OA 
HETATM    7  C   UNL     1     -10.179  12.408  66.458  1.00  0.00    -0.227 C  
HETATM    8  C   UNL     1     -10.887  13.416  67.409  1.00  0.00    -0.268 C  
HETATM    9  O   UNL     1     -13.289  14.023  65.521  1.00  0.00    -0.673 OA 
HETATM   10  H   UNL     1     -13.746  14.703  66.001  1.00  0.00     0.000 HD 
HETATM   11  N   UNL     1     -12.138  12.826  67.972  1.00  0.00    -0.243 NA 
HETATM   12  C   UNL     1     -11.201  14.713  66.628  1.00  0.00    -0.349 C  
HETATM   13  H2  UNL     1     -11.960  11.934  68.433  1.00  0.00     0.000 HD 
HETATM   14  O   UNL     1     -10.012  15.484  66.409  1.00  0.00    -0.255 OA 
HETATM   15  C   UNL     1     -11.932  14.430  65.293  1.00  0.00    -0.382 C  
HETATM   16  H1  UNL     1     -12.603  13.487  68.595  1.00  0.00     0.000 HD 
HETATM   17  H   UNL     1     -10.206  16.281  65.928  1.00  0.00     0.000 HD 
BRANCH   7  18
HETATM   18  O   UNL     1      -9.914  11.205  67.184  1.00  0.00    -0.181 OA 
BRANCH  18  19
HETATM   19  C   UNL     1      -9.084  11.392  68.344  1.00  0.00    -0.179 C  
HETATM   20  O   UNL     1     -10.133   9.389  69.353  1.00  0.00    -0.182 OA 
HETATM   21  C   UNL     1      -7.666  11.624  67.826  1.00  0.00    -0.126 C  
HETATM   22  C   UNL     1      -7.783   9.403  68.524  1.00  0.00    -0.085 C  
HETATM   23  H   UNL     1     -10.038   8.616  69.897  1.00  0.00     0.000 HD 
HETATM   24  O   UNL     1      -7.015  10.345  67.774  1.00  0.00    -0.080 OA 
HETATM   25  C   UNL     1      -8.933  10.155  69.213  1.00  0.00    -0.183 C  
BRANCH  21  26
HETATM   26  C   UNL     1      -6.829  12.554  68.706  1.00  0.00    -0.096 C  
HETATM   27  H   UNL     1      -7.020  14.332  69.543  1.00  0.00     0.000 HD 
HETATM   28  O   UNL     1      -7.539  13.755  68.996  1.00  0.00    -0.085 OA 
ENDBRANCH  21  26
BRANCH  22  29
HETATM   29  O   UNL     1      -6.981   8.781  69.524  1.00  0.00    -0.053 OA 
BRANCH  29  30
HETATM   30  C   UNL     1      -7.642   8.133  70.629  1.00  0.00    -0.073 C  
HETATM   31  C   UNL     1      -6.802   8.277  71.913  1.00  0.00    -0.082 C  
HETATM   32  O   UNL     1      -6.373   9.636  72.078  1.00  0.00    -0.297 OA 
HETATM   33  C   UNL     1      -7.613   7.840  73.138  1.00  0.00    -0.116 C  
HETATM   34  C   UNL     1      -7.984   6.364  72.993  1.00  0.00    -0.106 C  
HETATM   35  N   UNL     1      -6.854   8.062  74.384  1.00  0.00    -0.121 NA 
HETATM   36  H   UNL     1      -5.856   9.725  72.869  1.00  0.00     0.000 HD 
HETATM   37  H1  UNL     1      -7.393   7.771  75.199  1.00  0.00     0.000 HD 
HETATM   38  H2  UNL     1      -6.542   9.029  74.466  1.00  0.00     0.000 HD 
HETATM   39  C   UNL     1      -8.758   6.090  71.692  1.00  0.00    -0.135 C  
HETATM   40  C   UNL     1      -8.068   6.658  70.395  1.00  0.00    -0.117 C  
HETATM   41  N   UNL     1      -8.993   4.635  71.585  1.00  0.00    -0.130 NA 
HETATM   42  H2  UNL     1      -9.459   4.252  72.407  1.00  0.00     0.000 HD 
HETATM   43  H1  UNL     1      -9.506   4.454  70.722  1.00  0.00     0.000 HD 
BRANCH  40  44
HETATM   44  O   UNL     1      -9.012   6.475  69.315  1.00  0.00    -0.131 OA 
BRANCH  44  45
HETATM   45  C   UNL     1      -8.439   6.346  68.006  1.00  0.00    -0.118 C  
HETATM   46  O   UNL     1      -7.566   5.226  67.917  1.00  0.00    -0.082 OA 
HETATM   47  C   UNL     1      -8.197   3.950  68.013  1.00  0.00    -0.091 C  
HETATM   48  C   UNL     1      -9.212   3.785  66.879  1.00  0.00    -0.179 C  
HETATM   49  H1  UNL     1     -11.199   7.373  66.209  1.00  0.00     0.000 HD 
HETATM   50  H2  UNL     1     -10.000   8.306  66.917  1.00  0.00     0.000 HD 
HETATM   51  O   UNL     1      -9.901   2.535  66.942  1.00  0.00    -0.299 OA 
HETATM   52  C   UNL     1     -10.233   4.930  66.929  1.00  0.00    -0.211 C  
HETATM   53  H   UNL     1     -10.531   2.432  66.238  1.00  0.00     0.000 HD 
HETATM   54  O   UNL     1     -11.127   4.827  65.807  1.00  0.00    -0.803 OA 
HETATM   55  N   UNL     1     -10.488   7.410  66.939  1.00  0.00    -0.317 NA 
HETATM   56  C   UNL     1      -9.519   6.291  66.897  1.00  0.00    -0.138 C  
HETATM   57  H   UNL     1     -11.759   5.535  65.838  1.00  0.00     0.000 HD 
BRANCH  47  58
HETATM   58  C   UNL     1      -7.090   2.890  67.938  1.00  0.00    -0.049 C  
HETATM   59  O   UNL     1      -7.142   2.205  66.684  1.00  0.00    -0.049 OA 
HETATM   60  H   UNL     1      -6.457   1.549  66.637  1.00  0.00     0.000 HD 
ENDBRANCH  47  58
ENDBRANCH  44  45
ENDBRANCH  40  44
ENDBRANCH  29  30
ENDBRANCH  22  29
ENDBRANCH  18  19
ENDBRANCH   7  18
ENDBRANCH   2   5
TORSDOF 9
ENDMDL
MODEL       88
REMARK 921   NORMALIZED FREE ENERGY PREDICTED BY IDOCK:   -6.10 KCAL/MOL
REMARK 922        TOTAL FREE ENERGY PREDICTED BY IDOCK:  -11.35 KCAL/MOL
REMARK 923 INTER-LIGAND FREE ENERGY PREDICTED BY IDOCK:   -9.45 KCAL/MOL
REMARK 924 INTRA-LIGAND FREE ENERGY PREDICTED BY IDOCK:   -1.90 KCAL/MOL
REMARK 927      BINDING AFFINITY PREDICTED BY RF-SCORE:    0.00 PKD
ROOT
HETATM    1  N   UNL     1      -6.278  20.189  70.345  1.00  0.00    -0.376 NA 
HETATM    2  C   UNL     1      -6.371  19.682  68.961  1.00  0.00    -0.297 C  
HETATM    3  H1  UNL     1      -5.404  20.701  70.468  1.00  0.00     0.000 HD 
HETATM    4  H2  UNL     1      -6.387  19.445  71.034  1.00  0.00     0.000 HD 
ENDROOT
BRANCH   2   5
HETATM    5  C   UNL     1      -7.688  18.911  68.775  1.00  0.00    -0.331 C  
HETATM    6  O   UNL     1      -7.359  17.652  68.159  1.00  0.00    -0.213 OA 
HETATM    7  C   UNL     1      -8.476  16.766  68.120  1.00  0.00    -0.213 C  
HETATM    8  C   UNL     1      -9.547  17.355  67.156  1.00  0.00    -0.265 C  
HETATM    9  O   UNL     1      -8.106  20.076  66.682  1.00  0.00    -0.300 OA 
HETATM   10  H   UNL     1      -8.742  20.541  66.151  1.00  0.00     0.000 HD 
HETATM   11  N   UNL     1      -9.026  17.418  65.758  1.00  0.00    -0.485 NA 
HETATM   12  C   UNL     1      -9.950  18.764  67.650  1.00  0.00    -0.345 C  
HETATM   13  H2  UNL     1      -8.691  16.509  65.439  1.00  0.00     0.000 HD 
HETATM   14  O   UNL     1     -10.785  18.683  68.813  1.00  0.00    -0.302 OA 
HETATM   15  C   UNL     1      -8.721  19.666  67.912  1.00  0.00    -0.324 C  
HETATM   16  H1  UNL     1      -9.728  17.804  65.127  1.00  0.00     0.000 HD 
HETATM   17  H   UNL     1     -11.033  19.549  69.116  1.00  0.00     0.000 HD 
BRANCH   7  18
HETATM   18  O   UNL     1      -8.092  15.474  67.641  1.00  0.00    -0.131 OA 
BRANCH  18  19
HETATM   19  C   UNL     1      -7.532  14.618  68.653  1.00  0.00    -0.125 C  
HETATM   20  O   UNL     1      -9.428  13.063  68.316  1.00  0.00    -0.217 OA 
HETATM   21  C   UNL     1      -6.048  14.472  68.321  1.00  0.00    -0.118 C  
HETATM   22  C   UNL     1      -7.109  12.538  67.568  1.00  0.00    -0.151 C  
HETATM   23  H   UNL     1      -9.742  12.167  68.290  1.00  0.00     0.000 HD 
HETATM   24  O   UNL     1      -5.907  13.307  67.495  1.00  0.00    -0.268 OA 
HETATM   25  C   UNL     1      -8.034  13.185  68.612  1.00  0.00    -0.033 C  
BRANCH  21  26
HETATM   26  C   UNL     1      -5.152  14.303  69.549  1.00  0.00    -0.090 C  
HETATM   27  H   UNL     1      -5.064  14.995  71.397  1.00  0.00     0.000 HD 
HETATM   28  O   UNL     1      -5.620  15.100  70.635  1.00  0.00    -0.135 OA 
ENDBRANCH  21  26
BRANCH  22  29
HETATM   29  O   UNL     1      -6.831  11.201  67.972  1.00  0.00    -0.065 OA 
BRANCH  29  30
HETATM   30  C   UNL     1      -7.182  10.126  67.080  1.00  0.00    -0.091 C  
HETATM   31  C   UNL     1      -7.062  10.587  65.614  1.00  0.00    -0.119 C  
HETATM   32  O   UNL     1      -5.815  11.265  65.406  1.00  0.00    -0.461 OA 
HETATM   33  C   UNL     1      -7.162   9.389  64.663  1.00  0.00    -0.104 C  
HETATM   34  C   UNL     1      -8.532   8.732  64.829  1.00  0.00    -0.179 C  
HETATM   35  N   UNL     1      -6.954   9.805  63.262  1.00  0.00    -0.112 NA 
HETATM   36  H   UNL     1      -5.741  11.549  64.503  1.00  0.00     0.000 HD 
HETATM   37  H1  UNL     1      -7.021   9.008  62.629  1.00  0.00     0.000 HD 
HETATM   38  H2  UNL     1      -6.072  10.304  63.146  1.00  0.00     0.000 HD 
HETATM   39  C   UNL     1      -8.795   8.306  66.284  1.00  0.00    -0.161 C  
HETATM   40  C   UNL     1      -8.551   9.442  67.346  1.00  0.00    -0.125 C  
HETATM   41  N   UNL     1     -10.169   7.770  66.373  1.00  0.00    -0.487 NA 
HETATM   42  H2  UNL     1     -10.340   7.017  65.707  1.00  0.00     0.000 HD 
HETATM   43  H1  UNL     1     -10.343   7.487  67.337  1.00  0.00     0.000 HD 
BRANCH  40  44
HETATM   44  O   UNL     1      -8.662   8.818  68.646  1.00  0.00    -0.132 OA 
BRANCH  44  45
HETATM   45  C   UNL     1      -8.713   9.718  69.763  1.00  0.00    -0.212 C  
HETATM   46  O   UNL     1      -9.837  10.588  69.691  1.00  0.00    -0.186 OA 
HETATM   47  C   UNL     1     -11.108   9.960  69.849  1.00  0.00    -0.275 C  
HETATM   48  C   UNL     1     -11.186   9.282  71.220  1.00  0.00    -0.355 C  
HETATM   49  H1  UNL     1      -7.537   7.525  72.154  1.00  0.00     0.000 HD 
HETATM   50  H2  UNL     1      -6.668   8.489  71.094  1.00  0.00     0.000 HD 
HETATM   51  O   UNL     1     -12.429   8.606  71.423  1.00  0.00    -0.309 OA 
HETATM   52  C   UNL     1     -10.034   8.279  71.366  1.00  0.00    -0.194 C  
HETATM   53  H   UNL     1     -12.478   8.186  72.273  1.00  0.00     0.000 HD 
HETATM   54  O   UNL     1     -10.054   7.714  72.688  1.00  0.00    -0.201 OA 
HETATM   55  N   UNL     1      -7.557   8.018  71.261  1.00  0.00    -0.076 NA 
HETATM   56  C   UNL     1      -8.683   8.969  71.119  1.00  0.00    -0.203 C  
HETATM   57  H   UNL     1      -9.341   7.092  72.779  1.00  0.00     0.000 HD 
BRANCH  47  58
HETATM   58  C   UNL     1     -12.175  11.054  69.699  1.00  0.00    -0.300 C  
HETATM   59  O   UNL     1     -12.639  11.474  70.984  1.00  0.00    -0.383 OA 
HETATM   60  H   UNL     1     -13.299  12.151  70.891  1.00  0.00     0.000 HD 
ENDBRANCH  47  58
ENDBRANCH  44  45
ENDBRANCH  40  44
ENDBRANCH  29  30
ENDBRANCH  22  29
ENDBRANCH  18  19
ENDBRANCH   7  18
ENDBRANCH   2   5
TORSDOF 9
ENDMDL
MODEL       89
REMARK 921   NORMALIZED FREE ENERGY PREDICTED BY IDOCK:   -6.07 KCAL/MOL
REMARK 922        TOTAL FREE ENERGY PREDICTED BY IDOCK:  -11.31 KCAL/MOL
REMARK 923 INTER-LIGAND FREE ENERGY PREDICTED BY IDOCK:   -9.44 KCAL/MOL
REMARK 924 INTRA-LIGAND FREE ENERGY PREDICTED BY IDOCK:   -1.88 KCAL/MOL
REMARK 927      BINDING AFFINITY PREDICTED BY RF-SCORE:    0.00 PKD
ROOT
HETATM    1  N   UNL     1      -8.813   5.646  65.049  1.00  0.00    -0.331 NA 
HETATM    2  C   UNL     1      -9.456   4.317  65.085  1.00  0.00    -0.172 C  
HETATM    3  H1  UNL     1      -8.816   6.007  64.095  1.00  0.00     0.000 HD 
HETATM    4  H2  UNL     1      -7.875   5.629  65.450  1.00  0.00     0.000 HD 
ENDROOT
BRANCH   2   5
HETATM    5  C   UNL     1      -9.452   3.773  66.524  1.00  0.00    -0.187 C  
HETATM    6  O   UNL     1      -8.581   4.621  67.295  1.00  0.00    -0.105 OA 
HETATM    7  C   UNL     1      -8.653   4.337  68.690  1.00  0.00    -0.093 C  
HETATM    8  C   UNL     1      -8.068   2.917  68.942  1.00  0.00    -0.055 C  
HETATM    9  O   UNL     1      -7.727   2.162  65.940  1.00  0.00    -0.070 OA 
HETATM   10  H   UNL     1      -7.438   1.259  65.999  1.00  0.00     0.000 HD 
HETATM   11  N   UNL     1      -6.618   2.871  68.591  1.00  0.00    -0.032 NA 
HETATM   12  C   UNL     1      -8.863   1.888  68.106  1.00  0.00    -0.113 C  
HETATM   13  H2  UNL     1      -6.087   3.590  69.083  1.00  0.00     0.000 HD 
HETATM   14  O   UNL     1     -10.157   1.648  68.676  1.00  0.00     0.041 OA 
HETATM   15  C   UNL     1      -8.981   2.307  66.621  1.00  0.00    -0.113 C  
HETATM   16  H1  UNL     1      -6.235   1.940  68.756  1.00  0.00     0.000 HD 
HETATM   17  H   UNL     1     -10.645   1.016  68.162  1.00  0.00     0.000 HD 
BRANCH   7  18
HETATM   18  O   UNL     1      -7.896   5.284  69.450  1.00  0.00    -0.085 OA 
BRANCH  18  19
HETATM   19  C   UNL     1      -8.702   6.188  70.228  1.00  0.00    -0.145 C  
HETATM   20  O   UNL     1      -7.355   8.067  69.344  1.00  0.00    -0.076 OA 
HETATM   21  C   UNL     1     -10.156   5.795  69.976  1.00  0.00    -0.216 C  
HETATM   22  C   UNL     1      -9.714   7.660  68.650  1.00  0.00    -0.155 C  
HETATM   23  H   UNL     1      -7.324   8.971  69.052  1.00  0.00     0.000 HD 
HETATM   24  O   UNL     1     -10.629   6.587  68.876  1.00  0.00    -0.197 OA 
HETATM   25  C   UNL     1      -8.652   7.633  69.761  1.00  0.00    -0.135 C  
BRANCH  21  26
HETATM   26  C   UNL     1     -11.078   6.033  71.173  1.00  0.00    -0.271 C  
HETATM   27  H   UNL     1     -12.801   6.931  71.530  1.00  0.00     0.000 HD 
HETATM   28  O   UNL     1     -12.228   6.783  70.787  1.00  0.00    -0.390 OA 
ENDBRANCH  21  26
BRANCH  22  29
HETATM   29  O   UNL     1     -10.387   8.915  68.694  1.00  0.00    -0.200 OA 
BRANCH  29  30
HETATM   30  C   UNL     1     -10.252   9.806  67.569  1.00  0.00    -0.220 C  
HETATM   31  C   UNL     1      -9.607   9.070  66.378  1.00  0.00    -0.244 C  
HETATM   32  O   UNL     1     -10.246   7.803  66.171  1.00  0.00    -0.442 OA 
HETATM   33  C   UNL     1      -9.712   9.915  65.104  1.00  0.00    -0.306 C  
HETATM   34  C   UNL     1      -8.948  11.224  65.306  1.00  0.00    -0.079 C  
HETATM   35  N   UNL     1      -9.183   9.182  63.937  1.00  0.00    -0.349 NA 
HETATM   36  H   UNL     1      -9.849   7.350  65.438  1.00  0.00     0.000 HD 
HETATM   37  H1  UNL     1      -9.252   9.744  63.089  1.00  0.00     0.000 HD 
HETATM   38  H2  UNL     1      -9.637   8.276  63.825  1.00  0.00     0.000 HD 
HETATM   39  C   UNL     1      -9.458  12.005  66.530  1.00  0.00    -0.228 C  
HETATM   40  C   UNL     1      -9.539  11.155  67.853  1.00  0.00    -0.175 C  
HETATM   41  N   UNL     1      -8.608  13.201  66.707  1.00  0.00    -0.417 NA 
HETATM   42  H2  UNL     1      -8.561  13.777  65.867  1.00  0.00     0.000 HD 
HETATM   43  H1  UNL     1      -8.947  13.719  67.518  1.00  0.00     0.000 HD 
BRANCH  40  44
HETATM   44  O   UNL     1     -10.203  11.987  68.833  1.00  0.00    -0.169 OA 
BRANCH  44  45
HETATM   45  C   UNL     1     -11.612  12.174  68.634  1.00  0.00    -0.321 C  
HETATM   46  O   UNL     1     -12.383  11.412  69.557  1.00  0.00    -0.252 OA 
HETATM   47  C   UNL     1     -12.291  11.827  70.919  1.00  0.00    -0.320 C  
HETATM   48  C   UNL     1     -12.774  13.273  71.057  1.00  0.00    -0.293 C  
HETATM   49  H1  UNL     1     -11.502  15.520  67.799  1.00  0.00     0.000 HD 
HETATM   50  H2  UNL     1     -11.285  14.183  66.812  1.00  0.00     0.000 HD 
HETATM   51  O   UNL     1     -12.674  13.756  72.398  1.00  0.00    -0.250 OA 
HETATM   52  C   UNL     1     -11.956  14.181  70.129  1.00  0.00    -0.332 C  
HETATM   53  H   UNL     1     -12.975  14.653  72.483  1.00  0.00     0.000 HD 
HETATM   54  O   UNL     1     -12.475  15.522  70.188  1.00  0.00    -0.461 OA 
HETATM   55  N   UNL     1     -11.237  14.536  67.768  1.00  0.00    -0.285 NA 
HETATM   56  C   UNL     1     -12.016  13.669  68.681  1.00  0.00    -0.360 C  
HETATM   57  H   UNL     1     -11.968  16.084  69.614  1.00  0.00     0.000 HD 
BRANCH  47  58
HETATM   58  C   UNL     1     -13.153  10.862  71.745  1.00  0.00    -0.459 C  
HETATM   59  O   UNL     1     -12.483   9.609  71.902  1.00  0.00    -0.376 OA 
HETATM   60  H   UNL     1     -13.016   9.012  72.414  1.00  0.00     0.000 HD 
ENDBRANCH  47  58
ENDBRANCH  44  45
ENDBRANCH  40  44
ENDBRANCH  29  30
ENDBRANCH  22  29
ENDBRANCH  18  19
ENDBRANCH   7  18
ENDBRANCH   2   5
TORSDOF 9
ENDMDL
MODEL       90
REMARK 921   NORMALIZED FREE ENERGY PREDICTED BY IDOCK:   -6.07 KCAL/MOL
REMARK 922        TOTAL FREE ENERGY PREDICTED BY IDOCK:  -11.30 KCAL/MOL
REMARK 923 INTER-LIGAND FREE ENERGY PREDICTED BY IDOCK:   -9.44 KCAL/MOL
REMARK 924 INTRA-LIGAND FREE ENERGY PREDICTED BY IDOCK:   -1.87 KCAL/MOL
REMARK 927      BINDING AFFINITY PREDICTED BY RF-SCORE:    0.00 PKD
ROOT
HETATM    1  N   UNL     1      -9.219   7.257  74.566  1.00  0.00    -0.432 NA 
HETATM    2  C   UNL     1     -10.397   6.581  73.987  1.00  0.00    -0.340 C  
HETATM    3  H1  UNL     1      -9.268   7.229  75.584  1.00  0.00     0.000 HD 
HETATM    4  H2  UNL     1      -9.111   8.208  74.213  1.00  0.00     0.000 HD 
ENDROOT
BRANCH   2   5
HETATM    5  C   UNL     1     -10.322   6.622  72.451  1.00  0.00    -0.195 C  
HETATM    6  O   UNL     1      -9.871   7.939  72.085  1.00  0.00    -0.178 OA 
HETATM    7  C   UNL     1      -9.570   8.035  70.694  1.00  0.00    -0.166 C  
HETATM    8  C   UNL     1     -10.891   7.882  69.886  1.00  0.00    -0.221 C  
HETATM    9  O   UNL     1     -12.690   7.158  72.323  1.00  0.00    -0.510 OA 
HETATM   10  H   UNL     1     -13.521   6.970  71.901  1.00  0.00     0.000 HD 
HETATM   11  N   UNL     1     -11.826   9.008  70.179  1.00  0.00    -0.453 NA 
HETATM   12  C   UNL     1     -11.545   6.526  70.238  1.00  0.00    -0.409 C  
HETATM   13  H2  UNL     1     -11.388   9.915  70.017  1.00  0.00     0.000 HD 
HETATM   14  O   UNL     1     -10.838   5.438  69.627  1.00  0.00    -0.289 OA 
HETATM   15  C   UNL     1     -11.671   6.317  71.766  1.00  0.00    -0.299 C  
HETATM   16  H1  UNL     1     -12.692   8.907  69.649  1.00  0.00     0.000 HD 
HETATM   17  H   UNL     1     -11.240   4.605  69.844  1.00  0.00     0.000 HD 
BRANCH   7  18
HETATM   18  O   UNL     1      -8.986   9.302  70.379  1.00  0.00    -0.200 OA 
BRANCH  18  19
HETATM   19  C   UNL     1      -7.851   9.220  69.498  1.00  0.00    -0.086 C  
HETATM   20  O   UNL     1      -9.296  10.006  67.649  1.00  0.00    -0.143 OA 
HETATM   21  C   UNL     1      -6.693   9.903  70.222  1.00  0.00    -0.126 C  
HETATM   22  C   UNL     1      -7.525  11.431  68.670  1.00  0.00    -0.119 C  
HETATM   23  H   UNL     1      -9.381  10.516  66.851  1.00  0.00     0.000 HD 
HETATM   24  O   UNL     1      -6.692  11.282  69.821  1.00  0.00    -0.133 OA 
HETATM   25  C   UNL     1      -7.987  10.034  68.223  1.00  0.00    -0.097 C  
BRANCH  21  26
HETATM   26  C   UNL     1      -5.322   9.307  69.898  1.00  0.00    -0.032 C  
HETATM   27  H   UNL     1      -4.484   7.519  69.844  1.00  0.00     0.000 HD 
HETATM   28  O   UNL     1      -5.335   7.889  70.046  1.00  0.00    -0.023 OA 
ENDBRANCH  21  26
BRANCH  22  29
HETATM   29  O   UNL     1      -6.805  12.036  67.601  1.00  0.00    -0.092 OA 
BRANCH  29  30
HETATM   30  C   UNL     1      -6.974  13.449  67.372  1.00  0.00    -0.083 C  
HETATM   31  C   UNL     1      -6.444  14.253  68.574  1.00  0.00    -0.095 C  
HETATM   32  O   UNL     1      -5.147  13.776  68.959  1.00  0.00    -0.070 OA 
HETATM   33  C   UNL     1      -6.364  15.745  68.231  1.00  0.00    -0.116 C  
HETATM   34  C   UNL     1      -7.768  16.262  67.913  1.00  0.00    -0.151 C  
HETATM   35  N   UNL     1      -5.769  16.514  69.341  1.00  0.00    -0.149 NA 
HETATM   36  H   UNL     1      -4.820  14.272  69.700  1.00  0.00     0.000 HD 
HETATM   37  H1  UNL     1      -5.716  17.506  69.114  1.00  0.00     0.000 HD 
HETATM   38  H2  UNL     1      -4.859  16.141  69.610  1.00  0.00     0.000 HD 
HETATM   39  C   UNL     1      -8.429  15.467  66.774  1.00  0.00    -0.279 C  
HETATM   40  C   UNL     1      -8.404  13.905  66.973  1.00  0.00    -0.092 C  
HETATM   41  N   UNL     1      -9.809  15.966  66.597  1.00  0.00    -0.243 NA 
HETATM   42  H2  UNL     1      -9.845  16.974  66.445  1.00  0.00     0.000 HD 
HETATM   43  H1  UNL     1     -10.248  15.440  65.841  1.00  0.00     0.000 HD 
BRANCH  40  44
HETATM   44  O   UNL     1      -8.893  13.327  65.740  1.00  0.00     0.486 OA 
BRANCH  44  45
HETATM   45  C   UNL     1      -9.810  12.234  65.889  1.00  0.00    -0.251 C  
HETATM   46  O   UNL     1     -10.604  12.365  67.063  1.00  0.00    -0.222 OA 
HETATM   47  C   UNL     1     -11.538  13.444  67.053  1.00  0.00    -0.356 C  
HETATM   48  C   UNL     1     -12.523  13.268  65.894  1.00  0.00    -0.368 C  
HETATM   49  H1  UNL     1     -10.542  11.810  62.544  1.00  0.00     0.000 HD 
HETATM   50  H2  UNL     1      -9.262  11.185  63.427  1.00  0.00     0.000 HD 
HETATM   51  O   UNL     1     -13.466  14.339  65.813  1.00  0.00    -0.623 OA 
HETATM   52  C   UNL     1     -11.752  13.170  64.571  1.00  0.00    -0.371 C  
HETATM   53  H   UNL     1     -14.077  14.229  65.095  1.00  0.00     0.000 HD 
HETATM   54  O   UNL     1     -12.672  12.910  63.496  1.00  0.00    -0.709 OA 
HETATM   55  N   UNL     1      -9.953  11.933  63.367  1.00  0.00    -0.429 NA 
HETATM   56  C   UNL     1     -10.705  12.047  64.638  1.00  0.00    -0.309 C  
HETATM   57  H   UNL     1     -12.195  12.849  62.677  1.00  0.00     0.000 HD 
BRANCH  47  58
HETATM   58  C   UNL     1     -12.255  13.435  68.410  1.00  0.00    -0.092 C  
HETATM   59  O   UNL     1     -12.767  14.737  68.709  1.00  0.00    -0.369 OA 
HETATM   60  H   UNL     1     -13.211  14.731  69.548  1.00  0.00     0.000 HD 
ENDBRANCH  47  58
ENDBRANCH  44  45
ENDBRANCH  40  44
ENDBRANCH  29  30
ENDBRANCH  22  29
ENDBRANCH  18  19
ENDBRANCH   7  18
ENDBRANCH   2   5
TORSDOF 9
ENDMDL
MODEL       91
REMARK 921   NORMALIZED FREE ENERGY PREDICTED BY IDOCK:   -6.06 KCAL/MOL
REMARK 922        TOTAL FREE ENERGY PREDICTED BY IDOCK:  -11.29 KCAL/MOL
REMARK 923 INTER-LIGAND FREE ENERGY PREDICTED BY IDOCK:  -10.28 KCAL/MOL
REMARK 924 INTRA-LIGAND FREE ENERGY PREDICTED BY IDOCK:   -1.01 KCAL/MOL
REMARK 927      BINDING AFFINITY PREDICTED BY RF-SCORE:    0.00 PKD
ROOT
HETATM    1  N   UNL     1     -10.333   5.216  72.723  1.00  0.00    -0.188 NA 
HETATM    2  C   UNL     1     -10.487   6.287  73.728  1.00  0.00    -0.290 C  
HETATM    3  H1  UNL     1     -11.054   4.506  72.859  1.00  0.00     0.000 HD 
HETATM    4  H2  UNL     1      -9.394   4.815  72.731  1.00  0.00     0.000 HD 
ENDROOT
BRANCH   2   5
HETATM    5  C   UNL     1      -9.401   7.356  73.522  1.00  0.00    -0.238 C  
HETATM    6  O   UNL     1      -9.234   7.523  72.102  1.00  0.00    -0.132 OA 
HETATM    7  C   UNL     1      -8.396   8.633  71.788  1.00  0.00    -0.139 C  
HETATM    8  C   UNL     1      -6.951   8.321  72.274  1.00  0.00    -0.093 C  
HETATM    9  O   UNL     1      -7.662   5.672  73.751  1.00  0.00    -0.100 OA 
HETATM   10  H   UNL     1      -6.831   5.445  74.151  1.00  0.00     0.000 HD 
HETATM   11  N   UNL     1      -6.381   7.157  71.533  1.00  0.00    -0.037 NA 
HETATM   12  C   UNL     1      -6.979   8.037  73.793  1.00  0.00    -0.124 C  
HETATM   13  H2  UNL     1      -6.417   7.298  70.523  1.00  0.00     0.000 HD 
HETATM   14  O   UNL     1      -7.158   9.247  74.542  1.00  0.00    -0.392 OA 
HETATM   15  C   UNL     1      -8.051   6.987  74.172  1.00  0.00    -0.125 C  
HETATM   16  H1  UNL     1      -5.434   6.952  71.851  1.00  0.00     0.000 HD 
HETATM   17  H   UNL     1      -7.175   9.072  75.475  1.00  0.00     0.000 HD 
BRANCH   7  18
HETATM   18  O   UNL     1      -8.362   8.871  70.378  1.00  0.00    -0.117 OA 
BRANCH  18  19
HETATM   19  C   UNL     1      -9.277   9.890  69.935  1.00  0.00    -0.212 C  
HETATM   20  O   UNL     1      -7.639  10.529  68.192  1.00  0.00    -0.089 OA 
HETATM   21  C   UNL     1     -10.645   9.221  69.823  1.00  0.00    -0.231 C  
HETATM   22  C   UNL     1      -9.774   9.357  67.666  1.00  0.00    -0.155 C  
HETATM   23  H   UNL     1      -7.481  10.841  67.309  1.00  0.00     0.000 HD 
HETATM   24  O   UNL     1     -10.782   8.748  68.475  1.00  0.00    -0.168 OA 
HETATM   25  C   UNL     1      -9.023  10.389  68.522  1.00  0.00    -0.139 C  
BRANCH  21  26
HETATM   26  C   UNL     1     -11.818  10.156  70.127  1.00  0.00    -0.222 C  
HETATM   27  H   UNL     1     -12.996  10.568  71.657  1.00  0.00     0.000 HD 
HETATM   28  O   UNL     1     -12.269   9.988  71.469  1.00  0.00    -0.373 OA 
ENDBRANCH  21  26
BRANCH  22  29
HETATM   29  O   UNL     1     -10.358  10.027  66.552  1.00  0.00    -0.232 OA 
BRANCH  29  30
HETATM   30  C   UNL     1      -9.840   9.751  65.236  1.00  0.00    -0.265 C  
HETATM   31  C   UNL     1      -8.910   8.523  65.274  1.00  0.00    -0.100 C  
HETATM   32  O   UNL     1      -9.528   7.453  66.002  1.00  0.00    -0.384 OA 
HETATM   33  C   UNL     1      -8.577   8.056  63.853  1.00  0.00     0.286 C  
HETATM   34  C   UNL     1      -7.836   9.174  63.119  1.00  0.00    -0.132 C  
HETATM   35  N   UNL     1      -7.764   6.824  63.876  1.00  0.00    -0.108 NA 
HETATM   36  H   UNL     1      -8.955   6.696  66.025  1.00  0.00     0.000 HD 
HETATM   37  H1  UNL     1      -7.542   6.513  62.931  1.00  0.00     0.000 HD 
HETATM   38  H2  UNL     1      -8.215   6.087  64.417  1.00  0.00     0.000 HD 
HETATM   39  C   UNL     1      -8.644  10.482  63.095  1.00  0.00    -0.186 C  
HETATM   40  C   UNL     1      -9.169  10.946  64.506  1.00  0.00    -0.201 C  
HETATM   41  N   UNL     1      -7.821  11.529  62.455  1.00  0.00    -0.578 NA 
HETATM   42  H2  UNL     1      -7.489  11.256  61.530  1.00  0.00     0.000 HD 
HETATM   43  H1  UNL     1      -8.357  12.396  62.439  1.00  0.00     0.000 HD 
BRANCH  40  44
HETATM   44  O   UNL     1     -10.049  12.069  64.266  1.00  0.00    -0.289 OA 
BRANCH  44  45
HETATM   45  C   UNL     1     -10.749  12.563  65.417  1.00  0.00    -0.280 C  
HETATM   46  O   UNL     1      -9.978  13.518  66.137  1.00  0.00    -0.292 OA 
HETATM   47  C   UNL     1      -9.750  14.755  65.463  1.00  0.00    -0.226 C  
HETATM   48  C   UNL     1     -11.087  15.435  65.160  1.00  0.00    -0.394 C  
HETATM   49  H1  UNL     1     -13.909  12.600  64.031  1.00  0.00     0.000 HD 
HETATM   50  H2  UNL     1     -13.096  11.328  64.760  1.00  0.00     0.000 HD 
HETATM   51  O   UNL     1     -10.924  16.667  64.454  1.00  0.00    -1.092 OA 
HETATM   52  C   UNL     1     -11.971  14.491  64.333  1.00  0.00    -0.449 C  
HETATM   53  H   UNL     1     -11.754  17.090  64.266  1.00  0.00     0.000 HD 
HETATM   54  O   UNL     1     -13.262  15.094  64.131  1.00  0.00    -0.065 OA 
HETATM   55  N   UNL     1     -12.994  12.219  64.272  1.00  0.00    -0.751 NA 
HETATM   56  C   UNL     1     -12.139  13.143  65.051  1.00  0.00    -0.415 C  
HETATM   57  H   UNL     1     -13.809  14.510  63.620  1.00  0.00     0.000 HD 
BRANCH  47  58
HETATM   58  C   UNL     1      -8.874  15.617  66.382  1.00  0.00    -0.330 C  
HETATM   59  O   UNL     1      -9.680  16.268  67.368  1.00  0.00    -0.230 OA 
HETATM   60  H   UNL     1      -9.137  16.802  67.937  1.00  0.00     0.000 HD 
ENDBRANCH  47  58
ENDBRANCH  44  45
ENDBRANCH  40  44
ENDBRANCH  29  30
ENDBRANCH  22  29
ENDBRANCH  18  19
ENDBRANCH   7  18
ENDBRANCH   2   5
TORSDOF 9
ENDMDL
MODEL       92
REMARK 921   NORMALIZED FREE ENERGY PREDICTED BY IDOCK:   -6.05 KCAL/MOL
REMARK 922        TOTAL FREE ENERGY PREDICTED BY IDOCK:  -11.28 KCAL/MOL
REMARK 923 INTER-LIGAND FREE ENERGY PREDICTED BY IDOCK:  -10.47 KCAL/MOL
REMARK 924 INTRA-LIGAND FREE ENERGY PREDICTED BY IDOCK:   -0.81 KCAL/MOL
REMARK 927      BINDING AFFINITY PREDICTED BY RF-SCORE:    0.00 PKD
ROOT
HETATM    1  N   UNL     1     -13.184  11.769  63.988  1.00  0.00    -0.466 NA 
HETATM    2  C   UNL     1     -12.097  12.531  63.340  1.00  0.00    -0.529 C  
HETATM    3  H1  UNL     1     -13.730  11.276  63.282  1.00  0.00     0.000 HD 
HETATM    4  H2  UNL     1     -13.767  12.361  64.580  1.00  0.00     0.000 HD 
ENDROOT
BRANCH   2   5
HETATM    5  C   UNL     1     -11.272  13.274  64.405  1.00  0.00    -0.381 C  
HETATM    6  O   UNL     1     -11.164  12.399  65.543  1.00  0.00    -0.302 OA 
HETATM    7  C   UNL     1     -10.251  12.898  66.518  1.00  0.00    -0.259 C  
HETATM    8  C   UNL     1     -10.842  14.200  67.134  1.00  0.00    -0.290 C  
HETATM    9  O   UNL     1     -13.269  14.415  65.194  1.00  0.00    -0.602 OA 
HETATM   10  H   UNL     1     -13.654  15.243  65.456  1.00  0.00     0.000 HD 
HETATM   11  N   UNL     1     -12.108  13.912  67.871  1.00  0.00    -0.470 NA 
HETATM   12  C   UNL     1     -11.091  15.226  66.004  1.00  0.00    -0.278 C  
HETATM   13  H2  UNL     1     -11.978  13.186  68.576  1.00  0.00     0.000 HD 
HETATM   14  O   UNL     1      -9.858  15.794  65.542  1.00  0.00    -0.325 OA 
HETATM   15  C   UNL     1     -11.897  14.619  64.831  1.00  0.00    -0.403 C  
HETATM   16  H1  UNL     1     -12.495  14.765  68.274  1.00  0.00     0.000 HD 
HETATM   17  H   UNL     1     -10.012  16.424  64.848  1.00  0.00     0.000 HD 
BRANCH   7  18
HETATM   18  O   UNL     1     -10.047  11.948  67.567  1.00  0.00    -0.191 OA 
BRANCH  18  19
HETATM   19  C   UNL     1      -9.145  10.881  67.222  1.00  0.00    -0.141 C  
HETATM   20  O   UNL     1      -8.207  11.004  69.510  1.00  0.00    -0.380 OA 
HETATM   21  C   UNL     1      -9.990   9.805  66.545  1.00  0.00    -0.239 C  
HETATM   22  C   UNL     1      -9.637   9.113  68.743  1.00  0.00    -0.159 C  
HETATM   23  H   UNL     1      -7.836  10.547  70.256  1.00  0.00     0.000 HD 
HETATM   24  O   UNL     1     -10.415   8.889  67.566  1.00  0.00    -0.252 OA 
HETATM   25  C   UNL     1      -8.552  10.151  68.416  1.00  0.00    -0.119 C  
BRANCH  21  26
HETATM   26  C   UNL     1      -9.241   9.014  65.471  1.00  0.00    -0.198 C  
HETATM   27  H   UNL     1      -8.566   9.317  63.640  1.00  0.00     0.000 HD 
HETATM   28  O   UNL     1      -9.031   9.808  64.306  1.00  0.00    -0.210 OA 
ENDBRANCH  21  26
BRANCH  22  29
HETATM   29  O   UNL     1      -9.004   7.909  69.166  1.00  0.00    -0.144 OA 
BRANCH  29  30
HETATM   30  C   UNL     1      -9.670   7.091  70.147  1.00  0.00    -0.175 C  
HETATM   31  C   UNL     1      -9.457   7.669  71.559  1.00  0.00    -0.143 C  
HETATM   32  O   UNL     1      -9.712   9.080  71.563  1.00  0.00    -0.293 OA 
HETATM   33  C   UNL     1     -10.378   6.975  72.569  1.00  0.00    -0.205 C  
HETATM   34  C   UNL     1     -10.033   5.487  72.623  1.00  0.00    -0.194 C  
HETATM   35  N   UNL     1     -10.252   7.584  73.908  1.00  0.00    -0.389 NA 
HETATM   36  H   UNL     1      -9.581   9.436  72.434  1.00  0.00     0.000 HD 
HETATM   37  H1  UNL     1     -10.864   7.123  74.580  1.00  0.00     0.000 HD 
HETATM   38  H2  UNL     1     -10.415   8.590  73.879  1.00  0.00     0.000 HD 
HETATM   39  C   UNL     1     -10.131   4.823  71.239  1.00  0.00    -0.188 C  
HETATM   40  C   UNL     1      -9.342   5.574  70.101  1.00  0.00    -0.146 C  
HETATM   41  N   UNL     1      -9.692   3.417  71.363  1.00  0.00    -0.169 NA 
HETATM   42  H2  UNL     1     -10.207   2.907  72.080  1.00  0.00     0.000 HD 
HETATM   43  H1  UNL     1      -9.757   2.977  70.445  1.00  0.00     0.000 HD 
BRANCH  40  44
HETATM   44  O   UNL     1      -9.696   4.924  68.859  1.00  0.00    -0.150 OA 
BRANCH  44  45
HETATM   45  C   UNL     1      -9.157   5.521  67.671  1.00  0.00    -0.107 C  
HETATM   46  O   UNL     1      -8.016   4.816  67.195  1.00  0.00    -0.101 OA 
HETATM   47  C   UNL     1      -8.273   3.506  66.691  1.00  0.00    -0.099 C  
HETATM   48  C   UNL     1      -9.245   3.583  65.511  1.00  0.00    -0.156 C  
HETATM   49  H1  UNL     1     -12.156   6.458  66.244  1.00  0.00     0.000 HD 
HETATM   50  H2  UNL     1     -11.231   7.275  67.378  1.00  0.00     0.000 HD 
HETATM   51  O   UNL     1      -9.565   2.294  64.984  1.00  0.00    -0.314 OA 
HETATM   52  C   UNL     1     -10.536   4.287  65.951  1.00  0.00    -0.034 C  
HETATM   53  H   UNL     1     -10.168   2.342  64.252  1.00  0.00     0.000 HD 
HETATM   54  O   UNL     1     -11.408   4.444  64.818  1.00  0.00    -0.952 OA 
HETATM   55  N   UNL     1     -11.455   6.363  66.980  1.00  0.00    -0.006 NA 
HETATM   56  C   UNL     1     -10.221   5.665  66.554  1.00  0.00    -0.211 C  
HETATM   57  H   UNL     1     -12.207   4.879  65.090  1.00  0.00     0.000 HD 
BRANCH  47  58
HETATM   58  C   UNL     1      -6.922   2.909  66.272  1.00  0.00    -0.053 C  
HETATM   59  O   UNL     1      -7.056   2.193  65.041  1.00  0.00    -0.050 OA 
HETATM   60  H   UNL     1      -6.221   1.824  64.782  1.00  0.00     0.000 HD 
ENDBRANCH  47  58
ENDBRANCH  44  45
ENDBRANCH  40  44
ENDBRANCH  29  30
ENDBRANCH  22  29
ENDBRANCH  18  19
ENDBRANCH   7  18
ENDBRANCH   2   5
TORSDOF 9
ENDMDL
MODEL       93
REMARK 921   NORMALIZED FREE ENERGY PREDICTED BY IDOCK:   -5.98 KCAL/MOL
REMARK 922        TOTAL FREE ENERGY PREDICTED BY IDOCK:  -11.18 KCAL/MOL
REMARK 923 INTER-LIGAND FREE ENERGY PREDICTED BY IDOCK:   -9.00 KCAL/MOL
REMARK 924 INTRA-LIGAND FREE ENERGY PREDICTED BY IDOCK:   -2.18 KCAL/MOL
REMARK 927      BINDING AFFINITY PREDICTED BY RF-SCORE:    0.00 PKD
ROOT
HETATM    1  N   UNL     1      -9.126   9.195  64.321  1.00  0.00    -0.427 NA 
HETATM    2  C   UNL     1      -8.200   8.050  64.216  1.00  0.00    -0.067 C  
HETATM    3  H1  UNL     1      -9.066   9.768  63.480  1.00  0.00     0.000 HD 
HETATM    4  H2  UNL     1      -8.966   9.741  65.169  1.00  0.00     0.000 HD 
ENDROOT
BRANCH   2   5
HETATM    5  C   UNL     1      -8.291   7.186  65.485  1.00  0.00    -0.129 C  
HETATM    6  O   UNL     1      -7.910   8.020  66.594  1.00  0.00    -0.095 OA 
HETATM    7  C   UNL     1      -8.149   7.387  67.849  1.00  0.00    -0.119 C  
HETATM    8  C   UNL     1      -7.189   6.169  67.984  1.00  0.00    -0.083 C  
HETATM    9  O   UNL     1      -6.056   6.316  65.087  1.00  0.00    -0.028 OA 
HETATM   10  H   UNL     1      -5.503   5.544  65.055  1.00  0.00     0.000 HD 
HETATM   11  N   UNL     1      -5.765   6.616  68.017  1.00  0.00    -0.012 NA 
HETATM   12  C   UNL     1      -7.428   5.204  66.800  1.00  0.00    -0.087 C  
HETATM   13  H2  UNL     1      -5.603   7.307  68.750  1.00  0.00     0.000 HD 
HETATM   14  O   UNL     1      -8.655   4.480  66.965  1.00  0.00    -0.105 OA 
HETATM   15  C   UNL     1      -7.393   5.932  65.435  1.00  0.00    -0.076 C  
HETATM   16  H1  UNL     1      -5.136   5.818  68.106  1.00  0.00     0.000 HD 
HETATM   17  H   UNL     1      -8.802   3.887  66.237  1.00  0.00     0.000 HD 
BRANCH   7  18
HETATM   18  O   UNL     1      -7.903   8.285  68.935  1.00  0.00    -0.107 OA 
BRANCH  18  19
HETATM   19  C   UNL     1      -9.091   8.696  69.634  1.00  0.00    -0.149 C  
HETATM   20  O   UNL     1      -8.266  11.028  69.558  1.00  0.00    -0.380 OA 
HETATM   21  C   UNL     1     -10.264   8.027  68.921  1.00  0.00    -0.209 C  
HETATM   22  C   UNL     1     -10.186  10.236  68.181  1.00  0.00    -0.164 C  
HETATM   23  H   UNL     1      -8.467  11.954  69.480  1.00  0.00     0.000 HD 
HETATM   24  O   UNL     1     -10.737   8.944  67.922  1.00  0.00    -0.210 OA 
HETATM   25  C   UNL     1      -9.413  10.176  69.509  1.00  0.00    -0.214 C  
BRANCH  21  26
HETATM   26  C   UNL     1     -11.433   7.677  69.844  1.00  0.00     0.081 C  
HETATM   27  H   UNL     1     -11.698   7.178  71.736  1.00  0.00     0.000 HD 
HETATM   28  O   UNL     1     -10.972   7.395  71.163  1.00  0.00    -0.241 OA 
ENDBRANCH  21  26
BRANCH  22  29
HETATM   29  O   UNL     1     -11.217  11.211  68.299  1.00  0.00    -0.232 OA 
BRANCH  29  30
HETATM   30  C   UNL     1     -11.090  12.438  67.554  1.00  0.00    -0.266 C  
HETATM   31  C   UNL     1     -10.724  12.139  66.088  1.00  0.00    -0.272 C  
HETATM   32  O   UNL     1     -11.574  11.109  65.563  1.00  0.00     0.083 OA 
HETATM   33  C   UNL     1     -10.857  13.403  65.231  1.00  0.00    -0.309 C  
HETATM   34  C   UNL     1      -9.880  14.461  65.744  1.00  0.00    -0.330 C  
HETATM   35  N   UNL     1     -10.602  13.109  63.808  1.00  0.00    -0.516 NA 
HETATM   36  H   UNL     1     -11.348  10.925  64.659  1.00  0.00     0.000 HD 
HETATM   37  H1  UNL     1     -10.690  13.950  63.237  1.00  0.00     0.000 HD 
HETATM   38  H2  UNL     1     -11.202  12.359  63.466  1.00  0.00     0.000 HD 
HETATM   39  C   UNL     1     -10.102  14.777  67.233  1.00  0.00    -0.236 C  
HETATM   40  C   UNL     1     -10.145  13.509  68.165  1.00  0.00    -0.250 C  
HETATM   41  N   UNL     1      -9.061  15.732  67.668  1.00  0.00    -0.191 NA 
HETATM   42  H2  UNL     1      -9.032  16.571  67.089  1.00  0.00     0.000 HD 
HETATM   43  H1  UNL     1      -9.209  15.941  68.655  1.00  0.00     0.000 HD 
BRANCH  40  44
HETATM   44  O   UNL     1     -10.542  13.977  69.475  1.00  0.00    -0.076 OA 
BRANCH  44  45
HETATM   45  C   UNL     1     -11.855  14.551  69.556  1.00  0.00    -0.329 C  
HETATM   46  O   UNL     1     -12.787  13.657  70.154  1.00  0.00    -0.126 OA 
HETATM   47  C   UNL     1     -12.574  13.386  71.539  1.00  0.00    -0.236 C  
HETATM   48  C   UNL     1     -12.660  14.686  72.343  1.00  0.00    -0.328 C  
HETATM   49  H1  UNL     1     -10.881  17.792  70.229  1.00  0.00     0.000 HD 
HETATM   50  H2  UNL     1     -11.034  17.027  68.745  1.00  0.00     0.000 HD 
HETATM   51  O   UNL     1     -12.421  14.481  73.737  1.00  0.00    -0.413 OA 
HETATM   52  C   UNL     1     -11.643  15.698  71.798  1.00  0.00    -0.450 C  
HETATM   53  H   UNL     1     -12.474  15.288  74.236  1.00  0.00     0.000 HD 
HETATM   54  O   UNL     1     -11.791  16.950  72.491  1.00  0.00    -0.491 OA 
HETATM   55  N   UNL     1     -10.883  16.894  69.746  1.00  0.00    -0.183 NA 
HETATM   56  C   UNL     1     -11.852  15.915  70.290  1.00  0.00    -0.327 C  
HETATM   57  H   UNL     1     -11.162  17.576  72.153  1.00  0.00     0.000 HD 
BRANCH  47  58
HETATM   58  C   UNL     1     -13.649  12.381  71.975  1.00  0.00    -0.252 C  
HETATM   59  O   UNL     1     -13.210  11.044  71.719  1.00  0.00    -0.446 OA 
HETATM   60  H   UNL     1     -13.875  10.422  71.989  1.00  0.00     0.000 HD 
ENDBRANCH  47  58
ENDBRANCH  44  45
ENDBRANCH  40  44
ENDBRANCH  29  30
ENDBRANCH  22  29
ENDBRANCH  18  19
ENDBRANCH   7  18
ENDBRANCH   2   5
TORSDOF 9
ENDMDL
MODEL       94
REMARK 921   NORMALIZED FREE ENERGY PREDICTED BY IDOCK:   -5.96 KCAL/MOL
REMARK 922        TOTAL FREE ENERGY PREDICTED BY IDOCK:  -11.14 KCAL/MOL
REMARK 923 INTER-LIGAND FREE ENERGY PREDICTED BY IDOCK:   -8.89 KCAL/MOL
REMARK 924 INTRA-LIGAND FREE ENERGY PREDICTED BY IDOCK:   -2.25 KCAL/MOL
REMARK 927      BINDING AFFINITY PREDICTED BY RF-SCORE:    0.00 PKD
ROOT
HETATM    1  N   UNL     1     -12.571  14.322  70.831  1.00  0.00    -0.335 NA 
HETATM    2  C   UNL     1     -12.500  15.624  70.139  1.00  0.00    -0.278 C  
HETATM    3  H1  UNL     1     -13.171  14.398  71.653  1.00  0.00     0.000 HD 
HETATM    4  H2  UNL     1     -11.646  13.960  71.064  1.00  0.00     0.000 HD 
ENDROOT
BRANCH   2   5
HETATM    5  C   UNL     1     -11.597  15.509  68.900  1.00  0.00    -0.373 C  
HETATM    6  O   UNL     1     -10.469  14.695  69.271  1.00  0.00    -0.243 OA 
HETATM    7  C   UNL     1      -9.663  14.350  68.147  1.00  0.00    -0.223 C  
HETATM    8  C   UNL     1      -8.992  15.643  67.598  1.00  0.00    -0.180 C  
HETATM    9  O   UNL     1     -10.529  17.624  69.447  1.00  0.00    -0.394 OA 
HETATM   10  H   UNL     1     -10.230  18.465  69.121  1.00  0.00     0.000 HD 
HETATM   11  N   UNL     1      -8.059  16.226  68.607  1.00  0.00    -0.200 NA 
HETATM   12  C   UNL     1     -10.093  16.662  67.223  1.00  0.00    -0.279 C  
HETATM   13  H2  UNL     1      -7.366  15.544  68.918  1.00  0.00     0.000 HD 
HETATM   14  O   UNL     1     -10.758  16.282  66.011  1.00  0.00    -0.295 OA 
HETATM   15  C   UNL     1     -11.110  16.874  68.371  1.00  0.00    -0.216 C  
HETATM   16  H1  UNL     1      -7.619  17.073  68.247  1.00  0.00     0.000 HD 
HETATM   17  H   UNL     1     -11.434  16.908  65.781  1.00  0.00     0.000 HD 
BRANCH   7  18
HETATM   18  O   UNL     1      -8.637  13.423  68.513  1.00  0.00    -0.154 OA 
BRANCH  18  19
HETATM   19  C   UNL     1      -8.601  12.238  67.697  1.00  0.00    -0.169 C  
HETATM   20  O   UNL     1      -7.959  10.939  69.704  1.00  0.00    -0.371 OA 
HETATM   21  C   UNL     1      -9.890  12.240  66.877  1.00  0.00    -0.209 C  
HETATM   22  C   UNL     1     -10.209  10.759  68.649  1.00  0.00    -0.185 C  
HETATM   23  H   UNL     1      -8.016  10.125  70.191  1.00  0.00     0.000 HD 
HETATM   24  O   UNL     1     -10.869  11.497  67.618  1.00  0.00    -0.203 OA 
HETATM   25  C   UNL     1      -8.692  10.937  68.476  1.00  0.00    -0.153 C  
BRANCH  21  26
HETATM   26  C   UNL     1      -9.746  11.601  65.495  1.00  0.00    -0.232 C  
HETATM   27  H   UNL     1     -10.915  11.144  63.971  1.00  0.00     0.000 HD 
HETATM   28  O   UNL     1     -11.005  11.540  64.829  1.00  0.00    -0.310 OA 
ENDBRANCH  21  26
BRANCH  22  29
HETATM   29  O   UNL     1     -10.519   9.372  68.554  1.00  0.00    -0.200 OA 
BRANCH  29  30
HETATM   30  C   UNL     1     -10.995   8.693  69.732  1.00  0.00    -0.127 C  
HETATM   31  C   UNL     1     -11.892   9.630  70.564  1.00  0.00    -0.215 C  
HETATM   32  O   UNL     1     -12.851  10.281  69.719  1.00  0.00    -0.579 OA 
HETATM   33  C   UNL     1     -12.620   8.844  71.661  1.00  0.00    -0.346 C  
HETATM   34  C   UNL     1     -11.588   8.232  72.608  1.00  0.00    -0.419 C  
HETATM   35  N   UNL     1     -13.554   9.712  72.404  1.00  0.00    -0.648 NA 
HETATM   36  H   UNL     1     -13.404  10.858  70.232  1.00  0.00     0.000 HD 
HETATM   37  H1  UNL     1     -14.038   9.190  73.134  1.00  0.00     0.000 HD 
HETATM   38  H2  UNL     1     -14.210  10.180  71.779  1.00  0.00     0.000 HD 
HETATM   39  C   UNL     1     -10.582   7.338  71.864  1.00  0.00    -0.212 C  
HETATM   40  C   UNL     1      -9.908   8.021  70.614  1.00  0.00    -0.184 C  
HETATM   41  N   UNL     1      -9.569   6.866  72.832  1.00  0.00    -0.145 NA 
HETATM   42  H2  UNL     1      -9.986   6.401  73.639  1.00  0.00     0.000 HD 
HETATM   43  H1  UNL     1      -8.903   6.274  72.338  1.00  0.00     0.000 HD 
BRANCH  40  44
HETATM   44  O   UNL     1      -9.149   6.988  69.943  1.00  0.00    -0.142 OA 
BRANCH  44  45
HETATM   45  C   UNL     1      -7.739   7.229  69.832  1.00  0.00    -0.103 C  
HETATM   46  O   UNL     1      -7.010   6.602  70.881  1.00  0.00    -0.064 OA 
HETATM   47  C   UNL     1      -6.999   5.175  70.851  1.00  0.00    -0.055 C  
HETATM   48  C   UNL     1      -6.364   4.688  69.546  1.00  0.00    -0.028 C  
HETATM   49  H1  UNL     1      -7.540   7.121  66.389  1.00  0.00     0.000 HD 
HETATM   50  H2  UNL     1      -7.938   8.414  67.378  1.00  0.00     0.000 HD 
HETATM   51  O   UNL     1      -6.354   3.262  69.444  1.00  0.00    -0.028 OA 
HETATM   52  C   UNL     1      -7.124   5.276  68.350  1.00  0.00    -0.062 C  
HETATM   53  H   UNL     1      -5.959   2.960  68.635  1.00  0.00     0.000 HD 
HETATM   54  O   UNL     1      -6.468   4.895  67.128  1.00  0.00    -0.045 OA 
HETATM   55  N   UNL     1      -7.907   7.397  67.299  1.00  0.00    -0.112 NA 
HETATM   56  C   UNL     1      -7.181   6.809  68.448  1.00  0.00    -0.085 C  
HETATM   57  H   UNL     1      -6.939   5.259  66.388  1.00  0.00     0.000 HD 
BRANCH  47  58
HETATM   58  C   UNL     1      -6.205   4.702  72.077  1.00  0.00    -0.021 C  
HETATM   59  O   UNL     1      -6.968   4.905  73.270  1.00  0.00    -0.067 OA 
HETATM   60  H   UNL     1      -6.477   4.612  74.028  1.00  0.00     0.000 HD 
ENDBRANCH  47  58
ENDBRANCH  44  45
ENDBRANCH  40  44
ENDBRANCH  29  30
ENDBRANCH  22  29
ENDBRANCH  18  19
ENDBRANCH   7  18
ENDBRANCH   2   5
TORSDOF 9
ENDMDL
MODEL       95
REMARK 921   NORMALIZED FREE ENERGY PREDICTED BY IDOCK:   -5.95 KCAL/MOL
REMARK 922        TOTAL FREE ENERGY PREDICTED BY IDOCK:  -11.13 KCAL/MOL
REMARK 923 INTER-LIGAND FREE ENERGY PREDICTED BY IDOCK:   -9.47 KCAL/MOL
REMARK 924 INTRA-LIGAND FREE ENERGY PREDICTED BY IDOCK:   -1.66 KCAL/MOL
REMARK 927      BINDING AFFINITY PREDICTED BY RF-SCORE:    0.00 PKD
ROOT
HETATM    1  N   UNL     1     -10.498  14.641  67.426  1.00  0.00    -0.253 NA 
HETATM    2  C   UNL     1     -11.888  14.508  66.944  1.00  0.00    -0.377 C  
HETATM    3  H1  UNL     1     -10.435  15.411  68.092  1.00  0.00     0.000 HD 
HETATM    4  H2  UNL     1      -9.834  14.742  66.658  1.00  0.00     0.000 HD 
ENDROOT
BRANCH   2   5
HETATM    5  C   UNL     1     -11.984  13.347  65.940  1.00  0.00    -0.409 C  
HETATM    6  O   UNL     1     -10.829  12.512  66.146  1.00  0.00    -0.262 OA 
HETATM    7  C   UNL     1     -10.911  11.294  65.410  1.00  0.00    -0.188 C  
HETATM    8  C   UNL     1     -10.836  11.622  63.891  1.00  0.00    -0.405 C  
HETATM    9  O   UNL     1     -10.958  14.718  64.213  1.00  0.00    -0.609 OA 
HETATM   10  H   UNL     1     -10.994  15.006  63.309  1.00  0.00     0.000 HD 
HETATM   11  N   UNL     1      -9.514  12.222  63.541  1.00  0.00    -0.660 NA 
HETATM   12  C   UNL     1     -11.986  12.590  63.526  1.00  0.00    -0.543 C  
HETATM   13  H2  UNL     1      -8.740  11.628  63.837  1.00  0.00     0.000 HD 
HETATM   14  O   UNL     1     -13.246  11.906  63.496  1.00  0.00    -0.676 OA 
HETATM   15  C   UNL     1     -12.042  13.814  64.470  1.00  0.00    -0.428 C  
HETATM   16  H1  UNL     1      -9.465  12.438  62.546  1.00  0.00     0.000 HD 
HETATM   17  H   UNL     1     -13.952  12.500  63.272  1.00  0.00     0.000 HD 
BRANCH   7  18
HETATM   18  O   UNL     1      -9.830  10.418  65.742  1.00  0.00    -0.210 OA 
BRANCH  18  19
HETATM   19  C   UNL     1      -9.178  10.737  66.984  1.00  0.00    -0.152 C  
HETATM   20  O   UNL     1     -11.297  10.239  68.164  1.00  0.00    -0.456 OA 
HETATM   21  C   UNL     1      -7.842   9.997  66.973  1.00  0.00    -0.102 C  
HETATM   22  C   UNL     1      -9.301   8.752  68.298  1.00  0.00    -0.137 C  
HETATM   23  H   UNL     1     -11.728   9.890  68.934  1.00  0.00     0.000 HD 
HETATM   24  O   UNL     1      -8.052   8.725  67.604  1.00  0.00    -0.105 OA 
HETATM   25  C   UNL     1      -9.869  10.179  68.217  1.00  0.00    -0.145 C  
BRANCH  21  26
HETATM   26  C   UNL     1      -6.724  10.726  67.720  1.00  0.00    -0.068 C  
HETATM   27  H   UNL     1      -5.291  10.275  69.002  1.00  0.00     0.000 HD 
HETATM   28  O   UNL     1      -5.986   9.822  68.539  1.00  0.00    -0.042 OA 
ENDBRANCH  21  26
BRANCH  22  29
HETATM   29  O   UNL     1      -9.124   8.410  69.669  1.00  0.00    -0.151 OA 
BRANCH  29  30
HETATM   30  C   UNL     1     -10.104   7.561  70.297  1.00  0.00    -0.194 C  
HETATM   31  C   UNL     1     -10.815   8.317  71.437  1.00  0.00    -0.239 C  
HETATM   32  O   UNL     1     -11.225   9.617  70.992  1.00  0.00    -0.316 OA 
HETATM   33  C   UNL     1     -12.037   7.530  71.925  1.00  0.00    -0.305 C  
HETATM   34  C   UNL     1     -11.575   6.183  72.482  1.00  0.00    -0.294 C  
HETATM   35  N   UNL     1     -12.781   8.286  72.950  1.00  0.00    -0.664 NA 
HETATM   36  H   UNL     1     -11.663  10.083  71.694  1.00  0.00     0.000 HD 
HETATM   37  H1  UNL     1     -13.593   7.763  73.276  1.00  0.00     0.000 HD 
HETATM   38  H2  UNL     1     -13.040   9.214  72.617  1.00  0.00     0.000 HD 
HETATM   39  C   UNL     1     -10.775   5.375  71.446  1.00  0.00    -0.188 C  
HETATM   40  C   UNL     1      -9.596   6.172  70.771  1.00  0.00    -0.169 C  
HETATM   41  N   UNL     1     -10.289   4.138  72.092  1.00  0.00    -0.146 NA 
HETATM   42  H2  UNL     1     -11.041   3.596  72.516  1.00  0.00     0.000 HD 
HETATM   43  H1  UNL     1      -9.759   3.602  71.405  1.00  0.00     0.000 HD 
BRANCH  40  44
HETATM   44  O   UNL     1      -9.086   5.330  69.711  1.00  0.00    -0.112 OA 
BRANCH  44  45
HETATM   45  C   UNL     1      -7.826   4.697  69.975  1.00  0.00    -0.060 C  
HETATM   46  O   UNL     1      -7.223   4.201  68.785  1.00  0.00    -0.054 OA 
HETATM   47  C   UNL     1      -6.787   5.195  67.860  1.00  0.00    -0.060 C  
HETATM   48  C   UNL     1      -5.739   6.096  68.519  1.00  0.00    -0.012 C  
HETATM   49  H1  UNL     1      -6.775   6.827  72.478  1.00  0.00     0.000 HD 
HETATM   50  H2  UNL     1      -7.762   5.477  72.592  1.00  0.00     0.000 HD 
HETATM   51  O   UNL     1      -5.287   7.134  67.648  1.00  0.00    -0.018 OA 
HETATM   52  C   UNL     1      -6.325   6.721  69.793  1.00  0.00    -0.042 C  
HETATM   53  H   UNL     1      -4.637   7.693  68.057  1.00  0.00     0.000 HD 
HETATM   54  O   UNL     1      -5.310   7.490  70.461  1.00  0.00    -0.023 OA 
HETATM   55  N   UNL     1      -7.416   6.213  71.976  1.00  0.00    -0.094 NA 
HETATM   56  C   UNL     1      -6.851   5.630  70.737  1.00  0.00    -0.053 C  
HETATM   57  H   UNL     1      -5.672   7.877  71.250  1.00  0.00     0.000 HD 
BRANCH  47  58
HETATM   58  C   UNL     1      -6.212   4.459  66.642  1.00  0.00    -0.032 C  
HETATM   59  O   UNL     1      -5.697   5.397  65.692  1.00  0.00    -0.013 OA 
HETATM   60  H   UNL     1      -5.341   4.942  64.939  1.00  0.00     0.000 HD 
ENDBRANCH  47  58
ENDBRANCH  44  45
ENDBRANCH  40  44
ENDBRANCH  29  30
ENDBRANCH  22  29
ENDBRANCH  18  19
ENDBRANCH   7  18
ENDBRANCH   2   5
TORSDOF 9
ENDMDL
MODEL       96
REMARK 921   NORMALIZED FREE ENERGY PREDICTED BY IDOCK:   -5.93 KCAL/MOL
REMARK 922        TOTAL FREE ENERGY PREDICTED BY IDOCK:  -11.09 KCAL/MOL
REMARK 923 INTER-LIGAND FREE ENERGY PREDICTED BY IDOCK:   -8.96 KCAL/MOL
REMARK 924 INTRA-LIGAND FREE ENERGY PREDICTED BY IDOCK:   -2.13 KCAL/MOL
REMARK 927      BINDING AFFINITY PREDICTED BY RF-SCORE:    0.00 PKD
ROOT
HETATM    1  N   UNL     1      -9.666   5.487  67.891  1.00  0.00    -0.125 NA 
HETATM    2  C   UNL     1      -9.653   4.213  68.637  1.00  0.00    -0.130 C  
HETATM    3  H1  UNL     1      -9.506   5.310  66.899  1.00  0.00     0.000 HD 
HETATM    4  H2  UNL     1      -9.001   6.161  68.272  1.00  0.00     0.000 HD 
ENDROOT
BRANCH   2   5
HETATM    5  C   UNL     1      -9.895   4.480  70.132  1.00  0.00    -0.226 C  
HETATM    6  O   UNL     1      -9.244   5.724  70.451  1.00  0.00    -0.149 OA 
HETATM    7  C   UNL     1      -9.568   6.178  71.763  1.00  0.00    -0.150 C  
HETATM    8  C   UNL     1      -8.957   5.190  72.798  1.00  0.00    -0.121 C  
HETATM    9  O   UNL     1      -7.994   3.081  70.718  1.00  0.00    -0.046 OA 
HETATM   10  H   UNL     1      -7.667   2.389  71.280  1.00  0.00     0.000 HD 
HETATM   11  N   UNL     1      -7.466   5.195  72.721  1.00  0.00    -0.094 NA 
HETATM   12  C   UNL     1      -9.510   3.771  72.530  1.00  0.00    -0.124 C  
HETATM   13  H2  UNL     1      -7.086   6.136  72.828  1.00  0.00     0.000 HD 
HETATM   14  O   UNL     1     -10.873   3.658  72.962  1.00  0.00    -0.169 OA 
HETATM   15  C   UNL     1      -9.363   3.356  71.046  1.00  0.00    -0.142 C  
HETATM   16  H1  UNL     1      -7.065   4.547  73.400  1.00  0.00     0.000 HD 
HETATM   17  H   UNL     1     -11.212   2.786  72.798  1.00  0.00     0.000 HD 
BRANCH   7  18
HETATM   18  O   UNL     1      -9.032   7.482  72.004  1.00  0.00    -0.122 OA 
BRANCH  18  19
HETATM   19  C   UNL     1      -9.965   8.551  71.764  1.00  0.00    -0.275 C  
HETATM   20  O   UNL     1      -8.096   9.912  70.879  1.00  0.00    -0.374 OA 
HETATM   21  C   UNL     1     -11.167   7.925  71.060  1.00  0.00    -0.269 C  
HETATM   22  C   UNL     1      -9.876   8.960  69.418  1.00  0.00    -0.183 C  
HETATM   23  H   UNL     1      -7.796  10.561  70.253  1.00  0.00     0.000 HD 
HETATM   24  O   UNL     1     -10.938   8.032  69.647  1.00  0.00    -0.210 OA 
HETATM   25  C   UNL     1      -9.485   9.590  70.764  1.00  0.00    -0.168 C  
BRANCH  21  26
HETATM   26  C   UNL     1     -12.498   8.604  71.385  1.00  0.00    -0.301 C  
HETATM   27  H   UNL     1     -13.121  10.377  71.993  1.00  0.00     0.000 HD 
HETATM   28  O   UNL     1     -12.295   9.955  71.791  1.00  0.00    -0.383 OA 
ENDBRANCH  21  26
BRANCH  22  29
HETATM   29  O   UNL     1     -10.294   9.997  68.535  1.00  0.00    -0.176 OA 
BRANCH  29  30
HETATM   30  C   UNL     1      -9.509  10.249  67.353  1.00  0.00    -0.153 C  
HETATM   31  C   UNL     1      -9.300   8.944  66.560  1.00  0.00    -0.195 C  
HETATM   32  O   UNL     1     -10.545   8.246  66.415  1.00  0.00    -0.333 OA 
HETATM   33  C   UNL     1      -8.712   9.243  65.177  1.00  0.00    -0.185 C  
HETATM   34  C   UNL     1      -7.344   9.904  65.346  1.00  0.00    -0.128 C  
HETATM   35  N   UNL     1      -8.596   8.011  64.372  1.00  0.00    -0.384 NA 
HETATM   36  H   UNL     1     -10.416   7.442  65.926  1.00  0.00     0.000 HD 
HETATM   37  H1  UNL     1      -8.205   8.210  63.452  1.00  0.00     0.000 HD 
HETATM   38  H2  UNL     1      -9.488   7.522  64.303  1.00  0.00     0.000 HD 
HETATM   39  C   UNL     1      -7.423  11.181  66.200  1.00  0.00    -0.022 C  
HETATM   40  C   UNL     1      -8.165  10.995  67.577  1.00  0.00    -0.117 C  
HETATM   41  N   UNL     1      -6.052  11.700  66.392  1.00  0.00    -0.418 NA 
HETATM   42  H2  UNL     1      -5.562  11.847  65.510  1.00  0.00     0.000 HD 
HETATM   43  H1  UNL     1      -6.105  12.546  66.959  1.00  0.00     0.000 HD 
BRANCH  40  44
HETATM   44  O   UNL     1      -8.305  12.317  68.148  1.00  0.00    -0.160 OA 
BRANCH  44  45
HETATM   45  C   UNL     1      -8.774  13.333  67.250  1.00  0.00    -0.214 C  
HETATM   46  O   UNL     1     -10.178  13.535  67.366  1.00  0.00    -0.234 OA 
HETATM   47  C   UNL     1     -10.614  14.105  68.599  1.00  0.00    -0.249 C  
HETATM   48  C   UNL     1      -9.972  15.481  68.793  1.00  0.00    -0.214 C  
HETATM   49  H1  UNL     1      -6.033  15.418  67.469  1.00  0.00     0.000 HD 
HETATM   50  H2  UNL     1      -6.263  14.085  66.480  1.00  0.00     0.000 HD 
HETATM   51  O   UNL     1     -10.348  16.088  70.031  1.00  0.00    -0.281 OA 
HETATM   52  C   UNL     1      -8.444  15.351  68.736  1.00  0.00    -0.188 C  
HETATM   53  H   UNL     1      -9.950  16.942  70.151  1.00  0.00     0.000 HD 
HETATM   54  O   UNL     1      -7.847  16.656  68.822  1.00  0.00    -0.215 OA 
HETATM   55  N   UNL     1      -6.536  14.539  67.352  1.00  0.00    -0.297 NA 
HETATM   56  C   UNL     1      -8.009  14.669  67.429  1.00  0.00    -0.201 C  
HETATM   57  H   UNL     1      -6.901  16.575  68.787  1.00  0.00     0.000 HD 
BRANCH  47  58
HETATM   58  C   UNL     1     -12.145  14.200  68.538  1.00  0.00    -0.277 C  
HETATM   59  O   UNL     1     -12.673  14.547  69.821  1.00  0.00    -0.555 OA 
HETATM   60  H   UNL     1     -13.620  14.606  69.783  1.00  0.00     0.000 HD 
ENDBRANCH  47  58
ENDBRANCH  44  45
ENDBRANCH  40  44
ENDBRANCH  29  30
ENDBRANCH  22  29
ENDBRANCH  18  19
ENDBRANCH   7  18
ENDBRANCH   2   5
TORSDOF 9
ENDMDL
MODEL       97
REMARK 921   NORMALIZED FREE ENERGY PREDICTED BY IDOCK:   -5.93 KCAL/MOL
REMARK 922        TOTAL FREE ENERGY PREDICTED BY IDOCK:  -11.09 KCAL/MOL
REMARK 923 INTER-LIGAND FREE ENERGY PREDICTED BY IDOCK:   -8.94 KCAL/MOL
REMARK 924 INTRA-LIGAND FREE ENERGY PREDICTED BY IDOCK:   -2.15 KCAL/MOL
REMARK 927      BINDING AFFINITY PREDICTED BY RF-SCORE:    0.00 PKD
ROOT
HETATM    1  N   UNL     1      -6.736  21.379  67.520  1.00  0.00    -0.555 NA 
HETATM    2  C   UNL     1      -6.140  20.044  67.728  1.00  0.00    -0.213 C  
HETATM    3  H1  UNL     1      -6.005  22.052  67.287  1.00  0.00     0.000 HD 
HETATM    4  H2  UNL     1      -7.293  21.679  68.320  1.00  0.00     0.000 HD 
ENDROOT
BRANCH   2   5
HETATM    5  C   UNL     1      -7.241  19.029  68.078  1.00  0.00    -0.244 C  
HETATM    6  O   UNL     1      -6.823  17.754  67.556  1.00  0.00    -0.171 OA 
HETATM    7  C   UNL     1      -7.669  16.692  67.994  1.00  0.00    -0.165 C  
HETATM    8  C   UNL     1      -9.078  16.883  67.360  1.00  0.00    -0.217 C  
HETATM    9  O   UNL     1      -8.500  19.672  66.100  1.00  0.00    -0.347 OA 
HETATM   10  H   UNL     1      -9.351  19.905  65.747  1.00  0.00     0.000 HD 
HETATM   11  N   UNL     1      -9.011  16.765  65.873  1.00  0.00    -0.517 NA 
HETATM   12  C   UNL     1      -9.634  18.266  67.772  1.00  0.00    -0.283 C  
HETATM   13  H2  UNL     1      -8.583  15.886  65.583  1.00  0.00     0.000 HD 
HETATM   14  O   UNL     1     -10.057  18.265  69.142  1.00  0.00    -0.360 OA 
HETATM   15  C   UNL     1      -8.623  19.407  67.504  1.00  0.00    -0.300 C  
HETATM   16  H1  UNL     1      -9.935  16.891  65.458  1.00  0.00     0.000 HD 
HETATM   17  H   UNL     1     -10.398  19.115  69.395  1.00  0.00     0.000 HD 
BRANCH   7  18
HETATM   18  O   UNL     1      -7.154  15.422  67.588  1.00  0.00    -0.145 OA 
BRANCH  18  19
HETATM   19  C   UNL     1      -7.603  14.322  68.401  1.00  0.00    -0.124 C  
HETATM   20  O   UNL     1      -9.458  13.965  66.802  1.00  0.00    -0.260 OA 
HETATM   21  C   UNL     1      -6.367  13.477  68.703  1.00  0.00    -0.091 C  
HETATM   22  C   UNL     1      -7.522  12.407  66.984  1.00  0.00    -0.034 C  
HETATM   23  H   UNL     1     -10.031  13.354  66.354  1.00  0.00     0.000 HD 
HETATM   24  O   UNL     1      -6.278  12.469  67.684  1.00  0.00    -0.108 OA 
HETATM   25  C   UNL     1      -8.519  13.345  67.683  1.00  0.00    -0.187 C  
BRANCH  21  26
HETATM   26  C   UNL     1      -6.409  12.782  70.065  1.00  0.00     0.013 C  
HETATM   27  H   UNL     1      -6.060  13.248  71.952  1.00  0.00     0.000 HD 
HETATM   28  O   UNL     1      -6.033  13.680  71.106  1.00  0.00    -0.185 OA 
ENDBRANCH  21  26
BRANCH  22  29
HETATM   29  O   UNL     1      -8.049  11.084  67.006  1.00  0.00    -0.125 OA 
BRANCH  29  30
HETATM   30  C   UNL     1      -7.873  10.295  68.199  1.00  0.00    -0.104 C  
HETATM   31  C   UNL     1      -6.938   9.103  67.919  1.00  0.00    -0.077 C  
HETATM   32  O   UNL     1      -5.769   9.542  67.215  1.00  0.00    -0.040 OA 
HETATM   33  C   UNL     1      -6.526   8.422  69.230  1.00  0.00    -0.039 C  
HETATM   34  C   UNL     1      -7.774   7.877  69.925  1.00  0.00    -0.098 C  
HETATM   35  N   UNL     1      -5.556   7.338  68.983  1.00  0.00    -0.018 NA 
HETATM   36  H   UNL     1      -5.193   8.807  67.042  1.00  0.00     0.000 HD 
HETATM   37  H1  UNL     1      -5.282   6.885  69.854  1.00  0.00     0.000 HD 
HETATM   38  H2  UNL     1      -4.746   7.671  68.461  1.00  0.00     0.000 HD 
HETATM   39  C   UNL     1      -8.819   8.977  70.179  1.00  0.00    -0.182 C  
HETATM   40  C   UNL     1      -9.177   9.837  68.909  1.00  0.00    -0.155 C  
HETATM   41  N   UNL     1     -10.023   8.352  70.764  1.00  0.00    -0.185 NA 
HETATM   42  H2  UNL     1      -9.815   7.808  71.601  1.00  0.00     0.000 HD 
HETATM   43  H1  UNL     1     -10.716   9.081  70.932  1.00  0.00     0.000 HD 
BRANCH  40  44
HETATM   44  O   UNL     1     -10.017  10.920  69.371  1.00  0.00    -0.172 OA 
BRANCH  44  45
HETATM   45  C   UNL     1     -11.416  10.785  69.083  1.00  0.00    -0.298 C  
HETATM   46  O   UNL     1     -12.214  10.936  70.252  1.00  0.00    -0.296 OA 
HETATM   47  C   UNL     1     -12.226  12.245  70.819  1.00  0.00    -0.260 C  
HETATM   48  C   UNL     1     -12.774  13.249  69.801  1.00  0.00     0.317 C  
HETATM   49  H1  UNL     1     -11.385  12.323  65.995  1.00  0.00     0.000 HD 
HETATM   50  H2  UNL     1     -11.052  10.725  66.376  1.00  0.00     0.000 HD 
HETATM   51  O   UNL     1     -12.779  14.587  70.304  1.00  0.00    -0.434 OA 
HETATM   52  C   UNL     1     -11.934  13.193  68.518  1.00  0.00    -0.289 C  
HETATM   53  H   UNL     1     -13.119  15.209  69.672  1.00  0.00     0.000 HD 
HETATM   54  O   UNL     1     -12.508  14.066  67.529  1.00  0.00    -0.506 OA 
HETATM   55  N   UNL     1     -11.080  11.683  66.727  1.00  0.00    -0.298 NA 
HETATM   56  C   UNL     1     -11.881  11.758  67.970  1.00  0.00    -0.234 C  
HETATM   57  H   UNL     1     -11.989  14.031  66.735  1.00  0.00     0.000 HD 
BRANCH  47  58
HETATM   58  C   UNL     1     -13.100  12.185  72.080  1.00  0.00    -0.357 C  
HETATM   59  O   UNL     1     -13.427  10.828  72.392  1.00  0.00    -0.599 OA 
HETATM   60  H   UNL     1     -13.967  10.791  73.172  1.00  0.00     0.000 HD 
ENDBRANCH  47  58
ENDBRANCH  44  45
ENDBRANCH  40  44
ENDBRANCH  29  30
ENDBRANCH  22  29
ENDBRANCH  18  19
ENDBRANCH   7  18
ENDBRANCH   2   5
TORSDOF 9
ENDMDL
MODEL       98
REMARK 921   NORMALIZED FREE ENERGY PREDICTED BY IDOCK:   -5.91 KCAL/MOL
REMARK 922        TOTAL FREE ENERGY PREDICTED BY IDOCK:  -11.07 KCAL/MOL
REMARK 923 INTER-LIGAND FREE ENERGY PREDICTED BY IDOCK:   -9.60 KCAL/MOL
REMARK 924 INTRA-LIGAND FREE ENERGY PREDICTED BY IDOCK:   -1.47 KCAL/MOL
REMARK 927      BINDING AFFINITY PREDICTED BY RF-SCORE:    0.00 PKD
ROOT
HETATM    1  N   UNL     1     -11.164   4.592  65.291  1.00  0.00    -0.991 NA 
HETATM    2  C   UNL     1      -9.929   3.782  65.285  1.00  0.00    -0.108 C  
HETATM    3  H1  UNL     1     -11.968   3.997  65.492  1.00  0.00     0.000 HD 
HETATM    4  H2  UNL     1     -11.282   5.117  64.425  1.00  0.00     0.000 HD 
ENDROOT
BRANCH   2   5
HETATM    5  C   UNL     1      -8.717   4.680  64.983  1.00  0.00    -0.143 C  
HETATM    6  O   UNL     1      -9.036   5.999  65.463  1.00  0.00    -0.092 OA 
HETATM    7  C   UNL     1      -7.910   6.872  65.421  1.00  0.00    -0.115 C  
HETATM    8  C   UNL     1      -7.532   7.126  63.933  1.00  0.00    -0.103 C  
HETATM    9  O   UNL     1      -9.532   5.066  62.725  1.00  0.00    -0.353 OA 
HETATM   10  H   UNL     1      -9.312   5.101  61.801  1.00  0.00     0.000 HD 
HETATM   11  N   UNL     1      -8.631   7.842  63.220  1.00  0.00    -0.376 NA 
HETATM   12  C   UNL     1      -7.233   5.772  63.249  1.00  0.00    -0.053 C  
HETATM   13  H2  UNL     1      -8.889   8.707  63.696  1.00  0.00     0.000 HD 
HETATM   14  O   UNL     1      -5.963   5.252  63.667  1.00  0.00    -0.020 OA 
HETATM   15  C   UNL     1      -8.360   4.737  63.483  1.00  0.00    -0.117 C  
HETATM   16  H1  UNL     1      -8.383   8.009  62.245  1.00  0.00     0.000 HD 
HETATM   17  H   UNL     1      -5.780   4.419  63.246  1.00  0.00     0.000 HD 
BRANCH   7  18
HETATM   18  O   UNL     1      -8.207   8.128  66.037  1.00  0.00    -0.108 OA 
BRANCH  18  19
HETATM   19  C   UNL     1      -9.531   8.618  65.757  1.00  0.00    -0.122 C  
HETATM   20  O   UNL     1     -10.417   7.037  67.443  1.00  0.00    -0.210 OA 
HETATM   21  C   UNL     1      -9.437  10.142  65.768  1.00  0.00    -0.208 C  
HETATM   22  C   UNL     1     -10.335   9.498  67.821  1.00  0.00    -0.239 C  
HETATM   23  H   UNL     1     -11.055   6.856  68.124  1.00  0.00     0.000 HD 
HETATM   24  O   UNL     1      -9.739  10.580  67.102  1.00  0.00    -0.165 OA 
HETATM   25  C   UNL     1     -10.550   8.329  66.846  1.00  0.00    -0.232 C  
BRANCH  21  26
HETATM   26  C   UNL     1     -10.406  10.830  64.805  1.00  0.00    -0.310 C  
HETATM   27  H   UNL     1     -10.402  12.397  63.603  1.00  0.00     0.000 HD 
HETATM   28  O   UNL     1      -9.801  11.971  64.201  1.00  0.00    -0.251 OA 
ENDBRANCH  21  26
BRANCH  22  29
HETATM   29  O   UNL     1     -11.597   9.883  68.356  1.00  0.00     0.022 OA 
BRANCH  29  30
HETATM   30  C   UNL     1     -11.772   9.862  69.787  1.00  0.00    -0.021 C  
HETATM   31  C   UNL     1     -12.499   8.573  70.217  1.00  0.00     0.771 C  
HETATM   32  O   UNL     1     -11.904   7.431  69.587  1.00  0.00    -0.360 OA 
HETATM   33  C   UNL     1     -12.445   8.408  71.740  1.00  0.00    -0.335 C  
HETATM   34  C   UNL     1     -13.165   9.586  72.398  1.00  0.00    -0.451 C  
HETATM   35  N   UNL     1     -13.055   7.131  72.158  1.00  0.00    -0.535 NA 
HETATM   36  H   UNL     1     -12.351   6.637  69.852  1.00  0.00     0.000 HD 
HETATM   37  H1  UNL     1     -13.020   7.020  73.171  1.00  0.00     0.000 HD 
HETATM   38  H2  UNL     1     -12.630   6.337  71.679  1.00  0.00     0.000 HD 
HETATM   39  C   UNL     1     -12.570  10.937  71.967  1.00  0.00     0.037 C  
HETATM   40  C   UNL     1     -12.436  11.120  70.409  1.00  0.00    -0.299 C  
HETATM   41  N   UNL     1     -13.379  12.017  72.570  1.00  0.00    -0.484 NA 
HETATM   42  H2  UNL     1     -13.459  11.929  73.583  1.00  0.00     0.000 HD 
HETATM   43  H1  UNL     1     -12.984  12.913  72.284  1.00  0.00     0.000 HD 
BRANCH  40  44
HETATM   44  O   UNL     1     -11.699  12.347  70.202  1.00  0.00    -0.286 OA 
BRANCH  44  45
HETATM   45  C   UNL     1     -12.349  13.331  69.384  1.00  0.00    -0.037 C  
HETATM   46  O   UNL     1     -13.387  14.004  70.089  1.00  0.00     0.228 OA 
HETATM   47  C   UNL     1     -12.954  14.847  71.155  1.00  0.00    -0.367 C  
HETATM   48  C   UNL     1     -12.034  15.943  70.611  1.00  0.00    -0.348 C  
HETATM   49  H1  UNL     1      -9.557  14.390  67.657  1.00  0.00     0.000 HD 
HETATM   50  H2  UNL     1     -10.562  13.089  67.332  1.00  0.00     0.000 HD 
HETATM   51  O   UNL     1     -11.541  16.803  71.641  1.00  0.00    -0.569 OA 
HETATM   52  C   UNL     1     -10.849  15.303  69.875  1.00  0.00    -0.281 C  
HETATM   53  H   UNL     1     -10.971  17.483  71.303  1.00  0.00     0.000 HD 
HETATM   54  O   UNL     1     -10.038  16.333  69.283  1.00  0.00    -0.243 OA 
HETATM   55  N   UNL     1     -10.217  13.722  68.054  1.00  0.00    -0.241 NA 
HETATM   56  C   UNL     1     -11.346  14.346  68.781  1.00  0.00    -0.273 C  
HETATM   57  H   UNL     1      -9.304  15.937  68.827  1.00  0.00     0.000 HD 
BRANCH  47  58
HETATM   58  C   UNL     1     -14.213  15.439  71.804  1.00  0.00    -0.527 C  
HETATM   59  O   UNL     1     -13.901  15.975  73.093  1.00  0.00    -0.691 OA 
HETATM   60  H   UNL     1     -14.680  16.341  73.495  1.00  0.00     0.000 HD 
ENDBRANCH  47  58
ENDBRANCH  44  45
ENDBRANCH  40  44
ENDBRANCH  29  30
ENDBRANCH  22  29
ENDBRANCH  18  19
ENDBRANCH   7  18
ENDBRANCH   2   5
TORSDOF 9
ENDMDL
MODEL       99
REMARK 921   NORMALIZED FREE ENERGY PREDICTED BY IDOCK:   -5.91 KCAL/MOL
REMARK 922        TOTAL FREE ENERGY PREDICTED BY IDOCK:  -11.06 KCAL/MOL
REMARK 923 INTER-LIGAND FREE ENERGY PREDICTED BY IDOCK:   -9.07 KCAL/MOL
REMARK 924 INTRA-LIGAND FREE ENERGY PREDICTED BY IDOCK:   -1.99 KCAL/MOL
REMARK 927      BINDING AFFINITY PREDICTED BY RF-SCORE:    0.00 PKD
ROOT
HETATM    1  N   UNL     1      -9.690  12.148  63.673  1.00  0.00    -0.589 NA 
HETATM    2  C   UNL     1     -10.404  10.919  64.074  1.00  0.00    -0.349 C  
HETATM    3  H1  UNL     1     -10.357  12.841  63.331  1.00  0.00     0.000 HD 
HETATM    4  H2  UNL     1      -8.952  11.959  62.995  1.00  0.00     0.000 HD 
ENDROOT
BRANCH   2   5
HETATM    5  C   UNL     1      -9.399   9.875  64.589  1.00  0.00    -0.277 C  
HETATM    6  O   UNL     1      -8.243  10.595  65.055  1.00  0.00    -0.154 OA 
HETATM    7  C   UNL     1      -7.325   9.747  65.742  1.00  0.00    -0.105 C  
HETATM    8  C   UNL     1      -6.720   8.738  64.723  1.00  0.00    -0.069 C  
HETATM    9  O   UNL     1      -8.553   9.537  62.335  1.00  0.00    -0.169 OA 
HETATM   10  H   UNL     1      -8.297   8.904  61.675  1.00  0.00     0.000 HD 
HETATM   11  N   UNL     1      -5.919   9.449  63.683  1.00  0.00    -0.088 NA 
HETATM   12  C   UNL     1      -7.865   7.931  64.069  1.00  0.00    -0.138 C  
HETATM   13  H2  UNL     1      -5.200  10.041  64.100  1.00  0.00     0.000 HD 
HETATM   14  O   UNL     1      -8.399   6.961  64.981  1.00  0.00    -0.235 OA 
HETATM   15  C   UNL     1      -8.984   8.847  63.516  1.00  0.00     0.258 C  
HETATM   16  H1  UNL     1      -5.522   8.788  63.016  1.00  0.00     0.000 HD 
HETATM   17  H   UNL     1      -9.103   6.466  64.579  1.00  0.00     0.000 HD 
BRANCH   7  18
HETATM   18  O   UNL     1      -6.260  10.503  66.323  1.00  0.00    -0.085 OA 
BRANCH  18  19
HETATM   19  C   UNL     1      -6.422  10.757  67.730  1.00  0.00    -0.059 C  
HETATM   20  O   UNL     1      -5.418  12.994  67.390  1.00  0.00    -0.300 OA 
HETATM   21  C   UNL     1      -7.851  10.346  68.080  1.00  0.00    -0.108 C  
HETATM   22  C   UNL     1      -7.840  12.668  67.874  1.00  0.00    -0.154 C  
HETATM   23  H   UNL     1      -5.395  13.913  67.629  1.00  0.00     0.000 HD 
HETATM   24  O   UNL     1      -8.677  11.512  67.945  1.00  0.00    -0.134 OA 
HETATM   25  C   UNL     1      -6.386  12.228  68.111  1.00  0.00    -0.062 C  
BRANCH  21  26
HETATM   26  C   UNL     1      -8.009   9.805  69.502  1.00  0.00    -0.137 C  
HETATM   27  H   UNL     1      -7.613   8.136  70.481  1.00  0.00     0.000 HD 
HETATM   28  O   UNL     1      -7.515   8.471  69.598  1.00  0.00    -0.072 OA 
ENDBRANCH  21  26
BRANCH  22  29
HETATM   29  O   UNL     1      -8.199  13.613  68.878  1.00  0.00    -0.031 OA 
BRANCH  29  30
HETATM   30  C   UNL     1      -9.036  14.725  68.505  1.00  0.00    -0.182 C  
HETATM   31  C   UNL     1      -8.248  15.716  67.625  1.00  0.00    -0.150 C  
HETATM   32  O   UNL     1      -7.548  15.013  66.589  1.00  0.00    -0.250 OA 
HETATM   33  C   UNL     1      -9.193  16.749  67.000  1.00  0.00    -0.225 C  
HETATM   34  C   UNL     1      -9.862  17.553  68.114  1.00  0.00    -0.306 C  
HETATM   35  N   UNL     1      -8.465  17.644  66.080  1.00  0.00    -0.528 NA 
HETATM   36  H   UNL     1      -7.063  15.623  66.046  1.00  0.00     0.000 HD 
HETATM   37  H1  UNL     1      -9.093  18.332  65.664  1.00  0.00     0.000 HD 
HETATM   38  H2  UNL     1      -7.958  17.120  65.368  1.00  0.00     0.000 HD 
HETATM   39  C   UNL     1     -10.613  16.649  69.107  1.00  0.00    -0.340 C  
HETATM   40  C   UNL     1      -9.755  15.455  69.672  1.00  0.00    -0.246 C  
HETATM   41  N   UNL     1     -11.146  17.493  70.196  1.00  0.00     0.431 NA 
HETATM   42  H2  UNL     1     -11.723  18.260  69.851  1.00  0.00     0.000 HD 
HETATM   43  H1  UNL     1     -11.644  16.893  70.854  1.00  0.00     0.000 HD 
BRANCH  40  44
HETATM   44  O   UNL     1     -10.662  14.621  70.428  1.00  0.00    -0.010 OA 
BRANCH  44  45
HETATM   45  C   UNL     1     -11.888  14.279  69.765  1.00  0.00    -0.324 C  
HETATM   46  O   UNL     1     -11.839  12.973  69.201  1.00  0.00    -0.297 OA 
HETATM   47  C   UNL     1     -11.786  11.903  70.143  1.00  0.00    -0.308 C  
HETATM   48  C   UNL     1     -13.031  11.931  71.034  1.00  0.00    -0.089 C  
HETATM   49  H1  UNL     1     -14.035  15.858  71.957  1.00  0.00     0.000 HD 
HETATM   50  H2  UNL     1     -13.211  16.501  70.647  1.00  0.00     0.000 HD 
HETATM   51  O   UNL     1     -13.018  10.898  72.021  1.00  0.00    -0.457 OA 
HETATM   52  C   UNL     1     -13.136  13.295  71.729  1.00  0.00    -0.379 C  
HETATM   53  H   UNL     1     -13.790  10.916  72.574  1.00  0.00     0.000 HD 
HETATM   54  O   UNL     1     -14.355  13.354  72.490  1.00  0.00    -0.692 OA 
HETATM   55  N   UNL     1     -13.225  15.757  71.345  1.00  0.00    -0.486 NA 
HETATM   56  C   UNL     1     -13.118  14.431  70.694  1.00  0.00    -0.223 C  
HETATM   57  H   UNL     1     -14.420  14.199  72.921  1.00  0.00     0.000 HD 
BRANCH  47  58
HETATM   58  C   UNL     1     -11.697  10.597  69.340  1.00  0.00    -0.273 C  
HETATM   59  O   UNL     1     -11.853  10.863  67.943  1.00  0.00    -0.678 OA 
HETATM   60  H   UNL     1     -11.797  10.055  67.446  1.00  0.00     0.000 HD 
ENDBRANCH  47  58
ENDBRANCH  44  45
ENDBRANCH  40  44
ENDBRANCH  29  30
ENDBRANCH  22  29
ENDBRANCH  18  19
ENDBRANCH   7  18
ENDBRANCH   2   5
TORSDOF 9
ENDMDL
MODEL      100
REMARK 921   NORMALIZED FREE ENERGY PREDICTED BY IDOCK:   -5.85 KCAL/MOL
REMARK 922        TOTAL FREE ENERGY PREDICTED BY IDOCK:  -10.98 KCAL/MOL
REMARK 923 INTER-LIGAND FREE ENERGY PREDICTED BY IDOCK:   -9.69 KCAL/MOL
REMARK 924 INTRA-LIGAND FREE ENERGY PREDICTED BY IDOCK:   -1.29 KCAL/MOL
REMARK 927      BINDING AFFINITY PREDICTED BY RF-SCORE:    0.00 PKD
ROOT
HETATM    1  N   UNL     1      -5.472   9.952  73.042  1.00  0.00    -0.319 NA 
HETATM    2  C   UNL     1      -5.467   8.522  73.413  1.00  0.00    -0.073 C  
HETATM    3  H1  UNL     1      -4.968  10.494  73.745  1.00  0.00     0.000 HD 
HETATM    4  H2  UNL     1      -6.417  10.305  72.890  1.00  0.00     0.000 HD 
ENDROOT
BRANCH   2   5
HETATM    5  C   UNL     1      -6.226   7.705  72.354  1.00  0.00    -0.043 C  
HETATM    6  O   UNL     1      -7.010   8.634  71.583  1.00  0.00    -0.078 OA 
HETATM    7  C   UNL     1      -7.602   8.019  70.441  1.00  0.00    -0.081 C  
HETATM    8  C   UNL     1      -8.661   6.986  70.924  1.00  0.00    -0.143 C  
HETATM    9  O   UNL     1      -7.986   7.210  73.957  1.00  0.00    -0.106 OA 
HETATM   10  H   UNL     1      -8.549   6.542  74.330  1.00  0.00     0.000 HD 
HETATM   11  N   UNL     1      -9.777   7.668  71.644  1.00  0.00    -0.160 NA 
HETATM   12  C   UNL     1      -7.975   5.949  71.843  1.00  0.00    -0.107 C  
HETATM   13  H2  UNL     1     -10.199   8.404  71.077  1.00  0.00     0.000 HD 
HETATM   14  O   UNL     1      -7.174   5.036  71.081  1.00  0.00    -0.059 OA 
HETATM   15  C   UNL     1      -7.140   6.620  72.960  1.00  0.00    -0.077 C  
HETATM   16  H1  UNL     1     -10.472   6.991  71.961  1.00  0.00     0.000 HD 
HETATM   17  H   UNL     1      -6.752   4.399  71.646  1.00  0.00     0.000 HD 
BRANCH   7  18
HETATM   18  O   UNL     1      -8.251   8.986  69.612  1.00  0.00    -0.106 OA 
BRANCH  18  19
HETATM   19  C   UNL     1      -8.289   8.631  68.218  1.00  0.00    -0.127 C  
HETATM   20  O   UNL     1     -10.683   8.061  68.481  1.00  0.00    -0.376 OA 
HETATM   21  C   UNL     1      -7.610   9.772  67.464  1.00  0.00    -0.091 C  
HETATM   22  C   UNL     1      -9.909  10.076  67.235  1.00  0.00    -0.181 C  
HETATM   23  H   UNL     1     -11.555   8.044  68.104  1.00  0.00     0.000 HD 
HETATM   24  O   UNL     1      -8.634  10.702  67.082  1.00  0.00    -0.127 OA 
HETATM   25  C   UNL     1      -9.683   8.603  67.615  1.00  0.00    -0.159 C  
BRANCH  21  26
HETATM   26  C   UNL     1      -6.869   9.327  66.202  1.00  0.00    -0.085 C  
HETATM   27  H   UNL     1      -6.104  10.167  64.587  1.00  0.00     0.000 HD 
HETATM   28  O   UNL     1      -6.563  10.444  65.370  1.00  0.00    -0.118 OA 
ENDBRANCH  21  26
BRANCH  22  29
HETATM   29  O   UNL     1     -10.645  10.123  66.016  1.00  0.00    -0.132 OA 
BRANCH  29  30
HETATM   30  C   UNL     1     -11.491  11.263  65.768  1.00  0.00     0.228 C  
HETATM   31  C   UNL     1     -11.107  11.935  64.435  1.00  0.00    -0.336 C  
HETATM   32  O   UNL     1     -10.972  10.949  63.402  1.00  0.00    -0.601 OA 
HETATM   33  C   UNL     1     -12.164  12.967  64.029  1.00  0.00    -0.417 C  
HETATM   34  C   UNL     1     -12.231  14.061  65.094  1.00  0.00    -0.446 C  
HETATM   35  N   UNL     1     -11.857  13.549  62.708  1.00  0.00    -0.352 NA 
HETATM   36  H   UNL     1     -10.736  11.363  62.581  1.00  0.00     0.000 HD 
HETATM   37  H1  UNL     1     -12.560  14.236  62.437  1.00  0.00     0.000 HD 
HETATM   38  H2  UNL     1     -11.744  12.827  61.997  1.00  0.00     0.000 HD 
HETATM   39  C   UNL     1     -12.528  13.488  66.491  1.00  0.00    -0.253 C  
HETATM   40  C   UNL     1     -11.584  12.302  66.919  1.00  0.00    -0.361 C  
HETATM   41  N   UNL     1     -12.481  14.595  67.470  1.00  0.00    -0.452 NA 
HETATM   42  H2  UNL     1     -13.103  15.364  67.221  1.00  0.00     0.000 HD 
HETATM   43  H1  UNL     1     -12.678  14.215  68.395  1.00  0.00     0.000 HD 
BRANCH  40  44
HETATM   44  O   UNL     1     -12.120  11.777  68.155  1.00  0.00    -0.556 OA 
BRANCH  44  45
HETATM   45  C   UNL     1     -11.276  11.918  69.306  1.00  0.00    -0.242 C  
HETATM   46  O   UNL     1     -11.169  13.275  69.722  1.00  0.00    -0.118 OA 
HETATM   47  C   UNL     1     -12.364  13.849  70.248  1.00  0.00    -0.345 C  
HETATM   48  C   UNL     1     -12.820  13.065  71.481  1.00  0.00    -0.290 C  
HETATM   49  H1  UNL     1     -12.198   8.997  70.894  1.00  0.00     0.000 HD 
HETATM   50  H2  UNL     1     -11.040   9.226  69.704  1.00  0.00     0.000 HD 
HETATM   51  O   UNL     1     -14.035  13.576  72.034  1.00  0.00    -0.444 OA 
HETATM   52  C   UNL     1     -13.014  11.588  71.110  1.00  0.00    -0.233 C  
HETATM   53  H   UNL     1     -14.317  13.089  72.799  1.00  0.00     0.000 HD 
HETATM   54  O   UNL     1     -13.348  10.836  72.290  1.00  0.00    -0.623 OA 
HETATM   55  N   UNL     1     -11.897   9.590  70.121  1.00  0.00    -0.071 NA 
HETATM   56  C   UNL     1     -11.733  11.017  70.481  1.00  0.00    -0.318 C  
HETATM   57  H   UNL     1     -13.468   9.922  72.061  1.00  0.00     0.000 HD 
BRANCH  47  58
HETATM   58  C   UNL     1     -12.050  15.312  70.594  1.00  0.00    -0.354 C  
HETATM   59  O   UNL     1     -10.655  15.468  70.869  1.00  0.00    -0.360 OA 
HETATM   60  H   UNL     1     -10.461  16.372  71.082  1.00  0.00     0.000 HD 
ENDBRANCH  47  58
ENDBRANCH  44  45
ENDBRANCH  40  44
ENDBRANCH  29  30
ENDBRANCH  22  29
ENDBRANCH  18  19
ENDBRANCH   7  18
ENDBRANCH   2   5
TORSDOF 9
ENDMDL
MODEL      101
REMARK 921   NORMALIZED FREE ENERGY PREDICTED BY IDOCK:   -5.85 KCAL/MOL
REMARK 922        TOTAL FREE ENERGY PREDICTED BY IDOCK:  -10.97 KCAL/MOL
REMARK 923 INTER-LIGAND FREE ENERGY PREDICTED BY IDOCK:   -8.56 KCAL/MOL
REMARK 924 INTRA-LIGAND FREE ENERGY PREDICTED BY IDOCK:   -2.41 KCAL/MOL
REMARK 927      BINDING AFFINITY PREDICTED BY RF-SCORE:    0.00 PKD
ROOT
HETATM    1  N   UNL     1      -8.561   6.515  72.511  1.00  0.00    -0.122 NA 
HETATM    2  C   UNL     1      -7.354   7.036  71.837  1.00  0.00    -0.086 C  
HETATM    3  H1  UNL     1      -8.428   6.533  73.522  1.00  0.00     0.000 HD 
HETATM    4  H2  UNL     1      -8.816   5.586  72.175  1.00  0.00     0.000 HD 
ENDROOT
BRANCH   2   5
HETATM    5  C   UNL     1      -7.554   7.009  70.313  1.00  0.00    -0.087 C  
HETATM    6  O   UNL     1      -8.564   7.985  70.000  1.00  0.00    -0.131 OA 
HETATM    7  C   UNL     1      -8.692   8.193  68.595  1.00  0.00    -0.134 C  
HETATM    8  C   UNL     1      -9.252   6.894  67.947  1.00  0.00    -0.124 C  
HETATM    9  O   UNL     1      -9.106   5.148  70.523  1.00  0.00    -0.133 OA 
HETATM   10  H   UNL     1      -9.366   4.296  70.194  1.00  0.00     0.000 HD 
HETATM   11  N   UNL     1     -10.630   6.604  68.444  1.00  0.00    -0.219 NA 
HETATM   12  C   UNL     1      -8.300   5.718  68.268  1.00  0.00    -0.107 C  
HETATM   13  H2  UNL     1     -11.257   7.397  68.302  1.00  0.00     0.000 HD 
HETATM   14  O   UNL     1      -7.099   5.799  67.489  1.00  0.00    -0.071 OA 
HETATM   15  C   UNL     1      -7.976   5.623  69.778  1.00  0.00    -0.098 C  
HETATM   16  H1  UNL     1     -10.997   5.752  68.019  1.00  0.00     0.000 HD 
HETATM   17  H   UNL     1      -6.515   5.077  67.686  1.00  0.00     0.000 HD 
BRANCH   7  18
HETATM   18  O   UNL     1      -9.591   9.269  68.312  1.00  0.00    -0.144 OA 
BRANCH  18  19
HETATM   19  C   UNL     1      -9.859  10.119  69.442  1.00  0.00    -0.229 C  
HETATM   20  O   UNL     1      -7.770  11.351  68.944  1.00  0.00    -0.138 OA 
HETATM   21  C   UNL     1     -11.322  10.543  69.325  1.00  0.00    -0.262 C  
HETATM   22  C   UNL     1     -10.031  12.324  68.554  1.00  0.00    -0.170 C  
HETATM   23  H   UNL     1      -7.306  12.179  68.931  1.00  0.00     0.000 HD 
HETATM   24  O   UNL     1     -11.352  11.781  68.599  1.00  0.00    -0.222 OA 
HETATM   25  C   UNL     1      -9.115  11.444  69.420  1.00  0.00     0.540 C  
BRANCH  21  26
HETATM   26  C   UNL     1     -12.014  10.758  70.671  1.00  0.00    -0.367 C  
HETATM   27  H   UNL     1     -12.777  12.265  71.695  1.00  0.00     0.000 HD 
HETATM   28  O   UNL     1     -12.347  12.132  70.859  1.00  0.00    -0.373 OA 
ENDBRANCH  21  26
BRANCH  22  29
HETATM   29  O   UNL     1     -10.012  13.650  69.073  1.00  0.00    -0.068 OA 
BRANCH  29  30
HETATM   30  C   UNL     1      -9.296  14.665  68.342  1.00  0.00    -0.201 C  
HETATM   31  C   UNL     1      -8.360  15.444  69.286  1.00  0.00    -0.254 C  
HETATM   32  O   UNL     1      -7.609  14.536  70.104  1.00  0.00    -0.367 OA 
HETATM   33  C   UNL     1      -7.400  16.329  68.482  1.00  0.00    -0.169 C  
HETATM   34  C   UNL     1      -8.210  17.353  67.687  1.00  0.00    -0.210 C  
HETATM   35  N   UNL     1      -6.436  17.008  69.369  1.00  0.00    -0.233 NA 
HETATM   36  H   UNL     1      -7.032  15.016  70.685  1.00  0.00     0.000 HD 
HETATM   37  H1  UNL     1      -5.797  17.596  68.835  1.00  0.00     0.000 HD 
HETATM   38  H2  UNL     1      -5.932  16.342  69.955  1.00  0.00     0.000 HD 
HETATM   39  C   UNL     1      -9.243  16.681  66.766  1.00  0.00    -0.238 C  
HETATM   40  C   UNL     1     -10.166  15.627  67.488  1.00  0.00    -0.263 C  
HETATM   41  N   UNL     1     -10.042  17.737  66.110  1.00  0.00    -0.470 NA 
HETATM   42  H2  UNL     1      -9.463  18.418  65.619  1.00  0.00     0.000 HD 
HETATM   43  H1  UNL     1     -10.727  17.291  65.500  1.00  0.00     0.000 HD 
BRANCH  40  44
HETATM   44  O   UNL     1     -10.932  14.975  66.448  1.00  0.00    -0.329 OA 
BRANCH  44  45
HETATM   45  C   UNL     1     -10.245  14.776  65.204  1.00  0.00    -0.377 C  
HETATM   46  O   UNL     1      -9.622  13.498  65.141  1.00  0.00     0.003 OA 
HETATM   47  C   UNL     1     -10.514  12.385  65.087  1.00  0.00    -0.292 C  
HETATM   48  C   UNL     1     -11.397  12.487  63.840  1.00  0.00    -0.438 C  
HETATM   49  H1  UNL     1     -12.494  16.442  63.186  1.00  0.00     0.000 HD 
HETATM   50  H2  UNL     1     -11.220  17.066  64.078  1.00  0.00     0.000 HD 
HETATM   51  O   UNL     1     -12.335  11.413  63.749  1.00  0.00    -0.359 OA 
HETATM   52  C   UNL     1     -12.154  13.822  63.851  1.00  0.00    -0.376 C  
HETATM   53  H   UNL     1     -12.883  11.475  62.976  1.00  0.00     0.000 HD 
HETATM   54  O   UNL     1     -12.908  13.956  62.634  1.00  0.00    -0.296 OA 
HETATM   55  N   UNL     1     -11.884  16.296  63.989  1.00  0.00    -0.904 NA 
HETATM   56  C   UNL     1     -11.173  14.997  63.983  1.00  0.00     0.445 C  
HETATM   57  H   UNL     1     -13.377  14.783  62.641  1.00  0.00     0.000 HD 
BRANCH  47  58
HETATM   58  C   UNL     1      -9.652  11.115  65.066  1.00  0.00    -0.239 C  
HETATM   59  O   UNL     1     -10.236  10.106  65.893  1.00  0.00    -0.254 OA 
HETATM   60  H   UNL     1      -9.703   9.320  65.881  1.00  0.00     0.000 HD 
ENDBRANCH  47  58
ENDBRANCH  44  45
ENDBRANCH  40  44
ENDBRANCH  29  30
ENDBRANCH  22  29
ENDBRANCH  18  19
ENDBRANCH   7  18
ENDBRANCH   2   5
TORSDOF 9
ENDMDL
MODEL      102
REMARK 921   NORMALIZED FREE ENERGY PREDICTED BY IDOCK:   -5.83 KCAL/MOL
REMARK 922        TOTAL FREE ENERGY PREDICTED BY IDOCK:  -10.94 KCAL/MOL
REMARK 923 INTER-LIGAND FREE ENERGY PREDICTED BY IDOCK:   -9.03 KCAL/MOL
REMARK 924 INTRA-LIGAND FREE ENERGY PREDICTED BY IDOCK:   -1.91 KCAL/MOL
REMARK 927      BINDING AFFINITY PREDICTED BY RF-SCORE:    0.00 PKD
ROOT
HETATM    1  N   UNL     1     -14.296   8.185  72.424  1.00  0.00    -0.654 NA 
HETATM    2  C   UNL     1     -13.660   7.218  71.506  1.00  0.00    -0.356 C  
HETATM    3  H1  UNL     1     -15.220   7.849  72.695  1.00  0.00     0.000 HD 
HETATM    4  H2  UNL     1     -14.331   9.124  72.027  1.00  0.00     0.000 HD 
ENDROOT
BRANCH   2   5
HETATM    5  C   UNL     1     -12.266   7.725  71.098  1.00  0.00    -0.268 C  
HETATM    6  O   UNL     1     -11.434   6.566  70.906  1.00  0.00    -0.312 OA 
HETATM    7  C   UNL     1     -10.173   6.901  70.330  1.00  0.00    -0.192 C  
HETATM    8  C   UNL     1      -9.364   7.745  71.357  1.00  0.00    -0.141 C  
HETATM    9  O   UNL     1     -11.667   8.041  73.433  1.00  0.00    -0.481 OA 
HETATM   10  H   UNL     1     -11.275   8.620  74.076  1.00  0.00     0.000 HD 
HETATM   11  N   UNL     1      -9.054   6.943  72.577  1.00  0.00    -0.132 NA 
HETATM   12  C   UNL     1     -10.178   9.006  71.728  1.00  0.00    -0.319 C  
HETATM   13  H2  UNL     1      -8.577   6.071  72.345  1.00  0.00     0.000 HD 
HETATM   14  O   UNL     1     -10.160   9.964  70.661  1.00  0.00    -0.344 OA 
HETATM   15  C   UNL     1     -11.629   8.665  72.143  1.00  0.00    -0.370 C  
HETATM   16  H1  UNL     1      -8.524   7.496  73.250  1.00  0.00     0.000 HD 
HETATM   17  H   UNL     1     -10.660  10.739  70.889  1.00  0.00     0.000 HD 
BRANCH   7  18
HETATM   18  O   UNL     1      -9.423   5.726  70.012  1.00  0.00    -0.152 OA 
BRANCH  18  19
HETATM   19  C   UNL     1      -9.989   4.941  68.947  1.00  0.00    -0.149 C  
HETATM   20  O   UNL     1     -10.929   7.018  67.984  1.00  0.00    -0.427 OA 
HETATM   21  C   UNL     1      -8.874   4.023  68.449  1.00  0.00    -0.107 C  
HETATM   22  C   UNL     1      -9.024   5.795  66.942  1.00  0.00    -0.114 C  
HETATM   23  H   UNL     1     -11.159   7.516  67.209  1.00  0.00     0.000 HD 
HETATM   24  O   UNL     1      -8.212   4.701  67.371  1.00  0.00    -0.101 OA 
HETATM   25  C   UNL     1     -10.357   5.738  67.707  1.00  0.00    -0.213 C  
BRANCH  21  26
HETATM   26  C   UNL     1      -9.369   2.670  67.935  1.00  0.00    -0.194 C  
HETATM   27  H   UNL     1      -8.799   1.313  66.619  1.00  0.00     0.000 HD 
HETATM   28  O   UNL     1      -8.492   2.152  66.938  1.00  0.00    -0.086 OA 
ENDBRANCH  21  26
BRANCH  22  29
HETATM   29  O   UNL     1      -9.297   5.705  65.547  1.00  0.00    -0.087 OA 
BRANCH  29  30
HETATM   30  C   UNL     1      -8.399   6.360  64.629  1.00  0.00    -0.009 C  
HETATM   31  C   UNL     1      -7.229   5.425  64.266  1.00  0.00    -0.055 C  
HETATM   32  O   UNL     1      -7.721   4.121  63.925  1.00  0.00    -0.079 OA 
HETATM   33  C   UNL     1      -6.427   5.997  63.092  1.00  0.00    -0.032 C  
HETATM   34  C   UNL     1      -5.831   7.344  63.501  1.00  0.00    -0.045 C  
HETATM   35  N   UNL     1      -5.361   5.066  62.673  1.00  0.00    -0.012 NA 
HETATM   36  H   UNL     1      -7.000   3.546  63.701  1.00  0.00     0.000 HD 
HETATM   37  H1  UNL     1      -4.827   5.446  61.892  1.00  0.00     0.000 HD 
HETATM   38  H2  UNL     1      -5.734   4.141  62.458  1.00  0.00     0.000 HD 
HETATM   39  C   UNL     1      -6.912   8.335  63.966  1.00  0.00    -0.075 C  
HETATM   40  C   UNL     1      -7.889   7.762  65.061  1.00  0.00    -0.125 C  
HETATM   41  N   UNL     1      -6.246   9.570  64.431  1.00  0.00    -0.080 NA 
HETATM   42  H2  UNL     1      -5.625   9.969  63.727  1.00  0.00     0.000 HD 
HETATM   43  H1  UNL     1      -6.963  10.226  64.739  1.00  0.00     0.000 HD 
BRANCH  40  44
HETATM   44  O   UNL     1      -8.933   8.748  65.235  1.00  0.00    -0.194 OA 
BRANCH  44  45
HETATM   45  C   UNL     1      -8.499  10.031  65.711  1.00  0.00    -0.138 C  
HETATM   46  O   UNL     1      -8.798  11.068  64.784  1.00  0.00    -0.144 OA 
HETATM   47  C   UNL     1     -10.186  11.350  64.608  1.00  0.00    -0.294 C  
HETATM   48  C   UNL     1     -10.802  11.784  65.940  1.00  0.00    -0.291 C  
HETATM   49  H1  UNL     1      -9.213   9.531  69.050  1.00  0.00     0.000 HD 
HETATM   50  H2  UNL     1      -7.837   9.103  68.194  1.00  0.00     0.000 HD 
HETATM   51  O   UNL     1     -12.202  12.050  65.832  1.00  0.00    -0.531 OA 
HETATM   52  C   UNL     1     -10.572  10.694  66.995  1.00  0.00    -0.262 C  
HETATM   53  H   UNL     1     -12.584  12.320  66.659  1.00  0.00     0.000 HD 
HETATM   54  O   UNL     1     -11.067  11.144  68.268  1.00  0.00    -0.211 OA 
HETATM   55  N   UNL     1      -8.833   9.314  68.128  1.00  0.00    -0.129 NA 
HETATM   56  C   UNL     1      -9.076  10.361  67.111  1.00  0.00    -0.139 C  
HETATM   57  H   UNL     1     -10.925  10.469  68.921  1.00  0.00     0.000 HD 
BRANCH  47  58
HETATM   58  C   UNL     1     -10.292  12.456  63.549  1.00  0.00    -0.362 C  
HETATM   59  O   UNL     1     -11.583  12.431  62.933  1.00  0.00    -0.625 OA 
HETATM   60  H   UNL     1     -11.649  13.116  62.278  1.00  0.00     0.000 HD 
ENDBRANCH  47  58
ENDBRANCH  44  45
ENDBRANCH  40  44
ENDBRANCH  29  30
ENDBRANCH  22  29
ENDBRANCH  18  19
ENDBRANCH   7  18
ENDBRANCH   2   5
TORSDOF 9
ENDMDL
MODEL      103
REMARK 921   NORMALIZED FREE ENERGY PREDICTED BY IDOCK:   -5.82 KCAL/MOL
REMARK 922        TOTAL FREE ENERGY PREDICTED BY IDOCK:  -10.93 KCAL/MOL
REMARK 923 INTER-LIGAND FREE ENERGY PREDICTED BY IDOCK:   -8.44 KCAL/MOL
REMARK 924 INTRA-LIGAND FREE ENERGY PREDICTED BY IDOCK:   -2.49 KCAL/MOL
REMARK 927      BINDING AFFINITY PREDICTED BY RF-SCORE:    0.00 PKD
ROOT
HETATM    1  N   UNL     1     -12.388  13.904  66.592  1.00  0.00    -0.452 NA 
HETATM    2  C   UNL     1     -12.030  12.811  65.665  1.00  0.00    -0.452 C  
HETATM    3  H1  UNL     1     -13.244  14.360  66.275  1.00  0.00     0.000 HD 
HETATM    4  H2  UNL     1     -11.623  14.567  66.717  1.00  0.00     0.000 HD 
ENDROOT
BRANCH   2   5
HETATM    5  C   UNL     1     -10.740  12.123  66.143  1.00  0.00    -0.272 C  
HETATM    6  O   UNL     1     -10.881  11.894  67.557  1.00  0.00    -0.219 OA 
HETATM    7  C   UNL     1      -9.831  11.080  68.076  1.00  0.00    -0.171 C  
HETATM    8  C   UNL     1      -8.494  11.870  67.983  1.00  0.00    -0.162 C  
HETATM    9  O   UNL     1      -9.644  14.280  66.379  1.00  0.00    -0.282 OA 
HETATM   10  H   UNL     1      -8.861  14.791  66.209  1.00  0.00     0.000 HD 
HETATM   11  N   UNL     1      -8.534  13.085  68.850  1.00  0.00    -0.351 NA 
HETATM   12  C   UNL     1      -8.240  12.263  66.509  1.00  0.00     0.116 C  
HETATM   13  H2  UNL     1      -8.769  12.853  69.815  1.00  0.00     0.000 HD 
HETATM   14  O   UNL     1      -7.827  11.127  65.737  1.00  0.00    -0.352 OA 
HETATM   15  C   UNL     1      -9.468  12.952  65.867  1.00  0.00    -0.049 C  
HETATM   16  H1  UNL     1      -7.658  13.604  68.789  1.00  0.00     0.000 HD 
HETATM   17  H   UNL     1      -7.671  11.368  64.831  1.00  0.00     0.000 HD 
BRANCH   7  18
HETATM   18  O   UNL     1     -10.068  10.742  69.445  1.00  0.00    -0.212 OA 
BRANCH  18  19
HETATM   19  C   UNL     1     -11.348  10.130  69.684  1.00  0.00    -0.235 C  
HETATM   20  O   UNL     1     -10.953   8.664  67.729  1.00  0.00    -0.497 OA 
HETATM   21  C   UNL     1     -11.403   9.813  71.176  1.00  0.00    -0.389 C  
HETATM   22  C   UNL     1     -10.890   7.824  70.074  1.00  0.00    -0.241 C  
HETATM   23  H   UNL     1     -11.061   7.811  67.324  1.00  0.00     0.000 HD 
HETATM   24  O   UNL     1     -10.918   8.472  71.347  1.00  0.00    -0.237 OA 
HETATM   25  C   UNL     1     -11.522   8.766  69.037  1.00  0.00     0.712 C  
BRANCH  21  26
HETATM   26  C   UNL     1     -12.808   9.896  71.777  1.00  0.00    -0.442 C  
HETATM   27  H   UNL     1     -13.824   9.034  73.234  1.00  0.00     0.000 HD 
HETATM   28  O   UNL     1     -12.953   8.982  72.861  1.00  0.00    -0.328 OA 
ENDBRANCH  21  26
BRANCH  22  29
HETATM   29  O   UNL     1     -11.640   6.614  70.107  1.00  0.00    -0.382 OA 
BRANCH  29  30
HETATM   30  C   UNL     1     -11.070   5.470  70.772  1.00  0.00    -0.031 C  
HETATM   31  C   UNL     1     -10.990   5.719  72.291  1.00  0.00    -0.262 C  
HETATM   32  O   UNL     1     -12.236   6.238  72.776  1.00  0.00    -0.498 OA 
HETATM   33  C   UNL     1     -10.648   4.422  73.032  1.00  0.00    -0.195 C  
HETATM   34  C   UNL     1      -9.276   3.929  72.573  1.00  0.00    -0.149 C  
HETATM   35  N   UNL     1     -10.662   4.626  74.494  1.00  0.00    -0.345 NA 
HETATM   36  H   UNL     1     -12.187   6.391  73.712  1.00  0.00     0.000 HD 
HETATM   37  H1  UNL     1     -10.434   3.763  74.987  1.00  0.00     0.000 HD 
HETATM   38  H2  UNL     1     -11.550   5.016  74.810  1.00  0.00     0.000 HD 
HETATM   39  C   UNL     1      -9.216   3.727  71.049  1.00  0.00    -0.130 C  
HETATM   40  C   UNL     1      -9.713   4.964  70.211  1.00  0.00    -0.217 C  
HETATM   41  N   UNL     1      -7.837   3.345  70.681  1.00  0.00    -0.043 NA 
HETATM   42  H2  UNL     1      -7.505   2.530  71.199  1.00  0.00     0.000 HD 
HETATM   43  H1  UNL     1      -7.798   3.210  69.671  1.00  0.00     0.000 HD 
BRANCH  40  44
HETATM   44  O   UNL     1      -9.762   4.531  68.831  1.00  0.00    -0.164 OA 
BRANCH  44  45
HETATM   45  C   UNL     1      -9.009   5.327  67.905  1.00  0.00    -0.109 C  
HETATM   46  O   UNL     1      -7.709   4.793  67.683  1.00  0.00    -0.085 OA 
HETATM   47  C   UNL     1      -7.669   3.546  66.993  1.00  0.00    -0.080 C  
HETATM   48  C   UNL     1      -8.305   3.697  65.608  1.00  0.00    -0.105 C  
HETATM   49  H1  UNL     1     -11.627   6.186  65.827  1.00  0.00     0.000 HD 
HETATM   50  H2  UNL     1     -11.130   6.920  67.250  1.00  0.00     0.000 HD 
HETATM   51  O   UNL     1      -8.324   2.467  64.880  1.00  0.00    -0.086 OA 
HETATM   52  C   UNL     1      -9.740   4.221  65.754  1.00  0.00    -0.207 C  
HETATM   53  H   UNL     1      -8.718   2.561  64.021  1.00  0.00     0.000 HD 
HETATM   54  O   UNL     1     -10.302   4.453  64.450  1.00  0.00    -0.401 OA 
HETATM   55  N   UNL     1     -11.134   6.054  66.710  1.00  0.00    -0.236 NA 
HETATM   56  C   UNL     1      -9.757   5.528  66.563  1.00  0.00    -0.162 C  
HETATM   57  H   UNL     1     -11.190   4.778  64.540  1.00  0.00     0.000 HD 
BRANCH  47  58
HETATM   58  C   UNL     1      -6.195   3.129  66.894  1.00  0.00    -0.025 C  
HETATM   59  O   UNL     1      -5.630   2.992  68.201  1.00  0.00    -0.017 OA 
HETATM   60  H   UNL     1      -4.718   2.734  68.140  1.00  0.00     0.000 HD 
ENDBRANCH  47  58
ENDBRANCH  44  45
ENDBRANCH  40  44
ENDBRANCH  29  30
ENDBRANCH  22  29
ENDBRANCH  18  19
ENDBRANCH   7  18
ENDBRANCH   2   5
TORSDOF 9
ENDMDL
MODEL      104
REMARK 921   NORMALIZED FREE ENERGY PREDICTED BY IDOCK:   -5.82 KCAL/MOL
REMARK 922        TOTAL FREE ENERGY PREDICTED BY IDOCK:  -10.92 KCAL/MOL
REMARK 923 INTER-LIGAND FREE ENERGY PREDICTED BY IDOCK:  -10.34 KCAL/MOL
REMARK 924 INTRA-LIGAND FREE ENERGY PREDICTED BY IDOCK:   -0.58 KCAL/MOL
REMARK 927      BINDING AFFINITY PREDICTED BY RF-SCORE:    0.00 PKD
ROOT
HETATM    1  N   UNL     1     -10.436   5.873  68.484  1.00  0.00    -0.215 NA 
HETATM    2  C   UNL     1     -10.316   5.735  67.019  1.00  0.00    -0.250 C  
HETATM    3  H1  UNL     1     -11.241   5.342  68.817  1.00  0.00     0.000 HD 
HETATM    4  H2  UNL     1     -10.473   6.850  68.776  1.00  0.00     0.000 HD 
ENDROOT
BRANCH   2   5
HETATM    5  C   UNL     1      -9.102   6.535  66.517  1.00  0.00    -0.152 C  
HETATM    6  O   UNL     1      -9.595   7.803  66.047  1.00  0.00    -0.087 OA 
HETATM    7  C   UNL     1      -8.538   8.710  65.742  1.00  0.00    -0.163 C  
HETATM    8  C   UNL     1      -7.752   8.167  64.514  1.00  0.00    -0.121 C  
HETATM    9  O   UNL     1      -9.237   5.433  64.353  1.00  0.00    -0.357 OA 
HETATM   10  H   UNL     1      -8.758   4.994  63.660  1.00  0.00     0.000 HD 
HETATM   11  N   UNL     1      -8.621   8.131  63.301  1.00  0.00    -0.408 NA 
HETATM   12  C   UNL     1      -7.217   6.753  64.842  1.00  0.00    -0.075 C  
HETATM   13  H2  UNL     1      -9.038   9.042  63.108  1.00  0.00     0.000 HD 
HETATM   14  O   UNL     1      -6.107   6.818  65.747  1.00  0.00    -0.036 OA 
HETATM   15  C   UNL     1      -8.325   5.821  65.390  1.00  0.00    -0.142 C  
HETATM   16  H1  UNL     1      -8.105   7.774  62.496  1.00  0.00     0.000 HD 
HETATM   17  H   UNL     1      -5.779   5.949  65.948  1.00  0.00     0.000 HD 
BRANCH   7  18
HETATM   18  O   UNL     1      -9.047  10.007  65.421  1.00  0.00    -0.167 OA 
BRANCH  18  19
HETATM   19  C   UNL     1      -9.843  10.599  66.464  1.00  0.00    -0.204 C  
HETATM   20  O   UNL     1      -7.925  10.332  68.006  1.00  0.00    -0.100 OA 
HETATM   21  C   UNL     1     -10.476  11.852  65.864  1.00  0.00    -0.258 C  
HETATM   22  C   UNL     1      -8.656  12.552  67.141  1.00  0.00    -0.200 C  
HETATM   23  H   UNL     1      -7.423  10.674  68.736  1.00  0.00     0.000 HD 
HETATM   24  O   UNL     1      -9.596  12.952  66.143  1.00  0.00    -0.260 OA 
HETATM   25  C   UNL     1      -9.039  11.146  67.632  1.00  0.00    -0.147 C  
BRANCH  21  26
HETATM   26  C   UNL     1     -11.856  12.184  66.436  1.00  0.00    -0.246 C  
HETATM   27  H   UNL     1     -13.569  12.917  65.781  1.00  0.00     0.000 HD 
HETATM   28  O   UNL     1     -12.713  12.711  65.426  1.00  0.00    -0.635 OA 
ENDBRANCH  21  26
BRANCH  22  29
HETATM   29  O   UNL     1      -8.687  13.445  68.251  1.00  0.00    -0.176 OA 
BRANCH  29  30
HETATM   30  C   UNL     1      -9.576  14.577  68.196  1.00  0.00    -0.212 C  
HETATM   31  C   UNL     1      -8.971  15.689  67.316  1.00  0.00    -0.199 C  
HETATM   32  O   UNL     1      -8.490  15.141  66.082  1.00  0.00    -0.388 OA 
HETATM   33  C   UNL     1     -10.015  16.774  67.027  1.00  0.00    -0.269 C  
HETATM   34  C   UNL     1     -10.452  17.414  68.344  1.00  0.00    -0.384 C  
HETATM   35  N   UNL     1      -9.478  17.796  66.108  1.00  0.00    -0.501 NA 
HETATM   36  H   UNL     1      -8.118  15.826  65.540  1.00  0.00     0.000 HD 
HETATM   37  H1  UNL     1     -10.172  18.518  65.915  1.00  0.00     0.000 HD 
HETATM   38  H2  UNL     1      -9.122  17.378  65.248  1.00  0.00     0.000 HD 
HETATM   39  C   UNL     1     -10.997  16.373  69.338  1.00  0.00    -0.325 C  
HETATM   40  C   UNL     1     -10.050  15.135  69.565  1.00  0.00    -0.214 C  
HETATM   41  N   UNL     1     -11.305  17.058  70.611  1.00  0.00    -0.072 NA 
HETATM   42  H2  UNL     1     -11.935  17.850  70.487  1.00  0.00     0.000 HD 
HETATM   43  H1  UNL     1     -11.667  16.368  71.268  1.00  0.00     0.000 HD 
BRANCH  40  44
HETATM   44  O   UNL     1     -10.796  14.191  70.368  1.00  0.00     0.222 OA 
BRANCH  44  45
HETATM   45  C   UNL     1     -12.100  13.853  69.874  1.00  0.00    -0.344 C  
HETATM   46  O   UNL     1     -12.133  12.543  69.320  1.00  0.00    -0.256 OA 
HETATM   47  C   UNL     1     -11.963  11.478  70.255  1.00  0.00    -0.368 C  
HETATM   48  C   UNL     1     -13.079  11.522  71.301  1.00  0.00    -0.184 C  
HETATM   49  H1  UNL     1     -13.931  15.461  72.317  1.00  0.00     0.000 HD 
HETATM   50  H2  UNL     1     -13.283  16.089  70.904  1.00  0.00     0.000 HD 
HETATM   51  O   UNL     1     -12.942  10.496  72.287  1.00  0.00    -0.471 OA 
HETATM   52  C   UNL     1     -13.085  12.892  71.993  1.00  0.00    -0.379 C  
HETATM   53  H   UNL     1     -13.635  10.523  72.936  1.00  0.00     0.000 HD 
HETATM   54  O   UNL     1     -14.193  12.964  72.908  1.00  0.00    -0.570 OA 
HETATM   55  N   UNL     1     -13.209  15.351  71.605  1.00  0.00    -0.444 NA 
HETATM   56  C   UNL     1     -13.197  14.020  70.956  1.00  0.00    -0.227 C  
HETATM   57  H   UNL     1     -14.196  13.812  73.336  1.00  0.00     0.000 HD 
BRANCH  47  58
HETATM   58  C   UNL     1     -11.988  10.167  69.457  1.00  0.00     0.070 C  
HETATM   59  O   UNL     1     -11.593   9.073  70.290  1.00  0.00    -0.431 OA 
HETATM   60  H   UNL     1     -11.608   8.261  69.797  1.00  0.00     0.000 HD 
ENDBRANCH  47  58
ENDBRANCH  44  45
ENDBRANCH  40  44
ENDBRANCH  29  30
ENDBRANCH  22  29
ENDBRANCH  18  19
ENDBRANCH   7  18
ENDBRANCH   2   5
TORSDOF 9
ENDMDL
MODEL      105
REMARK 921   NORMALIZED FREE ENERGY PREDICTED BY IDOCK:   -5.81 KCAL/MOL
REMARK 922        TOTAL FREE ENERGY PREDICTED BY IDOCK:  -10.92 KCAL/MOL
REMARK 923 INTER-LIGAND FREE ENERGY PREDICTED BY IDOCK:   -8.59 KCAL/MOL
REMARK 924 INTRA-LIGAND FREE ENERGY PREDICTED BY IDOCK:   -2.32 KCAL/MOL
REMARK 927      BINDING AFFINITY PREDICTED BY RF-SCORE:    0.00 PKD
ROOT
HETATM    1  N   UNL     1     -11.965  15.014  68.196  1.00  0.00    -0.538 NA 
HETATM    2  C   UNL     1     -11.006  14.763  67.102  1.00  0.00    -0.320 C  
HETATM    3  H1  UNL     1     -11.703  15.861  68.700  1.00  0.00     0.000 HD 
HETATM    4  H2  UNL     1     -12.056  14.211  68.818  1.00  0.00     0.000 HD 
ENDROOT
BRANCH   2   5
HETATM    5  C   UNL     1     -11.403  13.486  66.342  1.00  0.00    -0.316 C  
HETATM    6  O   UNL     1     -10.417  12.484  66.654  1.00  0.00    -0.231 OA 
HETATM    7  C   UNL     1     -10.789  11.196  66.167  1.00  0.00    -0.185 C  
HETATM    8  C   UNL     1     -10.773  11.227  64.611  1.00  0.00    -0.303 C  
HETATM    9  O   UNL     1     -10.273  14.290  64.345  1.00  0.00    -0.618 OA 
HETATM   10  H   UNL     1     -10.324  14.414  63.404  1.00  0.00     0.000 HD 
HETATM   11  N   UNL     1      -9.393  11.474  64.099  1.00  0.00    -0.425 NA 
HETATM   12  C   UNL     1     -11.741  12.328  64.118  1.00  0.00    -0.402 C  
HETATM   13  H2  UNL     1      -8.726  10.797  64.469  1.00  0.00     0.000 HD 
HETATM   14  O   UNL     1     -13.107  11.921  64.271  1.00  0.00    -0.578 OA 
HETATM   15  C   UNL     1     -11.486  13.686  64.814  1.00  0.00    -0.352 C  
HETATM   16  H1  UNL     1      -9.383  11.495  63.079  1.00  0.00     0.000 HD 
HETATM   17  H   UNL     1     -13.702  12.597  63.968  1.00  0.00     0.000 HD 
BRANCH   7  18
HETATM   18  O   UNL     1      -9.874  10.192  66.613  1.00  0.00    -0.183 OA 
BRANCH  18  19
HETATM   19  C   UNL     1      -8.781  10.703  67.398  1.00  0.00    -0.125 C  
HETATM   20  O   UNL     1      -9.745   9.576  69.379  1.00  0.00    -0.166 OA 
HETATM   21  C   UNL     1      -7.509  10.415  66.604  1.00  0.00    -0.114 C  
HETATM   22  C   UNL     1      -7.663   8.784  68.262  1.00  0.00    -0.100 C  
HETATM   23  H   UNL     1      -9.597   9.113  70.196  1.00  0.00     0.000 HD 
HETATM   24  O   UNL     1      -7.009   9.143  67.043  1.00  0.00    -0.079 OA 
HETATM   25  C   UNL     1      -8.546   9.963  68.703  1.00  0.00    -0.119 C  
BRANCH  21  26
HETATM   26  C   UNL     1      -6.407  11.458  66.799  1.00  0.00    -0.142 C  
HETATM   27  H   UNL     1      -4.759  12.030  65.873  1.00  0.00     0.000 HD 
HETATM   28  O   UNL     1      -5.442  11.382  65.752  1.00  0.00    -0.239 OA 
ENDBRANCH  21  26
BRANCH  22  29
HETATM   29  O   UNL     1      -6.711   8.519  69.287  1.00  0.00    -0.048 OA 
BRANCH  29  30
HETATM   30  C   UNL     1      -7.151   7.826  70.471  1.00  0.00    -0.047 C  
HETATM   31  C   UNL     1      -6.648   8.551  71.734  1.00  0.00    -0.072 C  
HETATM   32  O   UNL     1      -6.903   9.959  71.634  1.00  0.00    -0.157 OA 
HETATM   33  C   UNL     1      -7.332   7.990  72.986  1.00  0.00    -0.110 C  
HETATM   34  C   UNL     1      -6.976   6.511  73.131  1.00  0.00    -0.077 C  
HETATM   35  N   UNL     1      -6.930   8.740  74.192  1.00  0.00    -0.371 NA 
HETATM   36  H   UNL     1      -6.593  10.406  72.413  1.00  0.00     0.000 HD 
HETATM   37  H1  UNL     1      -7.385   8.367  75.025  1.00  0.00     0.000 HD 
HETATM   38  H2  UNL     1      -7.101   9.740  74.086  1.00  0.00     0.000 HD 
HETATM   39  C   UNL     1      -7.361   5.700  71.881  1.00  0.00    -0.093 C  
HETATM   40  C   UNL     1      -6.832   6.307  70.527  1.00  0.00    -0.062 C  
HETATM   41  N   UNL     1      -6.899   4.309  72.066  1.00  0.00    -0.040 NA 
HETATM   42  H2  UNL     1      -7.249   3.891  72.928  1.00  0.00     0.000 HD 
HETATM   43  H1  UNL     1      -7.154   3.772  71.237  1.00  0.00     0.000 HD 
BRANCH  40  44
HETATM   44  O   UNL     1      -7.438   5.531  69.467  1.00  0.00    -0.068 OA 
BRANCH  44  45
HETATM   45  C   UNL     1      -8.787   5.106  69.704  1.00  0.00    -0.102 C  
HETATM   46  O   UNL     1      -9.734   6.043  69.204  1.00  0.00    -0.132 OA 
HETATM   47  C   UNL     1      -9.782   6.165  67.783  1.00  0.00    -0.116 C  
HETATM   48  C   UNL     1     -10.152   4.818  67.157  1.00  0.00    -0.168 C  
HETATM   49  H1  UNL     1      -8.281   1.728  69.213  1.00  0.00     0.000 HD 
HETATM   50  H2  UNL     1      -8.056   2.633  70.606  1.00  0.00     0.000 HD 
HETATM   51  O   UNL     1     -10.183   4.871  65.729  1.00  0.00    -0.299 OA 
HETATM   52  C   UNL     1      -9.145   3.749  67.602  1.00  0.00    -0.158 C  
HETATM   53  H   UNL     1     -10.413   4.035  65.341  1.00  0.00     0.000 HD 
HETATM   54  O   UNL     1      -9.549   2.466  67.092  1.00  0.00    -0.407 OA 
HETATM   55  N   UNL     1      -8.100   2.660  69.587  1.00  0.00    -0.041 NA 
HETATM   56  C   UNL     1      -9.063   3.690  69.136  1.00  0.00    -0.137 C  
HETATM   57  H   UNL     1      -8.926   1.804  67.367  1.00  0.00     0.000 HD 
BRANCH  47  58
HETATM   58  C   UNL     1     -10.823   7.245  67.456  1.00  0.00    -0.214 C  
HETATM   59  O   UNL     1     -10.647   7.714  66.116  1.00  0.00    -0.138 OA 
HETATM   60  H   UNL     1     -11.292   8.382  65.914  1.00  0.00     0.000 HD 
ENDBRANCH  47  58
ENDBRANCH  44  45
ENDBRANCH  40  44
ENDBRANCH  29  30
ENDBRANCH  22  29
ENDBRANCH  18  19
ENDBRANCH   7  18
ENDBRANCH   2   5
TORSDOF 9
ENDMDL
MODEL      106
REMARK 921   NORMALIZED FREE ENERGY PREDICTED BY IDOCK:   -5.81 KCAL/MOL
REMARK 922        TOTAL FREE ENERGY PREDICTED BY IDOCK:  -10.90 KCAL/MOL
REMARK 923 INTER-LIGAND FREE ENERGY PREDICTED BY IDOCK:  -10.05 KCAL/MOL
REMARK 924 INTRA-LIGAND FREE ENERGY PREDICTED BY IDOCK:   -0.85 KCAL/MOL
REMARK 927      BINDING AFFINITY PREDICTED BY RF-SCORE:    0.00 PKD
ROOT
HETATM    1  N   UNL     1     -10.708  18.336  65.121  1.00  0.00    -0.517 NA 
HETATM    2  C   UNL     1      -9.922  19.120  66.095  1.00  0.00    -0.381 C  
HETATM    3  H1  UNL     1     -11.607  18.789  64.957  1.00  0.00     0.000 HD 
HETATM    4  H2  UNL     1     -10.815  17.363  65.409  1.00  0.00     0.000 HD 
ENDROOT
BRANCH   2   5
HETATM    5  C   UNL     1      -8.566  18.437  66.343  1.00  0.00    -0.247 C  
HETATM    6  O   UNL     1      -8.536  18.045  67.727  1.00  0.00    -0.240 OA 
HETATM    7  C   UNL     1      -7.410  17.223  68.027  1.00  0.00    -0.192 C  
HETATM    8  C   UNL     1      -6.116  18.075  67.879  1.00  0.00    -0.162 C  
HETATM    9  O   UNL     1      -7.514  20.599  66.706  1.00  0.00    -0.415 OA 
HETATM   10  H   UNL     1      -6.771  21.159  66.510  1.00  0.00     0.000 HD 
HETATM   11  N   UNL     1      -6.092  19.182  68.881  1.00  0.00    -0.226 NA 
HETATM   12  C   UNL     1      -6.046  18.641  66.442  1.00  0.00    -0.160 C  
HETATM   13  H2  UNL     1      -6.206  18.832  69.832  1.00  0.00     0.000 HD 
HETATM   14  O   UNL     1      -5.691  17.619  65.501  1.00  0.00    -0.096 OA 
HETATM   15  C   UNL     1      -7.359  19.346  66.026  1.00  0.00    -0.290 C  
HETATM   16  H1  UNL     1      -5.244  19.740  68.783  1.00  0.00     0.000 HD 
HETATM   17  H   UNL     1      -5.648  17.967  64.618  1.00  0.00     0.000 HD 
BRANCH   7  18
HETATM   18  O   UNL     1      -7.477  16.724  69.366  1.00  0.00    -0.199 OA 
BRANCH  18  19
HETATM   19  C   UNL     1      -7.571  15.290  69.451  1.00  0.00    -0.219 C  
HETATM   20  O   UNL     1     -10.031  15.492  69.278  1.00  0.00    -0.228 OA 
HETATM   21  C   UNL     1      -6.542  14.732  68.471  1.00  0.00    -0.094 C  
HETATM   22  C   UNL     1      -8.622  14.597  67.428  1.00  0.00    -0.199 C  
HETATM   23  H   UNL     1     -10.850  15.132  68.957  1.00  0.00     0.000 HD 
HETATM   24  O   UNL     1      -7.211  14.532  67.216  1.00  0.00    -0.177 OA 
HETATM   25  C   UNL     1      -8.880  14.715  68.939  1.00  0.00    -0.136 C  
BRANCH  21  26
HETATM   26  C   UNL     1      -5.930  13.399  68.906  1.00  0.00    -0.079 C  
HETATM   27  H   UNL     1      -5.022  11.865  68.058  1.00  0.00     0.000 HD 
HETATM   28  O   UNL     1      -5.402  12.691  67.787  1.00  0.00    -0.091 OA 
ENDBRANCH  21  26
BRANCH  22  29
HETATM   29  O   UNL     1      -9.259  13.417  66.948  1.00  0.00    -0.236 OA 
BRANCH  29  30
HETATM   30  C   UNL     1      -9.831  13.435  65.625  1.00  0.00    -0.163 C  
HETATM   31  C   UNL     1     -11.019  14.415  65.570  1.00  0.00    -0.329 C  
HETATM   32  O   UNL     1     -10.662  15.666  66.174  1.00  0.00    -0.311 OA 
HETATM   33  C   UNL     1     -11.456  14.650  64.119  1.00  0.00    -0.022 C  
HETATM   34  C   UNL     1     -11.923  13.325  63.516  1.00  0.00    -0.537 C  
HETATM   35  N   UNL     1     -12.531  15.659  64.045  1.00  0.00    -0.812 NA 
HETATM   36  H   UNL     1     -11.393  16.270  66.140  1.00  0.00     0.000 HD 
HETATM   37  H1  UNL     1     -12.822  15.815  63.081  1.00  0.00     0.000 HD 
HETATM   38  H2  UNL     1     -12.260  16.530  64.501  1.00  0.00     0.000 HD 
HETATM   39  C   UNL     1     -10.835  12.240  63.597  1.00  0.00    -0.469 C  
HETATM   40  C   UNL     1     -10.212  12.052  65.031  1.00  0.00    -0.276 C  
HETATM   41  N   UNL     1     -11.397  10.974  63.082  1.00  0.00    -0.580 NA 
HETATM   42  H2  UNL     1     -11.786  11.071  62.144  1.00  0.00     0.000 HD 
HETATM   43  H1  UNL     1     -10.676  10.256  63.136  1.00  0.00     0.000 HD 
BRANCH  40  44
HETATM   44  O   UNL     1      -9.098  11.142  64.878  1.00  0.00    -0.179 OA 
BRANCH  44  45
HETATM   45  C   UNL     1      -8.476  10.713  66.098  1.00  0.00    -0.159 C  
HETATM   46  O   UNL     1      -9.379   9.991  66.927  1.00  0.00    -0.154 OA 
HETATM   47  C   UNL     1      -9.788   8.720  66.424  1.00  0.00    -0.282 C  
HETATM   48  C   UNL     1      -8.567   7.815  66.241  1.00  0.00    -0.150 C  
HETATM   49  H1  UNL     1      -5.359  10.023  64.787  1.00  0.00     0.000 HD 
HETATM   50  H2  UNL     1      -5.974  11.488  65.321  1.00  0.00     0.000 HD 
HETATM   51  O   UNL     1      -8.913   6.535  65.707  1.00  0.00    -0.279 OA 
HETATM   52  C   UNL     1      -7.555   8.496  65.310  1.00  0.00    -0.089 C  
HETATM   53  H   UNL     1      -8.155   5.974  65.594  1.00  0.00     0.000 HD 
HETATM   54  O   UNL     1      -6.369   7.688  65.215  1.00  0.00    -0.038 OA 
HETATM   55  N   UNL     1      -6.207  10.564  64.957  1.00  0.00    -0.102 NA 
HETATM   56  C   UNL     1      -7.188   9.891  65.840  1.00  0.00    -0.108 C  
HETATM   57  H   UNL     1      -5.742   8.110  64.639  1.00  0.00     0.000 HD 
BRANCH  47  58
HETATM   58  C   UNL     1     -10.781   8.131  67.436  1.00  0.00    -0.177 C  
HETATM   59  O   UNL     1     -11.646   7.192  66.793  1.00  0.00    -0.250 OA 
HETATM   60  H   UNL     1     -12.260   6.827  67.419  1.00  0.00     0.000 HD 
ENDBRANCH  47  58
ENDBRANCH  44  45
ENDBRANCH  40  44
ENDBRANCH  29  30
ENDBRANCH  22  29
ENDBRANCH  18  19
ENDBRANCH   7  18
ENDBRANCH   2   5
TORSDOF 9
ENDMDL
MODEL      107
REMARK 921   NORMALIZED FREE ENERGY PREDICTED BY IDOCK:   -5.77 KCAL/MOL
REMARK 922        TOTAL FREE ENERGY PREDICTED BY IDOCK:  -10.86 KCAL/MOL
REMARK 923 INTER-LIGAND FREE ENERGY PREDICTED BY IDOCK:   -8.71 KCAL/MOL
REMARK 924 INTRA-LIGAND FREE ENERGY PREDICTED BY IDOCK:   -2.15 KCAL/MOL
REMARK 927      BINDING AFFINITY PREDICTED BY RF-SCORE:    0.00 PKD
ROOT
HETATM    1  N   UNL     1      -6.257  15.431  68.305  1.00  0.00    -0.109 NA 
HETATM    2  C   UNL     1      -7.227  15.853  69.336  1.00  0.00    -0.214 C  
HETATM    3  H1  UNL     1      -5.307  15.514  68.668  1.00  0.00     0.000 HD 
HETATM    4  H2  UNL     1      -6.380  15.942  67.431  1.00  0.00     0.000 HD 
ENDROOT
BRANCH   2   5
HETATM    5  C   UNL     1      -8.659  15.726  68.790  1.00  0.00    -0.203 C  
HETATM    6  O   UNL     1      -8.559  15.170  67.466  1.00  0.00    -0.163 OA 
HETATM    7  C   UNL     1      -9.835  14.819  66.935  1.00  0.00    -0.243 C  
HETATM    8  C   UNL     1     -10.655  16.121  66.704  1.00  0.00    -0.274 C  
HETATM    9  O   UNL     1      -8.613  18.045  68.057  1.00  0.00    -0.251 OA 
HETATM   10  H   UNL     1      -9.078  18.873  68.028  1.00  0.00     0.000 HD 
HETATM   11  N   UNL     1     -10.006  16.982  65.671  1.00  0.00    -0.578 NA 
HETATM   12  C   UNL     1     -10.782  16.882  68.044  1.00  0.00    -0.364 C  
HETATM   13  H2  UNL     1      -9.852  16.474  64.800  1.00  0.00     0.000 HD 
HETATM   14  O   UNL     1     -11.719  16.237  68.918  1.00  0.00    -0.313 OA 
HETATM   15  C   UNL     1      -9.414  17.071  68.742  1.00  0.00    -0.263 C  
HETATM   16  H1  UNL     1     -10.544  17.836  65.520  1.00  0.00     0.000 HD 
HETATM   17  H   UNL     1     -11.797  16.705  69.741  1.00  0.00     0.000 HD 
BRANCH   7  18
HETATM   18  O   UNL     1      -9.703  14.135  65.686  1.00  0.00    -0.271 OA 
BRANCH  18  19
HETATM   19  C   UNL     1     -10.641  13.059  65.506  1.00  0.00    -0.282 C  
HETATM   20  O   UNL     1      -9.544  12.530  63.351  1.00  0.00    -0.622 OA 
HETATM   21  C   UNL     1     -10.674  12.291  66.826  1.00  0.00    -0.240 C  
HETATM   22  C   UNL     1      -9.322  11.079  65.365  1.00  0.00    -0.216 C  
HETATM   23  H   UNL     1      -9.269  11.870  62.726  1.00  0.00     0.000 HD 
HETATM   24  O   UNL     1      -9.704  11.237  66.732  1.00  0.00    -0.189 OA 
HETATM   25  C   UNL     1     -10.201  12.003  64.506  1.00  0.00    -0.286 C  
BRANCH  21  26
HETATM   26  C   UNL     1     -12.033  11.667  67.146  1.00  0.00     0.193 C  
HETATM   27  H   UNL     1     -12.942  10.874  68.710  1.00  0.00     0.000 HD 
HETATM   28  O   UNL     1     -12.099  11.261  68.511  1.00  0.00    -0.573 OA 
ENDBRANCH  21  26
BRANCH  22  29
HETATM   29  O   UNL     1      -9.520   9.735  64.937  1.00  0.00    -0.264 OA 
BRANCH  29  30
HETATM   30  C   UNL     1      -8.394   8.837  64.949  1.00  0.00    -0.170 C  
HETATM   31  C   UNL     1      -7.555   9.015  63.668  1.00  0.00    -0.115 C  
HETATM   32  O   UNL     1      -7.314  10.408  63.420  1.00  0.00    -0.251 OA 
HETATM   33  C   UNL     1      -6.218   8.275  63.792  1.00  0.00    -0.072 C  
HETATM   34  C   UNL     1      -6.488   6.780  63.963  1.00  0.00    -0.038 C  
HETATM   35  N   UNL     1      -5.366   8.516  62.612  1.00  0.00    -0.069 NA 
HETATM   36  H   UNL     1      -6.798  10.517  62.632  1.00  0.00     0.000 HD 
HETATM   37  H1  UNL     1      -4.478   8.023  62.694  1.00  0.00     0.000 HD 
HETATM   38  H2  UNL     1      -5.230   9.512  62.444  1.00  0.00     0.000 HD 
HETATM   39  C   UNL     1      -7.393   6.492  65.173  1.00  0.00    -0.078 C  
HETATM   40  C   UNL     1      -8.720   7.341  65.207  1.00  0.00     0.096 C  
HETATM   41  N   UNL     1      -7.679   5.043  65.209  1.00  0.00    -0.085 NA 
HETATM   42  H2  UNL     1      -6.831   4.476  65.210  1.00  0.00     0.000 HD 
HETATM   43  H1  UNL     1      -8.279   4.852  66.011  1.00  0.00     0.000 HD 
BRANCH  40  44
HETATM   44  O   UNL     1      -9.342   7.078  66.486  1.00  0.00    -0.160 OA 
BRANCH  44  45
HETATM   45  C   UNL     1      -8.440   6.885  67.585  1.00  0.00    -0.122 C  
HETATM   46  O   UNL     1      -8.230   8.088  68.316  1.00  0.00    -0.120 OA 
HETATM   47  C   UNL     1      -9.363   8.572  69.036  1.00  0.00    -0.146 C  
HETATM   48  C   UNL     1      -9.812   7.528  70.061  1.00  0.00    -0.180 C  
HETATM   49  H1  UNL     1      -9.473   3.710  68.455  1.00  0.00     0.000 HD 
HETATM   50  H2  UNL     1      -8.357   4.170  67.293  1.00  0.00     0.000 HD 
HETATM   51  O   UNL     1     -10.967   7.945  70.793  1.00  0.00    -0.242 OA 
HETATM   52  C   UNL     1     -10.114   6.202  69.350  1.00  0.00    -0.184 C  
HETATM   53  H   UNL     1     -11.245   7.297  71.430  1.00  0.00     0.000 HD 
HETATM   54  O   UNL     1     -10.443   5.197  70.326  1.00  0.00    -0.275 OA 
HETATM   55  N   UNL     1      -9.170   4.461  67.836  1.00  0.00    -0.128 NA 
HETATM   56  C   UNL     1      -8.901   5.743  68.526  1.00  0.00    -0.110 C  
HETATM   57  H   UNL     1     -10.630   4.377  69.885  1.00  0.00     0.000 HD 
BRANCH  47  58
HETATM   58  C   UNL     1      -8.943   9.884  69.712  1.00  0.00    -0.221 C  
HETATM   59  O   UNL     1      -9.052   9.766  71.134  1.00  0.00    -0.316 OA 
HETATM   60  H   UNL     1      -8.792  10.578  71.552  1.00  0.00     0.000 HD 
ENDBRANCH  47  58
ENDBRANCH  44  45
ENDBRANCH  40  44
ENDBRANCH  29  30
ENDBRANCH  22  29
ENDBRANCH  18  19
ENDBRANCH   7  18
ENDBRANCH   2   5
TORSDOF 9
ENDMDL
MODEL      108
REMARK 921   NORMALIZED FREE ENERGY PREDICTED BY IDOCK:   -5.77 KCAL/MOL
REMARK 922        TOTAL FREE ENERGY PREDICTED BY IDOCK:  -10.86 KCAL/MOL
REMARK 923 INTER-LIGAND FREE ENERGY PREDICTED BY IDOCK:   -9.76 KCAL/MOL
REMARK 924 INTRA-LIGAND FREE ENERGY PREDICTED BY IDOCK:   -1.09 KCAL/MOL
REMARK 927      BINDING AFFINITY PREDICTED BY RF-SCORE:    0.00 PKD
ROOT
HETATM    1  N   UNL     1      -8.760   4.345  63.840  1.00  0.00    -0.128 NA 
HETATM    2  C   UNL     1      -9.744   3.626  64.673  1.00  0.00    -0.179 C  
HETATM    3  H1  UNL     1      -8.977   4.211  62.852  1.00  0.00     0.000 HD 
HETATM    4  H2  UNL     1      -7.801   4.075  64.061  1.00  0.00     0.000 HD 
ENDROOT
BRANCH   2   5
HETATM    5  C   UNL     1      -9.416   3.829  66.162  1.00  0.00    -0.175 C  
HETATM    6  O   UNL     1      -8.505   4.939  66.248  1.00  0.00    -0.111 OA 
HETATM    7  C   UNL     1      -8.285   5.350  67.595  1.00  0.00    -0.100 C  
HETATM    8  C   UNL     1      -7.525   4.218  68.345  1.00  0.00    -0.064 C  
HETATM    9  O   UNL     1      -7.680   2.130  66.038  1.00  0.00    -0.069 OA 
HETATM   10  H   UNL     1      -7.296   1.363  66.445  1.00  0.00     0.000 HD 
HETATM   11  N   UNL     1      -6.169   4.009  67.756  1.00  0.00    -0.035 NA 
HETATM   12  C   UNL     1      -8.356   2.916  68.270  1.00  0.00    -0.073 C  
HETATM   13  H2  UNL     1      -5.629   4.875  67.733  1.00  0.00     0.000 HD 
HETATM   14  O   UNL     1      -9.489   2.977  69.147  1.00  0.00    -0.159 OA 
HETATM   15  C   UNL     1      -8.792   2.582  66.824  1.00  0.00    -0.131 C  
HETATM   16  H1  UNL     1      -5.670   3.267  68.247  1.00  0.00     0.000 HD 
HETATM   17  H   UNL     1      -9.999   2.177  69.102  1.00  0.00     0.000 HD 
BRANCH   7  18
HETATM   18  O   UNL     1      -7.498   6.543  67.649  1.00  0.00    -0.092 OA 
BRANCH  18  19
HETATM   19  C   UNL     1      -8.003   7.537  68.558  1.00  0.00    -0.123 C  
HETATM   20  O   UNL     1      -6.644   9.235  67.376  1.00  0.00    -0.063 OA 
HETATM   21  C   UNL     1      -9.516   7.334  68.621  1.00  0.00    -0.137 C  
HETATM   22  C   UNL     1      -9.128   9.136  67.194  1.00  0.00    -0.126 C  
HETATM   23  H   UNL     1      -6.561  10.129  67.065  1.00  0.00     0.000 HD 
HETATM   24  O   UNL     1     -10.104   8.186  67.626  1.00  0.00    -0.179 OA 
HETATM   25  C   UNL     1      -7.870   8.967  68.061  1.00  0.00    -0.102 C  
BRANCH  21  26
HETATM   26  C   UNL     1     -10.132   7.681  69.977  1.00  0.00    -0.204 C  
HETATM   27  H   UNL     1     -11.916   7.639  70.822  1.00  0.00     0.000 HD 
HETATM   28  O   UNL     1     -11.534   7.424  69.980  1.00  0.00    -0.189 OA 
ENDBRANCH  21  26
BRANCH  22  29
HETATM   29  O   UNL     1      -9.613  10.465  67.349  1.00  0.00    -0.152 OA 
BRANCH  29  30
HETATM   30  C   UNL     1     -10.460  11.012  66.319  1.00  0.00    -0.254 C  
HETATM   31  C   UNL     1      -9.810  10.820  64.935  1.00  0.00    -0.292 C  
HETATM   32  O   UNL     1      -9.342   9.472  64.788  1.00  0.00    -0.343 OA 
HETATM   33  C   UNL     1     -10.812  11.143  63.821  1.00  0.00    -0.262 C  
HETATM   34  C   UNL     1     -11.231  12.609  63.934  1.00  0.00    -0.497 C  
HETATM   35  N   UNL     1     -10.232  10.872  62.491  1.00  0.00    -0.700 NA 
HETATM   36  H   UNL     1      -8.942   9.354  63.935  1.00  0.00     0.000 HD 
HETATM   37  H1  UNL     1     -10.898  11.087  61.750  1.00  0.00     0.000 HD 
HETATM   38  H2  UNL     1      -9.887   9.915  62.420  1.00  0.00     0.000 HD 
HETATM   39  C   UNL     1     -11.820  12.934  65.317  1.00  0.00    -0.392 C  
HETATM   40  C   UNL     1     -10.921  12.481  66.528  1.00  0.00    -0.266 C  
HETATM   41  N   UNL     1     -12.109  14.383  65.373  1.00  0.00    -0.376 NA 
HETATM   42  H2  UNL     1     -12.710  14.692  64.609  1.00  0.00     0.000 HD 
HETATM   43  H1  UNL     1     -12.500  14.598  66.290  1.00  0.00     0.000 HD 
BRANCH  40  44
HETATM   44  O   UNL     1     -11.705  12.695  67.724  1.00  0.00    -0.330 OA 
BRANCH  44  45
HETATM   45  C   UNL     1     -10.954  12.900  68.929  1.00  0.00    -0.228 C  
HETATM   46  O   UNL     1     -10.495  14.243  69.045  1.00  0.00    -0.239 OA 
HETATM   47  C   UNL     1     -11.514  15.222  69.245  1.00  0.00    -0.320 C  
HETATM   48  C   UNL     1     -12.277  14.923  70.538  1.00  0.00    -0.329 C  
HETATM   49  H1  UNL     1     -12.808  10.823  70.967  1.00  0.00     0.000 HD 
HETATM   50  H2  UNL     1     -11.539  10.432  69.944  1.00  0.00     0.000 HD 
HETATM   51  O   UNL     1     -13.334  15.855  70.775  1.00  0.00    -0.704 OA 
HETATM   52  C   UNL     1     -12.856  13.503  70.479  1.00  0.00    -0.061 C  
HETATM   53  H   UNL     1     -13.807  15.669  71.578  1.00  0.00     0.000 HD 
HETATM   54  O   UNL     1     -13.490  13.190  71.732  1.00  0.00    -0.396 OA 
HETATM   55  N   UNL     1     -12.286  11.101  70.136  1.00  0.00    -0.329 NA 
HETATM   56  C   UNL     1     -11.747  12.479  70.192  1.00  0.00    -0.175 C  
HETATM   57  H   UNL     1     -13.849  12.311  71.695  1.00  0.00     0.000 HD 
BRANCH  47  58
HETATM   58  C   UNL     1     -10.821  16.591  69.302  1.00  0.00    -0.326 C  
HETATM   59  O   UNL     1     -10.926  17.252  68.038  1.00  0.00    -0.350 OA 
HETATM   60  H   UNL     1     -10.498  18.099  68.073  1.00  0.00     0.000 HD 
ENDBRANCH  47  58
ENDBRANCH  44  45
ENDBRANCH  40  44
ENDBRANCH  29  30
ENDBRANCH  22  29
ENDBRANCH  18  19
ENDBRANCH   7  18
ENDBRANCH   2   5
TORSDOF 9
ENDMDL
MODEL      109
REMARK 921   NORMALIZED FREE ENERGY PREDICTED BY IDOCK:   -5.73 KCAL/MOL
REMARK 922        TOTAL FREE ENERGY PREDICTED BY IDOCK:  -10.79 KCAL/MOL
REMARK 923 INTER-LIGAND FREE ENERGY PREDICTED BY IDOCK:   -9.72 KCAL/MOL
REMARK 924 INTRA-LIGAND FREE ENERGY PREDICTED BY IDOCK:   -1.07 KCAL/MOL
REMARK 927      BINDING AFFINITY PREDICTED BY RF-SCORE:    0.00 PKD
ROOT
HETATM    1  N   UNL     1     -12.547  15.670  70.042  1.00  0.00    -0.554 NA 
HETATM    2  C   UNL     1     -11.435  16.416  69.419  1.00  0.00    -0.143 C  
HETATM    3  H1  UNL     1     -12.598  15.891  71.036  1.00  0.00     0.000 HD 
HETATM    4  H2  UNL     1     -12.476  14.666  69.875  1.00  0.00     0.000 HD 
ENDROOT
BRANCH   2   5
HETATM    5  C   UNL     1     -11.358  16.083  67.919  1.00  0.00    -0.218 C  
HETATM    6  O   UNL     1     -11.086  14.674  67.811  1.00  0.00    -0.277 OA 
HETATM    7  C   UNL     1     -11.191  14.209  66.468  1.00  0.00    -0.330 C  
HETATM    8  C   UNL     1     -10.049  14.848  65.627  1.00  0.00    -0.359 C  
HETATM    9  O   UNL     1      -9.023  16.761  67.861  1.00  0.00    -0.213 OA 
HETATM   10  H   UNL     1      -8.356  17.257  67.401  1.00  0.00     0.000 HD 
HETATM   11  N   UNL     1      -8.713  14.393  66.113  1.00  0.00    -0.344 NA 
HETATM   12  C   UNL     1     -10.161  16.388  65.711  1.00  0.00    -0.348 C  
HETATM   13  H2  UNL     1      -8.644  13.375  66.129  1.00  0.00     0.000 HD 
HETATM   14  O   UNL     1     -11.254  16.870  64.917  1.00  0.00    -0.524 OA 
HETATM   15  C   UNL     1     -10.274  16.888  67.171  1.00  0.00    -0.297 C  
HETATM   16  H1  UNL     1      -7.964  14.812  65.562  1.00  0.00     0.000 HD 
HETATM   17  H   UNL     1     -11.323  17.816  64.969  1.00  0.00     0.000 HD 
BRANCH   7  18
HETATM   18  O   UNL     1     -11.064  12.786  66.403  1.00  0.00    -0.271 OA 
BRANCH  18  19
HETATM   19  C   UNL     1      -9.855  12.279  66.996  1.00  0.00    -0.205 C  
HETATM   20  O   UNL     1     -10.955  12.396  69.211  1.00  0.00    -0.395 OA 
HETATM   21  C   UNL     1      -9.432  11.078  66.153  1.00  0.00    -0.203 C  
HETATM   22  C   UNL     1     -10.475  10.238  68.061  1.00  0.00    -0.196 C  
HETATM   23  H   UNL     1     -11.070  12.020  70.076  1.00  0.00     0.000 HD 
HETATM   24  O   UNL     1     -10.015   9.909  66.749  1.00  0.00    -0.192 OA 
HETATM   25  C   UNL     1     -10.040  11.678  68.380  1.00  0.00    -0.206 C  
BRANCH  21  26
HETATM   26  C   UNL     1      -7.917  10.875  66.080  1.00  0.00    -0.132 C  
HETATM   27  H   UNL     1      -6.300  11.660  66.898  1.00  0.00     0.000 HD 
HETATM   28  O   UNL     1      -7.240  11.786  66.943  1.00  0.00    -0.144 OA 
ENDBRANCH  21  26
BRANCH  22  29
HETATM   29  O   UNL     1      -9.902   9.365  69.030  1.00  0.00    -0.160 OA 
BRANCH  29  30
HETATM   30  C   UNL     1     -10.770   8.450  69.727  1.00  0.00    -0.211 C  
HETATM   31  C   UNL     1     -11.126   9.007  71.120  1.00  0.00    -0.301 C  
HETATM   32  O   UNL     1     -11.525  10.381  71.019  1.00  0.00    -0.328 OA 
HETATM   33  C   UNL     1     -12.255   8.187  71.754  1.00  0.00    -0.319 C  
HETATM   34  C   UNL     1     -11.784   6.745  71.941  1.00  0.00    -0.349 C  
HETATM   35  N   UNL     1     -12.671   8.767  73.046  1.00  0.00    -0.507 NA 
HETATM   36  H   UNL     1     -11.744  10.724  71.877  1.00  0.00     0.000 HD 
HETATM   37  H1  UNL     1     -13.421   8.222  73.469  1.00  0.00     0.000 HD 
HETATM   38  H2  UNL     1     -12.927   9.750  72.952  1.00  0.00     0.000 HD 
HETATM   39  C   UNL     1     -11.321   6.114  70.616  1.00  0.00    -0.298 C  
HETATM   40  C   UNL     1     -10.276   6.980  69.816  1.00  0.00    -0.201 C  
HETATM   41  N   UNL     1     -10.796   4.762  70.901  1.00  0.00     0.219 NA 
HETATM   42  H2  UNL     1     -11.466   4.178  71.400  1.00  0.00     0.000 HD 
HETATM   43  H1  UNL     1     -10.489   4.345  70.023  1.00  0.00     0.000 HD 
BRANCH  40  44
HETATM   44  O   UNL     1     -10.103   6.331  68.535  1.00  0.00    -0.140 OA 
BRANCH  44  45
HETATM   45  C   UNL     1      -8.808   5.759  68.301  1.00  0.00    -0.109 C  
HETATM   46  O   UNL     1      -8.794   4.359  68.556  1.00  0.00    -0.097 OA 
HETATM   47  C   UNL     1      -9.558   3.565  67.650  1.00  0.00    -0.127 C  
HETATM   48  C   UNL     1      -9.024   3.740  66.226  1.00  0.00    -0.136 C  
HETATM   49  H1  UNL     1      -7.947   7.703  65.584  1.00  0.00     0.000 HD 
HETATM   50  H2  UNL     1      -7.779   8.045  67.216  1.00  0.00     0.000 HD 
HETATM   51  O   UNL     1      -9.774   2.992  65.267  1.00  0.00    -0.335 OA 
HETATM   52  C   UNL     1      -9.053   5.226  65.843  1.00  0.00    -0.155 C  
HETATM   53  H   UNL     1      -9.442   3.100  64.383  1.00  0.00     0.000 HD 
HETATM   54  O   UNL     1      -8.462   5.400  64.543  1.00  0.00    -0.140 OA 
HETATM   55  N   UNL     1      -8.293   7.502  66.522  1.00  0.00    -0.121 NA 
HETATM   56  C   UNL     1      -8.282   6.064  66.876  1.00  0.00    -0.105 C  
HETATM   57  H   UNL     1      -8.480   6.320  64.307  1.00  0.00     0.000 HD 
BRANCH  47  58
HETATM   58  C   UNL     1      -9.446   2.107  68.119  1.00  0.00    -0.166 C  
HETATM   59  O   UNL     1      -9.575   2.033  69.541  1.00  0.00    -0.082 OA 
HETATM   60  H   UNL     1      -9.506   1.131  69.832  1.00  0.00     0.000 HD 
ENDBRANCH  47  58
ENDBRANCH  44  45
ENDBRANCH  40  44
ENDBRANCH  29  30
ENDBRANCH  22  29
ENDBRANCH  18  19
ENDBRANCH   7  18
ENDBRANCH   2   5
TORSDOF 9
ENDMDL
MODEL      110
REMARK 921   NORMALIZED FREE ENERGY PREDICTED BY IDOCK:   -5.73 KCAL/MOL
REMARK 922        TOTAL FREE ENERGY PREDICTED BY IDOCK:  -10.78 KCAL/MOL
REMARK 923 INTER-LIGAND FREE ENERGY PREDICTED BY IDOCK:  -10.37 KCAL/MOL
REMARK 924 INTRA-LIGAND FREE ENERGY PREDICTED BY IDOCK:   -0.41 KCAL/MOL
REMARK 927      BINDING AFFINITY PREDICTED BY RF-SCORE:    0.00 PKD
ROOT
HETATM    1  N   UNL     1      -7.452   8.588  72.022  1.00  0.00    -0.190 NA 
HETATM    2  C   UNL     1      -8.175   7.991  73.164  1.00  0.00    -0.188 C  
HETATM    3  H1  UNL     1      -6.884   9.372  72.343  1.00  0.00     0.000 HD 
HETATM    4  H2  UNL     1      -8.083   8.855  71.266  1.00  0.00     0.000 HD 
ENDROOT
BRANCH   2   5
HETATM    5  C   UNL     1      -9.031   6.809  72.680  1.00  0.00    -0.129 C  
HETATM    6  O   UNL     1      -9.707   7.236  71.483  1.00  0.00    -0.161 OA 
HETATM    7  C   UNL     1     -10.374   6.159  70.830  1.00  0.00    -0.215 C  
HETATM    8  C   UNL     1     -11.544   5.674  71.735  1.00  0.00     0.037 C  
HETATM    9  O   UNL     1     -10.826   7.455  74.188  1.00  0.00    -0.505 OA 
HETATM   10  H   UNL     1     -11.460   7.162  74.832  1.00  0.00     0.000 HD 
HETATM   11  N   UNL     1     -12.568   6.748  71.901  1.00  0.00    -0.479 NA 
HETATM   12  C   UNL     1     -10.976   5.248  73.109  1.00  0.00    -0.305 C  
HETATM   13  H2  UNL     1     -12.905   7.090  71.001  1.00  0.00     0.000 HD 
HETATM   14  O   UNL     1     -10.292   3.991  73.017  1.00  0.00    -0.154 OA 
HETATM   15  C   UNL     1     -10.061   6.333  73.726  1.00  0.00    -0.249 C  
HETATM   16  H1  UNL     1     -13.334   6.430  72.495  1.00  0.00     0.000 HD 
HETATM   17  H   UNL     1      -9.943   3.729  73.861  1.00  0.00     0.000 HD 
BRANCH   7  18
HETATM   18  O   UNL     1     -10.913   6.572  69.571  1.00  0.00    -0.274 OA 
BRANCH  18  19
HETATM   19  C   UNL     1      -9.991   6.453  68.473  1.00  0.00    -0.142 C  
HETATM   20  O   UNL     1     -11.909   6.597  66.915  1.00  0.00    -0.349 OA 
HETATM   21  C   UNL     1      -8.856   7.436  68.755  1.00  0.00    -0.130 C  
HETATM   22  C   UNL     1     -10.262   8.446  67.193  1.00  0.00    -0.292 C  
HETATM   23  H   UNL     1     -12.250   6.898  66.081  1.00  0.00     0.000 HD 
HETATM   24  O   UNL     1      -9.195   8.676  68.116  1.00  0.00    -0.137 OA 
HETATM   25  C   UNL     1     -10.538   6.934  67.140  1.00  0.00    -0.338 C  
BRANCH  21  26
HETATM   26  C   UNL     1      -7.495   6.979  68.226  1.00  0.00    -0.099 C  
HETATM   27  H   UNL     1      -5.738   7.788  67.830  1.00  0.00     0.000 HD 
HETATM   28  O   UNL     1      -6.582   8.072  68.158  1.00  0.00    -0.053 OA 
ENDBRANCH  21  26
BRANCH  22  29
HETATM   29  O   UNL     1      -9.905   8.890  65.888  1.00  0.00    -0.255 OA 
BRANCH  29  30
HETATM   30  C   UNL     1      -8.779   9.779  65.749  1.00  0.00    -0.142 C  
HETATM   31  C   UNL     1      -7.489   8.973  65.500  1.00  0.00    -0.086 C  
HETATM   32  O   UNL     1      -7.707   7.986  64.483  1.00  0.00    -0.109 OA 
HETATM   33  C   UNL     1      -6.346   9.904  65.080  1.00  0.00    -0.104 C  
HETATM   34  C   UNL     1      -6.062  10.891  66.211  1.00  0.00    -0.137 C  
HETATM   35  N   UNL     1      -5.131   9.135  64.747  1.00  0.00    -0.044 NA 
HETATM   36  H   UNL     1      -6.913   7.490  64.329  1.00  0.00     0.000 HD 
HETATM   37  H1  UNL     1      -4.370   9.753  64.467  1.00  0.00     0.000 HD 
HETATM   38  H2  UNL     1      -5.318   8.426  64.038  1.00  0.00     0.000 HD 
HETATM   39  C   UNL     1      -7.313  11.696  66.602  1.00  0.00    -0.028 C  
HETATM   40  C   UNL     1      -8.587  10.815  66.890  1.00  0.00    -0.132 C  
HETATM   41  N   UNL     1      -6.977  12.552  67.758  1.00  0.00    -0.107 NA 
HETATM   42  H2  UNL     1      -6.167  13.147  67.583  1.00  0.00     0.000 HD 
HETATM   43  H1  UNL     1      -7.807  13.086  68.017  1.00  0.00     0.000 HD 
BRANCH  40  44
HETATM   44  O   UNL     1      -9.692  11.734  67.054  1.00  0.00    -0.183 OA 
BRANCH  44  45
HETATM   45  C   UNL     1      -9.525  13.019  66.439  1.00  0.00    -0.224 C  
HETATM   46  O   UNL     1     -10.077  13.053  65.127  1.00  0.00    -0.279 OA 
HETATM   47  C   UNL     1     -11.499  12.952  65.059  1.00  0.00    -0.315 C  
HETATM   48  C   UNL     1     -12.140  14.117  65.817  1.00  0.00    -0.420 C  
HETATM   49  H1  UNL     1      -9.981  14.932  69.274  1.00  0.00     0.000 HD 
HETATM   50  H2  UNL     1      -8.580  14.202  68.712  1.00  0.00     0.000 HD 
HETATM   51  O   UNL     1     -13.568  14.052  65.810  1.00  0.00    -0.576 OA 
HETATM   52  C   UNL     1     -11.640  14.127  67.267  1.00  0.00    -0.373 C  
HETATM   53  H   UNL     1     -13.965  14.775  66.280  1.00  0.00     0.000 HD 
HETATM   54  O   UNL     1     -12.168  15.277  67.951  1.00  0.00    -0.412 OA 
HETATM   55  N   UNL     1      -9.601  14.179  68.701  1.00  0.00    -0.207 NA 
HETATM   56  C   UNL     1     -10.104  14.163  67.308  1.00  0.00    -0.256 C  
HETATM   57  H   UNL     1     -11.858  15.283  68.849  1.00  0.00     0.000 HD 
BRANCH  47  58
HETATM   58  C   UNL     1     -11.883  12.966  63.572  1.00  0.00    -0.536 C  
HETATM   59  O   UNL     1     -12.352  14.263  63.193  1.00  0.00    -1.096 OA 
HETATM   60  H   UNL     1     -12.589  14.272  62.274  1.00  0.00     0.000 HD 
ENDBRANCH  47  58
ENDBRANCH  44  45
ENDBRANCH  40  44
ENDBRANCH  29  30
ENDBRANCH  22  29
ENDBRANCH  18  19
ENDBRANCH   7  18
ENDBRANCH   2   5
TORSDOF 9
ENDMDL
MODEL      111
REMARK 921   NORMALIZED FREE ENERGY PREDICTED BY IDOCK:   -5.69 KCAL/MOL
REMARK 922        TOTAL FREE ENERGY PREDICTED BY IDOCK:  -10.73 KCAL/MOL
REMARK 923 INTER-LIGAND FREE ENERGY PREDICTED BY IDOCK:   -9.65 KCAL/MOL
REMARK 924 INTRA-LIGAND FREE ENERGY PREDICTED BY IDOCK:   -1.08 KCAL/MOL
REMARK 927      BINDING AFFINITY PREDICTED BY RF-SCORE:    0.00 PKD
ROOT
HETATM    1  N   UNL     1     -11.607   4.632  65.024  1.00  0.00    -1.036 NA 
HETATM    2  C   UNL     1     -10.883   3.749  64.087  1.00  0.00    -0.161 C  
HETATM    3  H1  UNL     1     -12.532   4.848  64.652  1.00  0.00     0.000 HD 
HETATM    4  H2  UNL     1     -11.075   5.475  65.244  1.00  0.00     0.000 HD 
ENDROOT
BRANCH   2   5
HETATM    5  C   UNL     1      -9.489   3.423  64.647  1.00  0.00    -0.154 C  
HETATM    6  O   UNL     1      -8.911   4.663  65.095  1.00  0.00    -0.136 OA 
HETATM    7  C   UNL     1      -7.699   4.460  65.818  1.00  0.00    -0.090 C  
HETATM    8  C   UNL     1      -6.621   3.907  64.841  1.00  0.00    -0.043 C  
HETATM    9  O   UNL     1      -8.535   3.531  62.413  1.00  0.00    -0.072 OA 
HETATM   10  H   UNL     1      -7.963   3.117  61.777  1.00  0.00     0.000 HD 
HETATM   11  N   UNL     1      -6.301   4.909  63.782  1.00  0.00    -0.025 NA 
HETATM   12  C   UNL     1      -7.139   2.594  64.209  1.00  0.00    -0.049 C  
HETATM   13  H2  UNL     1      -6.023   5.805  64.181  1.00  0.00     0.000 HD 
HETATM   14  O   UNL     1      -7.092   1.514  65.152  1.00  0.00    -0.044 OA 
HETATM   15  C   UNL     1      -8.559   2.750  63.615  1.00  0.00    -0.086 C  
HETATM   16  H1  UNL     1      -5.595   4.546  63.141  1.00  0.00     0.000 HD 
HETATM   17  H   UNL     1      -7.409   0.707  64.763  1.00  0.00     0.000 HD 
BRANCH   7  18
HETATM   18  O   UNL     1      -7.221   5.686  66.379  1.00  0.00    -0.074 OA 
BRANCH  18  19
HETATM   19  C   UNL     1      -7.753   6.864  65.747  1.00  0.00    -0.100 C  
HETATM   20  O   UNL     1      -9.798   6.614  67.119  1.00  0.00    -0.135 OA 
HETATM   21  C   UNL     1      -6.643   7.913  65.789  1.00  0.00    -0.045 C  
HETATM   22  C   UNL     1      -8.128   8.421  67.513  1.00  0.00    -0.110 C  
HETATM   23  H   UNL     1     -10.505   7.031  67.597  1.00  0.00     0.000 HD 
HETATM   24  O   UNL     1      -6.824   8.679  66.989  1.00  0.00    -0.065 OA 
HETATM   25  C   UNL     1      -8.883   7.531  66.513  1.00  0.00    -0.148 C  
BRANCH  21  26
HETATM   26  C   UNL     1      -6.654   8.874  64.598  1.00  0.00    -0.066 C  
HETATM   27  H   UNL     1      -7.439   8.944  62.788  1.00  0.00     0.000 HD 
HETATM   28  O   UNL     1      -7.433   8.347  63.526  1.00  0.00    -0.105 OA 
ENDBRANCH  21  26
BRANCH  22  29
HETATM   29  O   UNL     1      -8.854   9.634  67.682  1.00  0.00    -0.125 OA 
BRANCH  29  30
HETATM   30  C   UNL     1      -9.540   9.856  68.929  1.00  0.00    -0.172 C  
HETATM   31  C   UNL     1      -9.059   8.848  69.991  1.00  0.00    -0.166 C  
HETATM   32  O   UNL     1      -7.626   8.784  70.003  1.00  0.00    -0.057 OA 
HETATM   33  C   UNL     1      -9.570   9.245  71.380  1.00  0.00    -0.158 C  
HETATM   34  C   UNL     1     -11.099   9.218  71.378  1.00  0.00    -0.437 C  
HETATM   35  N   UNL     1      -9.038   8.341  72.419  1.00  0.00    -0.215 NA 
HETATM   36  H   UNL     1      -7.330   8.164  70.658  1.00  0.00     0.000 HD 
HETATM   37  H1  UNL     1      -9.378   8.605  73.344  1.00  0.00     0.000 HD 
HETATM   38  H2  UNL     1      -8.020   8.297  72.392  1.00  0.00     0.000 HD 
HETATM   39  C   UNL     1     -11.689  10.132  70.291  1.00  0.00    -0.282 C  
HETATM   40  C   UNL     1     -11.091   9.899  68.853  1.00  0.00    -0.140 C  
HETATM   41  N   UNL     1     -13.159   9.975  70.295  1.00  0.00    -0.559 NA 
HETATM   42  H2  UNL     1     -13.568  10.144  71.214  1.00  0.00     0.000 HD 
HETATM   43  H1  UNL     1     -13.550  10.582  69.575  1.00  0.00     0.000 HD 
BRANCH  40  44
HETATM   44  O   UNL     1     -11.617  10.954  68.014  1.00  0.00    -0.464 OA 
BRANCH  44  45
HETATM   45  C   UNL     1     -10.647  11.874  67.494  1.00  0.00    -0.219 C  
HETATM   46  O   UNL     1     -10.580  11.825  66.073  1.00  0.00    -0.244 OA 
HETATM   47  C   UNL     1     -11.736  12.305  65.388  1.00  0.00    -0.370 C  
HETATM   48  C   UNL     1     -11.982  13.772  65.748  1.00  0.00    -0.399 C  
HETATM   49  H1  UNL     1     -11.170  14.410  69.775  1.00  0.00     0.000 HD 
HETATM   50  H2  UNL     1     -10.187  13.059  69.912  1.00  0.00     0.000 HD 
HETATM   51  O   UNL     1     -13.150  14.300  65.116  1.00  0.00    -0.704 OA 
HETATM   52  C   UNL     1     -12.122  13.914  67.270  1.00  0.00    -0.368 C  
HETATM   53  H   UNL     1     -13.302  15.211  65.339  1.00  0.00     0.000 HD 
HETATM   54  O   UNL     1     -12.257  15.304  67.613  1.00  0.00    -0.314 OA 
HETATM   55  N   UNL     1     -11.007  13.456  69.453  1.00  0.00    -0.099 NA 
HETATM   56  C   UNL     1     -10.894  13.324  67.982  1.00  0.00    -0.243 C  
HETATM   57  H   UNL     1     -12.343  15.392  68.555  1.00  0.00     0.000 HD 
BRANCH  47  58
HETATM   58  C   UNL     1     -11.479  12.128  63.885  1.00  0.00    -0.440 C  
HETATM   59  O   UNL     1     -12.669  12.405  63.143  1.00  0.00    -0.735 OA 
HETATM   60  H   UNL     1     -12.510  12.295  62.213  1.00  0.00     0.000 HD 
ENDBRANCH  47  58
ENDBRANCH  44  45
ENDBRANCH  40  44
ENDBRANCH  29  30
ENDBRANCH  22  29
ENDBRANCH  18  19
ENDBRANCH   7  18
ENDBRANCH   2   5
TORSDOF 9
ENDMDL
MODEL      112
REMARK 921   NORMALIZED FREE ENERGY PREDICTED BY IDOCK:   -5.69 KCAL/MOL
REMARK 922        TOTAL FREE ENERGY PREDICTED BY IDOCK:  -10.73 KCAL/MOL
REMARK 923 INTER-LIGAND FREE ENERGY PREDICTED BY IDOCK:   -8.65 KCAL/MOL
REMARK 924 INTRA-LIGAND FREE ENERGY PREDICTED BY IDOCK:   -2.08 KCAL/MOL
REMARK 927      BINDING AFFINITY PREDICTED BY RF-SCORE:    0.00 PKD
ROOT
HETATM    1  N   UNL     1     -13.976  14.827  70.674  1.00  0.00    -0.443 NA 
HETATM    2  C   UNL     1     -12.545  14.807  70.310  1.00  0.00    -0.315 C  
HETATM    3  H1  UNL     1     -14.182  15.659  71.227  1.00  0.00     0.000 HD 
HETATM    4  H2  UNL     1     -14.262  13.971  71.150  1.00  0.00     0.000 HD 
ENDROOT
BRANCH   2   5
HETATM    5  C   UNL     1     -12.235  13.553  69.476  1.00  0.00    -0.236 C  
HETATM    6  O   UNL     1     -11.611  12.601  70.358  1.00  0.00    -0.120 OA 
HETATM    7  C   UNL     1     -11.460  11.322  69.747  1.00  0.00    -0.310 C  
HETATM    8  C   UNL     1     -10.434  11.443  68.584  1.00  0.00    -0.201 C  
HETATM    9  O   UNL     1     -10.150  14.542  68.711  1.00  0.00    -0.233 OA 
HETATM   10  H   UNL     1      -9.584  14.716  67.968  1.00  0.00     0.000 HD 
HETATM   11  N   UNL     1      -9.083  11.809  69.103  1.00  0.00    -0.312 NA 
HETATM   12  C   UNL     1     -10.934  12.504  67.576  1.00  0.00    -0.251 C  
HETATM   13  H2  UNL     1      -8.765  11.157  69.821  1.00  0.00     0.000 HD 
HETATM   14  O   UNL     1     -12.026  11.999  66.795  1.00  0.00    -0.616 OA 
HETATM   15  C   UNL     1     -11.316  13.834  68.269  1.00  0.00    -0.285 C  
HETATM   16  H1  UNL     1      -8.410  11.888  68.341  1.00  0.00     0.000 HD 
HETATM   17  H   UNL     1     -12.333  12.651  66.176  1.00  0.00     0.000 HD 
BRANCH   7  18
HETATM   18  O   UNL     1     -10.977  10.356  70.684  1.00  0.00    -0.289 OA 
BRANCH  18  19
HETATM   19  C   UNL     1     -10.490   9.146  70.078  1.00  0.00    -0.221 C  
HETATM   20  O   UNL     1      -8.253   9.637  71.016  1.00  0.00    -0.338 OA 
HETATM   21  C   UNL     1     -11.501   8.054  70.423  1.00  0.00    -0.135 C  
HETATM   22  C   UNL     1      -9.699   7.802  71.881  1.00  0.00    -0.169 C  
HETATM   23  H   UNL     1      -7.445   9.307  71.391  1.00  0.00     0.000 HD 
HETATM   24  O   UNL     1     -11.056   7.427  71.636  1.00  0.00    -0.233 OA 
HETATM   25  C   UNL     1      -9.198   8.618  70.679  1.00  0.00    -0.174 C  
BRANCH  21  26
HETATM   26  C   UNL     1     -11.641   6.976  69.347  1.00  0.00     0.122 C  
HETATM   27  H   UNL     1     -11.083   6.706  67.472  1.00  0.00     0.000 HD 
HETATM   28  O   UNL     1     -10.997   7.376  68.140  1.00  0.00    -0.087 OA 
ENDBRANCH  21  26
BRANCH  22  29
HETATM   29  O   UNL     1      -8.875   6.650  72.025  1.00  0.00    -0.135 OA 
BRANCH  29  30
HETATM   30  C   UNL     1      -9.478   5.350  71.869  1.00  0.00    -0.149 C  
HETATM   31  C   UNL     1      -9.494   4.602  73.216  1.00  0.00    -0.122 C  
HETATM   32  O   UNL     1      -9.984   5.460  74.256  1.00  0.00    -0.183 OA 
HETATM   33  C   UNL     1     -10.371   3.348  73.125  1.00  0.00    -0.162 C  
HETATM   34  C   UNL     1      -9.784   2.401  72.079  1.00  0.00    -0.212 C  
HETATM   35  N   UNL     1     -10.471   2.675  74.435  1.00  0.00    -0.156 NA 
HETATM   36  H   UNL     1      -9.994   5.000  75.086  1.00  0.00     0.000 HD 
HETATM   37  H1  UNL     1     -11.054   1.841  74.375  1.00  0.00     0.000 HD 
HETATM   38  H2  UNL     1     -10.800   3.312  75.160  1.00  0.00     0.000 HD 
HETATM   39  C   UNL     1      -9.643   3.077  70.704  1.00  0.00    -0.131 C  
HETATM   40  C   UNL     1      -8.893   4.462  70.737  1.00  0.00    -0.097 C  
HETATM   41  N   UNL     1      -8.984   2.129  69.782  1.00  0.00    -0.081 NA 
HETATM   42  H2  UNL     1      -9.468   1.232  69.731  1.00  0.00     0.000 HD 
HETATM   43  H1  UNL     1      -8.891   2.577  68.871  1.00  0.00     0.000 HD 
BRANCH  40  44
HETATM   44  O   UNL     1      -9.019   5.027  69.411  1.00  0.00    -0.090 OA 
BRANCH  44  45
HETATM   45  C   UNL     1      -8.028   4.607  68.462  1.00  0.00    -0.080 C  
HETATM   46  O   UNL     1      -8.616   4.044  67.295  1.00  0.00    -0.099 OA 
HETATM   47  C   UNL     1      -9.341   4.958  66.474  1.00  0.00    -0.142 C  
HETATM   48  C   UNL     1      -8.409   6.068  65.983  1.00  0.00    -0.134 C  
HETATM   49  H1  UNL     1      -5.779   7.166  69.008  1.00  0.00     0.000 HD 
HETATM   50  H2  UNL     1      -5.953   5.724  69.844  1.00  0.00     0.000 HD 
HETATM   51  O   UNL     1      -9.089   7.035  65.179  1.00  0.00    -0.314 OA 
HETATM   52  C   UNL     1      -7.766   6.772  67.185  1.00  0.00    -0.104 C  
HETATM   53  H   UNL     1      -8.511   7.724  64.874  1.00  0.00     0.000 HD 
HETATM   54  O   UNL     1      -6.819   7.749  66.721  1.00  0.00    -0.067 OA 
HETATM   55  N   UNL     1      -6.420   6.412  69.253  1.00  0.00    -0.041 NA 
HETATM   56  C   UNL     1      -7.053   5.752  68.089  1.00  0.00    -0.074 C  
HETATM   57  H   UNL     1      -6.420   8.185  67.465  1.00  0.00     0.000 HD 
BRANCH  47  58
HETATM   58  C   UNL     1      -9.924   4.152  65.305  1.00  0.00    -0.208 C  
HETATM   59  O   UNL     1     -11.329   4.396  65.185  1.00  0.00    -1.022 OA 
HETATM   60  H   UNL     1     -11.689   3.898  64.462  1.00  0.00     0.000 HD 
ENDBRANCH  47  58
ENDBRANCH  44  45
ENDBRANCH  40  44
ENDBRANCH  29  30
ENDBRANCH  22  29
ENDBRANCH  18  19
ENDBRANCH   7  18
ENDBRANCH   2   5
TORSDOF 9
ENDMDL
MODEL      113
REMARK 921   NORMALIZED FREE ENERGY PREDICTED BY IDOCK:   -5.69 KCAL/MOL
REMARK 922        TOTAL FREE ENERGY PREDICTED BY IDOCK:  -10.73 KCAL/MOL
REMARK 923 INTER-LIGAND FREE ENERGY PREDICTED BY IDOCK:   -9.09 KCAL/MOL
REMARK 924 INTRA-LIGAND FREE ENERGY PREDICTED BY IDOCK:   -1.64 KCAL/MOL
REMARK 927      BINDING AFFINITY PREDICTED BY RF-SCORE:    0.00 PKD
ROOT
HETATM    1  N   UNL     1     -11.004  14.521  70.217  1.00  0.00    -0.481 NA 
HETATM    2  C   UNL     1     -12.183  13.828  69.659  1.00  0.00    -0.305 C  
HETATM    3  H1  UNL     1     -11.234  14.917  71.129  1.00  0.00     0.000 HD 
HETATM    4  H2  UNL     1     -10.633  15.223  69.576  1.00  0.00     0.000 HD 
ENDROOT
BRANCH   2   5
HETATM    5  C   UNL     1     -11.836  13.230  68.285  1.00  0.00    -0.354 C  
HETATM    6  O   UNL     1     -10.429  12.923  68.300  1.00  0.00    -0.229 OA 
HETATM    7  C   UNL     1     -10.031  12.178  67.151  1.00  0.00    -0.200 C  
HETATM    8  C   UNL     1     -10.176  13.084  65.894  1.00  0.00    -0.292 C  
HETATM    9  O   UNL     1     -11.563  15.460  67.354  1.00  0.00    -0.269 OA 
HETATM   10  H   UNL     1     -11.760  16.043  66.631  1.00  0.00     0.000 HD 
HETATM   11  N   UNL     1      -9.245  14.248  65.968  1.00  0.00    -0.521 NA 
HETATM   12  C   UNL     1     -11.641  13.566  65.785  1.00  0.00    -0.330 C  
HETATM   13  H2  UNL     1      -8.279  13.951  66.109  1.00  0.00     0.000 HD 
HETATM   14  O   UNL     1     -12.501  12.508  65.339  1.00  0.00    -0.630 OA 
HETATM   15  C   UNL     1     -12.156  14.178  67.109  1.00  0.00    -0.397 C  
HETATM   16  H1  UNL     1      -9.340  14.842  65.144  1.00  0.00     0.000 HD 
HETATM   17  H   UNL     1     -13.401  12.805  65.272  1.00  0.00     0.000 HD 
BRANCH   7  18
HETATM   18  O   UNL     1      -8.669  11.757  67.256  1.00  0.00    -0.152 OA 
BRANCH  18  19
HETATM   19  C   UNL     1      -8.502  10.330  67.342  1.00  0.00    -0.125 C  
HETATM   20  O   UNL     1      -6.610  10.697  68.895  1.00  0.00    -0.051 OA 
HETATM   21  C   UNL     1      -9.893   9.748  67.581  1.00  0.00    -0.165 C  
HETATM   22  C   UNL     1      -8.807   9.790  69.643  1.00  0.00    -0.211 C  
HETATM   23  H   UNL     1      -6.121  10.404  69.656  1.00  0.00     0.000 HD 
HETATM   24  O   UNL     1     -10.075   9.644  69.002  1.00  0.00    -0.172 OA 
HETATM   25  C   UNL     1      -7.721   9.862  68.558  1.00  0.00    -0.081 C  
BRANCH  21  26
HETATM   26  C   UNL     1     -10.099   8.362  66.967  1.00  0.00    -0.284 C  
HETATM   27  H   UNL     1      -9.531   7.386  65.347  1.00  0.00     0.000 HD 
HETATM   28  O   UNL     1      -9.404   8.247  65.728  1.00  0.00    -0.145 OA 
ENDBRANCH  21  26
BRANCH  22  29
HETATM   29  O   UNL     1      -8.536   8.675  70.486  1.00  0.00    -0.127 OA 
BRANCH  29  30
HETATM   30  C   UNL     1      -9.609   7.759  70.780  1.00  0.00    -0.165 C  
HETATM   31  C   UNL     1     -10.615   8.408  71.751  1.00  0.00    -0.282 C  
HETATM   32  O   UNL     1     -10.950   9.731  71.309  1.00  0.00    -0.351 OA 
HETATM   33  C   UNL     1     -11.888   7.561  71.853  1.00  0.00    -0.296 C  
HETATM   34  C   UNL     1     -11.530   6.184  72.412  1.00  0.00    -0.349 C  
HETATM   35  N   UNL     1     -12.897   8.219  72.705  1.00  0.00    -0.608 NA 
HETATM   36  H   UNL     1     -11.570  10.131  71.907  1.00  0.00     0.000 HD 
HETATM   37  H1  UNL     1     -13.744   7.656  72.773  1.00  0.00     0.000 HD 
HETATM   38  H2  UNL     1     -13.100   9.165  72.384  1.00  0.00     0.000 HD 
HETATM   39  C   UNL     1     -10.462   5.476  71.560  1.00  0.00    -0.235 C  
HETATM   40  C   UNL     1      -9.183   6.348  71.268  1.00  0.00    -0.156 C  
HETATM   41  N   UNL     1     -10.107   4.202  72.220  1.00  0.00    -0.176 NA 
HETATM   42  H2  UNL     1     -10.921   3.613  72.398  1.00  0.00     0.000 HD 
HETATM   43  H1  UNL     1      -9.400   3.733  71.655  1.00  0.00     0.000 HD 
BRANCH  40  44
HETATM   44  O   UNL     1      -8.388   5.602  70.317  1.00  0.00    -0.108 OA 
BRANCH  44  45
HETATM   45  C   UNL     1      -8.982   5.418  69.024  1.00  0.00    -0.107 C  
HETATM   46  O   UNL     1      -8.386   6.259  68.043  1.00  0.00    -0.114 OA 
HETATM   47  C   UNL     1      -7.032   5.953  67.715  1.00  0.00    -0.069 C  
HETATM   48  C   UNL     1      -6.939   4.529  67.162  1.00  0.00    -0.060 C  
HETATM   49  H1  UNL     1      -9.502   2.015  69.256  1.00  0.00     0.000 HD 
HETATM   50  H2  UNL     1     -10.475   3.266  69.801  1.00  0.00     0.000 HD 
HETATM   51  O   UNL     1      -5.597   4.153  66.845  1.00  0.00    -0.016 OA 
HETATM   52  C   UNL     1      -7.515   3.539  68.184  1.00  0.00    -0.057 C  
HETATM   53  H   UNL     1      -5.540   3.270  66.501  1.00  0.00     0.000 HD 
HETATM   54  O   UNL     1      -7.515   2.215  67.624  1.00  0.00    -0.054 OA 
HETATM   55  N   UNL     1      -9.524   2.990  69.554  1.00  0.00    -0.140 NA 
HETATM   56  C   UNL     1      -8.948   3.936  68.571  1.00  0.00    -0.121 C  
HETATM   57  H   UNL     1      -7.871   1.602  68.257  1.00  0.00     0.000 HD 
BRANCH  47  58
HETATM   58  C   UNL     1      -6.570   6.991  66.683  1.00  0.00    -0.052 C  
HETATM   59  O   UNL     1      -7.021   6.625  65.376  1.00  0.00    -0.053 OA 
HETATM   60  H   UNL     1      -6.735   7.267  64.737  1.00  0.00     0.000 HD 
ENDBRANCH  47  58
ENDBRANCH  44  45
ENDBRANCH  40  44
ENDBRANCH  29  30
ENDBRANCH  22  29
ENDBRANCH  18  19
ENDBRANCH   7  18
ENDBRANCH   2   5
TORSDOF 9
ENDMDL
MODEL      114
REMARK 921   NORMALIZED FREE ENERGY PREDICTED BY IDOCK:   -5.68 KCAL/MOL
REMARK 922        TOTAL FREE ENERGY PREDICTED BY IDOCK:  -10.71 KCAL/MOL
REMARK 923 INTER-LIGAND FREE ENERGY PREDICTED BY IDOCK:   -9.41 KCAL/MOL
REMARK 924 INTRA-LIGAND FREE ENERGY PREDICTED BY IDOCK:   -1.30 KCAL/MOL
REMARK 927      BINDING AFFINITY PREDICTED BY RF-SCORE:    0.00 PKD
ROOT
HETATM    1  N   UNL     1     -11.745  12.896  70.135  1.00  0.00    -0.530 NA 
HETATM    2  C   UNL     1     -11.863  14.114  69.308  1.00  0.00    -0.338 C  
HETATM    3  H1  UNL     1     -12.406  12.939  70.911  1.00  0.00     0.000 HD 
HETATM    4  H2  UNL     1     -10.789  12.741  70.455  1.00  0.00     0.000 HD 
ENDROOT
BRANCH   2   5
HETATM    5  C   UNL     1     -10.866  14.049  68.138  1.00  0.00    -0.248 C  
HETATM    6  O   UNL     1      -9.559  13.846  68.706  1.00  0.00    -0.177 OA 
HETATM    7  C   UNL     1      -8.579  13.568  67.708  1.00  0.00    -0.183 C  
HETATM    8  C   UNL     1      -8.383  14.841  66.834  1.00  0.00    -0.151 C  
HETATM    9  O   UNL     1     -10.712  16.476  68.100  1.00  0.00    -0.316 OA 
HETATM   10  H   UNL     1     -10.714  17.259  67.562  1.00  0.00     0.000 HD 
HETATM   11  N   UNL     1      -7.832  15.965  67.647  1.00  0.00    -0.138 NA 
HETATM   12  C   UNL     1      -9.741  15.237  66.208  1.00  0.00    -0.299 C  
HETATM   13  H2  UNL     1      -6.970  15.699  68.123  1.00  0.00     0.000 HD 
HETATM   14  O   UNL     1     -10.098  14.345  65.144  1.00  0.00    -0.433 OA 
HETATM   15  C   UNL     1     -10.869  15.321  67.264  1.00  0.00    -0.318 C  
HETATM   16  H1  UNL     1      -7.704  16.799  67.073  1.00  0.00     0.000 HD 
HETATM   17  H   UNL     1     -10.932  14.589  64.759  1.00  0.00     0.000 HD 
BRANCH   7  18
HETATM   18  O   UNL     1      -7.323  13.224  68.301  1.00  0.00    -0.093 OA 
BRANCH  18  19
HETATM   19  C   UNL     1      -6.856  11.907  67.959  1.00  0.00    -0.072 C  
HETATM   20  O   UNL     1      -5.990  11.671  70.265  1.00  0.00    -0.148 OA 
HETATM   21  C   UNL     1      -8.016  11.210  67.250  1.00  0.00    -0.137 C  
HETATM   22  C   UNL     1      -7.986  10.424  69.444  1.00  0.00    -0.157 C  
HETATM   23  H   UNL     1      -5.825  11.107  71.012  1.00  0.00     0.000 HD 
HETATM   24  O   UNL     1      -8.765  10.502  68.249  1.00  0.00    -0.126 OA 
HETATM   25  C   UNL     1      -6.592  11.005  69.153  1.00  0.00    -0.077 C  
BRANCH  21  26
HETATM   26  C   UNL     1      -7.576  10.209  66.180  1.00  0.00    -0.114 C  
HETATM   27  H   UNL     1      -7.552   8.249  65.937  1.00  0.00     0.000 HD 
HETATM   28  O   UNL     1      -7.825   8.870  66.602  1.00  0.00    -0.098 OA 
ENDBRANCH  21  26
BRANCH  22  29
HETATM   29  O   UNL     1      -7.836   9.071  69.862  1.00  0.00    -0.077 OA 
BRANCH  29  30
HETATM   30  C   UNL     1      -7.846   8.783  71.274  1.00  0.00    -0.134 C  
HETATM   31  C   UNL     1      -6.893   7.613  71.588  1.00  0.00    -0.053 C  
HETATM   32  O   UNL     1      -5.628   7.813  70.942  1.00  0.00    -0.030 OA 
HETATM   33  C   UNL     1      -6.685   7.479  73.101  1.00  0.00    -0.067 C  
HETATM   34  C   UNL     1      -8.027   7.173  73.766  1.00  0.00    -0.129 C  
HETATM   35  N   UNL     1      -5.701   6.423  73.410  1.00  0.00    -0.045 NA 
HETATM   36  H   UNL     1      -5.042   7.093  71.136  1.00  0.00     0.000 HD 
HETATM   37  H1  UNL     1      -5.562   6.334  74.416  1.00  0.00     0.000 HD 
HETATM   38  H2  UNL     1      -4.819   6.577  72.921  1.00  0.00     0.000 HD 
HETATM   39  C   UNL     1      -9.085   8.243  73.447  1.00  0.00    -0.174 C  
HETATM   40  C   UNL     1      -9.244   8.560  71.913  1.00  0.00    -0.255 C  
HETATM   41  N   UNL     1     -10.369   7.823  74.047  1.00  0.00    -0.113 NA 
HETATM   42  H2  UNL     1     -10.292   7.634  75.046  1.00  0.00     0.000 HD 
HETATM   43  H1  UNL     1     -11.071   8.533  73.835  1.00  0.00     0.000 HD 
BRANCH  40  44
HETATM   44  O   UNL     1     -10.130   9.700  71.820  1.00  0.00     0.063 OA 
BRANCH  44  45
HETATM   45  C   UNL     1     -11.170   9.597  70.836  1.00  0.00    -0.352 C  
HETATM   46  O   UNL     1     -11.129   8.351  70.150  1.00  0.00    -0.245 OA 
HETATM   47  C   UNL     1     -11.452   7.207  70.940  1.00  0.00    -0.297 C  
HETATM   48  C   UNL     1     -12.874   7.340  71.490  1.00  0.00    -0.388 C  
HETATM   49  H1  UNL     1     -13.615  11.277  72.597  1.00  0.00     0.000 HD 
HETATM   50  H2  UNL     1     -12.406  11.903  71.620  1.00  0.00     0.000 HD 
HETATM   51  O   UNL     1     -13.243   6.235  72.318  1.00  0.00    -0.469 OA 
HETATM   52  C   UNL     1     -12.997   8.640  72.295  1.00  0.00    -0.381 C  
HETATM   53  H   UNL     1     -14.126   6.317  72.659  1.00  0.00     0.000 HD 
HETATM   54  O   UNL     1     -14.358   8.810  72.730  1.00  0.00    -0.920 OA 
HETATM   55  N   UNL     1     -12.691  11.113  72.199  1.00  0.00    -0.040 NA 
HETATM   56  C   UNL     1     -12.574   9.846  71.441  1.00  0.00    -0.398 C  
HETATM   57  H   UNL     1     -14.434   9.615  73.228  1.00  0.00     0.000 HD 
BRANCH  47  58
HETATM   58  C   UNL     1     -11.309   5.976  70.034  1.00  0.00    -0.284 C  
HETATM   59  O   UNL     1     -11.212   6.377  68.664  1.00  0.00    -0.469 OA 
HETATM   60  H   UNL     1     -11.123   5.615  68.104  1.00  0.00     0.000 HD 
ENDBRANCH  47  58
ENDBRANCH  44  45
ENDBRANCH  40  44
ENDBRANCH  29  30
ENDBRANCH  22  29
ENDBRANCH  18  19
ENDBRANCH   7  18
ENDBRANCH   2   5
TORSDOF 9
ENDMDL
MODEL      115
REMARK 921   NORMALIZED FREE ENERGY PREDICTED BY IDOCK:   -5.67 KCAL/MOL
REMARK 922        TOTAL FREE ENERGY PREDICTED BY IDOCK:  -10.69 KCAL/MOL
REMARK 923 INTER-LIGAND FREE ENERGY PREDICTED BY IDOCK:   -9.28 KCAL/MOL
REMARK 924 INTRA-LIGAND FREE ENERGY PREDICTED BY IDOCK:   -1.41 KCAL/MOL
REMARK 927      BINDING AFFINITY PREDICTED BY RF-SCORE:    0.00 PKD
ROOT
HETATM    1  N   UNL     1     -13.927  13.274  72.367  1.00  0.00    -0.668 NA 
HETATM    2  C   UNL     1     -12.697  13.884  71.822  1.00  0.00    -0.304 C  
HETATM    3  H1  UNL     1     -14.038  13.534  73.347  1.00  0.00     0.000 HD 
HETATM    4  H2  UNL     1     -13.945  12.263  72.233  1.00  0.00     0.000 HD 
ENDROOT
BRANCH   2   5
HETATM    5  C   UNL     1     -12.531  13.493  70.344  1.00  0.00    -0.275 C  
HETATM    6  O   UNL     1     -11.765  12.274  70.311  1.00  0.00    -0.271 OA 
HETATM    7  C   UNL     1     -11.718  11.705  69.005  1.00  0.00    -0.324 C  
HETATM    8  C   UNL     1     -10.902  12.652  68.077  1.00  0.00    -0.225 C  
HETATM    9  O   UNL     1     -10.606  14.965  70.143  1.00  0.00    -0.441 OA 
HETATM   10  H   UNL     1     -10.174  15.634  69.624  1.00  0.00     0.000 HD 
HETATM   11  N   UNL     1      -9.484  12.749  68.532  1.00  0.00    -0.381 NA 
HETATM   12  C   UNL     1     -11.567  14.048  68.071  1.00  0.00    -0.337 C  
HETATM   13  H2  UNL     1      -9.048  11.830  68.609  1.00  0.00     0.000 HD 
HETATM   14  O   UNL     1     -12.775  14.041  67.297  1.00  0.00    -0.397 OA 
HETATM   15  C   UNL     1     -11.829  14.579  69.501  1.00  0.00    -0.329 C  
HETATM   16  H1  UNL     1      -8.949  13.370  67.925  1.00  0.00     0.000 HD 
HETATM   17  H   UNL     1     -13.183  14.899  67.293  1.00  0.00     0.000 HD 
BRANCH   7  18
HETATM   18  O   UNL     1     -11.081  10.424  69.022  1.00  0.00    -0.226 OA 
BRANCH  18  19
HETATM   19  C   UNL     1     -10.110  10.268  70.073  1.00  0.00    -0.115 C  
HETATM   20  O   UNL     1     -11.891   9.317  71.506  1.00  0.00    -0.321 OA 
HETATM   21  C   UNL     1      -8.886   9.616  69.435  1.00  0.00    -0.180 C  
HETATM   22  C   UNL     1     -10.054   7.933  70.547  1.00  0.00    -0.192 C  
HETATM   23  H   UNL     1     -12.138   8.694  72.179  1.00  0.00     0.000 HD 
HETATM   24  O   UNL     1      -9.030   8.196  69.585  1.00  0.00    -0.151 OA 
HETATM   25  C   UNL     1     -10.507   9.272  71.150  1.00  0.00    -0.331 C  
BRANCH  21  26
HETATM   26  C   UNL     1      -7.559  10.035  70.070  1.00  0.00    -0.172 C  
HETATM   27  H   UNL     1      -6.207  11.454  69.822  1.00  0.00     0.000 HD 
HETATM   28  O   UNL     1      -7.031  11.194  69.428  1.00  0.00    -0.112 OA 
ENDBRANCH  21  26
BRANCH  22  29
HETATM   29  O   UNL     1      -9.561   7.105  71.595  1.00  0.00    -0.157 OA 
BRANCH  29  30
HETATM   30  C   UNL     1      -9.700   5.676  71.465  1.00  0.00    -0.161 C  
HETATM   31  C   UNL     1     -10.322   5.081  72.743  1.00  0.00    -0.195 C  
HETATM   32  O   UNL     1     -11.470   5.844  73.140  1.00  0.00    -0.479 OA 
HETATM   33  C   UNL     1     -10.727   3.620  72.514  1.00  0.00     0.062 C  
HETATM   34  C   UNL     1      -9.480   2.800  72.184  1.00  0.00    -0.185 C  
HETATM   35  N   UNL     1     -11.411   3.067  73.700  1.00  0.00    -0.211 NA 
HETATM   36  H   UNL     1     -11.854   5.477  73.927  1.00  0.00     0.000 HD 
HETATM   37  H1  UNL     1     -11.680   2.096  73.548  1.00  0.00     0.000 HD 
HETATM   38  H2  UNL     1     -12.209   3.640  73.974  1.00  0.00     0.000 HD 
HETATM   39  C   UNL     1      -8.728   3.362  70.965  1.00  0.00    -0.075 C  
HETATM   40  C   UNL     1      -8.418   4.904  71.049  1.00  0.00    -0.116 C  
HETATM   41  N   UNL     1      -7.493   2.573  70.774  1.00  0.00    -0.033 NA 
HETATM   42  H2  UNL     1      -7.675   1.573  70.695  1.00  0.00     0.000 HD 
HETATM   43  H1  UNL     1      -6.995   2.946  69.966  1.00  0.00     0.000 HD 
BRANCH  40  44
HETATM   44  O   UNL     1      -7.885   5.285  69.759  1.00  0.00    -0.071 OA 
BRANCH  44  45
HETATM   45  C   UNL     1      -8.212   4.410  68.670  1.00  0.00    -0.080 C  
HETATM   46  O   UNL     1      -9.497   4.695  68.129  1.00  0.00    -0.132 OA 
HETATM   47  C   UNL     1      -9.613   5.947  67.454  1.00  0.00    -0.113 C  
HETATM   48  C   UNL     1      -8.638   5.994  66.275  1.00  0.00    -0.137 C  
HETATM   49  H1  UNL     1      -5.046   4.180  67.318  1.00  0.00     0.000 HD 
HETATM   50  H2  UNL     1      -5.722   3.291  68.567  1.00  0.00     0.000 HD 
HETATM   51  O   UNL     1      -8.685   7.241  65.578  1.00  0.00    -0.289 OA 
HETATM   52  C   UNL     1      -7.208   5.747  66.776  1.00  0.00    -0.074 C  
HETATM   53  H   UNL     1      -8.081   7.269  64.846  1.00  0.00     0.000 HD 
HETATM   54  O   UNL     1      -6.308   5.697  65.656  1.00  0.00    -0.036 OA 
HETATM   55  N   UNL     1      -5.758   4.169  68.048  1.00  0.00    -0.021 NA 
HETATM   56  C   UNL     1      -7.132   4.428  67.560  1.00  0.00    -0.064 C  
HETATM   57  H   UNL     1      -5.423   5.544  65.966  1.00  0.00     0.000 HD 
BRANCH  47  58
HETATM   58  C   UNL     1     -11.069   6.078  66.988  1.00  0.00    -0.170 C  
HETATM   59  O   UNL     1     -11.291   5.278  65.823  1.00  0.00    -0.792 OA 
HETATM   60  H   UNL     1     -12.192   5.359  65.535  1.00  0.00     0.000 HD 
ENDBRANCH  47  58
ENDBRANCH  44  45
ENDBRANCH  40  44
ENDBRANCH  29  30
ENDBRANCH  22  29
ENDBRANCH  18  19
ENDBRANCH   7  18
ENDBRANCH   2   5
TORSDOF 9
ENDMDL
MODEL      116
REMARK 921   NORMALIZED FREE ENERGY PREDICTED BY IDOCK:   -5.62 KCAL/MOL
REMARK 922        TOTAL FREE ENERGY PREDICTED BY IDOCK:  -10.62 KCAL/MOL
REMARK 923 INTER-LIGAND FREE ENERGY PREDICTED BY IDOCK:   -9.16 KCAL/MOL
REMARK 924 INTRA-LIGAND FREE ENERGY PREDICTED BY IDOCK:   -1.46 KCAL/MOL
REMARK 927      BINDING AFFINITY PREDICTED BY RF-SCORE:    0.00 PKD
ROOT
HETATM    1  N   UNL     1      -9.295  18.958  66.053  1.00  0.00    -0.466 NA 
HETATM    2  C   UNL     1      -7.929  18.404  65.955  1.00  0.00    -0.111 C  
HETATM    3  H1  UNL     1      -9.367  19.805  65.489  1.00  0.00     0.000 HD 
HETATM    4  H2  UNL     1      -9.575  19.117  67.021  1.00  0.00     0.000 HD 
ENDROOT
BRANCH   2   5
HETATM    5  C   UNL     1      -7.820  17.127  66.805  1.00  0.00    -0.242 C  
HETATM    6  O   UNL     1      -9.098  16.468  66.744  1.00  0.00    -0.212 OA 
HETATM    7  C   UNL     1      -9.059  15.168  67.330  1.00  0.00    -0.191 C  
HETATM    8  C   UNL     1      -8.819  15.318  68.860  1.00  0.00    -0.209 C  
HETATM    9  O   UNL     1      -8.324  18.393  68.820  1.00  0.00    -0.304 OA 
HETATM   10  H   UNL     1      -8.090  18.564  69.724  1.00  0.00     0.000 HD 
HETATM   11  N   UNL     1      -9.961  16.025  69.511  1.00  0.00    -0.265 NA 
HETATM   12  C   UNL     1      -7.499  16.090  69.091  1.00  0.00    -0.216 C  
HETATM   13  H2  UNL     1     -10.851  15.568  69.312  1.00  0.00     0.000 HD 
HETATM   14  O   UNL     1      -6.361  15.262  68.814  1.00  0.00    -0.091 OA 
HETATM   15  C   UNL     1      -7.440  17.404  68.275  1.00  0.00    -0.227 C  
HETATM   16  H1  UNL     1      -9.803  16.124  70.514  1.00  0.00     0.000 HD 
HETATM   17  H   UNL     1      -5.551  15.737  68.956  1.00  0.00     0.000 HD 
BRANCH   7  18
HETATM   18  O   UNL     1     -10.293  14.474  67.128  1.00  0.00    -0.262 OA 
BRANCH  18  19
HETATM   19  C   UNL     1     -10.227  13.442  66.128  1.00  0.00    -0.301 C  
HETATM   20  O   UNL     1      -8.581  12.250  67.541  1.00  0.00    -0.156 OA 
HETATM   21  C   UNL     1     -11.670  13.097  65.767  1.00  0.00    -0.374 C  
HETATM   22  C   UNL     1     -10.917  11.443  67.226  1.00  0.00    -0.282 C  
HETATM   23  H   UNL     1      -8.235  11.423  67.854  1.00  0.00     0.000 HD 
HETATM   24  O   UNL     1     -12.076  12.014  66.617  1.00  0.00    -0.615 OA 
HETATM   25  C   UNL     1      -9.673  12.118  66.628  1.00  0.00    -0.219 C  
BRANCH  21  26
HETATM   26  C   UNL     1     -11.859  12.664  64.312  1.00  0.00    -0.393 C  
HETATM   27  H   UNL     1     -12.407  13.490  62.604  1.00  0.00     0.000 HD 
HETATM   28  O   UNL     1     -12.290  13.759  63.507  1.00  0.00    -0.706 OA 
ENDBRANCH  21  26
BRANCH  22  29
HETATM   29  O   UNL     1     -10.846  10.044  66.965  1.00  0.00    -0.215 OA 
BRANCH  29  30
HETATM   30  C   UNL     1     -10.767   9.140  68.083  1.00  0.00    -0.131 C  
HETATM   31  C   UNL     1     -11.264   9.832  69.368  1.00  0.00    -0.114 C  
HETATM   32  O   UNL     1     -12.508  10.503  69.121  1.00  0.00    -0.750 OA 
HETATM   33  C   UNL     1     -11.445   8.809  70.495  1.00  0.00    -0.196 C  
HETATM   34  C   UNL     1     -10.093   8.168  70.810  1.00  0.00    -0.211 C  
HETATM   35  N   UNL     1     -12.011   9.443  71.701  1.00  0.00    -0.371 NA 
HETATM   36  H   UNL     1     -12.814  10.929  69.912  1.00  0.00     0.000 HD 
HETATM   37  H1  UNL     1     -12.130   8.764  72.452  1.00  0.00     0.000 HD 
HETATM   38  H2  UNL     1     -12.881   9.932  71.495  1.00  0.00     0.000 HD 
HETATM   39  C   UNL     1      -9.461   7.516  69.569  1.00  0.00    -0.156 C  
HETATM   40  C   UNL     1      -9.391   8.456  68.307  1.00  0.00    -0.134 C  
HETATM   41  N   UNL     1      -8.123   7.007  69.938  1.00  0.00    -0.123 NA 
HETATM   42  H2  UNL     1      -8.151   6.378  70.740  1.00  0.00     0.000 HD 
HETATM   43  H1  UNL     1      -7.705   6.575  69.115  1.00  0.00     0.000 HD 
BRANCH  40  44
HETATM   44  O   UNL     1      -8.949   7.630  67.205  1.00  0.00    -0.125 OA 
BRANCH  44  45
HETATM   45  C   UNL     1      -7.610   7.870  66.749  1.00  0.00    -0.098 C  
HETATM   46  O   UNL     1      -6.719   6.838  67.155  1.00  0.00    -0.055 OA 
HETATM   47  C   UNL     1      -6.939   5.565  66.548  1.00  0.00    -0.064 C  
HETATM   48  C   UNL     1      -6.787   5.680  65.029  1.00  0.00    -0.051 C  
HETATM   49  H1  UNL     1      -8.423   9.262  63.698  1.00  0.00     0.000 HD 
HETATM   50  H2  UNL     1      -8.314  10.005  65.197  1.00  0.00     0.000 HD 
HETATM   51  O   UNL     1      -7.030   4.440  64.362  1.00  0.00    -0.045 OA 
HETATM   52  C   UNL     1      -7.757   6.742  64.492  1.00  0.00    -0.113 C  
HETATM   53  H   UNL     1      -6.935   4.511  63.419  1.00  0.00     0.000 HD 
HETATM   54  O   UNL     1      -7.545   6.917  63.080  1.00  0.00    -0.083 OA 
HETATM   55  N   UNL     1      -8.466   9.122  64.707  1.00  0.00    -0.169 NA 
HETATM   56  C   UNL     1      -7.544   8.082  65.215  1.00  0.00    -0.085 C  
HETATM   57  H   UNL     1      -8.145   7.574  62.748  1.00  0.00     0.000 HD 
BRANCH  47  58
HETATM   58  C   UNL     1      -5.912   4.594  67.146  1.00  0.00    -0.023 C  
HETATM   59  O   UNL     1      -5.132   5.252  68.148  1.00  0.00    -0.003 OA 
HETATM   60  H   UNL     1      -4.497   4.651  68.518  1.00  0.00     0.000 HD 
ENDBRANCH  47  58
ENDBRANCH  44  45
ENDBRANCH  40  44
ENDBRANCH  29  30
ENDBRANCH  22  29
ENDBRANCH  18  19
ENDBRANCH   7  18
ENDBRANCH   2   5
TORSDOF 9
ENDMDL
MODEL      117
REMARK 921   NORMALIZED FREE ENERGY PREDICTED BY IDOCK:   -5.62 KCAL/MOL
REMARK 922        TOTAL FREE ENERGY PREDICTED BY IDOCK:  -10.62 KCAL/MOL
REMARK 923 INTER-LIGAND FREE ENERGY PREDICTED BY IDOCK:   -8.41 KCAL/MOL
REMARK 924 INTRA-LIGAND FREE ENERGY PREDICTED BY IDOCK:   -2.20 KCAL/MOL
REMARK 927      BINDING AFFINITY PREDICTED BY RF-SCORE:    0.00 PKD
ROOT
HETATM    1  N   UNL     1     -13.970  13.748  72.395  1.00  0.00    -0.672 NA 
HETATM    2  C   UNL     1     -13.065  14.770  71.831  1.00  0.00    -0.334 C  
HETATM    3  H1  UNL     1     -14.260  14.022  73.334  1.00  0.00     0.000 HD 
HETATM    4  H2  UNL     1     -13.553  12.816  72.379  1.00  0.00     0.000 HD 
ENDROOT
BRANCH   2   5
HETATM    5  C   UNL     1     -12.628  14.357  70.416  1.00  0.00    -0.345 C  
HETATM    6  O   UNL     1     -11.813  13.178  70.551  1.00  0.00    -0.256 OA 
HETATM    7  C   UNL     1     -11.514  12.585  69.289  1.00  0.00    -0.293 C  
HETATM    8  C   UNL     1     -10.596  13.553  68.487  1.00  0.00    -0.247 C  
HETATM    9  O   UNL     1     -10.768  15.921  70.504  1.00  0.00    -0.298 OA 
HETATM   10  H   UNL     1     -10.285  16.600  70.048  1.00  0.00     0.000 HD 
HETATM   11  N   UNL     1      -9.283  13.732  69.176  1.00  0.00    -0.308 NA 
HETATM   12  C   UNL     1     -11.314  14.913  68.326  1.00  0.00    -0.310 C  
HETATM   13  H2  UNL     1      -8.825  12.837  69.353  1.00  0.00     0.000 HD 
HETATM   14  O   UNL     1     -12.368  14.828  67.357  1.00  0.00    -0.517 OA 
HETATM   15  C   UNL     1     -11.843  15.459  69.674  1.00  0.00    -0.347 C  
HETATM   16  H1  UNL     1      -8.681  14.366  68.650  1.00  0.00     0.000 HD 
HETATM   17  H   UNL     1     -12.809  15.664  67.258  1.00  0.00     0.000 HD 
BRANCH   7  18
HETATM   18  O   UNL     1     -10.831  11.339  69.453  1.00  0.00    -0.233 OA 
BRANCH  18  19
HETATM   19  C   UNL     1     -11.704  10.222  69.697  1.00  0.00    -0.160 C  
HETATM   20  O   UNL     1     -11.236   9.421  67.403  1.00  0.00    -0.367 OA 
HETATM   21  C   UNL     1     -11.304   9.652  71.056  1.00  0.00    -0.374 C  
HETATM   22  C   UNL     1     -10.346   8.281  69.432  1.00  0.00    -0.222 C  
HETATM   23  H   UNL     1     -11.106   8.685  66.815  1.00  0.00     0.000 HD 
HETATM   24  O   UNL     1     -10.331   8.624  70.819  1.00  0.00    -0.191 OA 
HETATM   25  C   UNL     1     -11.497   9.046  68.758  1.00  0.00     0.718 C  
BRANCH  21  26
HETATM   26  C   UNL     1     -12.468   9.041  71.839  1.00  0.00    -0.384 C  
HETATM   27  H   UNL     1     -14.427   9.262  71.949  1.00  0.00     0.000 HD 
HETATM   28  O   UNL     1     -13.705   9.642  71.463  1.00  0.00    -0.330 OA 
ENDBRANCH  21  26
BRANCH  22  29
HETATM   29  O   UNL     1     -10.565   6.885  69.259  1.00  0.00    -0.208 OA 
BRANCH  29  30
HETATM   30  C   UNL     1      -9.625   6.135  68.464  1.00  0.00    -0.119 C  
HETATM   31  C   UNL     1     -10.339   5.490  67.260  1.00  0.00    -0.236 C  
HETATM   32  O   UNL     1     -11.173   6.453  66.601  1.00  0.00    -0.707 OA 
HETATM   33  C   UNL     1      -9.315   4.928  66.267  1.00  0.00    -0.149 C  
HETATM   34  C   UNL     1      -8.495   3.838  66.955  1.00  0.00    -0.104 C  
HETATM   35  N   UNL     1      -9.982   4.392  65.064  1.00  0.00    -0.298 NA 
HETATM   36  H   UNL     1     -11.612   6.055  65.859  1.00  0.00     0.000 HD 
HETATM   37  H1  UNL     1      -9.302   4.018  64.403  1.00  0.00     0.000 HD 
HETATM   38  H2  UNL     1     -10.586   5.088  64.628  1.00  0.00     0.000 HD 
HETATM   39  C   UNL     1      -7.802   4.355  68.228  1.00  0.00    -0.079 C  
HETATM   40  C   UNL     1      -8.762   5.098  69.232  1.00  0.00    -0.096 C  
HETATM   41  N   UNL     1      -7.113   3.222  68.879  1.00  0.00    -0.048 NA 
HETATM   42  H2  UNL     1      -6.469   2.741  68.250  1.00  0.00     0.000 HD 
HETATM   43  H1  UNL     1      -6.654   3.565  69.722  1.00  0.00     0.000 HD 
BRANCH  40  44
HETATM   44  O   UNL     1      -7.918   5.668  70.259  1.00  0.00    -0.098 OA 
BRANCH  44  45
HETATM   45  C   UNL     1      -8.522   5.802  71.554  1.00  0.00    -0.128 C  
HETATM   46  O   UNL     1      -9.011   4.557  72.041  1.00  0.00    -0.122 OA 
HETATM   47  C   UNL     1      -8.012   3.589  72.358  1.00  0.00    -0.068 C  
HETATM   48  C   UNL     1      -7.086   4.135  73.448  1.00  0.00    -0.064 C  
HETATM   49  H1  UNL     1      -6.358   8.177  72.811  1.00  0.00     0.000 HD 
HETATM   50  H2  UNL     1      -7.728   8.396  71.871  1.00  0.00     0.000 HD 
HETATM   51  O   UNL     1      -6.041   3.219  73.784  1.00  0.00    -0.013 OA 
HETATM   52  C   UNL     1      -6.467   5.460  72.983  1.00  0.00    -0.069 C  
HETATM   53  H   UNL     1      -5.467   3.557  74.461  1.00  0.00     0.000 HD 
HETATM   54  O   UNL     1      -5.673   6.018  74.045  1.00  0.00    -0.050 OA 
HETATM   55  N   UNL     1      -6.988   7.746  72.135  1.00  0.00    -0.065 NA 
HETATM   56  C   UNL     1      -7.565   6.457  72.581  1.00  0.00    -0.103 C  
HETATM   57  H   UNL     1      -5.290   6.839  73.757  1.00  0.00     0.000 HD 
BRANCH  47  58
HETATM   58  C   UNL     1      -8.741   2.320  72.820  1.00  0.00    -0.067 C  
HETATM   59  O   UNL     1      -8.473   2.069  74.202  1.00  0.00    -0.057 OA 
HETATM   60  H   UNL     1      -8.924   1.284  74.488  1.00  0.00     0.000 HD 
ENDBRANCH  47  58
ENDBRANCH  44  45
ENDBRANCH  40  44
ENDBRANCH  29  30
ENDBRANCH  22  29
ENDBRANCH  18  19
ENDBRANCH   7  18
ENDBRANCH   2   5
TORSDOF 9
ENDMDL
MODEL      118
REMARK 921   NORMALIZED FREE ENERGY PREDICTED BY IDOCK:   -5.61 KCAL/MOL
REMARK 922        TOTAL FREE ENERGY PREDICTED BY IDOCK:  -10.60 KCAL/MOL
REMARK 923 INTER-LIGAND FREE ENERGY PREDICTED BY IDOCK:   -8.75 KCAL/MOL
REMARK 924 INTRA-LIGAND FREE ENERGY PREDICTED BY IDOCK:   -1.86 KCAL/MOL
REMARK 927      BINDING AFFINITY PREDICTED BY RF-SCORE:    0.00 PKD
ROOT
HETATM    1  N   UNL     1      -9.785  16.929  65.793  1.00  0.00    -0.548 NA 
HETATM    2  C   UNL     1      -9.520  15.588  66.351  1.00  0.00    -0.291 C  
HETATM    3  H1  UNL     1      -8.969  17.527  65.922  1.00  0.00     0.000 HD 
HETATM    4  H2  UNL     1     -10.631  17.346  66.182  1.00  0.00     0.000 HD 
ENDROOT
BRANCH   2   5
HETATM    5  C   UNL     1     -10.751  14.687  66.155  1.00  0.00    -0.314 C  
HETATM    6  O   UNL     1     -10.271  13.337  66.017  1.00  0.00    -0.280 OA 
HETATM    7  C   UNL     1     -11.333  12.386  66.031  1.00  0.00    -0.353 C  
HETATM    8  C   UNL     1     -12.194  12.581  64.750  1.00  0.00    -0.465 C  
HETATM    9  O   UNL     1     -10.753  15.163  63.771  1.00  0.00     0.475 OA 
HETATM   10  H   UNL     1     -11.276  15.401  63.014  1.00  0.00     0.000 HD 
HETATM   11  N   UNL     1     -11.397  12.284  63.523  1.00  0.00    -0.555 NA 
HETATM   12  C   UNL     1     -12.726  14.033  64.715  1.00  0.00    -0.205 C  
HETATM   13  H2  UNL     1     -10.981  11.354  63.560  1.00  0.00     0.000 HD 
HETATM   14  O   UNL     1     -13.782  14.220  65.667  1.00  0.00    -0.510 OA 
HETATM   15  C   UNL     1     -11.599  15.073  64.925  1.00  0.00    -0.374 C  
HETATM   16  H1  UNL     1     -11.961  12.413  62.684  1.00  0.00     0.000 HD 
HETATM   17  H   UNL     1     -14.108  15.112  65.645  1.00  0.00     0.000 HD 
BRANCH   7  18
HETATM   18  O   UNL     1     -10.827  11.048  66.042  1.00  0.00    -0.217 OA 
BRANCH  18  19
HETATM   19  C   UNL     1     -11.258  10.270  67.173  1.00  0.00     0.055 C  
HETATM   20  O   UNL     1     -10.123   8.304  66.186  1.00  0.00    -0.470 OA 
HETATM   21  C   UNL     1     -10.928  11.095  68.415  1.00  0.00    -0.227 C  
HETATM   22  C   UNL     1      -9.258   9.482  68.204  1.00  0.00    -0.129 C  
HETATM   23  H   UNL     1      -9.628   7.504  66.323  1.00  0.00     0.000 HD 
HETATM   24  O   UNL     1      -9.620  10.702  68.855  1.00  0.00    -0.181 OA 
HETATM   25  C   UNL     1     -10.467   8.991  67.392  1.00  0.00    -0.269 C  
BRANCH  21  26
HETATM   26  C   UNL     1     -11.907  10.890  69.573  1.00  0.00    -0.332 C  
HETATM   27  H   UNL     1     -11.821  10.429  71.491  1.00  0.00     0.000 HD 
HETATM   28  O   UNL     1     -11.214  10.556  70.773  1.00  0.00    -0.300 OA 
ENDBRANCH  21  26
BRANCH  22  29
HETATM   29  O   UNL     1      -8.914   8.483  69.159  1.00  0.00    -0.144 OA 
BRANCH  29  30
HETATM   30  C   UNL     1      -8.075   7.390  68.737  1.00  0.00    -0.128 C  
HETATM   31  C   UNL     1      -7.169   7.831  67.571  1.00  0.00    -0.091 C  
HETATM   32  O   UNL     1      -6.549   9.089  67.871  1.00  0.00    -0.059 OA 
HETATM   33  C   UNL     1      -6.090   6.776  67.299  1.00  0.00    -0.029 C  
HETATM   34  C   UNL     1      -6.763   5.466  66.890  1.00  0.00    -0.062 C  
HETATM   35  N   UNL     1      -5.158   7.229  66.249  1.00  0.00    -0.023 NA 
HETATM   36  H   UNL     1      -5.990   9.361  67.153  1.00  0.00     0.000 HD 
HETATM   37  H1  UNL     1      -4.440   6.528  66.067  1.00  0.00     0.000 HD 
HETATM   38  H2  UNL     1      -4.748   8.135  66.475  1.00  0.00     0.000 HD 
HETATM   39  C   UNL     1      -7.761   4.974  67.953  1.00  0.00    -0.084 C  
HETATM   40  C   UNL     1      -8.806   6.059  68.411  1.00  0.00    -0.112 C  
HETATM   41  N   UNL     1      -8.431   3.762  67.439  1.00  0.00    -0.098 NA 
HETATM   42  H2  UNL     1      -7.770   3.038  67.157  1.00  0.00     0.000 HD 
HETATM   43  H1  UNL     1      -9.093   3.436  68.143  1.00  0.00     0.000 HD 
BRANCH  40  44
HETATM   44  O   UNL     1      -9.528   5.487  69.527  1.00  0.00    -0.131 OA 
BRANCH  44  45
HETATM   45  C   UNL     1      -8.800   5.410  70.761  1.00  0.00    -0.133 C  
HETATM   46  O   UNL     1      -9.092   6.510  71.616  1.00  0.00    -0.143 OA 
HETATM   47  C   UNL     1     -10.420   6.543  72.139  1.00  0.00    -0.205 C  
HETATM   48  C   UNL     1     -10.685   5.283  72.966  1.00  0.00    -0.257 C  
HETATM   49  H1  UNL     1      -8.932   1.984  71.144  1.00  0.00     0.000 HD 
HETATM   50  H2  UNL     1      -7.839   2.902  70.265  1.00  0.00     0.000 HD 
HETATM   51  O   UNL     1     -12.014   5.244  73.489  1.00  0.00    -0.335 OA 
HETATM   52  C   UNL     1     -10.445   4.038  72.101  1.00  0.00    -0.012 C  
HETATM   53  H   UNL     1     -12.179   4.462  74.003  1.00  0.00     0.000 HD 
HETATM   54  O   UNL     1     -10.602   2.856  72.906  1.00  0.00    -0.159 OA 
HETATM   55  N   UNL     1      -8.779   2.869  70.661  1.00  0.00    -0.067 NA 
HETATM   56  C   UNL     1      -9.033   4.066  71.495  1.00  0.00    -0.114 C  
HETATM   57  H   UNL     1     -10.453   2.085  72.371  1.00  0.00     0.000 HD 
BRANCH  47  58
HETATM   58  C   UNL     1     -10.539   7.814  72.992  1.00  0.00    -0.379 C  
HETATM   59  O   UNL     1     -11.873   8.325  72.935  1.00  0.00    -0.496 OA 
HETATM   60  H   UNL     1     -11.948   9.111  73.463  1.00  0.00     0.000 HD 
ENDBRANCH  47  58
ENDBRANCH  44  45
ENDBRANCH  40  44
ENDBRANCH  29  30
ENDBRANCH  22  29
ENDBRANCH  18  19
ENDBRANCH   7  18
ENDBRANCH   2   5
TORSDOF 9
ENDMDL
MODEL      119
REMARK 921   NORMALIZED FREE ENERGY PREDICTED BY IDOCK:   -5.61 KCAL/MOL
REMARK 922        TOTAL FREE ENERGY PREDICTED BY IDOCK:  -10.60 KCAL/MOL
REMARK 923 INTER-LIGAND FREE ENERGY PREDICTED BY IDOCK:   -8.69 KCAL/MOL
REMARK 924 INTRA-LIGAND FREE ENERGY PREDICTED BY IDOCK:   -1.91 KCAL/MOL
REMARK 927      BINDING AFFINITY PREDICTED BY RF-SCORE:    0.00 PKD
ROOT
HETATM    1  N   UNL     1      -8.208   4.705  69.605  1.00  0.00    -0.070 NA 
HETATM    2  C   UNL     1      -9.080   3.806  70.387  1.00  0.00    -0.125 C  
HETATM    3  H1  UNL     1      -7.590   4.156  69.008  1.00  0.00     0.000 HD 
HETATM    4  H2  UNL     1      -7.691   5.352  70.201  1.00  0.00     0.000 HD 
ENDROOT
BRANCH   2   5
HETATM    5  C   UNL     1     -10.013   4.634  71.287  1.00  0.00    -0.198 C  
HETATM    6  O   UNL     1      -9.422   5.939  71.422  1.00  0.00    -0.149 OA 
HETATM    7  C   UNL     1     -10.297   6.859  72.070  1.00  0.00    -0.199 C  
HETATM    8  C   UNL     1     -10.489   6.410  73.547  1.00  0.00    -0.282 C  
HETATM    9  O   UNL     1      -8.959   3.710  73.274  1.00  0.00    -0.097 OA 
HETATM   10  H   UNL     1      -9.093   3.324  74.132  1.00  0.00     0.000 HD 
HETATM   11  N   UNL     1      -9.198   6.479  74.295  1.00  0.00    -0.174 NA 
HETATM   12  C   UNL     1     -11.053   4.970  73.569  1.00  0.00    -0.317 C  
HETATM   13  H2  UNL     1      -8.776   7.406  74.234  1.00  0.00     0.000 HD 
HETATM   14  O   UNL     1     -12.438   4.954  73.199  1.00  0.00    -0.292 OA 
HETATM   15  C   UNL     1     -10.230   4.007  72.680  1.00  0.00    -0.167 C  
HETATM   16  H1  UNL     1      -9.324   6.184  75.263  1.00  0.00     0.000 HD 
HETATM   17  H   UNL     1     -12.785   4.069  73.212  1.00  0.00     0.000 HD 
BRANCH   7  18
HETATM   18  O   UNL     1      -9.753   8.182  72.062  1.00  0.00    -0.186 OA 
BRANCH  18  19
HETATM   19  C   UNL     1     -10.636   9.174  71.507  1.00  0.00    -0.358 C  
HETATM   20  O   UNL     1      -8.703  10.145  70.303  1.00  0.00    -0.329 OA 
HETATM   21  C   UNL     1     -11.860   8.421  70.989  1.00  0.00    -0.252 C  
HETATM   22  C   UNL     1     -10.514   8.886  69.144  1.00  0.00    -0.223 C  
HETATM   23  H   UNL     1      -8.370  10.575  69.524  1.00  0.00     0.000 HD 
HETATM   24  O   UNL     1     -11.617   8.107  69.610  1.00  0.00     0.225 OA 
HETATM   25  C   UNL     1     -10.103   9.860  70.260  1.00  0.00    -0.237 C  
BRANCH  21  26
HETATM   26  C   UNL     1     -13.162   9.219  71.080  1.00  0.00    -0.183 C  
HETATM   27  H   UNL     1     -13.916  10.657  72.203  1.00  0.00     0.000 HD 
HETATM   28  O   UNL     1     -13.108  10.162  72.147  1.00  0.00    -0.435 OA 
ENDBRANCH  21  26
BRANCH  22  29
HETATM   29  O   UNL     1     -10.879   9.641  67.992  1.00  0.00    -0.242 OA 
BRANCH  29  30
HETATM   30  C   UNL     1     -10.024   9.582  66.834  1.00  0.00    -0.216 C  
HETATM   31  C   UNL     1      -9.554   8.135  66.588  1.00  0.00    -0.229 C  
HETATM   32  O   UNL     1     -10.666   7.232  66.661  1.00  0.00    -0.506 OA 
HETATM   33  C   UNL     1      -8.879   8.014  65.217  1.00  0.00     0.045 C  
HETATM   34  C   UNL     1      -7.642   8.912  65.186  1.00  0.00    -0.099 C  
HETATM   35  N   UNL     1      -8.509   6.615  64.930  1.00  0.00    -0.335 NA 
HETATM   36  H   UNL     1     -10.376   6.341  66.509  1.00  0.00     0.000 HD 
HETATM   37  H1  UNL     1      -8.060   6.533  64.018  1.00  0.00     0.000 HD 
HETATM   38  H2  UNL     1      -9.312   5.990  65.010  1.00  0.00     0.000 HD 
HETATM   39  C   UNL     1      -7.987  10.378  65.504  1.00  0.00    -0.153 C  
HETATM   40  C   UNL     1      -8.829  10.574  66.821  1.00  0.00    -0.131 C  
HETATM   41  N   UNL     1      -6.730  11.154  65.547  1.00  0.00    -0.350 NA 
HETATM   42  H2  UNL     1      -6.180  11.057  64.694  1.00  0.00     0.000 HD 
HETATM   43  H1  UNL     1      -6.959  12.125  65.758  1.00  0.00     0.000 HD 
BRANCH  40  44
HETATM   44  O   UNL     1      -9.212  11.969  66.857  1.00  0.00    -0.185 OA 
BRANCH  44  45
HETATM   45  C   UNL     1      -9.134  12.599  68.144  1.00  0.00    -0.204 C  
HETATM   46  O   UNL     1      -7.894  13.272  68.331  1.00  0.00    -0.132 OA 
HETATM   47  C   UNL     1      -7.690  14.418  67.506  1.00  0.00    -0.192 C  
HETATM   48  C   UNL     1      -8.780  15.458  67.780  1.00  0.00    -0.164 C  
HETATM   49  H1  UNL     1     -12.438  13.571  68.361  1.00  0.00     0.000 HD 
HETATM   50  H2  UNL     1     -11.748  12.098  68.762  1.00  0.00     0.000 HD 
HETATM   51  O   UNL     1      -8.646  16.618  66.957  1.00  0.00    -0.178 OA 
HETATM   52  C   UNL     1     -10.161  14.830  67.550  1.00  0.00    -0.233 C  
HETATM   53  H   UNL     1      -9.322  17.263  67.128  1.00  0.00     0.000 HD 
HETATM   54  O   UNL     1     -11.185  15.778  67.901  1.00  0.00    -0.341 OA 
HETATM   55  N   UNL     1     -11.654  12.940  68.194  1.00  0.00    -0.315 NA 
HETATM   56  C   UNL     1     -10.324  13.558  68.398  1.00  0.00    -0.248 C  
HETATM   57  H   UNL     1     -12.040  15.390  67.758  1.00  0.00     0.000 HD 
BRANCH  47  58
HETATM   58  C   UNL     1      -6.293  14.966  67.829  1.00  0.00    -0.155 C  
HETATM   59  O   UNL     1      -5.643  14.131  68.791  1.00  0.00    -0.078 OA 
HETATM   60  H   UNL     1      -4.779  14.469  68.992  1.00  0.00     0.000 HD 
ENDBRANCH  47  58
ENDBRANCH  44  45
ENDBRANCH  40  44
ENDBRANCH  29  30
ENDBRANCH  22  29
ENDBRANCH  18  19
ENDBRANCH   7  18
ENDBRANCH   2   5
TORSDOF 9
ENDMDL
MODEL      120
REMARK 921   NORMALIZED FREE ENERGY PREDICTED BY IDOCK:   -5.60 KCAL/MOL
REMARK 922        TOTAL FREE ENERGY PREDICTED BY IDOCK:  -10.59 KCAL/MOL
REMARK 923 INTER-LIGAND FREE ENERGY PREDICTED BY IDOCK:   -7.71 KCAL/MOL
REMARK 924 INTRA-LIGAND FREE ENERGY PREDICTED BY IDOCK:   -2.88 KCAL/MOL
REMARK 927      BINDING AFFINITY PREDICTED BY RF-SCORE:    0.00 PKD
ROOT
HETATM    1  N   UNL     1      -5.736   8.053  70.350  1.00  0.00    -0.025 NA 
HETATM    2  C   UNL     1      -5.243   7.007  71.269  1.00  0.00    -0.027 C  
HETATM    3  H1  UNL     1      -4.950   8.504  69.883  1.00  0.00     0.000 HD 
HETATM    4  H2  UNL     1      -6.339   8.726  70.824  1.00  0.00     0.000 HD 
ENDROOT
BRANCH   2   5
HETATM    5  C   UNL     1      -6.429   6.326  71.972  1.00  0.00    -0.058 C  
HETATM    6  O   UNL     1      -7.596   7.127  71.706  1.00  0.00    -0.085 OA 
HETATM    7  C   UNL     1      -8.795   6.488  72.138  1.00  0.00    -0.135 C  
HETATM    8  C   UNL     1      -8.781   6.400  73.692  1.00  0.00    -0.123 C  
HETATM    9  O   UNL     1      -5.869   7.443  74.058  1.00  0.00    -0.060 OA 
HETATM   10  H   UNL     1      -5.746   7.350  74.995  1.00  0.00     0.000 HD 
HETATM   11  N   UNL     1      -8.802   7.763  74.301  1.00  0.00    -0.427 NA 
HETATM   12  C   UNL     1      -7.523   5.623  74.142  1.00  0.00    -0.092 C  
HETATM   13  H2  UNL     1      -9.589   8.316  73.962  1.00  0.00     0.000 HD 
HETATM   14  O   UNL     1      -7.665   4.218  73.888  1.00  0.00    -0.079 OA 
HETATM   15  C   UNL     1      -6.230   6.175  73.495  1.00  0.00    -0.064 C  
HETATM   16  H1  UNL     1      -8.792   7.705  75.320  1.00  0.00     0.000 HD 
HETATM   17  H   UNL     1      -6.892   3.741  74.165  1.00  0.00     0.000 HD 
BRANCH   7  18
HETATM   18  O   UNL     1      -9.949   7.229  71.733  1.00  0.00    -0.172 OA 
BRANCH  18  19
HETATM   19  C   UNL     1     -10.648   6.657  70.613  1.00  0.00    -0.227 C  
HETATM   20  O   UNL     1     -11.716   8.855  70.222  1.00  0.00    -0.460 OA 
HETATM   21  C   UNL     1      -9.606   5.893  69.799  1.00  0.00    -0.153 C  
HETATM   22  C   UNL     1      -9.962   7.926  68.716  1.00  0.00    -0.187 C  
HETATM   23  H   UNL     1     -12.049   9.492  69.601  1.00  0.00     0.000 HD 
HETATM   24  O   UNL     1      -9.095   6.794  68.805  1.00  0.00    -0.133 OA 
HETATM   25  C   UNL     1     -11.181   7.675  69.619  1.00  0.00     0.025 C  
BRANCH  21  26
HETATM   26  C   UNL     1     -10.159   4.656  69.089  1.00  0.00    -0.074 C  
HETATM   27  H   UNL     1      -9.800   3.642  67.433  1.00  0.00     0.000 HD 
HETATM   28  O   UNL     1      -9.456   4.410  67.873  1.00  0.00    -0.143 OA 
ENDBRANCH  21  26
BRANCH  22  29
HETATM   29  O   UNL     1     -10.417   8.110  67.379  1.00  0.00    -0.260 OA 
BRANCH  29  30
HETATM   30  C   UNL     1      -9.473   8.566  66.390  1.00  0.00    -0.232 C  
HETATM   31  C   UNL     1      -8.471   7.446  66.050  1.00  0.00    -0.148 C  
HETATM   32  O   UNL     1      -9.165   6.213  65.813  1.00  0.00    -0.320 OA 
HETATM   33  C   UNL     1      -7.645   7.819  64.814  1.00  0.00    -0.108 C  
HETATM   34  C   UNL     1      -6.839   9.083  65.113  1.00  0.00    -0.076 C  
HETATM   35  N   UNL     1      -6.748   6.714  64.422  1.00  0.00    -0.041 NA 
HETATM   36  H   UNL     1      -8.548   5.523  65.603  1.00  0.00     0.000 HD 
HETATM   37  H1  UNL     1      -6.198   6.962  63.600  1.00  0.00     0.000 HD 
HETATM   38  H2  UNL     1      -7.262   5.845  64.281  1.00  0.00     0.000 HD 
HETATM   39  C   UNL     1      -7.741  10.251  65.548  1.00  0.00    -0.149 C  
HETATM   40  C   UNL     1      -8.743   9.899  66.711  1.00  0.00    -0.128 C  
HETATM   41  N   UNL     1      -6.880  11.398  65.907  1.00  0.00    -0.351 NA 
HETATM   42  H2  UNL     1      -6.238  11.655  65.157  1.00  0.00     0.000 HD 
HETATM   43  H1  UNL     1      -7.478  12.172  66.195  1.00  0.00     0.000 HD 
BRANCH  40  44
HETATM   44  O   UNL     1      -9.620  11.040  66.855  1.00  0.00    -0.178 OA 
BRANCH  44  45
HETATM   45  C   UNL     1      -9.590  11.686  68.136  1.00  0.00    -0.190 C  
HETATM   46  O   UNL     1      -8.650  12.754  68.168  1.00  0.00    -0.174 OA 
HETATM   47  C   UNL     1      -8.975  13.880  67.355  1.00  0.00    -0.210 C  
HETATM   48  C   UNL     1     -10.310  14.479  67.805  1.00  0.00    -0.237 C  
HETATM   49  H1  UNL     1     -12.961  11.447  68.832  1.00  0.00     0.000 HD 
HETATM   50  H2  UNL     1     -11.752  10.317  69.094  1.00  0.00     0.000 HD 
HETATM   51  O   UNL     1     -10.705  15.594  67.003  1.00  0.00    -0.313 OA 
HETATM   52  C   UNL     1     -11.403  13.403  67.750  1.00  0.00    -0.294 C  
HETATM   53  H   UNL     1     -11.533  15.966  67.283  1.00  0.00     0.000 HD 
HETATM   54  O   UNL     1     -12.634  13.942  68.264  1.00  0.00    -0.327 OA 
HETATM   55  N   UNL     1     -12.038  11.126  68.542  1.00  0.00    -0.594 NA 
HETATM   56  C   UNL     1     -10.993  12.174  68.577  1.00  0.00    -0.238 C  
HETATM   57  H   UNL     1     -13.311  13.276  68.230  1.00  0.00     0.000 HD 
BRANCH  47  58
HETATM   58  C   UNL     1      -7.827  14.889  67.498  1.00  0.00    -0.185 C  
HETATM   59  O   UNL     1      -7.922  15.895  66.486  1.00  0.00    -0.262 OA 
HETATM   60  H   UNL     1      -7.212  16.519  66.575  1.00  0.00     0.000 HD 
ENDBRANCH  47  58
ENDBRANCH  44  45
ENDBRANCH  40  44
ENDBRANCH  29  30
ENDBRANCH  22  29
ENDBRANCH  18  19
ENDBRANCH   7  18
ENDBRANCH   2   5
TORSDOF 9
ENDMDL
MODEL      121
REMARK 921   NORMALIZED FREE ENERGY PREDICTED BY IDOCK:   -5.58 KCAL/MOL
REMARK 922        TOTAL FREE ENERGY PREDICTED BY IDOCK:  -10.56 KCAL/MOL
REMARK 923 INTER-LIGAND FREE ENERGY PREDICTED BY IDOCK:   -8.91 KCAL/MOL
REMARK 924 INTRA-LIGAND FREE ENERGY PREDICTED BY IDOCK:   -1.64 KCAL/MOL
REMARK 927      BINDING AFFINITY PREDICTED BY RF-SCORE:    0.00 PKD
ROOT
HETATM    1  N   UNL     1     -10.713  15.619  64.722  1.00  0.00    -0.660 NA 
HETATM    2  C   UNL     1     -10.063  16.736  65.437  1.00  0.00     0.024 C  
HETATM    3  H1  UNL     1     -11.211  15.973  63.905  1.00  0.00     0.000 HD 
HETATM    4  H2  UNL     1     -11.319  15.073  65.335  1.00  0.00     0.000 HD 
ENDROOT
BRANCH   2   5
HETATM    5  C   UNL     1      -9.311  16.201  66.667  1.00  0.00    -0.242 C  
HETATM    6  O   UNL     1     -10.041  15.057  67.146  1.00  0.00    -0.237 OA 
HETATM    7  C   UNL     1      -9.330  14.355  68.163  1.00  0.00    -0.203 C  
HETATM    8  C   UNL     1      -9.239  15.261  69.425  1.00  0.00    -0.233 C  
HETATM    9  O   UNL     1     -10.455  17.803  68.096  1.00  0.00    -0.368 OA 
HETATM   10  H   UNL     1     -10.367  18.445  68.790  1.00  0.00     0.000 HD 
HETATM   11  N   UNL     1     -10.597  15.529  69.986  1.00  0.00    -0.309 NA 
HETATM   12  C   UNL     1      -8.538  16.586  69.046  1.00  0.00    -0.208 C  
HETATM   13  H2  UNL     1     -11.103  14.664  70.178  1.00  0.00     0.000 HD 
HETATM   14  O   UNL     1      -7.128  16.391  68.868  1.00  0.00    -0.169 OA 
HETATM   15  C   UNL     1      -9.168  17.245  67.795  1.00  0.00    -0.239 C  
HETATM   16  H1  UNL     1     -10.538  16.123  70.812  1.00  0.00     0.000 HD 
HETATM   17  H   UNL     1      -6.697  17.205  68.635  1.00  0.00     0.000 HD 
BRANCH   7  18
HETATM   18  O   UNL     1     -10.001  13.143  68.519  1.00  0.00    -0.232 OA 
BRANCH  18  19
HETATM   19  C   UNL     1      -9.975  12.136  67.491  1.00  0.00    -0.197 C  
HETATM   20  O   UNL     1      -8.435  10.808  68.904  1.00  0.00    -0.144 OA 
HETATM   21  C   UNL     1     -11.428  11.890  67.092  1.00  0.00    -0.319 C  
HETATM   22  C   UNL     1     -10.808  10.154  68.519  1.00  0.00    -0.237 C  
HETATM   23  H   UNL     1      -8.146   9.953  69.199  1.00  0.00     0.000 HD 
HETATM   24  O   UNL     1     -11.917  10.811  67.902  1.00  0.00    -0.518 OA 
HETATM   25  C   UNL     1      -9.513  10.768  67.965  1.00  0.00    -0.160 C  
BRANCH  21  26
HETATM   26  C   UNL     1     -11.611  11.509  65.622  1.00  0.00     0.107 C  
HETATM   27  H   UNL     1     -11.698  12.429  63.877  1.00  0.00     0.000 HD 
HETATM   28  O   UNL     1     -11.585  12.666  64.789  1.00  0.00    -0.307 OA 
ENDBRANCH  21  26
BRANCH  22  29
HETATM   29  O   UNL     1     -10.816   8.761  68.219  1.00  0.00    -0.111 OA 
BRANCH  29  30
HETATM   30  C   UNL     1     -10.463   7.832  69.262  1.00  0.00    -0.217 C  
HETATM   31  C   UNL     1     -10.970   8.341  70.626  1.00  0.00    -0.240 C  
HETATM   32  O   UNL     1     -12.337   8.763  70.523  1.00  0.00    -0.482 OA 
HETATM   33  C   UNL     1     -10.847   7.245  71.690  1.00  0.00    -0.220 C  
HETATM   34  C   UNL     1      -9.374   6.870  71.855  1.00  0.00    -0.145 C  
HETATM   35  N   UNL     1     -11.416   7.688  72.977  1.00  0.00    -0.609 NA 
HETATM   36  H   UNL     1     -12.649   9.076  71.363  1.00  0.00     0.000 HD 
HETATM   37  H1  UNL     1     -11.335   6.959  73.685  1.00  0.00     0.000 HD 
HETATM   38  H2  UNL     1     -12.380   8.003  72.872  1.00  0.00     0.000 HD 
HETATM   39  C   UNL     1      -8.740   6.424  70.526  1.00  0.00    -0.144 C  
HETATM   40  C   UNL     1      -8.966   7.426  69.332  1.00  0.00    -0.139 C  
HETATM   41  N   UNL     1      -7.302   6.174  70.755  1.00  0.00    -0.080 NA 
HETATM   42  H2  UNL     1      -7.135   5.510  71.512  1.00  0.00     0.000 HD 
HETATM   43  H1  UNL     1      -6.882   5.878  69.874  1.00  0.00     0.000 HD 
BRANCH  40  44
HETATM   44  O   UNL     1      -8.472   6.765  68.144  1.00  0.00    -0.120 OA 
BRANCH  44  45
HETATM   45  C   UNL     1      -9.456   6.477  67.140  1.00  0.00    -0.131 C  
HETATM   46  O   UNL     1      -9.241   7.235  65.955  1.00  0.00    -0.133 OA 
HETATM   47  C   UNL     1      -8.064   6.901  65.220  1.00  0.00    -0.134 C  
HETATM   48  C   UNL     1      -8.125   5.437  64.779  1.00  0.00    -0.123 C  
HETATM   49  H1  UNL     1      -9.785   3.105  67.793  1.00  0.00     0.000 HD 
HETATM   50  H2  UNL     1     -10.552   4.398  68.533  1.00  0.00     0.000 HD 
HETATM   51  O   UNL     1      -6.955   5.034  64.064  1.00  0.00    -0.046 OA 
HETATM   52  C   UNL     1      -8.304   4.534  66.007  1.00  0.00    -0.113 C  
HETATM   53  H   UNL     1      -6.993   4.125  63.790  1.00  0.00     0.000 HD 
HETATM   54  O   UNL     1      -8.457   3.168  65.583  1.00  0.00    -0.101 OA 
HETATM   55  N   UNL     1      -9.731   4.101  68.005  1.00  0.00    -0.133 NA 
HETATM   56  C   UNL     1      -9.537   4.964  66.817  1.00  0.00    -0.161 C  
HETATM   57  H   UNL     1      -8.568   2.610  66.343  1.00  0.00     0.000 HD 
BRANCH  47  58
HETATM   58  C   UNL     1      -7.997   7.851  64.016  1.00  0.00    -0.124 C  
HETATM   59  O   UNL     1      -8.531   7.215  62.852  1.00  0.00    -0.355 OA 
HETATM   60  H   UNL     1      -8.489   7.803  62.107  1.00  0.00     0.000 HD 
ENDBRANCH  47  58
ENDBRANCH  44  45
ENDBRANCH  40  44
ENDBRANCH  29  30
ENDBRANCH  22  29
ENDBRANCH  18  19
ENDBRANCH   7  18
ENDBRANCH   2   5
TORSDOF 9
ENDMDL
MODEL      122
REMARK 921   NORMALIZED FREE ENERGY PREDICTED BY IDOCK:   -5.56 KCAL/MOL
REMARK 922        TOTAL FREE ENERGY PREDICTED BY IDOCK:  -10.53 KCAL/MOL
REMARK 923 INTER-LIGAND FREE ENERGY PREDICTED BY IDOCK:   -8.66 KCAL/MOL
REMARK 924 INTRA-LIGAND FREE ENERGY PREDICTED BY IDOCK:   -1.87 KCAL/MOL
REMARK 927      BINDING AFFINITY PREDICTED BY RF-SCORE:    0.00 PKD
ROOT
HETATM    1  N   UNL     1      -5.661  14.982  68.542  1.00  0.00    -0.092 NA 
HETATM    2  C   UNL     1      -6.395  15.725  69.586  1.00  0.00    -0.178 C  
HETATM    3  H1  UNL     1      -4.663  14.981  68.753  1.00  0.00     0.000 HD 
HETATM    4  H2  UNL     1      -5.855  15.343  67.607  1.00  0.00     0.000 HD 
ENDROOT
BRANCH   2   5
HETATM    5  C   UNL     1      -7.900  15.726  69.267  1.00  0.00    -0.233 C  
HETATM    6  O   UNL     1      -8.118  14.731  68.250  1.00  0.00    -0.127 OA 
HETATM    7  C   UNL     1      -9.505  14.499  68.015  1.00  0.00    -0.209 C  
HETATM    8  C   UNL     1     -10.126  15.781  67.387  1.00  0.00    -0.246 C  
HETATM    9  O   UNL     1      -7.596  17.569  67.710  1.00  0.00    -0.187 OA 
HETATM   10  H   UNL     1      -7.916  18.413  67.413  1.00  0.00     0.000 HD 
HETATM   11  N   UNL     1      -9.527  16.060  66.049  1.00  0.00    -0.332 NA 
HETATM   12  C   UNL     1      -9.898  16.974  68.345  1.00  0.00    -0.283 C  
HETATM   13  H2  UNL     1      -9.607  15.258  65.424  1.00  0.00     0.000 HD 
HETATM   14  O   UNL     1     -10.768  16.896  69.482  1.00  0.00    -0.326 OA 
HETATM   15  C   UNL     1      -8.420  17.097  68.785  1.00  0.00    -0.225 C  
HETATM   16  H1  UNL     1      -9.934  16.900  65.638  1.00  0.00     0.000 HD 
HETATM   17  H   UNL     1     -10.628  17.629  70.070  1.00  0.00     0.000 HD 
BRANCH   7  18
HETATM   18  O   UNL     1      -9.700  13.408  67.112  1.00  0.00    -0.225 OA 
BRANCH  18  19
HETATM   19  C   UNL     1     -10.790  12.539  67.471  1.00  0.00    -0.232 C  
HETATM   20  O   UNL     1     -10.657  11.526  65.216  1.00  0.00    -0.269 OA 
HETATM   21  C   UNL     1     -10.450  11.967  68.845  1.00  0.00    -0.125 C  
HETATM   22  C   UNL     1      -9.932  10.324  67.275  1.00  0.00    -0.190 C  
HETATM   23  H   UNL     1     -10.734  10.749  64.674  1.00  0.00     0.000 HD 
HETATM   24  O   UNL     1      -9.755  10.729  68.634  1.00  0.00    -0.171 OA 
HETATM   25  C   UNL     1     -10.914  11.297  66.604  1.00  0.00    -0.268 C  
BRANCH  21  26
HETATM   26  C   UNL     1     -11.674  11.688  69.720  1.00  0.00    -0.352 C  
HETATM   27  H   UNL     1     -12.769  12.656  71.049  1.00  0.00     0.000 HD 
HETATM   28  O   UNL     1     -12.009  12.829  70.506  1.00  0.00    -0.320 OA 
ENDBRANCH  21  26
BRANCH  22  29
HETATM   29  O   UNL     1     -10.475   9.009  67.207  1.00  0.00    -0.261 OA 
BRANCH  29  30
HETATM   30  C   UNL     1      -9.612   7.930  66.798  1.00  0.00    -0.215 C  
HETATM   31  C   UNL     1      -9.120   8.157  65.355  1.00  0.00     0.110 C  
HETATM   32  O   UNL     1      -8.650   9.503  65.196  1.00  0.00    -0.142 OA 
HETATM   33  C   UNL     1      -7.996   7.174  65.009  1.00  0.00    -0.129 C  
HETATM   34  C   UNL     1      -8.536   5.746  65.093  1.00  0.00    -0.138 C  
HETATM   35  N   UNL     1      -7.451   7.443  63.665  1.00  0.00    -0.097 NA 
HETATM   36  H   UNL     1      -8.346   9.643  64.307  1.00  0.00     0.000 HD 
HETATM   37  H1  UNL     1      -6.703   6.789  63.434  1.00  0.00     0.000 HD 
HETATM   38  H2  UNL     1      -7.145   8.411  63.570  1.00  0.00     0.000 HD 
HETATM   39  C   UNL     1      -9.134   5.437  66.476  1.00  0.00    -0.135 C  
HETATM   40  C   UNL     1     -10.183   6.498  66.981  1.00  0.00    -0.215 C  
HETATM   41  N   UNL     1      -9.715   4.078  66.441  1.00  0.00    -0.269 NA 
HETATM   42  H2  UNL     1      -9.044   3.373  66.137  1.00  0.00     0.000 HD 
HETATM   43  H1  UNL     1     -10.111   3.873  67.358  1.00  0.00     0.000 HD 
BRANCH  40  44
HETATM   44  O   UNL     1     -10.491   6.149  68.351  1.00  0.00    -0.180 OA 
BRANCH  44  45
HETATM   45  C   UNL     1      -9.370   6.095  69.243  1.00  0.00    -0.134 C  
HETATM   46  O   UNL     1      -9.188   7.322  69.941  1.00  0.00    -0.142 OA 
HETATM   47  C   UNL     1     -10.210   7.648  70.882  1.00  0.00    -0.199 C  
HETATM   48  C   UNL     1     -10.294   6.560  71.956  1.00  0.00    -0.199 C  
HETATM   49  H1  UNL     1      -9.752   2.814  70.239  1.00  0.00     0.000 HD 
HETATM   50  H2  UNL     1      -8.967   3.417  68.887  1.00  0.00     0.000 HD 
HETATM   51  O   UNL     1     -11.325   6.816  72.912  1.00  0.00    -0.421 OA 
HETATM   52  C   UNL     1     -10.543   5.198  71.294  1.00  0.00    -0.133 C  
HETATM   53  H   UNL     1     -11.377   6.141  73.578  1.00  0.00     0.000 HD 
HETATM   54  O   UNL     1     -10.526   4.166  72.295  1.00  0.00    -0.158 OA 
HETATM   55  N   UNL     1      -9.687   3.595  69.587  1.00  0.00    -0.149 NA 
HETATM   56  C   UNL     1      -9.468   4.908  70.235  1.00  0.00    -0.171 C  
HETATM   57  H   UNL     1     -10.680   3.323  71.885  1.00  0.00     0.000 HD 
BRANCH  47  58
HETATM   58  C   UNL     1      -9.851   9.012  71.487  1.00  0.00    -0.310 C  
HETATM   59  O   UNL     1      -9.036   8.840  72.649  1.00  0.00    -0.380 OA 
HETATM   60  H   UNL     1      -8.814   9.684  73.024  1.00  0.00     0.000 HD 
ENDBRANCH  47  58
ENDBRANCH  44  45
ENDBRANCH  40  44
ENDBRANCH  29  30
ENDBRANCH  22  29
ENDBRANCH  18  19
ENDBRANCH   7  18
ENDBRANCH   2   5
TORSDOF 9
ENDMDL
MODEL      123
REMARK 921   NORMALIZED FREE ENERGY PREDICTED BY IDOCK:   -5.55 KCAL/MOL
REMARK 922        TOTAL FREE ENERGY PREDICTED BY IDOCK:  -10.52 KCAL/MOL
REMARK 923 INTER-LIGAND FREE ENERGY PREDICTED BY IDOCK:   -9.94 KCAL/MOL
REMARK 924 INTRA-LIGAND FREE ENERGY PREDICTED BY IDOCK:   -0.58 KCAL/MOL
REMARK 927      BINDING AFFINITY PREDICTED BY RF-SCORE:    0.00 PKD
ROOT
HETATM    1  N   UNL     1      -8.757   5.009  69.206  1.00  0.00    -0.091 NA 
HETATM    2  C   UNL     1      -9.224   3.991  70.169  1.00  0.00    -0.142 C  
HETATM    3  H1  UNL     1      -8.292   4.556  68.420  1.00  0.00     0.000 HD 
HETATM    4  H2  UNL     1      -8.164   5.711  69.649  1.00  0.00     0.000 HD 
ENDROOT
BRANCH   2   5
HETATM    5  C   UNL     1      -9.925   4.675  71.354  1.00  0.00    -0.197 C  
HETATM    6  O   UNL     1      -9.424   6.023  71.422  1.00  0.00    -0.156 OA 
HETATM    7  C   UNL     1     -10.149   6.818  72.358  1.00  0.00    -0.170 C  
HETATM    8  C   UNL     1      -9.878   6.274  73.791  1.00  0.00    -0.201 C  
HETATM    9  O   UNL     1      -8.282   3.754  72.892  1.00  0.00    -0.087 OA 
HETATM   10  H   UNL     1      -8.136   3.312  73.720  1.00  0.00     0.000 HD 
HETATM   11  N   UNL     1      -8.438   6.428  74.153  1.00  0.00    -0.119 NA 
HETATM   12  C   UNL     1     -10.298   4.787  73.854  1.00  0.00    -0.234 C  
HETATM   13  H2  UNL     1      -8.124   7.394  74.051  1.00  0.00     0.000 HD 
HETATM   14  O   UNL     1     -11.726   4.655  73.884  1.00  0.00    -0.249 OA 
HETATM   15  C   UNL     1      -9.688   3.957  72.700  1.00  0.00    -0.143 C  
HETATM   16  H1  UNL     1      -8.260   6.071  75.092  1.00  0.00     0.000 HD 
HETATM   17  H   UNL     1     -11.983   3.741  73.923  1.00  0.00     0.000 HD 
BRANCH   7  18
HETATM   18  O   UNL     1      -9.736   8.186  72.303  1.00  0.00    -0.203 OA 
BRANCH  18  19
HETATM   19  C   UNL     1     -10.713   9.070  71.725  1.00  0.00    -0.367 C  
HETATM   20  O   UNL     1      -8.908  10.105  70.385  1.00  0.00    -0.304 OA 
HETATM   21  C   UNL     1     -11.892   8.194  71.307  1.00  0.00    -0.287 C  
HETATM   22  C   UNL     1     -10.656   8.640  69.381  1.00  0.00    -0.199 C  
HETATM   23  H   UNL     1      -8.640  10.507  69.567  1.00  0.00     0.000 HD 
HETATM   24  O   UNL     1     -11.677   7.811  69.940  1.00  0.00     0.098 OA 
HETATM   25  C   UNL     1     -10.283   9.712  70.417  1.00  0.00    -0.288 C  
BRANCH  21  26
HETATM   26  C   UNL     1     -13.249   8.894  71.402  1.00  0.00    -0.262 C  
HETATM   27  H   UNL     1     -14.026  10.446  72.345  1.00  0.00     0.000 HD 
HETATM   28  O   UNL     1     -13.184  10.011  72.286  1.00  0.00    -0.427 OA 
ENDBRANCH  21  26
BRANCH  22  29
HETATM   29  O   UNL     1     -11.122   9.288  68.202  1.00  0.00    -0.070 OA 
BRANCH  29  30
HETATM   30  C   UNL     1     -10.252   9.332  67.054  1.00  0.00    -0.262 C  
HETATM   31  C   UNL     1      -9.611   7.951  66.815  1.00  0.00    -0.215 C  
HETATM   32  O   UNL     1     -10.609   6.922  66.875  1.00  0.00    -0.319 OA 
HETATM   33  C   UNL     1      -8.910   7.911  65.453  1.00  0.00     0.021 C  
HETATM   34  C   UNL     1      -7.788   8.949  65.436  1.00  0.00    -0.102 C  
HETATM   35  N   UNL     1      -8.374   6.565  65.171  1.00  0.00    -0.234 NA 
HETATM   36  H   UNL     1     -10.214   6.071  66.728  1.00  0.00     0.000 HD 
HETATM   37  H1  UNL     1      -7.907   6.538  64.265  1.00  0.00     0.000 HD 
HETATM   38  H2  UNL     1      -9.098   5.850  65.242  1.00  0.00     0.000 HD 
HETATM   39  C   UNL     1      -8.307  10.363  65.748  1.00  0.00    -0.158 C  
HETATM   40  C   UNL     1      -9.183  10.458  67.054  1.00  0.00    -0.147 C  
HETATM   41  N   UNL     1      -7.152  11.283  65.806  1.00  0.00    -0.356 NA 
HETATM   42  H2  UNL     1      -6.584  11.252  64.959  1.00  0.00     0.000 HD 
HETATM   43  H1  UNL     1      -7.496  12.220  66.013  1.00  0.00     0.000 HD 
BRANCH  40  44
HETATM   44  O   UNL     1      -9.728  11.798  67.085  1.00  0.00    -0.182 OA 
BRANCH  44  45
HETATM   45  C   UNL     1      -9.544  12.569  65.889  1.00  0.00    -0.168 C  
HETATM   46  O   UNL     1     -10.389  12.121  64.835  1.00  0.00    -0.273 OA 
HETATM   47  C   UNL     1     -11.785  12.342  65.034  1.00  0.00    -0.352 C  
HETATM   48  C   UNL     1     -12.058  13.840  65.186  1.00  0.00    -0.399 C  
HETATM   49  H1  UNL     1      -9.031  15.626  67.405  1.00  0.00     0.000 HD 
HETATM   50  H2  UNL     1      -7.922  14.409  67.091  1.00  0.00     0.000 HD 
HETATM   51  O   UNL     1     -13.440  14.121  65.421  1.00  0.00    -0.648 OA 
HETATM   52  C   UNL     1     -11.222  14.403  66.343  1.00  0.00    -0.345 C  
HETATM   53  H   UNL     1     -13.609  15.051  65.514  1.00  0.00     0.000 HD 
HETATM   54  O   UNL     1     -11.408  15.827  66.423  1.00  0.00    -0.069 OA 
HETATM   55  N   UNL     1      -8.908  14.627  67.242  1.00  0.00    -0.195 NA 
HETATM   56  C   UNL     1      -9.733  14.087  66.137  1.00  0.00    -0.280 C  
HETATM   57  H   UNL     1     -10.890  16.175  67.139  1.00  0.00     0.000 HD 
BRANCH  47  58
HETATM   58  C   UNL     1     -12.514  11.755  63.817  1.00  0.00    -0.327 C  
HETATM   59  O   UNL     1     -11.570  11.309  62.840  1.00  0.00    -0.834 OA 
HETATM   60  H   UNL     1     -12.021  10.946  62.088  1.00  0.00     0.000 HD 
ENDBRANCH  47  58
ENDBRANCH  44  45
ENDBRANCH  40  44
ENDBRANCH  29  30
ENDBRANCH  22  29
ENDBRANCH  18  19
ENDBRANCH   7  18
ENDBRANCH   2   5
TORSDOF 9
ENDMDL
MODEL      124
REMARK 921   NORMALIZED FREE ENERGY PREDICTED BY IDOCK:   -5.52 KCAL/MOL
REMARK 922        TOTAL FREE ENERGY PREDICTED BY IDOCK:  -10.46 KCAL/MOL
REMARK 923 INTER-LIGAND FREE ENERGY PREDICTED BY IDOCK:   -8.41 KCAL/MOL
REMARK 924 INTRA-LIGAND FREE ENERGY PREDICTED BY IDOCK:   -2.05 KCAL/MOL
REMARK 927      BINDING AFFINITY PREDICTED BY RF-SCORE:    0.00 PKD
ROOT
HETATM    1  N   UNL     1      -6.383  20.315  70.006  1.00  0.00    -0.331 NA 
HETATM    2  C   UNL     1      -6.551  19.739  68.657  1.00  0.00    -0.297 C  
HETATM    3  H1  UNL     1      -5.483  20.790  70.071  1.00  0.00     0.000 HD 
HETATM    4  H2  UNL     1      -6.501  19.615  70.739  1.00  0.00     0.000 HD 
ENDROOT
BRANCH   2   5
HETATM    5  C   UNL     1      -7.909  19.024  68.558  1.00  0.00    -0.340 C  
HETATM    6  O   UNL     1      -7.663  17.724  67.991  1.00  0.00    -0.224 OA 
HETATM    7  C   UNL     1      -8.820  16.892  68.038  1.00  0.00    -0.216 C  
HETATM    8  C   UNL     1      -9.901  17.486  67.089  1.00  0.00    -0.297 C  
HETATM    9  O   UNL     1      -8.357  20.110  66.429  1.00  0.00    -0.429 OA 
HETATM   10  H   UNL     1      -8.991  20.580  65.901  1.00  0.00     0.000 HD 
HETATM   11  N   UNL     1      -9.435  17.459  65.670  1.00  0.00    -0.412 NA 
HETATM   12  C   UNL     1     -10.218  18.934  67.529  1.00  0.00    -0.391 C  
HETATM   13  H2  UNL     1      -9.155  16.521  65.383  1.00  0.00     0.000 HD 
HETATM   14  O   UNL     1     -11.009  18.948  68.726  1.00  0.00    -0.008 OA 
HETATM   15  C   UNL     1      -8.939  19.788  67.700  1.00  0.00    -0.329 C  
HETATM   16  H1  UNL     1     -10.143  17.849  65.049  1.00  0.00     0.000 HD 
HETATM   17  H   UNL     1     -11.204  19.837  68.996  1.00  0.00     0.000 HD 
BRANCH   7  18
HETATM   18  O   UNL     1      -8.516  15.562  67.608  1.00  0.00    -0.157 OA 
BRANCH  18  19
HETATM   19  C   UNL     1      -7.799  14.782  68.581  1.00  0.00    -0.140 C  
HETATM   20  O   UNL     1      -9.614  13.101  68.495  1.00  0.00    -0.317 OA 
HETATM   21  C   UNL     1      -6.351  14.715  68.099  1.00  0.00    -0.140 C  
HETATM   22  C   UNL     1      -7.356  12.692  67.524  1.00  0.00    -0.151 C  
HETATM   23  H   UNL     1      -9.870  12.187  68.532  1.00  0.00     0.000 HD 
HETATM   24  O   UNL     1      -6.221  13.530  67.300  1.00  0.00    -0.313 OA 
HETATM   25  C   UNL     1      -8.208  13.320  68.639  1.00  0.00    -0.014 C  
BRANCH  21  26
HETATM   26  C   UNL     1      -5.324  14.649  69.230  1.00  0.00    -0.088 C  
HETATM   27  H   UNL     1      -4.769  15.763  70.763  1.00  0.00     0.000 HD 
HETATM   28  O   UNL     1      -5.406  15.804  70.061  1.00  0.00    -0.123 OA 
ENDBRANCH  21  26
BRANCH  22  29
HETATM   29  O   UNL     1      -6.950  11.391  67.939  1.00  0.00    -0.069 OA 
BRANCH  29  30
HETATM   30  C   UNL     1      -7.357  10.259  67.146  1.00  0.00    -0.091 C  
HETATM   31  C   UNL     1      -7.160  10.558  65.646  1.00  0.00    -0.119 C  
HETATM   32  O   UNL     1      -5.859  11.117  65.418  1.00  0.00    -0.395 OA 
HETATM   33  C   UNL     1      -7.324   9.279  64.817  1.00  0.00    -0.103 C  
HETATM   34  C   UNL     1      -8.745   8.745  64.998  1.00  0.00    -0.183 C  
HETATM   35  N   UNL     1      -7.044   9.532  63.391  1.00  0.00    -0.098 NA 
HETATM   36  H   UNL     1      -5.737  11.301  64.494  1.00  0.00     0.000 HD 
HETATM   37  H1  UNL     1      -7.154   8.682  62.838  1.00  0.00     0.000 HD 
HETATM   38  H2  UNL     1      -6.124   9.950  63.257  1.00  0.00     0.000 HD 
HETATM   39  C   UNL     1      -9.081   8.490  66.477  1.00  0.00    -0.176 C  
HETATM   40  C   UNL     1      -8.781   9.709  67.429  1.00  0.00    -0.128 C  
HETATM   41  N   UNL     1     -10.495   8.069  66.570  1.00  0.00    -0.430 NA 
HETATM   42  H2  UNL     1     -10.704   7.266  65.976  1.00  0.00     0.000 HD 
HETATM   43  H1  UNL     1     -10.717   7.900  67.550  1.00  0.00     0.000 HD 
BRANCH  40  44
HETATM   44  O   UNL     1      -8.978   9.231  68.780  1.00  0.00    -0.131 OA 
BRANCH  44  45
HETATM   45  C   UNL     1      -8.151   8.127  69.173  1.00  0.00    -0.121 C  
HETATM   46  O   UNL     1      -6.945   8.562  69.791  1.00  0.00    -0.046 OA 
HETATM   47  C   UNL     1      -7.101   9.190  71.062  1.00  0.00    -0.098 C  
HETATM   48  C   UNL     1      -7.752   8.216  72.048  1.00  0.00    -0.108 C  
HETATM   49  H1  UNL     1     -10.686   5.988  70.123  1.00  0.00     0.000 HD 
HETATM   50  H2  UNL     1     -10.048   6.248  68.596  1.00  0.00     0.000 HD 
HETATM   51  O   UNL     1      -7.965   8.803  73.334  1.00  0.00    -0.410 OA 
HETATM   52  C   UNL     1      -9.095   7.732  71.483  1.00  0.00    -0.133 C  
HETATM   53  H   UNL     1      -8.369   8.198  73.945  1.00  0.00     0.000 HD 
HETATM   54  O   UNL     1      -9.659   6.745  72.365  1.00  0.00    -0.155 OA 
HETATM   55  N   UNL     1     -10.189   6.647  69.524  1.00  0.00    -0.176 NA 
HETATM   56  C   UNL     1      -8.905   7.126  70.084  1.00  0.00    -0.145 C  
HETATM   57  H   UNL     1     -10.490   6.446  72.016  1.00  0.00     0.000 HD 
BRANCH  47  58
HETATM   58  C   UNL     1      -5.703   9.618  71.532  1.00  0.00    -0.050 C  
HETATM   59  O   UNL     1      -5.538  11.030  71.375  1.00  0.00    -0.328 OA 
HETATM   60  H   UNL     1      -4.673  11.294  71.665  1.00  0.00     0.000 HD 
ENDBRANCH  47  58
ENDBRANCH  44  45
ENDBRANCH  40  44
ENDBRANCH  29  30
ENDBRANCH  22  29
ENDBRANCH  18  19
ENDBRANCH   7  18
ENDBRANCH   2   5
TORSDOF 9
ENDMDL
MODEL      125
REMARK 921   NORMALIZED FREE ENERGY PREDICTED BY IDOCK:   -5.50 KCAL/MOL
REMARK 922        TOTAL FREE ENERGY PREDICTED BY IDOCK:  -10.44 KCAL/MOL
REMARK 923 INTER-LIGAND FREE ENERGY PREDICTED BY IDOCK:   -8.65 KCAL/MOL
REMARK 924 INTRA-LIGAND FREE ENERGY PREDICTED BY IDOCK:   -1.80 KCAL/MOL
REMARK 927      BINDING AFFINITY PREDICTED BY RF-SCORE:    0.00 PKD
ROOT
HETATM    1  N   UNL     1     -10.169  14.073  64.840  1.00  0.00    -0.552 NA 
HETATM    2  C   UNL     1      -9.752  15.000  65.912  1.00  0.00    -0.342 C  
HETATM    3  H1  UNL     1      -9.953  14.477  63.929  1.00  0.00     0.000 HD 
HETATM    4  H2  UNL     1     -11.153  13.813  64.921  1.00  0.00     0.000 HD 
ENDROOT
BRANCH   2   5
HETATM    5  C   UNL     1     -10.078  14.391  67.286  1.00  0.00    -0.251 C  
HETATM    6  O   UNL     1      -9.824  12.977  67.194  1.00  0.00    -0.222 OA 
HETATM    7  C   UNL     1      -9.898  12.335  68.465  1.00  0.00    -0.153 C  
HETATM    8  C   UNL     1     -11.370  12.392  68.968  1.00  0.00    -0.283 C  
HETATM    9  O   UNL     1     -12.429  14.230  66.687  1.00  0.00    -0.559 OA 
HETATM   10  H   UNL     1     -13.326  14.382  66.961  1.00  0.00     0.000 HD 
HETATM   11  N   UNL     1     -12.270  11.615  68.065  1.00  0.00    -0.460 NA 
HETATM   12  C   UNL     1     -11.821  13.869  69.044  1.00  0.00    -0.358 C  
HETATM   13  H2  UNL     1     -11.948  10.654  67.947  1.00  0.00     0.000 HD 
HETATM   14  O   UNL     1     -11.226  14.532  70.168  1.00  0.00    -0.388 OA 
HETATM   15  C   UNL     1     -11.535  14.637  67.732  1.00  0.00    -0.340 C  
HETATM   16  H1  UNL     1     -13.234  11.652  68.394  1.00  0.00     0.000 HD 
HETATM   17  H   UNL     1     -11.503  15.440  70.215  1.00  0.00     0.000 HD 
BRANCH   7  18
HETATM   18  O   UNL     1      -9.499  10.965  68.375  1.00  0.00    -0.164 OA 
BRANCH  18  19
HETATM   19  C   UNL     1      -8.511  10.709  67.360  1.00  0.00    -0.122 C  
HETATM   20  O   UNL     1      -7.119   9.586  69.071  1.00  0.00    -0.064 OA 
HETATM   21  C   UNL     1      -9.265  10.145  66.158  1.00  0.00    -0.159 C  
HETATM   22  C   UNL     1      -8.295   8.337  67.264  1.00  0.00    -0.124 C  
HETATM   23  H   UNL     1      -6.507   8.892  69.285  1.00  0.00     0.000 HD 
HETATM   24  O   UNL     1      -9.263   8.715  66.283  1.00  0.00    -0.173 OA 
HETATM   25  C   UNL     1      -7.533   9.598  67.703  1.00  0.00    -0.091 C  
BRANCH  21  26
HETATM   26  C   UNL     1      -8.643  10.510  64.809  1.00  0.00    -0.166 C  
HETATM   27  H   UNL     1      -8.126   9.585  63.142  1.00  0.00     0.000 HD 
HETATM   28  O   UNL     1      -8.512   9.358  63.980  1.00  0.00    -0.172 OA 
ENDBRANCH  21  26
BRANCH  22  29
HETATM   29  O   UNL     1      -7.363   7.407  66.721  1.00  0.00    -0.087 OA 
BRANCH  29  30
HETATM   30  C   UNL     1      -7.740   6.018  66.650  1.00  0.00    -0.103 C  
HETATM   31  C   UNL     1      -8.819   5.813  65.568  1.00  0.00    -0.113 C  
HETATM   32  O   UNL     1      -8.442   6.480  64.356  1.00  0.00    -0.335 OA 
HETATM   33  C   UNL     1      -9.027   4.319  65.292  1.00  0.00    -0.137 C  
HETATM   34  C   UNL     1      -9.518   3.638  66.569  1.00  0.00    -0.188 C  
HETATM   35  N   UNL     1      -9.989   4.112  64.192  1.00  0.00    -0.303 NA 
HETATM   36  H   UNL     1      -9.107   6.353  63.690  1.00  0.00     0.000 HD 
HETATM   37  H1  UNL     1     -10.128   3.119  64.008  1.00  0.00     0.000 HD 
HETATM   38  H2  UNL     1      -9.710   4.614  63.350  1.00  0.00     0.000 HD 
HETATM   39  C   UNL     1      -8.550   3.852  67.746  1.00  0.00    -0.098 C  
HETATM   40  C   UNL     1      -8.153   5.356  67.992  1.00  0.00    -0.096 C  
HETATM   41  N   UNL     1      -9.144   3.246  68.956  1.00  0.00    -0.131 NA 
HETATM   42  H2  UNL     1      -9.388   2.264  68.823  1.00  0.00     0.000 HD 
HETATM   43  H1  UNL     1      -8.502   3.388  69.735  1.00  0.00     0.000 HD 
BRANCH  40  44
HETATM   44  O   UNL     1      -7.112   5.345  68.997  1.00  0.00    -0.055 OA 
BRANCH  44  45
HETATM   45  C   UNL     1      -7.156   6.420  69.946  1.00  0.00    -0.072 C  
HETATM   46  O   UNL     1      -8.409   7.095  69.925  1.00  0.00    -0.131 OA 
HETATM   47  C   UNL     1      -9.521   6.334  70.394  1.00  0.00    -0.161 C  
HETATM   48  C   UNL     1      -9.291   5.918  71.849  1.00  0.00    -0.151 C  
HETATM   49  H1  UNL     1      -5.303   4.898  72.427  1.00  0.00     0.000 HD 
HETATM   50  H2  UNL     1      -4.766   5.762  71.095  1.00  0.00     0.000 HD 
HETATM   51  O   UNL     1     -10.361   5.123  72.364  1.00  0.00    -0.191 OA 
HETATM   52  C   UNL     1      -7.977   5.132  71.959  1.00  0.00    -0.112 C  
HETATM   53  H   UNL     1     -10.217   4.865  73.267  1.00  0.00     0.000 HD 
HETATM   54  O   UNL     1      -7.714   4.825  73.339  1.00  0.00    -0.092 OA 
HETATM   55  N   UNL     1      -5.531   5.209  71.483  1.00  0.00    -0.005 NA 
HETATM   56  C   UNL     1      -6.810   5.948  71.381  1.00  0.00    -0.063 C  
HETATM   57  H   UNL     1      -6.901   4.339  73.407  1.00  0.00     0.000 HD 
BRANCH  47  58
HETATM   58  C   UNL     1     -10.768   7.218  70.250  1.00  0.00    -0.236 C  
HETATM   59  O   UNL     1     -11.844   6.470  69.677  1.00  0.00    -0.645 OA 
HETATM   60  H   UNL     1     -12.615   7.017  69.589  1.00  0.00     0.000 HD 
ENDBRANCH  47  58
ENDBRANCH  44  45
ENDBRANCH  40  44
ENDBRANCH  29  30
ENDBRANCH  22  29
ENDBRANCH  18  19
ENDBRANCH   7  18
ENDBRANCH   2   5
TORSDOF 9
ENDMDL
MODEL      126
REMARK 921   NORMALIZED FREE ENERGY PREDICTED BY IDOCK:   -5.49 KCAL/MOL
REMARK 922        TOTAL FREE ENERGY PREDICTED BY IDOCK:  -10.42 KCAL/MOL
REMARK 923 INTER-LIGAND FREE ENERGY PREDICTED BY IDOCK:   -8.76 KCAL/MOL
REMARK 924 INTRA-LIGAND FREE ENERGY PREDICTED BY IDOCK:   -1.67 KCAL/MOL
REMARK 927      BINDING AFFINITY PREDICTED BY RF-SCORE:    0.00 PKD
ROOT
HETATM    1  N   UNL     1      -8.794   7.655  71.137  1.00  0.00    -0.136 NA 
HETATM    2  C   UNL     1      -9.851   6.679  71.473  1.00  0.00    -0.171 C  
HETATM    3  H1  UNL     1      -7.878   7.264  71.359  1.00  0.00     0.000 HD 
HETATM    4  H2  UNL     1      -8.947   8.556  71.590  1.00  0.00     0.000 HD 
ENDROOT
BRANCH   2   5
HETATM    5  C   UNL     1     -11.232   7.267  71.138  1.00  0.00    -0.259 C  
HETATM    6  O   UNL     1     -11.049   8.678  70.917  1.00  0.00    -0.248 OA 
HETATM    7  C   UNL     1     -12.225   9.297  70.401  1.00  0.00     0.164 C  
HETATM    8  C   UNL     1     -13.330   9.257  71.496  1.00  0.00    -0.369 C  
HETATM    9  O   UNL     1     -11.745   7.482  73.505  1.00  0.00    -0.425 OA 
HETATM   10  H   UNL     1     -12.389   7.341  74.189  1.00  0.00     0.000 HD 
HETATM   11  N   UNL     1     -12.930  10.067  72.685  1.00  0.00    -0.282 NA 
HETATM   12  C   UNL     1     -13.587   7.787  71.902  1.00  0.00    -0.270 C  
HETATM   13  H2  UNL     1     -12.690  11.025  72.426  1.00  0.00     0.000 HD 
HETATM   14  O   UNL     1     -14.322   7.092  70.885  1.00  0.00    -0.416 OA 
HETATM   15  C   UNL     1     -12.278   7.039  72.250  1.00  0.00    -0.136 C  
HETATM   16  H1  UNL     1     -13.655  10.041  73.402  1.00  0.00     0.000 HD 
HETATM   17  H   UNL     1     -14.479   6.189  71.135  1.00  0.00     0.000 HD 
BRANCH   7  18
HETATM   18  O   UNL     1     -11.979  10.661  70.051  1.00  0.00    -0.289 OA 
BRANCH  18  19
HETATM   19  C   UNL     1     -11.604  10.853  68.675  1.00  0.00    -0.303 C  
HETATM   20  O   UNL     1     -11.283  13.261  69.151  1.00  0.00    -0.262 OA 
HETATM   21  C   UNL     1     -10.593   9.756  68.347  1.00  0.00    -0.226 C  
HETATM   22  C   UNL     1      -9.379  11.708  68.733  1.00  0.00    -0.046 C  
HETATM   23  H   UNL     1     -10.794  14.058  68.985  1.00  0.00     0.000 HD 
HETATM   24  O   UNL     1      -9.285  10.288  68.603  1.00  0.00    -0.145 OA 
HETATM   25  C   UNL     1     -10.822  12.129  68.409  1.00  0.00    -0.224 C  
BRANCH  21  26
HETATM   26  C   UNL     1     -10.644   9.281  66.893  1.00  0.00    -0.169 C  
HETATM   27  H   UNL     1      -9.396   9.103  65.373  1.00  0.00     0.000 HD 
HETATM   28  O   UNL     1      -9.365   9.398  66.275  1.00  0.00    -0.168 OA 
ENDBRANCH  21  26
BRANCH  22  29
HETATM   29  O   UNL     1      -8.500  12.358  67.821  1.00  0.00    -0.148 OA 
BRANCH  29  30
HETATM   30  C   UNL     1      -7.719  13.472  68.296  1.00  0.00    -0.137 C  
HETATM   31  C   UNL     1      -6.966  13.087  69.584  1.00  0.00     0.272 C  
HETATM   32  O   UNL     1      -6.316  11.819  69.421  1.00  0.00    -0.092 OA 
HETATM   33  C   UNL     1      -5.929  14.157  69.942  1.00  0.00    -0.133 C  
HETATM   34  C   UNL     1      -6.645  15.482  70.205  1.00  0.00    -0.007 C  
HETATM   35  N   UNL     1      -5.136  13.755  71.120  1.00  0.00    -0.122 NA 
HETATM   36  H   UNL     1      -5.852  11.582  70.214  1.00  0.00     0.000 HD 
HETATM   37  H1  UNL     1      -4.446  14.467  71.359  1.00  0.00     0.000 HD 
HETATM   38  H2  UNL     1      -4.703  12.841  70.987  1.00  0.00     0.000 HD 
HETATM   39  C   UNL     1      -7.501  15.921  69.004  1.00  0.00    -0.194 C  
HETATM   40  C   UNL     1      -8.483  14.813  68.467  1.00  0.00    -0.159 C  
HETATM   41  N   UNL     1      -8.229  17.153  69.375  1.00  0.00     0.153 NA 
HETATM   42  H2  UNL     1      -7.608  17.891  69.705  1.00  0.00     0.000 HD 
HETATM   43  H1  UNL     1      -8.796  17.444  68.579  1.00  0.00     0.000 HD 
BRANCH  40  44
HETATM   44  O   UNL     1      -9.057  15.332  67.245  1.00  0.00    -0.186 OA 
BRANCH  44  45
HETATM   45  C   UNL     1     -10.475  15.553  67.272  1.00  0.00    -0.279 C  
HETATM   46  O   UNL     1     -10.804  16.813  67.844  1.00  0.00    -0.348 OA 
HETATM   47  C   UNL     1     -10.413  17.953  67.080  1.00  0.00    -0.340 C  
HETATM   48  C   UNL     1     -11.096  17.920  65.710  1.00  0.00     0.493 C  
HETATM   49  H1  UNL     1     -11.219  14.022  64.270  1.00  0.00     0.000 HD 
HETATM   50  H2  UNL     1     -11.044  13.331  65.787  1.00  0.00     0.000 HD 
HETATM   51  O   UNL     1     -10.716  19.023  64.885  1.00  0.00    -0.179 OA 
HETATM   52  C   UNL     1     -10.751  16.608  64.993  1.00  0.00    -0.152 C  
HETATM   53  H   UNL     1     -11.140  19.002  64.035  1.00  0.00     0.000 HD 
HETATM   54  O   UNL     1     -11.469  16.536  63.749  1.00  0.00    -1.615 OA 
HETATM   55  N   UNL     1     -10.797  14.123  65.193  1.00  0.00    -0.348 NA 
HETATM   56  C   UNL     1     -11.117  15.400  65.870  1.00  0.00    -0.247 C  
HETATM   57  H   UNL     1     -11.256  15.724  63.305  1.00  0.00     0.000 HD 
BRANCH  47  58
HETATM   58  C   UNL     1     -10.818  19.197  67.882  1.00  0.00    -0.205 C  
HETATM   59  O   UNL     1      -9.783  19.552  68.803  1.00  0.00    -0.405 OA 
HETATM   60  H   UNL     1     -10.033  20.322  69.300  1.00  0.00     0.000 HD 
ENDBRANCH  47  58
ENDBRANCH  44  45
ENDBRANCH  40  44
ENDBRANCH  29  30
ENDBRANCH  22  29
ENDBRANCH  18  19
ENDBRANCH   7  18
ENDBRANCH   2   5
TORSDOF 9
ENDMDL
MODEL      127
REMARK 921   NORMALIZED FREE ENERGY PREDICTED BY IDOCK:   -5.47 KCAL/MOL
REMARK 922        TOTAL FREE ENERGY PREDICTED BY IDOCK:  -10.40 KCAL/MOL
REMARK 923 INTER-LIGAND FREE ENERGY PREDICTED BY IDOCK:  -10.00 KCAL/MOL
REMARK 924 INTRA-LIGAND FREE ENERGY PREDICTED BY IDOCK:   -0.40 KCAL/MOL
REMARK 927      BINDING AFFINITY PREDICTED BY RF-SCORE:    0.00 PKD
ROOT
HETATM    1  N   UNL     1     -11.102  19.263  67.425  1.00  0.00    -0.341 NA 
HETATM    2  C   UNL     1     -10.536  19.489  66.080  1.00  0.00    -0.518 C  
HETATM    3  H1  UNL     1     -12.008  19.726  67.503  1.00  0.00     0.000 HD 
HETATM    4  H2  UNL     1     -10.460  19.549  68.165  1.00  0.00     0.000 HD 
ENDROOT
BRANCH   2   5
HETATM    5  C   UNL     1      -9.171  18.790  65.964  1.00  0.00    -0.002 C  
HETATM    6  O   UNL     1      -9.109  17.804  67.011  1.00  0.00    -0.241 OA 
HETATM    7  C   UNL     1      -7.972  16.953  66.880  1.00  0.00    -0.213 C  
HETATM    8  C   UNL     1      -6.687  17.797  67.120  1.00  0.00    -0.167 C  
HETATM    9  O   UNL     1      -8.123  20.557  67.264  1.00  0.00    -0.335 OA 
HETATM   10  H   UNL     1      -7.388  21.155  67.336  1.00  0.00     0.000 HD 
HETATM   11  N   UNL     1      -6.647  18.319  68.518  1.00  0.00    -0.215 NA 
HETATM   12  C   UNL     1      -6.650  18.962  66.104  1.00  0.00    -0.219 C  
HETATM   13  H2  UNL     1      -6.739  17.569  69.204  1.00  0.00     0.000 HD 
HETATM   14  O   UNL     1      -6.310  18.493  64.792  1.00  0.00    -0.431 OA 
HETATM   15  C   UNL     1      -7.976  19.760  66.081  1.00  0.00    -0.340 C  
HETATM   16  H1  UNL     1      -5.805  18.872  68.676  1.00  0.00     0.000 HD 
HETATM   17  H   UNL     1      -6.288  19.209  64.169  1.00  0.00     0.000 HD 
BRANCH   7  18
HETATM   18  O   UNL     1      -8.008  15.893  67.840  1.00  0.00    -0.133 OA 
BRANCH  18  19
HETATM   19  C   UNL     1      -8.266  14.597  67.270  1.00  0.00    -0.212 C  
HETATM   20  O   UNL     1      -7.650  13.578  69.440  1.00  0.00    -0.314 OA 
HETATM   21  C   UNL     1      -9.615  14.699  66.561  1.00  0.00    -0.289 C  
HETATM   22  C   UNL     1      -9.997  13.646  68.605  1.00  0.00    -0.161 C  
HETATM   23  H   UNL     1      -7.795  12.890  70.079  1.00  0.00     0.000 HD 
HETATM   24  O   UNL     1     -10.624  14.301  67.501  1.00  0.00    -0.258 OA 
HETATM   25  C   UNL     1      -8.499  13.498  68.292  1.00  0.00    -0.168 C  
BRANCH  21  26
HETATM   26  C   UNL     1      -9.733  13.809  65.323  1.00  0.00    -0.004 C  
HETATM   27  H   UNL     1     -10.933  13.628  63.765  1.00  0.00     0.000 HD 
HETATM   28  O   UNL     1     -10.860  14.181  64.534  1.00  0.00    -0.394 OA 
ENDBRANCH  21  26
BRANCH  22  29
HETATM   29  O   UNL     1     -10.551  12.350  68.805  1.00  0.00    -0.227 OA 
BRANCH  29  30
HETATM   30  C   UNL     1     -11.690  12.217  69.677  1.00  0.00    -0.316 C  
HETATM   31  C   UNL     1     -11.978  13.554  70.389  1.00  0.00    -0.295 C  
HETATM   32  O   UNL     1     -11.965  14.633  69.445  1.00  0.00    -0.302 OA 
HETATM   33  C   UNL     1     -13.336  13.505  71.098  1.00  0.00    -0.071 C  
HETATM   34  C   UNL     1     -13.304  12.411  72.166  1.00  0.00    -0.508 C  
HETATM   35  N   UNL     1     -13.666  14.810  71.703  1.00  0.00    -0.393 NA 
HETATM   36  H   UNL     1     -12.142  15.456  69.883  1.00  0.00     0.000 HD 
HETATM   37  H1  UNL     1     -14.569  14.777  72.176  1.00  0.00     0.000 HD 
HETATM   38  H2  UNL     1     -13.627  15.562  71.017  1.00  0.00     0.000 HD 
HETATM   39  C   UNL     1     -12.941  11.038  71.574  1.00  0.00    -0.448 C  
HETATM   40  C   UNL     1     -11.638  11.039  70.688  1.00  0.00    -0.167 C  
HETATM   41  N   UNL     1     -12.840  10.064  72.681  1.00  0.00    -0.168 NA 
HETATM   42  H2  UNL     1     -13.683  10.033  73.254  1.00  0.00     0.000 HD 
HETATM   43  H1  UNL     1     -12.599   9.154  72.288  1.00  0.00     0.000 HD 
BRANCH  40  44
HETATM   44  O   UNL     1     -11.560   9.731  70.075  1.00  0.00    -0.218 OA 
BRANCH  44  45
HETATM   45  C   UNL     1     -10.242   9.295  69.714  1.00  0.00    -0.211 C  
HETATM   46  O   UNL     1      -9.671   8.452  70.708  1.00  0.00    -0.168 OA 
HETATM   47  C   UNL     1     -10.296   7.179  70.863  1.00  0.00    -0.201 C  
HETATM   48  C   UNL     1     -10.214   6.396  69.550  1.00  0.00    -0.189 C  
HETATM   49  H1  UNL     1     -10.801   8.953  66.326  1.00  0.00     0.000 HD 
HETATM   50  H2  UNL     1     -10.382  10.328  67.188  1.00  0.00     0.000 HD 
HETATM   51  O   UNL     1     -10.854   5.121  69.635  1.00  0.00    -0.122 OA 
HETATM   52  C   UNL     1     -10.859   7.213  68.422  1.00  0.00    -0.097 C  
HETATM   53  H   UNL     1     -10.803   4.635  68.820  1.00  0.00     0.000 HD 
HETATM   54  O   UNL     1     -10.696   6.519  67.172  1.00  0.00    -0.277 OA 
HETATM   55  N   UNL     1     -10.819   9.407  67.239  1.00  0.00    -0.188 NA 
HETATM   56  C   UNL     1     -10.214   8.604  68.327  1.00  0.00    -0.198 C  
HETATM   57  H   UNL     1     -11.095   7.024  66.474  1.00  0.00     0.000 HD 
BRANCH  47  58
HETATM   58  C   UNL     1      -9.565   6.451  72.000  1.00  0.00    -0.150 C  
HETATM   59  O   UNL     1      -8.662   5.478  71.467  1.00  0.00    -0.133 OA 
HETATM   60  H   UNL     1      -8.210   5.028  72.170  1.00  0.00     0.000 HD 
ENDBRANCH  47  58
ENDBRANCH  44  45
ENDBRANCH  40  44
ENDBRANCH  29  30
ENDBRANCH  22  29
ENDBRANCH  18  19
ENDBRANCH   7  18
ENDBRANCH   2   5
TORSDOF 9
ENDMDL
MODEL      128
REMARK 921   NORMALIZED FREE ENERGY PREDICTED BY IDOCK:   -5.46 KCAL/MOL
REMARK 922        TOTAL FREE ENERGY PREDICTED BY IDOCK:  -10.37 KCAL/MOL
REMARK 923 INTER-LIGAND FREE ENERGY PREDICTED BY IDOCK:   -8.23 KCAL/MOL
REMARK 924 INTRA-LIGAND FREE ENERGY PREDICTED BY IDOCK:   -2.14 KCAL/MOL
REMARK 927      BINDING AFFINITY PREDICTED BY RF-SCORE:    0.00 PKD
ROOT
HETATM    1  N   UNL     1     -12.304  13.533  66.118  1.00  0.00    -0.424 NA 
HETATM    2  C   UNL     1     -12.699  12.909  64.839  1.00  0.00    -0.403 C  
HETATM    3  H1  UNL     1     -12.979  14.253  66.376  1.00  0.00     0.000 HD 
HETATM    4  H2  UNL     1     -11.350  13.893  66.090  1.00  0.00     0.000 HD 
ENDROOT
BRANCH   2   5
HETATM    5  C   UNL     1     -11.681  11.823  64.451  1.00  0.00    -0.217 C  
HETATM    6  O   UNL     1     -11.098  11.333  65.672  1.00  0.00    -0.195 OA 
HETATM    7  C   UNL     1     -10.286  10.182  65.454  1.00  0.00    -0.211 C  
HETATM    8  C   UNL     1      -9.041  10.600  64.618  1.00  0.00    -0.211 C  
HETATM    9  O   UNL     1      -9.981  13.517  64.061  1.00  0.00    -0.734 OA 
HETATM   10  H   UNL     1      -9.299  13.832  63.479  1.00  0.00     0.000 HD 
HETATM   11  N   UNL     1      -8.190  11.562  65.378  1.00  0.00    -0.214 NA 
HETATM   12  C   UNL     1      -9.515  11.228  63.286  1.00  0.00    -0.327 C  
HETATM   13  H2  UNL     1      -7.924  11.192  66.291  1.00  0.00     0.000 HD 
HETATM   14  O   UNL     1     -10.001  10.223  62.386  1.00  0.00    -0.725 OA 
HETATM   15  C   UNL     1     -10.573  12.335  63.506  1.00  0.00    -0.448 C  
HETATM   16  H1  UNL     1      -7.375  11.837  64.830  1.00  0.00     0.000 HD 
HETATM   17  H   UNL     1     -10.292  10.608  61.569  1.00  0.00     0.000 HD 
BRANCH   7  18
HETATM   18  O   UNL     1      -9.838   9.624  66.692  1.00  0.00    -0.195 OA 
BRANCH  18  19
HETATM   19  C   UNL     1     -10.889   9.407  67.650  1.00  0.00    -0.154 C  
HETATM   20  O   UNL     1     -10.798   6.990  67.123  1.00  0.00    -0.337 OA 
HETATM   21  C   UNL     1     -10.489  10.170  68.911  1.00  0.00    -0.210 C  
HETATM   22  C   UNL     1      -9.972   7.927  69.279  1.00  0.00    -0.190 C  
HETATM   23  H   UNL     1     -10.870   6.093  67.429  1.00  0.00     0.000 HD 
HETATM   24  O   UNL     1      -9.764   9.260  69.751  1.00  0.00    -0.171 OA 
HETATM   25  C   UNL     1     -11.004   7.973  68.140  1.00  0.00     0.205 C  
BRANCH  21  26
HETATM   26  C   UNL     1     -11.675  10.718  69.706  1.00  0.00    -0.324 C  
HETATM   27  H   UNL     1     -12.293  10.728  71.582  1.00  0.00     0.000 HD 
HETATM   28  O   UNL     1     -11.557  10.387  71.088  1.00  0.00    -0.333 OA 
ENDBRANCH  21  26
BRANCH  22  29
HETATM   29  O   UNL     1     -10.478   7.096  70.319  1.00  0.00    -0.209 OA 
BRANCH  29  30
HETATM   30  C   UNL     1      -9.558   6.601  71.311  1.00  0.00    -0.169 C  
HETATM   31  C   UNL     1      -8.983   7.768  72.138  1.00  0.00    -0.137 C  
HETATM   32  O   UNL     1     -10.037   8.644  72.562  1.00  0.00    -0.280 OA 
HETATM   33  C   UNL     1      -8.227   7.240  73.362  1.00  0.00    -0.112 C  
HETATM   34  C   UNL     1      -7.051   6.384  72.892  1.00  0.00    -0.079 C  
HETATM   35  N   UNL     1      -7.753   8.349  74.212  1.00  0.00    -0.329 NA 
HETATM   36  H   UNL     1      -9.683   9.363  73.071  1.00  0.00     0.000 HD 
HETATM   37  H1  UNL     1      -7.249   7.998  75.026  1.00  0.00     0.000 HD 
HETATM   38  H2  UNL     1      -8.517   8.969  74.481  1.00  0.00     0.000 HD 
HETATM   39  C   UNL     1      -7.505   5.229  71.983  1.00  0.00    -0.097 C  
HETATM   40  C   UNL     1      -8.430   5.671  70.788  1.00  0.00    -0.124 C  
HETATM   41  N   UNL     1      -6.305   4.514  71.501  1.00  0.00    -0.018 NA 
HETATM   42  H2  UNL     1      -5.703   4.200  72.262  1.00  0.00     0.000 HD 
HETATM   43  H1  UNL     1      -6.607   3.748  70.898  1.00  0.00     0.000 HD 
BRANCH  40  44
HETATM   44  O   UNL     1      -8.903   4.454  70.164  1.00  0.00    -0.075 OA 
BRANCH  44  45
HETATM   45  C   UNL     1      -9.083   4.516  68.742  1.00  0.00    -0.120 C  
HETATM   46  O   UNL     1      -8.292   5.541  68.152  1.00  0.00    -0.099 OA 
HETATM   47  C   UNL     1      -6.882   5.325  68.192  1.00  0.00    -0.060 C  
HETATM   48  C   UNL     1      -6.532   4.038  67.441  1.00  0.00    -0.038 C  
HETATM   49  H1  UNL     1      -9.402   1.125  68.186  1.00  0.00     0.000 HD 
HETATM   50  H2  UNL     1     -10.578   2.232  68.637  1.00  0.00     0.000 HD 
HETATM   51  O   UNL     1      -5.132   3.751  67.475  1.00  0.00    -0.007 OA 
HETATM   52  C   UNL     1      -7.305   2.860  68.049  1.00  0.00    -0.053 C  
HETATM   53  H   UNL     1      -4.915   2.953  67.009  1.00  0.00     0.000 HD 
HETATM   54  O   UNL     1      -7.049   1.670  67.283  1.00  0.00    -0.038 OA 
HETATM   55  N   UNL     1      -9.579   2.023  68.636  1.00  0.00    -0.134 NA 
HETATM   56  C   UNL     1      -8.814   3.152  68.058  1.00  0.00    -0.124 C  
HETATM   57  H   UNL     1      -7.527   0.940  67.659  1.00  0.00     0.000 HD 
BRANCH  47  58
HETATM   58  C   UNL     1      -6.218   6.551  67.550  1.00  0.00    -0.032 C  
HETATM   59  O   UNL     1      -7.166   7.272  66.758  1.00  0.00    -0.079 OA 
HETATM   60  H   UNL     1      -6.756   8.030  66.361  1.00  0.00     0.000 HD 
ENDBRANCH  47  58
ENDBRANCH  44  45
ENDBRANCH  40  44
ENDBRANCH  29  30
ENDBRANCH  22  29
ENDBRANCH  18  19
ENDBRANCH   7  18
ENDBRANCH   2   5
TORSDOF 9
ENDMDL
MODEL      129
REMARK 921   NORMALIZED FREE ENERGY PREDICTED BY IDOCK:   -5.44 KCAL/MOL
REMARK 922        TOTAL FREE ENERGY PREDICTED BY IDOCK:  -10.35 KCAL/MOL
REMARK 923 INTER-LIGAND FREE ENERGY PREDICTED BY IDOCK:   -8.98 KCAL/MOL
REMARK 924 INTRA-LIGAND FREE ENERGY PREDICTED BY IDOCK:   -1.37 KCAL/MOL
REMARK 927      BINDING AFFINITY PREDICTED BY RF-SCORE:    0.00 PKD
ROOT
HETATM    1  N   UNL     1     -10.560  18.997  66.389  1.00  0.00    -0.425 NA 
HETATM    2  C   UNL     1     -10.660  17.541  66.167  1.00  0.00    -0.211 C  
HETATM    3  H1  UNL     1     -11.275  19.481  65.845  1.00  0.00     0.000 HD 
HETATM    4  H2  UNL     1      -9.624  19.352  66.193  1.00  0.00     0.000 HD 
ENDROOT
BRANCH   2   5
HETATM    5  C   UNL     1      -9.583  16.812  66.988  1.00  0.00    -0.239 C  
HETATM    6  O   UNL     1     -10.097  15.502  67.293  1.00  0.00    -0.244 OA 
HETATM    7  C   UNL     1      -9.107  14.661  67.880  1.00  0.00    -0.189 C  
HETATM    8  C   UNL     1      -8.738  15.226  69.282  1.00  0.00    -0.237 C  
HETATM    9  O   UNL     1     -10.399  17.849  69.030  1.00  0.00    -0.389 OA 
HETATM   10  H   UNL     1     -10.167  18.303  69.832  1.00  0.00     0.000 HD 
HETATM   11  N   UNL     1      -9.914  15.174  70.201  1.00  0.00    -0.498 NA 
HETATM   12  C   UNL     1      -8.235  16.680  69.125  1.00  0.00    -0.126 C  
HETATM   13  H2  UNL     1     -10.303  14.233  70.264  1.00  0.00     0.000 HD 
HETATM   14  O   UNL     1      -6.913  16.711  68.570  1.00  0.00    -0.147 OA 
HETATM   15  C   UNL     1      -9.207  17.548  68.291  1.00  0.00    -0.277 C  
HETATM   16  H1  UNL     1      -9.672  15.544  71.120  1.00  0.00     0.000 HD 
HETATM   17  H   UNL     1      -6.604  17.604  68.474  1.00  0.00     0.000 HD 
BRANCH   7  18
HETATM   18  O   UNL     1      -9.593  13.325  68.039  1.00  0.00    -0.207 OA 
BRANCH  18  19
HETATM   19  C   UNL     1      -8.973  12.369  67.161  1.00  0.00    -0.195 C  
HETATM   20  O   UNL     1      -6.996  12.361  68.650  1.00  0.00    -0.081 OA 
HETATM   21  C   UNL     1     -10.021  11.293  66.886  1.00  0.00    -0.207 C  
HETATM   22  C   UNL     1      -8.573  10.438  68.500  1.00  0.00    -0.134 C  
HETATM   23  H   UNL     1      -6.284  11.870  69.044  1.00  0.00     0.000 HD 
HETATM   24  O   UNL     1      -9.841  10.259  67.865  1.00  0.00    -0.154 OA 
HETATM   25  C   UNL     1      -7.834  11.584  67.791  1.00  0.00    -0.126 C  
BRANCH  21  26
HETATM   26  C   UNL     1      -9.913  10.663  65.496  1.00  0.00    -0.272 C  
HETATM   27  H   UNL     1     -10.687  10.948  63.701  1.00  0.00     0.000 HD 
HETATM   28  O   UNL     1     -10.755  11.339  64.564  1.00  0.00    -0.332 OA 
ENDBRANCH  21  26
BRANCH  22  29
HETATM   29  O   UNL     1      -7.786   9.256  68.397  1.00  0.00    -0.088 OA 
BRANCH  29  30
HETATM   30  C   UNL     1      -8.456   8.003  68.157  1.00  0.00    -0.123 C  
HETATM   31  C   UNL     1      -8.486   7.693  66.647  1.00  0.00    -0.130 C  
HETATM   32  O   UNL     1      -7.186   7.892  66.073  1.00  0.00    -0.070 OA 
HETATM   33  C   UNL     1      -8.942   6.251  66.403  1.00  0.00    -0.152 C  
HETATM   34  C   UNL     1     -10.364   6.078  66.937  1.00  0.00    -0.303 C  
HETATM   35  N   UNL     1      -8.884   5.912  64.968  1.00  0.00    -0.363 NA 
HETATM   36  H   UNL     1      -7.205   7.701  65.143  1.00  0.00     0.000 HD 
HETATM   37  H1  UNL     1      -9.188   4.952  64.805  1.00  0.00     0.000 HD 
HETATM   38  H2  UNL     1      -7.957   6.083  64.579  1.00  0.00     0.000 HD 
HETATM   39  C   UNL     1     -10.468   6.445  68.428  1.00  0.00    -0.222 C  
HETATM   40  C   UNL     1      -9.865   7.854  68.792  1.00  0.00    -0.167 C  
HETATM   41  N   UNL     1     -11.884   6.342  68.837  1.00  0.00    -0.201 NA 
HETATM   42  H2  UNL     1     -12.287   5.429  68.629  1.00  0.00     0.000 HD 
HETATM   43  H1  UNL     1     -11.953   6.586  69.825  1.00  0.00     0.000 HD 
BRANCH  40  44
HETATM   44  O   UNL     1      -9.881   7.945  70.236  1.00  0.00    -0.183 OA 
BRANCH  44  45
HETATM   45  C   UNL     1      -9.149   6.925  70.929  1.00  0.00    -0.153 C  
HETATM   46  O   UNL     1      -7.819   7.334  71.223  1.00  0.00    -0.094 OA 
HETATM   47  C   UNL     1      -7.700   8.387  72.179  1.00  0.00    -0.115 C  
HETATM   48  C   UNL     1      -8.311   7.949  73.513  1.00  0.00    -0.216 C  
HETATM   49  H1  UNL     1     -11.760   5.729  72.843  1.00  0.00     0.000 HD 
HETATM   50  H2  UNL     1     -11.334   5.320  71.274  1.00  0.00     0.000 HD 
HETATM   51  O   UNL     1      -8.250   8.978  74.504  1.00  0.00    -0.269 OA 
HETATM   52  C   UNL     1      -9.774   7.537  73.300  1.00  0.00    -0.272 C  
HETATM   53  H   UNL     1      -8.629   8.706  75.331  1.00  0.00     0.000 HD 
HETATM   54  O   UNL     1     -10.317   7.037  74.534  1.00  0.00    -0.434 OA 
HETATM   55  N   UNL     1     -11.281   6.038  71.997  1.00  0.00    -0.276 NA 
HETATM   56  C   UNL     1      -9.876   6.454  72.214  1.00  0.00    -0.157 C  
HETATM   57  H   UNL     1     -11.222   6.781  74.402  1.00  0.00     0.000 HD 
BRANCH  47  58
HETATM   58  C   UNL     1      -6.204   8.703  72.321  1.00  0.00    -0.076 C  
HETATM   59  O   UNL     1      -6.013   9.814  73.202  1.00  0.00    -0.228 OA 
HETATM   60  H   UNL     1      -5.088  10.010  73.289  1.00  0.00     0.000 HD 
ENDBRANCH  47  58
ENDBRANCH  44  45
ENDBRANCH  40  44
ENDBRANCH  29  30
ENDBRANCH  22  29
ENDBRANCH  18  19
ENDBRANCH   7  18
ENDBRANCH   2   5
TORSDOF 9
ENDMDL
MODEL      130
REMARK 921   NORMALIZED FREE ENERGY PREDICTED BY IDOCK:   -5.43 KCAL/MOL
REMARK 922        TOTAL FREE ENERGY PREDICTED BY IDOCK:  -10.34 KCAL/MOL
REMARK 923 INTER-LIGAND FREE ENERGY PREDICTED BY IDOCK:   -8.78 KCAL/MOL
REMARK 924 INTRA-LIGAND FREE ENERGY PREDICTED BY IDOCK:   -1.55 KCAL/MOL
REMARK 927      BINDING AFFINITY PREDICTED BY RF-SCORE:    0.00 PKD
ROOT
HETATM    1  N   UNL     1      -9.058   7.744  74.327  1.00  0.00    -0.420 NA 
HETATM    2  C   UNL     1     -10.219   6.922  73.929  1.00  0.00    -0.367 C  
HETATM    3  H1  UNL     1      -8.834   7.575  75.308  1.00  0.00     0.000 HD 
HETATM    4  H2  UNL     1      -9.206   8.735  74.133  1.00  0.00     0.000 HD 
ENDROOT
BRANCH   2   5
HETATM    5  C   UNL     1     -10.557   7.177  72.451  1.00  0.00    -0.226 C  
HETATM    6  O   UNL     1      -9.847   8.363  72.052  1.00  0.00    -0.227 OA 
HETATM    7  C   UNL     1      -9.922   8.586  70.645  1.00  0.00    -0.189 C  
HETATM    8  C   UNL     1     -11.396   8.921  70.272  1.00  0.00    -0.159 C  
HETATM    9  O   UNL     1     -12.592   8.345  73.089  1.00  0.00    -0.643 OA 
HETATM   10  H   UNL     1     -13.523   8.454  72.930  1.00  0.00     0.000 HD 
HETATM   11  N   UNL     1     -11.829  10.198  70.911  1.00  0.00    -0.345 NA 
HETATM   12  C   UNL     1     -12.307   7.754  70.717  1.00  0.00    -0.007 C  
HETATM   13  H2  UNL     1     -11.198  10.967  70.683  1.00  0.00     0.000 HD 
HETATM   14  O   UNL     1     -12.158   6.622  69.848  1.00  0.00    -0.641 OA 
HETATM   15  C   UNL     1     -12.069   7.355  72.193  1.00  0.00    -0.252 C  
HETATM   16  H1  UNL     1     -12.795  10.418  70.666  1.00  0.00     0.000 HD 
HETATM   17  H   UNL     1     -12.719   5.906  70.122  1.00  0.00     0.000 HD 
BRANCH   7  18
HETATM   18  O   UNL     1      -9.091   9.681  70.251  1.00  0.00    -0.235 OA 
BRANCH  18  19
HETATM   19  C   UNL     1      -7.707   9.330  70.071  1.00  0.00    -0.104 C  
HETATM   20  O   UNL     1      -8.433   7.329  68.809  1.00  0.00    -0.128 OA 
HETATM   21  C   UNL     1      -6.997  10.601  69.609  1.00  0.00    -0.134 C  
HETATM   22  C   UNL     1      -7.360   9.293  67.713  1.00  0.00    -0.084 C  
HETATM   23  H   UNL     1      -8.272   6.721  68.096  1.00  0.00     0.000 HD 
HETATM   24  O   UNL     1      -7.010  10.600  68.173  1.00  0.00    -0.071 OA 
HETATM   25  C   UNL     1      -7.450   8.359  68.931  1.00  0.00    -0.091 C  
BRANCH  21  26
HETATM   26  C   UNL     1      -5.545  10.704  70.077  1.00  0.00    -0.060 C  
HETATM   27  H   UNL     1      -4.520  11.691  71.446  1.00  0.00     0.000 HD 
HETATM   28  O   UNL     1      -5.421  11.628  71.155  1.00  0.00    -0.289 OA 
ENDBRANCH  21  26
BRANCH  22  29
HETATM   29  O   UNL     1      -6.368   8.788  66.825  1.00  0.00    -0.058 OA 
BRANCH  29  30
HETATM   30  C   UNL     1      -6.691   8.682  65.424  1.00  0.00    -0.067 C  
HETATM   31  C   UNL     1      -7.417   9.955  64.945  1.00  0.00    -0.135 C  
HETATM   32  O   UNL     1      -6.722  11.125  65.398  1.00  0.00    -0.354 OA 
HETATM   33  C   UNL     1      -7.517   9.974  63.416  1.00  0.00    -0.139 C  
HETATM   34  C   UNL     1      -8.340   8.771  62.953  1.00  0.00    -0.182 C  
HETATM   35  N   UNL     1      -8.126  11.231  62.940  1.00  0.00    -0.402 NA 
HETATM   36  H   UNL     1      -7.169  11.908  65.103  1.00  0.00     0.000 HD 
HETATM   37  H1  UNL     1      -8.193  11.244  61.923  1.00  0.00     0.000 HD 
HETATM   38  H2  UNL     1      -7.627  12.047  63.294  1.00  0.00     0.000 HD 
HETATM   39  C   UNL     1      -7.747   7.442  63.451  1.00  0.00    -0.125 C  
HETATM   40  C   UNL     1      -7.457   7.401  64.998  1.00  0.00    -0.085 C  
HETATM   41  N   UNL     1      -8.650   6.345  63.042  1.00  0.00    -0.327 NA 
HETATM   42  H2  UNL     1      -8.832   6.342  62.038  1.00  0.00     0.000 HD 
HETATM   43  H1  UNL     1      -8.256   5.464  63.372  1.00  0.00     0.000 HD 
BRANCH  40  44
HETATM   44  O   UNL     1      -6.742   6.168  65.248  1.00  0.00    -0.045 OA 
BRANCH  44  45
HETATM   45  C   UNL     1      -7.100   5.478  66.454  1.00  0.00    -0.069 C  
HETATM   46  O   UNL     1      -8.497   5.556  66.715  1.00  0.00    -0.111 OA 
HETATM   47  C   UNL     1      -9.331   4.852  65.796  1.00  0.00    -0.161 C  
HETATM   48  C   UNL     1      -8.981   3.361  65.813  1.00  0.00    -0.143 C  
HETATM   49  H1  UNL     1      -4.868   2.864  66.150  1.00  0.00     0.000 HD 
HETATM   50  H2  UNL     1      -4.618   4.390  66.798  1.00  0.00     0.000 HD 
HETATM   51  O   UNL     1      -9.764   2.607  64.886  1.00  0.00    -0.316 OA 
HETATM   52  C   UNL     1      -7.492   3.177  65.488  1.00  0.00    -0.076 C  
HETATM   53  H   UNL     1      -9.547   1.682  64.897  1.00  0.00     0.000 HD 
HETATM   54  O   UNL     1      -7.145   1.785  65.599  1.00  0.00    -0.048 OA 
HETATM   55  N   UNL     1      -5.182   3.835  66.154  1.00  0.00    -0.008 NA 
HETATM   56  C   UNL     1      -6.623   4.004  66.448  1.00  0.00    -0.041 C  
HETATM   57  H   UNL     1      -6.224   1.671  65.397  1.00  0.00     0.000 HD 
BRANCH  47  58
HETATM   58  C   UNL     1     -10.784   5.095  66.225  1.00  0.00    -0.209 C  
HETATM   59  O   UNL     1     -11.676   4.797  65.147  1.00  0.00    -1.013 OA 
HETATM   60  H   UNL     1     -12.575   4.948  65.413  1.00  0.00     0.000 HD 
ENDBRANCH  47  58
ENDBRANCH  44  45
ENDBRANCH  40  44
ENDBRANCH  29  30
ENDBRANCH  22  29
ENDBRANCH  18  19
ENDBRANCH   7  18
ENDBRANCH   2   5
TORSDOF 9
ENDMDL
MODEL      131
REMARK 921   NORMALIZED FREE ENERGY PREDICTED BY IDOCK:   -5.42 KCAL/MOL
REMARK 922        TOTAL FREE ENERGY PREDICTED BY IDOCK:  -10.31 KCAL/MOL
REMARK 923 INTER-LIGAND FREE ENERGY PREDICTED BY IDOCK:   -8.21 KCAL/MOL
REMARK 924 INTRA-LIGAND FREE ENERGY PREDICTED BY IDOCK:   -2.10 KCAL/MOL
REMARK 927      BINDING AFFINITY PREDICTED BY RF-SCORE:    0.00 PKD
ROOT
HETATM    1  N   UNL     1      -9.205   5.654  72.627  1.00  0.00    -0.138 NA 
HETATM    2  C   UNL     1      -8.122   5.005  71.862  1.00  0.00    -0.115 C  
HETATM    3  H1  UNL     1      -9.008   5.593  73.626  1.00  0.00     0.000 HD 
HETATM    4  H2  UNL     1     -10.122   5.272  72.393  1.00  0.00     0.000 HD 
ENDROOT
BRANCH   2   5
HETATM    5  C   UNL     1      -8.418   5.097  70.355  1.00  0.00    -0.109 C  
HETATM    6  O   UNL     1      -8.598   6.491  70.043  1.00  0.00    -0.136 OA 
HETATM    7  C   UNL     1      -8.680   6.720  68.638  1.00  0.00    -0.125 C  
HETATM    8  C   UNL     1      -9.990   6.072  68.102  1.00  0.00    -0.147 C  
HETATM    9  O   UNL     1     -10.775   4.659  70.765  1.00  0.00     0.070 OA 
HETATM   10  H   UNL     1     -11.543   4.166  70.504  1.00  0.00     0.000 HD 
HETATM   11  N   UNL     1     -11.190   6.733  68.694  1.00  0.00    -0.540 NA 
HETATM   12  C   UNL     1      -9.980   4.562  68.438  1.00  0.00    -0.033 C  
HETATM   13  H2  UNL     1     -11.179   7.742  68.542  1.00  0.00     0.000 HD 
HETATM   14  O   UNL     1      -9.071   3.850  67.587  1.00  0.00    -0.127 OA 
HETATM   15  C   UNL     1      -9.667   4.296  69.930  1.00  0.00    -0.221 C  
HETATM   16  H1  UNL     1     -12.048   6.308  68.343  1.00  0.00     0.000 HD 
HETATM   17  H   UNL     1      -9.066   2.923  67.793  1.00  0.00     0.000 HD 
BRANCH   7  18
HETATM   18  O   UNL     1      -8.709   8.119  68.344  1.00  0.00    -0.133 OA 
BRANCH  18  19
HETATM   19  C   UNL     1      -8.125   8.462  67.075  1.00  0.00    -0.104 C  
HETATM   20  O   UNL     1     -10.407   8.678  66.141  1.00  0.00    -0.382 OA 
HETATM   21  C   UNL     1      -7.058   9.517  67.363  1.00  0.00    -0.086 C  
HETATM   22  C   UNL     1      -8.937  10.645  66.568  1.00  0.00    -0.156 C  
HETATM   23  H   UNL     1     -10.996   9.127  65.545  1.00  0.00     0.000 HD 
HETATM   24  O   UNL     1      -7.683  10.803  67.234  1.00  0.00    -0.104 OA 
HETATM   25  C   UNL     1      -9.068   9.179  66.123  1.00  0.00    -0.187 C  
BRANCH  21  26
HETATM   26  C   UNL     1      -5.862   9.465  66.411  1.00  0.00    -0.058 C  
HETATM   27  H   UNL     1      -4.839  10.724  65.285  1.00  0.00     0.000 HD 
HETATM   28  O   UNL     1      -5.582  10.756  65.875  1.00  0.00    -0.110 OA 
ENDBRANCH  21  26
BRANCH  22  29
HETATM   29  O   UNL     1      -9.005  11.478  65.415  1.00  0.00    -0.121 OA 
BRANCH  29  30
HETATM   30  C   UNL     1     -10.223  12.206  65.165  1.00  0.00    -0.278 C  
HETATM   31  C   UNL     1     -10.903  11.687  63.883  1.00  0.00    -0.405 C  
HETATM   32  O   UNL     1     -10.956  10.254  63.893  1.00  0.00     0.185 OA 
HETATM   33  C   UNL     1     -12.322  12.255  63.758  1.00  0.00    -0.538 C  
HETATM   34  C   UNL     1     -12.244  13.778  63.655  1.00  0.00    -0.311 C  
HETATM   35  N   UNL     1     -13.018  11.692  62.586  1.00  0.00    -0.468 NA 
HETATM   36  H   UNL     1     -11.376   9.934  63.104  1.00  0.00     0.000 HD 
HETATM   37  H1  UNL     1     -13.961  12.069  62.502  1.00  0.00     0.000 HD 
HETATM   38  H2  UNL     1     -13.022  10.672  62.605  1.00  0.00     0.000 HD 
HETATM   39  C   UNL     1     -11.504  14.400  64.852  1.00  0.00    -0.386 C  
HETATM   40  C   UNL     1     -10.098  13.754  65.151  1.00  0.00    -0.289 C  
HETATM   41  N   UNL     1     -11.391  15.856  64.626  1.00  0.00    -0.564 NA 
HETATM   42  H2  UNL     1     -12.294  16.297  64.452  1.00  0.00     0.000 HD 
HETATM   43  H1  UNL     1     -10.900  16.268  65.420  1.00  0.00     0.000 HD 
BRANCH  40  44
HETATM   44  O   UNL     1      -9.642  14.327  66.399  1.00  0.00    -0.282 OA 
BRANCH  44  45
HETATM   45  C   UNL     1      -8.445  15.114  66.318  1.00  0.00     0.149 C  
HETATM   46  O   UNL     1      -8.725  16.474  66.007  1.00  0.00    -0.400 OA 
HETATM   47  C   UNL     1      -9.408  17.206  67.023  1.00  0.00    -0.243 C  
HETATM   48  C   UNL     1      -8.565  17.230  68.301  1.00  0.00    -0.247 C  
HETATM   49  H1  UNL     1      -6.714  13.551  68.861  1.00  0.00     0.000 HD 
HETATM   50  H2  UNL     1      -6.835  13.112  67.248  1.00  0.00     0.000 HD 
HETATM   51  O   UNL     1      -9.215  17.924  69.369  1.00  0.00     0.134 OA 
HETATM   52  C   UNL     1      -8.258  15.793  68.744  1.00  0.00    -0.192 C  
HETATM   53  H   UNL     1      -8.692  17.939  70.162  1.00  0.00     0.000 HD 
HETATM   54  O   UNL     1      -7.388  15.819  69.889  1.00  0.00    -0.095 OA 
HETATM   55  N   UNL     1      -7.278  13.620  68.014  1.00  0.00    -0.112 NA 
HETATM   56  C   UNL     1      -7.588  15.009  67.605  1.00  0.00    -0.178 C  
HETATM   57  H   UNL     1      -7.197  14.929  70.163  1.00  0.00     0.000 HD 
BRANCH  47  58
HETATM   58  C   UNL     1      -9.648  18.621  66.479  1.00  0.00    -0.337 C  
HETATM   59  O   UNL     1      -8.496  19.440  66.700  1.00  0.00    -0.288 OA 
HETATM   60  H   UNL     1      -8.645  20.315  66.363  1.00  0.00     0.000 HD 
ENDBRANCH  47  58
ENDBRANCH  44  45
ENDBRANCH  40  44
ENDBRANCH  29  30
ENDBRANCH  22  29
ENDBRANCH  18  19
ENDBRANCH   7  18
ENDBRANCH   2   5
TORSDOF 9
ENDMDL
MODEL      132
REMARK 921   NORMALIZED FREE ENERGY PREDICTED BY IDOCK:   -5.41 KCAL/MOL
REMARK 922        TOTAL FREE ENERGY PREDICTED BY IDOCK:  -10.31 KCAL/MOL
REMARK 923 INTER-LIGAND FREE ENERGY PREDICTED BY IDOCK:  -10.06 KCAL/MOL
REMARK 924 INTRA-LIGAND FREE ENERGY PREDICTED BY IDOCK:   -0.24 KCAL/MOL
REMARK 927      BINDING AFFINITY PREDICTED BY RF-SCORE:    0.00 PKD
ROOT
HETATM    1  N   UNL     1      -8.795   8.188  70.932  1.00  0.00    -0.137 NA 
HETATM    2  C   UNL     1      -9.814   7.240  71.427  1.00  0.00    -0.186 C  
HETATM    3  H1  UNL     1      -7.863   7.850  71.169  1.00  0.00     0.000 HD 
HETATM    4  H2  UNL     1      -8.957   9.137  71.273  1.00  0.00     0.000 HD 
ENDROOT
BRANCH   2   5
HETATM    5  C   UNL     1     -11.220   7.750  71.070  1.00  0.00    -0.266 C  
HETATM    6  O   UNL     1     -11.124   9.177  70.903  1.00  0.00    -0.249 OA 
HETATM    7  C   UNL     1     -12.323   9.737  70.373  1.00  0.00    -0.011 C  
HETATM    8  C   UNL     1     -13.455   9.586  71.431  1.00  0.00    -0.333 C  
HETATM    9  O   UNL     1     -11.814   7.845  73.426  1.00  0.00    -0.544 OA 
HETATM   10  H   UNL     1     -12.467   7.638  74.084  1.00  0.00     0.000 HD 
HETATM   11  N   UNL     1     -13.143  10.377  72.659  1.00  0.00    -0.248 NA 
HETATM   12  C   UNL     1     -13.626   8.089  71.778  1.00  0.00    -0.348 C  
HETATM   13  H2  UNL     1     -12.959  11.356  72.441  1.00  0.00     0.000 HD 
HETATM   14  O   UNL     1     -14.284   7.385  70.715  1.00  0.00    -0.534 OA 
HETATM   15  C   UNL     1     -12.281   7.415  72.140  1.00  0.00    -0.230 C  
HETATM   16  H1  UNL     1     -13.884  10.277  73.352  1.00  0.00     0.000 HD 
HETATM   17  H   UNL     1     -14.389   6.466  70.928  1.00  0.00     0.000 HD 
BRANCH   7  18
HETATM   18  O   UNL     1     -12.157  11.127  70.078  1.00  0.00    -0.309 OA 
BRANCH  18  19
HETATM   19  C   UNL     1     -11.978  11.410  68.678  1.00  0.00    -0.249 C  
HETATM   20  O   UNL     1     -12.441  13.794  69.154  1.00  0.00    -0.366 OA 
HETATM   21  C   UNL     1     -10.689  10.706  68.258  1.00  0.00    -0.219 C  
HETATM   22  C   UNL     1     -10.168  12.957  68.567  1.00  0.00    -0.205 C  
HETATM   23  H   UNL     1     -12.261  14.706  68.958  1.00  0.00     0.000 HD 
HETATM   24  O   UNL     1      -9.617  11.648  68.413  1.00  0.00    -0.189 OA 
HETATM   25  C   UNL     1     -11.690  12.868  68.365  1.00  0.00    -0.345 C  
BRANCH  21  26
HETATM   26  C   UNL     1     -10.694  10.218  66.808  1.00  0.00    -0.146 C  
HETATM   27  H   UNL     1      -9.724   8.892  65.712  1.00  0.00     0.000 HD 
HETATM   28  O   UNL     1      -9.721   9.195  66.612  1.00  0.00    -0.184 OA 
ENDBRANCH  21  26
BRANCH  22  29
HETATM   29  O   UNL     1      -9.632  13.848  67.594  1.00  0.00    -0.206 OA 
BRANCH  29  30
HETATM   30  C   UNL     1      -8.220  14.136  67.631  1.00  0.00    -0.186 C  
HETATM   31  C   UNL     1      -7.418  12.845  67.888  1.00  0.00    -0.131 C  
HETATM   32  O   UNL     1      -7.877  11.794  67.026  1.00  0.00    -0.155 OA 
HETATM   33  C   UNL     1      -5.922  13.086  67.656  1.00  0.00    -0.144 C  
HETATM   34  C   UNL     1      -5.426  14.142  68.644  1.00  0.00    -0.089 C  
HETATM   35  N   UNL     1      -5.154  11.835  67.806  1.00  0.00    -0.051 NA 
HETATM   36  H   UNL     1      -7.382  10.999  67.184  1.00  0.00     0.000 HD 
HETATM   37  H1  UNL     1      -4.158  11.995  67.653  1.00  0.00     0.000 HD 
HETATM   38  H2  UNL     1      -5.513  11.098  67.201  1.00  0.00     0.000 HD 
HETATM   39  C   UNL     1      -6.220  15.455  68.531  1.00  0.00    -0.095 C  
HETATM   40  C   UNL     1      -7.784  15.273  68.594  1.00  0.00    -0.135 C  
HETATM   41  N   UNL     1      -5.743  16.381  69.579  1.00  0.00    -0.151 NA 
HETATM   42  H2  UNL     1      -4.734  16.529  69.541  1.00  0.00     0.000 HD 
HETATM   43  H1  UNL     1      -6.269  17.251  69.504  1.00  0.00     0.000 HD 
BRANCH  40  44
HETATM   44  O   UNL     1      -8.358  16.566  68.289  1.00  0.00    -0.178 OA 
BRANCH  44  45
HETATM   45  C   UNL     1      -8.019  17.107  67.004  1.00  0.00    -0.201 C  
HETATM   46  O   UNL     1      -9.044  16.875  66.045  1.00  0.00    -0.448 OA 
HETATM   47  C   UNL     1     -10.265  17.578  66.271  1.00  0.00    -0.355 C  
HETATM   48  C   UNL     1     -10.006  19.087  66.256  1.00  0.00    -0.398 C  
HETATM   49  H1  UNL     1      -6.394  19.935  68.128  1.00  0.00     0.000 HD 
HETATM   50  H2  UNL     1      -5.785  18.388  67.917  1.00  0.00     0.000 HD 
HETATM   51  O   UNL     1     -11.190  19.845  66.510  1.00  0.00    -0.125 OA 
HETATM   52  C   UNL     1      -8.943  19.439  67.305  1.00  0.00    -0.299 C  
HETATM   53  H   UNL     1     -11.030  20.782  66.500  1.00  0.00     0.000 HD 
HETATM   54  O   UNL     1      -8.633  20.841  67.224  1.00  0.00    -0.492 OA 
HETATM   55  N   UNL     1      -6.626  18.943  68.079  1.00  0.00    -0.220 NA 
HETATM   56  C   UNL     1      -7.667  18.614  67.079  1.00  0.00    -0.228 C  
HETATM   57  H   UNL     1      -7.975  21.059  67.873  1.00  0.00     0.000 HD 
BRANCH  47  58
HETATM   58  C   UNL     1     -11.240  17.161  65.162  1.00  0.00     0.341 C  
HETATM   59  O   UNL     1     -10.692  16.083  64.398  1.00  0.00    -0.819 OA 
HETATM   60  H   UNL     1     -11.296  15.825  63.712  1.00  0.00     0.000 HD 
ENDBRANCH  47  58
ENDBRANCH  44  45
ENDBRANCH  40  44
ENDBRANCH  29  30
ENDBRANCH  22  29
ENDBRANCH  18  19
ENDBRANCH   7  18
ENDBRANCH   2   5
TORSDOF 9
ENDMDL
MODEL      133
REMARK 921   NORMALIZED FREE ENERGY PREDICTED BY IDOCK:   -5.40 KCAL/MOL
REMARK 922        TOTAL FREE ENERGY PREDICTED BY IDOCK:  -10.29 KCAL/MOL
REMARK 923 INTER-LIGAND FREE ENERGY PREDICTED BY IDOCK:   -8.38 KCAL/MOL
REMARK 924 INTRA-LIGAND FREE ENERGY PREDICTED BY IDOCK:   -1.91 KCAL/MOL
REMARK 927      BINDING AFFINITY PREDICTED BY RF-SCORE:    0.00 PKD
ROOT
HETATM    1  N   UNL     1      -9.038   2.595  69.821  1.00  0.00    -0.109 NA 
HETATM    2  C   UNL     1      -8.375   3.254  70.964  1.00  0.00    -0.065 C  
HETATM    3  H1  UNL     1      -8.477   1.804  69.504  1.00  0.00     0.000 HD 
HETATM    4  H2  UNL     1      -9.239   3.250  69.065  1.00  0.00     0.000 HD 
ENDROOT
BRANCH   2   5
HETATM    5  C   UNL     1      -9.221   4.446  71.442  1.00  0.00    -0.133 C  
HETATM    6  O   UNL     1      -8.332   5.571  71.571  1.00  0.00    -0.120 OA 
HETATM    7  C   UNL     1      -9.038   6.786  71.815  1.00  0.00    -0.140 C  
HETATM    8  C   UNL     1      -9.702   6.705  73.220  1.00  0.00    -0.170 C  
HETATM    9  O   UNL     1      -8.990   3.719  73.751  1.00  0.00    -0.089 OA 
HETATM   10  H   UNL     1      -9.432   3.558  74.576  1.00  0.00     0.000 HD 
HETATM   11  N   UNL     1      -8.667   6.612  74.292  1.00  0.00    -0.143 NA 
HETATM   12  C   UNL     1     -10.642   5.478  73.264  1.00  0.00    -0.250 C  
HETATM   13  H2  UNL     1      -7.996   7.378  74.236  1.00  0.00     0.000 HD 
HETATM   14  O   UNL     1     -11.842   5.719  72.517  1.00  0.00    -0.407 OA 
HETATM   15  C   UNL     1      -9.940   4.185  72.783  1.00  0.00    -0.151 C  
HETATM   16  H1  UNL     1      -9.102   6.558  75.213  1.00  0.00     0.000 HD 
HETATM   17  H   UNL     1     -12.419   4.965  72.544  1.00  0.00     0.000 HD 
BRANCH   7  18
HETATM   18  O   UNL     1      -8.153   7.910  71.793  1.00  0.00    -0.096 OA 
BRANCH  18  19
HETATM   19  C   UNL     1      -8.674   9.050  71.085  1.00  0.00    -0.203 C  
HETATM   20  O   UNL     1      -6.372   9.951  70.949  1.00  0.00    -0.153 OA 
HETATM   21  C   UNL     1      -9.598   8.500  70.001  1.00  0.00    -0.169 C  
HETATM   22  C   UNL     1      -7.580   9.041  68.968  1.00  0.00    -0.078 C  
HETATM   23  H   UNL     1      -5.723  10.434  70.451  1.00  0.00     0.000 HD 
HETATM   24  O   UNL     1      -8.811   8.333  68.812  1.00  0.00    -0.136 OA 
HETATM   25  C   UNL     1      -7.635   9.823  70.290  1.00  0.00    -0.172 C  
BRANCH  21  26
HETATM   26  C   UNL     1     -10.779   9.414  69.672  1.00  0.00    -0.235 C  
HETATM   27  H   UNL     1     -11.710  10.070  68.058  1.00  0.00     0.000 HD 
HETATM   28  O   UNL     1     -10.976   9.503  68.263  1.00  0.00    -0.182 OA 
ENDBRANCH  21  26
BRANCH  22  29
HETATM   29  O   UNL     1      -7.391   9.965  67.900  1.00  0.00    -0.087 OA 
BRANCH  29  30
HETATM   30  C   UNL     1      -8.049   9.708  66.645  1.00  0.00    -0.119 C  
HETATM   31  C   UNL     1      -7.193   8.767  65.775  1.00  0.00    -0.084 C  
HETATM   32  O   UNL     1      -6.741   7.647  66.549  1.00  0.00    -0.055 OA 
HETATM   33  C   UNL     1      -7.998   8.269  64.568  1.00  0.00    -0.146 C  
HETATM   34  C   UNL     1      -8.394   9.465  63.703  1.00  0.00    -0.184 C  
HETATM   35  N   UNL     1      -7.221   7.293  63.779  1.00  0.00    -0.069 NA 
HETATM   36  H   UNL     1      -6.214   7.067  66.013  1.00  0.00     0.000 HD 
HETATM   37  H1  UNL     1      -7.756   6.962  62.977  1.00  0.00     0.000 HD 
HETATM   38  H2  UNL     1      -6.893   6.520  64.357  1.00  0.00     0.000 HD 
HETATM   39  C   UNL     1      -9.187  10.515  64.499  1.00  0.00    -0.240 C  
HETATM   40  C   UNL     1      -8.502  10.960  65.846  1.00  0.00    -0.158 C  
HETATM   41  N   UNL     1      -9.445  11.673  63.617  1.00  0.00    -0.492 NA 
HETATM   42  H2  UNL     1      -9.909  11.408  62.748  1.00  0.00     0.000 HD 
HETATM   43  H1  UNL     1      -9.971  12.369  64.146  1.00  0.00     0.000 HD 
BRANCH  40  44
HETATM   44  O   UNL     1      -9.461  11.794  66.537  1.00  0.00    -0.202 OA 
BRANCH  44  45
HETATM   45  C   UNL     1      -9.280  13.209  66.377  1.00  0.00    -0.122 C  
HETATM   46  O   UNL     1     -10.334  13.795  65.623  1.00  0.00    -0.292 OA 
HETATM   47  C   UNL     1     -11.612  13.801  66.258  1.00  0.00    -0.350 C  
HETATM   48  C   UNL     1     -11.538  14.593  67.567  1.00  0.00    -0.375 C  
HETATM   49  H1  UNL     1      -7.932  13.838  69.490  1.00  0.00     0.000 HD 
HETATM   50  H2  UNL     1      -7.158  13.328  68.094  1.00  0.00     0.000 HD 
HETATM   51  O   UNL     1     -12.784  14.606  68.266  1.00  0.00    -0.260 OA 
HETATM   52  C   UNL     1     -10.454  13.993  68.473  1.00  0.00    -0.249 C  
HETATM   53  H   UNL     1     -12.738  15.098  69.078  1.00  0.00     0.000 HD 
HETATM   54  O   UNL     1     -10.321  14.795  69.659  1.00  0.00    -0.378 OA 
HETATM   55  N   UNL     1      -8.046  13.362  68.596  1.00  0.00    -0.091 NA 
HETATM   56  C   UNL     1      -9.107  13.933  67.736  1.00  0.00    -0.191 C  
HETATM   57  H   UNL     1      -9.650  14.423  70.220  1.00  0.00     0.000 HD 
BRANCH  47  58
HETATM   58  C   UNL     1     -12.606  14.432  65.273  1.00  0.00    -0.327 C  
HETATM   59  O   UNL     1     -11.988  14.616  63.996  1.00  0.00    -0.705 OA 
HETATM   60  H   UNL     1     -12.603  15.006  63.386  1.00  0.00     0.000 HD 
ENDBRANCH  47  58
ENDBRANCH  44  45
ENDBRANCH  40  44
ENDBRANCH  29  30
ENDBRANCH  22  29
ENDBRANCH  18  19
ENDBRANCH   7  18
ENDBRANCH   2   5
TORSDOF 9
ENDMDL
MODEL      134
REMARK 921   NORMALIZED FREE ENERGY PREDICTED BY IDOCK:   -5.40 KCAL/MOL
REMARK 922        TOTAL FREE ENERGY PREDICTED BY IDOCK:  -10.28 KCAL/MOL
REMARK 923 INTER-LIGAND FREE ENERGY PREDICTED BY IDOCK:   -8.07 KCAL/MOL
REMARK 924 INTRA-LIGAND FREE ENERGY PREDICTED BY IDOCK:   -2.21 KCAL/MOL
REMARK 927      BINDING AFFINITY PREDICTED BY RF-SCORE:    0.00 PKD
ROOT
HETATM    1  N   UNL     1     -11.453  16.331  63.793  1.00  0.00    -1.429 NA 
HETATM    2  C   UNL     1     -11.565  14.871  63.982  1.00  0.00     0.123 C  
HETATM    3  H1  UNL     1     -11.825  16.592  62.880  1.00  0.00     0.000 HD 
HETATM    4  H2  UNL     1     -10.497  16.662  63.926  1.00  0.00     0.000 HD 
ENDROOT
BRANCH   2   5
HETATM    5  C   UNL     1     -11.004  14.477  65.358  1.00  0.00    -0.342 C  
HETATM    6  O   UNL     1     -10.537  13.120  65.254  1.00  0.00    -0.296 OA 
HETATM    7  C   UNL     1      -9.812  12.711  66.411  1.00  0.00    -0.259 C  
HETATM    8  C   UNL     1     -10.792  12.649  67.618  1.00  0.00    -0.221 C  
HETATM    9  O   UNL     1     -13.233  13.883  66.127  1.00  0.00    -0.377 OA 
HETATM   10  H   UNL     1     -13.872  13.953  66.827  1.00  0.00     0.000 HD 
HETATM   11  N   UNL     1     -11.836  11.604  67.401  1.00  0.00    -0.630 NA 
HETATM   12  C   UNL     1     -11.445  14.038  67.811  1.00  0.00    -0.322 C  
HETATM   13  H2  UNL     1     -11.423  10.693  67.204  1.00  0.00     0.000 HD 
HETATM   14  O   UNL     1     -10.517  14.968  68.386  1.00  0.00    -0.230 OA 
HETATM   15  C   UNL     1     -12.042  14.591  66.495  1.00  0.00    -0.309 C  
HETATM   16  H1  UNL     1     -12.479  11.564  68.192  1.00  0.00     0.000 HD 
HETATM   17  H   UNL     1     -10.918  15.821  68.504  1.00  0.00     0.000 HD 
BRANCH   7  18
HETATM   18  O   UNL     1      -9.232  11.417  66.227  1.00  0.00    -0.196 OA 
BRANCH  18  19
HETATM   19  C   UNL     1      -8.153  11.125  67.133  1.00  0.00    -0.138 C  
HETATM   20  O   UNL     1      -9.520   9.296  68.089  1.00  0.00    -0.137 OA 
HETATM   21  C   UNL     1      -6.881  11.086  66.290  1.00  0.00    -0.096 C  
HETATM   22  C   UNL     1      -7.518   8.875  66.666  1.00  0.00    -0.086 C  
HETATM   23  H   UNL     1      -9.551   8.426  68.470  1.00  0.00     0.000 HD 
HETATM   24  O   UNL     1      -6.681   9.725  65.879  1.00  0.00    -0.083 OA 
HETATM   25  C   UNL     1      -8.204   9.733  67.741  1.00  0.00    -0.114 C  
BRANCH  21  26
HETATM   26  C   UNL     1      -5.629  11.552  67.035  1.00  0.00    -0.117 C  
HETATM   27  H   UNL     1      -5.200  12.551  68.683  1.00  0.00     0.000 HD 
HETATM   28  O   UNL     1      -5.977  12.262  68.221  1.00  0.00    -0.050 OA 
ENDBRANCH  21  26
BRANCH  22  29
HETATM   29  O   UNL     1      -6.749   7.865  67.311  1.00  0.00    -0.065 OA 
BRANCH  29  30
HETATM   30  C   UNL     1      -7.199   6.499  67.224  1.00  0.00    -0.078 C  
HETATM   31  C   UNL     1      -7.684   6.185  65.796  1.00  0.00    -0.094 C  
HETATM   32  O   UNL     1      -6.729   6.649  64.832  1.00  0.00    -0.047 OA 
HETATM   33  C   UNL     1      -7.903   4.678  65.620  1.00  0.00    -0.094 C  
HETATM   34  C   UNL     1      -8.990   4.213  66.589  1.00  0.00    -0.128 C  
HETATM   35  N   UNL     1      -8.276   4.354  64.230  1.00  0.00    -0.097 NA 
HETATM   36  H   UNL     1      -7.027   6.456  63.952  1.00  0.00     0.000 HD 
HETATM   37  H1  UNL     1      -8.422   3.352  64.113  1.00  0.00     0.000 HD 
HETATM   38  H2  UNL     1      -7.593   4.714  63.564  1.00  0.00     0.000 HD 
HETATM   39  C   UNL     1      -8.646   4.555  68.049  1.00  0.00    -0.102 C  
HETATM   40  C   UNL     1      -8.245   6.060  68.285  1.00  0.00    -0.110 C  
HETATM   41  N   UNL     1      -9.785   4.160  68.903  1.00  0.00    -0.146 NA 
HETATM   42  H2  UNL     1     -10.046   3.182  68.781  1.00  0.00     0.000 HD 
HETATM   43  H1  UNL     1      -9.556   4.387  69.871  1.00  0.00     0.000 HD 
BRANCH  40  44
HETATM   44  O   UNL     1      -7.782   6.151  69.653  1.00  0.00    -0.094 OA 
BRANCH  44  45
HETATM   45  C   UNL     1      -8.058   7.391  70.319  1.00  0.00    -0.116 C  
HETATM   46  O   UNL     1      -9.357   7.402  70.900  1.00  0.00    -0.155 OA 
HETATM   47  C   UNL     1      -9.544   6.509  71.997  1.00  0.00    -0.149 C  
HETATM   48  C   UNL     1      -8.574   6.863  73.127  1.00  0.00    -0.118 C  
HETATM   49  H1  UNL     1      -4.884   7.949  71.552  1.00  0.00     0.000 HD 
HETATM   50  H2  UNL     1      -5.508   8.331  70.044  1.00  0.00     0.000 HD 
HETATM   51  O   UNL     1      -8.693   5.980  74.244  1.00  0.00    -0.124 OA 
HETATM   52  C   UNL     1      -7.133   6.824  72.601  1.00  0.00    -0.079 C  
HETATM   53  H   UNL     1      -8.091   6.200  74.945  1.00  0.00     0.000 HD 
HETATM   54  O   UNL     1      -6.231   7.249  73.638  1.00  0.00    -0.063 OA 
HETATM   55  N   UNL     1      -5.594   7.720  70.857  1.00  0.00    -0.030 NA 
HETATM   56  C   UNL     1      -6.980   7.740  71.376  1.00  0.00    -0.053 C  
HETATM   57  H   UNL     1      -5.339   7.225  73.312  1.00  0.00     0.000 HD 
BRANCH  47  58
HETATM   58  C   UNL     1     -11.006   6.643  72.446  1.00  0.00    -0.244 C  
HETATM   59  O   UNL     1     -11.092   7.449  73.625  1.00  0.00    -0.576 OA 
HETATM   60  H   UNL     1     -11.996   7.532  73.902  1.00  0.00     0.000 HD 
ENDBRANCH  47  58
ENDBRANCH  44  45
ENDBRANCH  40  44
ENDBRANCH  29  30
ENDBRANCH  22  29
ENDBRANCH  18  19
ENDBRANCH   7  18
ENDBRANCH   2   5
TORSDOF 9
ENDMDL
MODEL      135
REMARK 921   NORMALIZED FREE ENERGY PREDICTED BY IDOCK:   -5.35 KCAL/MOL
REMARK 922        TOTAL FREE ENERGY PREDICTED BY IDOCK:  -10.21 KCAL/MOL
REMARK 923 INTER-LIGAND FREE ENERGY PREDICTED BY IDOCK:   -8.23 KCAL/MOL
REMARK 924 INTRA-LIGAND FREE ENERGY PREDICTED BY IDOCK:   -1.98 KCAL/MOL
REMARK 927      BINDING AFFINITY PREDICTED BY RF-SCORE:    0.00 PKD
ROOT
HETATM    1  N   UNL     1     -10.095   4.498  74.187  1.00  0.00    -0.173 NA 
HETATM    2  C   UNL     1      -8.655   4.175  74.257  1.00  0.00    -0.096 C  
HETATM    3  H1  UNL     1     -10.525   4.363  75.102  1.00  0.00     0.000 HD 
HETATM    4  H2  UNL     1     -10.572   3.967  73.458  1.00  0.00     0.000 HD 
ENDROOT
BRANCH   2   5
HETATM    5  C   UNL     1      -8.007   4.379  72.877  1.00  0.00    -0.091 C  
HETATM    6  O   UNL     1      -8.770   5.392  72.196  1.00  0.00    -0.129 OA 
HETATM    7  C   UNL     1      -8.144   5.810  70.984  1.00  0.00    -0.120 C  
HETATM    8  C   UNL     1      -8.164   4.624  69.977  1.00  0.00    -0.067 C  
HETATM    9  O   UNL     1      -9.275   2.509  71.976  1.00  0.00    -0.080 OA 
HETATM   10  H   UNL     1      -9.249   1.716  71.453  1.00  0.00     0.000 HD 
HETATM   11  N   UNL     1      -9.566   4.264  69.609  1.00  0.00    -0.192 NA 
HETATM   12  C   UNL     1      -7.439   3.413  70.608  1.00  0.00    -0.040 C  
HETATM   13  H2  UNL     1     -10.082   5.069  69.254  1.00  0.00     0.000 HD 
HETATM   14  O   UNL     1      -6.019   3.610  70.618  1.00  0.00    -0.016 OA 
HETATM   15  C   UNL     1      -7.965   3.091  72.027  1.00  0.00    -0.055 C  
HETATM   16  H1  UNL     1      -9.579   3.486  68.949  1.00  0.00     0.000 HD 
HETATM   17  H   UNL     1      -5.573   2.866  71.006  1.00  0.00     0.000 HD 
BRANCH   7  18
HETATM   18  O   UNL     1      -8.837   6.917  70.401  1.00  0.00    -0.149 OA 
BRANCH  18  19
HETATM   19  C   UNL     1      -9.786   7.544  71.283  1.00  0.00    -0.179 C  
HETATM   20  O   UNL     1      -8.446   9.621  71.164  1.00  0.00    -0.335 OA 
HETATM   21  C   UNL     1     -11.171   7.214  70.730  1.00  0.00    -0.279 C  
HETATM   22  C   UNL     1     -10.669   9.390  70.062  1.00  0.00    -0.239 C  
HETATM   23  H   UNL     1      -8.429  10.571  71.148  1.00  0.00     0.000 HD 
HETATM   24  O   UNL     1     -11.543   8.281  69.845  1.00  0.00     0.063 OA 
HETATM   25  C   UNL     1      -9.759   9.063  71.257  1.00  0.00    -0.301 C  
BRANCH  21  26
HETATM   26  C   UNL     1     -12.252   7.082  71.805  1.00  0.00    -0.351 C  
HETATM   27  H   UNL     1     -12.770   5.783  73.199  1.00  0.00     0.000 HD 
HETATM   28  O   UNL     1     -12.100   5.865  72.532  1.00  0.00    -0.241 OA 
ENDBRANCH  21  26
BRANCH  22  29
HETATM   29  O   UNL     1     -11.412  10.567  70.366  1.00  0.00    -0.300 OA 
BRANCH  29  30
HETATM   30  C   UNL     1     -11.376  11.662  69.430  1.00  0.00    -0.278 C  
HETATM   31  C   UNL     1     -12.224  12.839  69.951  1.00  0.00    -0.175 C  
HETATM   32  O   UNL     1     -11.914  13.106  71.325  1.00  0.00    -0.286 OA 
HETATM   33  C   UNL     1     -11.973  14.097  69.111  1.00  0.00    -0.349 C  
HETATM   34  C   UNL     1     -12.396  13.827  67.667  1.00  0.00    -0.060 C  
HETATM   35  N   UNL     1     -12.707  15.254  69.657  1.00  0.00    -0.613 NA 
HETATM   36  H   UNL     1     -12.436  13.831  71.646  1.00  0.00     0.000 HD 
HETATM   37  H1  UNL     1     -12.541  16.091  69.099  1.00  0.00     0.000 HD 
HETATM   38  H2  UNL     1     -12.486  15.409  70.641  1.00  0.00     0.000 HD 
HETATM   39  C   UNL     1     -11.666  12.610  67.071  1.00  0.00    -0.369 C  
HETATM   40  C   UNL     1     -11.736  11.313  67.961  1.00  0.00    -0.233 C  
HETATM   41  N   UNL     1     -12.200  12.364  65.715  1.00  0.00    -0.638 NA 
HETATM   42  H2  UNL     1     -12.143  13.188  65.116  1.00  0.00     0.000 HD 
HETATM   43  H1  UNL     1     -11.716  11.558  65.320  1.00  0.00     0.000 HD 
BRANCH  40  44
HETATM   44  O   UNL     1     -10.855  10.346  67.344  1.00  0.00    -0.273 OA 
BRANCH  44  45
HETATM   45  C   UNL     1      -9.670  10.884  66.740  1.00  0.00    -0.190 C  
HETATM   46  O   UNL     1      -8.522  10.683  67.557  1.00  0.00    -0.121 OA 
HETATM   47  C   UNL     1      -8.104   9.327  67.702  1.00  0.00    -0.104 C  
HETATM   48  C   UNL     1      -7.756   8.740  66.332  1.00  0.00    -0.099 C  
HETATM   49  H1  UNL     1     -10.444  10.103  63.470  1.00  0.00     0.000 HD 
HETATM   50  H2  UNL     1     -10.900  11.444  64.366  1.00  0.00     0.000 HD 
HETATM   51  O   UNL     1      -7.361   7.368  66.411  1.00  0.00    -0.079 OA 
HETATM   52  C   UNL     1      -8.964   8.866  65.394  1.00  0.00    -0.182 C  
HETATM   53  H   UNL     1      -7.144   7.005  65.560  1.00  0.00     0.000 HD 
HETATM   54  O   UNL     1      -8.605   8.402  64.081  1.00  0.00    -0.384 OA 
HETATM   55  N   UNL     1     -10.598  10.470  64.409  1.00  0.00    -0.088 NA 
HETATM   56  C   UNL     1      -9.435  10.326  65.314  1.00  0.00    -0.240 C  
HETATM   57  H   UNL     1      -9.353   8.480  63.500  1.00  0.00     0.000 HD 
BRANCH  47  58
HETATM   58  C   UNL     1      -6.890   9.324  68.642  1.00  0.00    -0.061 C  
HETATM   59  O   UNL     1      -5.777   9.968  68.016  1.00  0.00    -0.039 OA 
HETATM   60  H   UNL     1      -5.026   9.967  68.598  1.00  0.00     0.000 HD 
ENDBRANCH  47  58
ENDBRANCH  44  45
ENDBRANCH  40  44
ENDBRANCH  29  30
ENDBRANCH  22  29
ENDBRANCH  18  19
ENDBRANCH   7  18
ENDBRANCH   2   5
TORSDOF 9
ENDMDL
MODEL      136
REMARK 921   NORMALIZED FREE ENERGY PREDICTED BY IDOCK:   -5.32 KCAL/MOL
REMARK 922        TOTAL FREE ENERGY PREDICTED BY IDOCK:  -10.16 KCAL/MOL
REMARK 923 INTER-LIGAND FREE ENERGY PREDICTED BY IDOCK:   -8.46 KCAL/MOL
REMARK 924 INTRA-LIGAND FREE ENERGY PREDICTED BY IDOCK:   -1.70 KCAL/MOL
REMARK 927      BINDING AFFINITY PREDICTED BY RF-SCORE:    0.00 PKD
ROOT
HETATM    1  N   UNL     1     -11.675  12.556  70.085  1.00  0.00    -0.537 NA 
HETATM    2  C   UNL     1     -12.145  13.666  69.232  1.00  0.00    -0.314 C  
HETATM    3  H1  UNL     1     -12.124  12.608  71.000  1.00  0.00     0.000 HD 
HETATM    4  H2  UNL     1     -10.658  12.532  70.158  1.00  0.00     0.000 HD 
ENDROOT
BRANCH   2   5
HETATM    5  C   UNL     1     -11.470  13.587  67.853  1.00  0.00    -0.318 C  
HETATM    6  O   UNL     1     -10.053  13.479  68.080  1.00  0.00    -0.235 OA 
HETATM    7  C   UNL     1      -9.337  13.197  66.880  1.00  0.00    -0.246 C  
HETATM    8  C   UNL     1      -9.445  14.427  65.933  1.00  0.00    -0.154 C  
HETATM    9  O   UNL     1     -11.480  16.012  67.679  1.00  0.00    -0.182 OA 
HETATM   10  H   UNL     1     -11.664  16.764  67.127  1.00  0.00     0.000 HD 
HETATM   11  N   UNL     1      -8.778  15.620  66.535  1.00  0.00    -0.285 NA 
HETATM   12  C   UNL     1     -10.937  14.721  65.655  1.00  0.00    -0.344 C  
HETATM   13  H2  UNL     1      -7.810  15.423  66.789  1.00  0.00     0.000 HD 
HETATM   14  O   UNL     1     -11.494  13.756  64.752  1.00  0.00    -0.330 OA 
HETATM   15  C   UNL     1     -11.769  14.808  66.957  1.00  0.00    -0.315 C  
HETATM   16  H1  UNL     1      -8.849  16.427  65.914  1.00  0.00     0.000 HD 
HETATM   17  H   UNL     1     -12.410  13.937  64.581  1.00  0.00     0.000 HD 
BRANCH   7  18
HETATM   18  O   UNL     1      -7.955  12.948  67.150  1.00  0.00    -0.167 OA 
BRANCH  18  19
HETATM   19  C   UNL     1      -7.487  11.671  66.679  1.00  0.00    -0.037 C  
HETATM   20  O   UNL     1      -5.812  11.670  68.500  1.00  0.00    -0.049 OA 
HETATM   21  C   UNL     1      -8.730  10.810  66.463  1.00  0.00    -0.151 C  
HETATM   22  C   UNL     1      -7.798  10.166  68.501  1.00  0.00    -0.095 C  
HETATM   23  H   UNL     1      -5.315  11.173  69.140  1.00  0.00     0.000 HD 
HETATM   24  O   UNL     1      -8.965  10.086  67.681  1.00  0.00    -0.131 OA 
HETATM   25  C   UNL     1      -6.693  10.877  67.702  1.00  0.00    -0.069 C  
BRANCH  21  26
HETATM   26  C   UNL     1      -8.595   9.801  65.322  1.00  0.00    -0.153 C  
HETATM   27  H   UNL     1      -8.767   9.792  63.355  1.00  0.00     0.000 HD 
HETATM   28  O   UNL     1      -8.852  10.418  64.063  1.00  0.00    -0.187 OA 
ENDBRANCH  21  26
BRANCH  22  29
HETATM   29  O   UNL     1      -7.339   8.864  68.853  1.00  0.00    -0.072 OA 
BRANCH  29  30
HETATM   30  C   UNL     1      -7.856   8.256  70.053  1.00  0.00    -0.104 C  
HETATM   31  C   UNL     1      -6.978   8.630  71.263  1.00  0.00    -0.082 C  
HETATM   32  O   UNL     1      -6.717  10.040  71.272  1.00  0.00    -0.328 OA 
HETATM   33  C   UNL     1      -7.664   8.223  72.572  1.00  0.00    -0.118 C  
HETATM   34  C   UNL     1      -7.851   6.706  72.589  1.00  0.00    -0.101 C  
HETATM   35  N   UNL     1      -6.877   8.661  73.742  1.00  0.00    -0.314 NA 
HETATM   36  H   UNL     1      -6.176  10.270  72.018  1.00  0.00     0.000 HD 
HETATM   37  H1  UNL     1      -7.333   8.390  74.613  1.00  0.00     0.000 HD 
HETATM   38  H2  UNL     1      -6.687   9.662  73.713  1.00  0.00     0.000 HD 
HETATM   39  C   UNL     1      -8.649   6.210  71.371  1.00  0.00    -0.128 C  
HETATM   40  C   UNL     1      -8.102   6.724  69.986  1.00  0.00    -0.125 C  
HETATM   41  N   UNL     1      -8.702   4.734  71.416  1.00  0.00    -0.125 NA 
HETATM   42  H2  UNL     1      -9.074   4.382  72.298  1.00  0.00     0.000 HD 
HETATM   43  H1  UNL     1      -9.231   4.406  70.608  1.00  0.00     0.000 HD 
BRANCH  40  44
HETATM   44  O   UNL     1      -9.069   6.319  68.989  1.00  0.00    -0.129 OA 
BRANCH  44  45
HETATM   45  C   UNL     1      -8.633   6.422  67.626  1.00  0.00    -0.115 C  
HETATM   46  O   UNL     1      -7.657   5.438  67.306  1.00  0.00    -0.090 OA 
HETATM   47  C   UNL     1      -8.128   4.091  67.290  1.00  0.00    -0.095 C  
HETATM   48  C   UNL     1      -9.238   3.940  66.246  1.00  0.00    -0.163 C  
HETATM   49  H1  UNL     1     -11.672   7.309  66.253  1.00  0.00     0.000 HD 
HETATM   50  H2  UNL     1     -10.513   8.290  66.962  1.00  0.00     0.000 HD 
HETATM   51  O   UNL     1      -9.774   2.616  66.208  1.00  0.00    -0.377 OA 
HETATM   52  C   UNL     1     -10.367   4.935  66.546  1.00  0.00    -0.270 C  
HETATM   53  H   UNL     1     -10.462   2.522  65.559  1.00  0.00     0.000 HD 
HETATM   54  O   UNL     1     -11.363   4.859  65.510  1.00  0.00    -0.906 OA 
HETATM   55  N   UNL     1     -10.893   7.345  66.910  1.00  0.00    -0.293 NA 
HETATM   56  C   UNL     1      -9.817   6.368  66.627  1.00  0.00    -0.152 C  
HETATM   57  H   UNL     1     -12.062   5.475  65.696  1.00  0.00     0.000 HD 
BRANCH  47  58
HETATM   58  C   UNL     1      -6.925   3.193  66.969  1.00  0.00    -0.053 C  
HETATM   59  O   UNL     1      -5.815   3.534  67.804  1.00  0.00    -0.021 OA 
HETATM   60  H   UNL     1      -5.071   2.978  67.606  1.00  0.00     0.000 HD 
ENDBRANCH  47  58
ENDBRANCH  44  45
ENDBRANCH  40  44
ENDBRANCH  29  30
ENDBRANCH  22  29
ENDBRANCH  18  19
ENDBRANCH   7  18
ENDBRANCH   2   5
TORSDOF 9
ENDMDL
MODEL      137
REMARK 921   NORMALIZED FREE ENERGY PREDICTED BY IDOCK:   -5.29 KCAL/MOL
REMARK 922        TOTAL FREE ENERGY PREDICTED BY IDOCK:  -10.12 KCAL/MOL
REMARK 923 INTER-LIGAND FREE ENERGY PREDICTED BY IDOCK:   -8.08 KCAL/MOL
REMARK 924 INTRA-LIGAND FREE ENERGY PREDICTED BY IDOCK:   -2.05 KCAL/MOL
REMARK 927      BINDING AFFINITY PREDICTED BY RF-SCORE:    0.00 PKD
ROOT
HETATM    1  N   UNL     1      -6.687   4.934  70.953  1.00  0.00    -0.034 NA 
HETATM    2  C   UNL     1      -6.727   3.699  70.143  1.00  0.00    -0.033 C  
HETATM    3  H1  UNL     1      -6.112   4.786  71.782  1.00  0.00     0.000 HD 
HETATM    4  H2  UNL     1      -7.622   5.268  71.188  1.00  0.00     0.000 HD 
ENDROOT
BRANCH   2   5
HETATM    5  C   UNL     1      -7.593   3.923  68.892  1.00  0.00    -0.054 C  
HETATM    6  O   UNL     1      -7.633   5.341  68.652  1.00  0.00    -0.080 OA 
HETATM    7  C   UNL     1      -8.241   5.657  67.401  1.00  0.00    -0.101 C  
HETATM    8  C   UNL     1      -9.747   5.273  67.467  1.00  0.00    -0.146 C  
HETATM    9  O   UNL     1      -9.612   3.873  70.247  1.00  0.00    -0.178 OA 
HETATM   10  H   UNL     1     -10.494   3.534  70.336  1.00  0.00     0.000 HD 
HETATM   11  N   UNL     1     -10.461   6.097  68.487  1.00  0.00    -0.210 NA 
HETATM   12  C   UNL     1      -9.871   3.768  67.802  1.00  0.00     0.038 C  
HETATM   13  H2  UNL     1     -10.333   7.096  68.322  1.00  0.00     0.000 HD 
HETATM   14  O   UNL     1      -9.533   2.958  66.667  1.00  0.00    -0.363 OA 
HETATM   15  C   UNL     1      -9.028   3.372  69.037  1.00  0.00    -0.127 C  
HETATM   16  H1  UNL     1     -11.449   5.846  68.531  1.00  0.00     0.000 HD 
HETATM   17  H   UNL     1      -9.610   2.034  66.873  1.00  0.00     0.000 HD 
BRANCH   7  18
HETATM   18  O   UNL     1      -8.137   7.054  67.115  1.00  0.00    -0.115 OA 
BRANCH  18  19
HETATM   19  C   UNL     1      -8.362   7.387  65.733  1.00  0.00    -0.139 C  
HETATM   20  O   UNL     1     -10.460   8.519  66.400  1.00  0.00    -0.353 OA 
HETATM   21  C   UNL     1      -7.045   7.952  65.206  1.00  0.00    -0.060 C  
HETATM   22  C   UNL     1      -8.436   9.768  65.654  1.00  0.00    -0.139 C  
HETATM   23  H   UNL     1     -11.070   9.234  66.263  1.00  0.00     0.000 HD 
HETATM   24  O   UNL     1      -7.089   9.376  65.382  1.00  0.00    -0.087 OA 
HETATM   25  C   UNL     1      -9.338   8.530  65.514  1.00  0.00     0.032 C  
BRANCH  21  26
HETATM   26  C   UNL     1      -6.792   7.657  63.727  1.00  0.00    -0.058 C  
HETATM   27  H   UNL     1      -7.625   6.590  62.289  1.00  0.00     0.000 HD 
HETATM   28  O   UNL     1      -7.782   6.773  63.207  1.00  0.00    -0.096 OA 
ENDBRANCH  21  26
BRANCH  22  29
HETATM   29  O   UNL     1      -8.872  10.756  64.725  1.00  0.00    -0.188 OA 
BRANCH  29  30
HETATM   30  C   UNL     1      -9.796  11.764  65.178  1.00  0.00    -0.235 C  
HETATM   31  C   UNL     1     -10.558  12.368  63.982  1.00  0.00    -0.413 C  
HETATM   32  O   UNL     1     -11.051  11.326  63.129  1.00  0.00    -0.811 OA 
HETATM   33  C   UNL     1     -11.726  13.233  64.469  1.00  0.00    -0.378 C  
HETATM   34  C   UNL     1     -11.178  14.393  65.300  1.00  0.00    -0.345 C  
HETATM   35  N   UNL     1     -12.521  13.739  63.334  1.00  0.00    -1.072 NA 
HETATM   36  H   UNL     1     -11.521  11.697  62.393  1.00  0.00     0.000 HD 
HETATM   37  H1  UNL     1     -13.297  14.315  63.657  1.00  0.00     0.000 HD 
HETATM   38  H2  UNL     1     -12.840  12.981  62.731  1.00  0.00     0.000 HD 
HETATM   39  C   UNL     1     -10.323  13.902  66.482  1.00  0.00    -0.286 C  
HETATM   40  C   UNL     1      -9.198  12.874  66.085  1.00  0.00    -0.014 C  
HETATM   41  N   UNL     1      -9.758  15.081  67.171  1.00  0.00    -0.223 NA 
HETATM   42  H2  UNL     1     -10.475  15.749  67.456  1.00  0.00     0.000 HD 
HETATM   43  H1  UNL     1      -9.192  14.756  67.955  1.00  0.00     0.000 HD 
BRANCH  40  44
HETATM   44  O   UNL     1      -8.631  12.390  67.325  1.00  0.00    -0.170 OA 
BRANCH  44  45
HETATM   45  C   UNL     1      -7.206  12.224  67.331  1.00  0.00    -0.147 C  
HETATM   46  O   UNL     1      -6.526  13.473  67.274  1.00  0.00    -0.276 OA 
HETATM   47  C   UNL     1      -6.662  14.296  68.432  1.00  0.00    -0.104 C  
HETATM   48  C   UNL     1      -6.104  13.567  69.657  1.00  0.00    -0.121 C  
HETATM   49  H1  UNL     1      -7.082   9.531  69.484  1.00  0.00     0.000 HD 
HETATM   50  H2  UNL     1      -7.326   9.540  67.826  1.00  0.00     0.000 HD 
HETATM   51  O   UNL     1      -6.243  14.331  70.856  1.00  0.00    -0.318 OA 
HETATM   52  C   UNL     1      -6.822  12.221  69.828  1.00  0.00     0.218 C  
HETATM   53  H   UNL     1      -5.896  13.879  71.616  1.00  0.00     0.000 HD 
HETATM   54  O   UNL     1      -6.231  11.496  70.921  1.00  0.00    -0.497 OA 
HETATM   55  N   UNL     1      -7.402  10.081  68.688  1.00  0.00    -0.079 NA 
HETATM   56  C   UNL     1      -6.719  11.387  68.541  1.00  0.00    -0.069 C  
HETATM   57  H   UNL     1      -6.675  10.663  71.027  1.00  0.00     0.000 HD 
BRANCH  47  58
HETATM   58  C   UNL     1      -5.899  15.598  68.154  1.00  0.00    -0.129 C  
HETATM   59  O   UNL     1      -6.778  16.578  67.595  1.00  0.00    -0.118 OA 
HETATM   60  H   UNL     1      -6.306  17.384  67.423  1.00  0.00     0.000 HD 
ENDBRANCH  47  58
ENDBRANCH  44  45
ENDBRANCH  40  44
ENDBRANCH  29  30
ENDBRANCH  22  29
ENDBRANCH  18  19
ENDBRANCH   7  18
ENDBRANCH   2   5
TORSDOF 9
ENDMDL
MODEL      138
REMARK 921   NORMALIZED FREE ENERGY PREDICTED BY IDOCK:   -5.27 KCAL/MOL
REMARK 922        TOTAL FREE ENERGY PREDICTED BY IDOCK:  -10.08 KCAL/MOL
REMARK 923 INTER-LIGAND FREE ENERGY PREDICTED BY IDOCK:   -7.52 KCAL/MOL
REMARK 924 INTRA-LIGAND FREE ENERGY PREDICTED BY IDOCK:   -2.57 KCAL/MOL
REMARK 927      BINDING AFFINITY PREDICTED BY RF-SCORE:    0.00 PKD
ROOT
HETATM    1  N   UNL     1     -10.359  17.536  68.455  1.00  0.00    -0.369 NA 
HETATM    2  C   UNL     1      -9.632  16.438  67.786  1.00  0.00    -0.231 C  
HETATM    3  H1  UNL     1     -10.045  18.434  68.087  1.00  0.00     0.000 HD 
HETATM    4  H2  UNL     1     -10.276  17.488  69.471  1.00  0.00     0.000 HD 
ENDROOT
BRANCH   2   5
HETATM    5  C   UNL     1     -10.105  15.084  68.340  1.00  0.00    -0.225 C  
HETATM    6  O   UNL     1      -9.864  14.100  67.318  1.00  0.00    -0.231 OA 
HETATM    7  C   UNL     1     -10.077  12.772  67.791  1.00  0.00    -0.224 C  
HETATM    8  C   UNL     1     -11.591  12.588  68.099  1.00  0.00    -0.340 C  
HETATM    9  O   UNL     1     -12.385  15.566  67.645  1.00  0.00    -0.043 OA 
HETATM   10  H   UNL     1     -13.303  15.561  67.891  1.00  0.00     0.000 HD 
HETATM   11  N   UNL     1     -12.405  12.714  66.854  1.00  0.00    -0.340 NA 
HETATM   12  C   UNL     1     -12.026  13.645  69.141  1.00  0.00    -0.351 C  
HETATM   13  H2  UNL     1     -12.087  12.070  66.129  1.00  0.00     0.000 HD 
HETATM   14  O   UNL     1     -11.539  13.311  70.448  1.00  0.00    -0.527 OA 
HETATM   15  C   UNL     1     -11.597  15.076  68.738  1.00  0.00    -0.335 C  
HETATM   16  H1  UNL     1     -13.398  12.594  67.056  1.00  0.00     0.000 HD 
HETATM   17  H   UNL     1     -11.807  13.960  71.089  1.00  0.00     0.000 HD 
BRANCH   7  18
HETATM   18  O   UNL     1      -9.690  11.806  66.809  1.00  0.00    -0.192 OA 
BRANCH  18  19
HETATM   19  C   UNL     1      -8.929  10.706  67.339  1.00  0.00    -0.136 C  
HETATM   20  O   UNL     1     -11.048   9.473  67.682  1.00  0.00    -0.481 OA 
HETATM   21  C   UNL     1      -7.780  10.466  66.362  1.00  0.00    -0.125 C  
HETATM   22  C   UNL     1      -9.405   8.856  65.913  1.00  0.00    -0.236 C  
HETATM   23  H   UNL     1     -11.508   8.641  67.680  1.00  0.00     0.000 HD 
HETATM   24  O   UNL     1      -8.223   9.485  65.413  1.00  0.00    -0.119 OA 
HETATM   25  C   UNL     1      -9.664   9.376  67.336  1.00  0.00    -0.159 C  
BRANCH  21  26
HETATM   26  C   UNL     1      -6.501   9.953  67.024  1.00  0.00    -0.069 C  
HETATM   27  H   UNL     1      -4.769   9.191  66.457  1.00  0.00     0.000 HD 
HETATM   28  O   UNL     1      -5.564   9.509  66.045  1.00  0.00    -0.046 OA 
ENDBRANCH  21  26
BRANCH  22  29
HETATM   29  O   UNL     1      -9.241   7.442  65.968  1.00  0.00    -0.140 OA 
BRANCH  29  30
HETATM   30  C   UNL     1      -7.946   6.915  66.318  1.00  0.00    -0.108 C  
HETATM   31  C   UNL     1      -7.333   6.164  65.119  1.00  0.00    -0.073 C  
HETATM   32  O   UNL     1      -7.447   6.952  63.927  1.00  0.00    -0.080 OA 
HETATM   33  C   UNL     1      -5.858   5.840  65.385  1.00  0.00    -0.024 C  
HETATM   34  C   UNL     1      -5.758   4.924  66.604  1.00  0.00    -0.018 C  
HETATM   35  N   UNL     1      -5.234   5.206  64.208  1.00  0.00    -0.009 NA 
HETATM   36  H   UNL     1      -7.069   6.490  63.189  1.00  0.00     0.000 HD 
HETATM   37  H1  UNL     1      -4.253   4.991  64.384  1.00  0.00     0.000 HD 
HETATM   38  H2  UNL     1      -5.349   5.775  63.369  1.00  0.00     0.000 HD 
HETATM   39  C   UNL     1      -6.420   5.544  67.847  1.00  0.00    -0.047 C  
HETATM   40  C   UNL     1      -7.890   6.056  67.611  1.00  0.00    -0.101 C  
HETATM   41  N   UNL     1      -6.362   4.559  68.947  1.00  0.00    -0.031 NA 
HETATM   42  H2  UNL     1      -5.414   4.230  69.130  1.00  0.00     0.000 HD 
HETATM   43  H1  UNL     1      -6.801   4.970  69.771  1.00  0.00     0.000 HD 
BRANCH  40  44
HETATM   44  O   UNL     1      -8.275   6.763  68.813  1.00  0.00    -0.118 OA 
BRANCH  44  45
HETATM   45  C   UNL     1      -8.832   5.952  69.857  1.00  0.00    -0.129 C  
HETATM   46  O   UNL     1      -8.049   6.006  71.044  1.00  0.00    -0.117 OA 
HETATM   47  C   UNL     1      -8.042   7.265  71.716  1.00  0.00    -0.100 C  
HETATM   48  C   UNL     1      -9.467   7.640  72.132  1.00  0.00    -0.155 C  
HETATM   49  H1  UNL     1     -12.157   6.550  69.158  1.00  0.00     0.000 HD 
HETATM   50  H2  UNL     1     -11.129   5.414  68.479  1.00  0.00     0.000 HD 
HETATM   51  O   UNL     1      -9.527   8.911  72.783  1.00  0.00    -0.192 OA 
HETATM   52  C   UNL     1     -10.377   7.659  70.897  1.00  0.00    -0.201 C  
HETATM   53  H   UNL     1     -10.411   9.143  73.042  1.00  0.00     0.000 HD 
HETATM   54  O   UNL     1     -11.733   7.918  71.303  1.00  0.00    -0.278 OA 
HETATM   55  N   UNL     1     -11.186   6.311  68.962  1.00  0.00    -0.387 NA 
HETATM   56  C   UNL     1     -10.309   6.315  70.155  1.00  0.00    -0.205 C  
HETATM   57  H   UNL     1     -12.297   7.929  70.539  1.00  0.00     0.000 HD 
BRANCH  47  58
HETATM   58  C   UNL     1      -7.117   7.124  72.933  1.00  0.00    -0.072 C  
HETATM   59  O   UNL     1      -6.985   8.380  73.604  1.00  0.00    -0.151 OA 
HETATM   60  H   UNL     1      -6.413   8.293  74.357  1.00  0.00     0.000 HD 
ENDBRANCH  47  58
ENDBRANCH  44  45
ENDBRANCH  40  44
ENDBRANCH  29  30
ENDBRANCH  22  29
ENDBRANCH  18  19
ENDBRANCH   7  18
ENDBRANCH   2   5
TORSDOF 9
ENDMDL
MODEL      139
REMARK 921   NORMALIZED FREE ENERGY PREDICTED BY IDOCK:   -5.24 KCAL/MOL
REMARK 922        TOTAL FREE ENERGY PREDICTED BY IDOCK:  -10.05 KCAL/MOL
REMARK 923 INTER-LIGAND FREE ENERGY PREDICTED BY IDOCK:   -8.64 KCAL/MOL
REMARK 924 INTRA-LIGAND FREE ENERGY PREDICTED BY IDOCK:   -1.41 KCAL/MOL
REMARK 927      BINDING AFFINITY PREDICTED BY RF-SCORE:    0.00 PKD
ROOT
HETATM    1  N   UNL     1     -12.080  13.155  67.024  1.00  0.00    -0.352 NA 
HETATM    2  C   UNL     1     -12.416  13.141  65.586  1.00  0.00    -0.425 C  
HETATM    3  H1  UNL     1     -12.607  13.890  67.496  1.00  0.00     0.000 HD 
HETATM    4  H2  UNL     1     -11.076  13.241  67.182  1.00  0.00     0.000 HD 
ENDROOT
BRANCH   2   5
HETATM    5  C   UNL     1     -11.622  12.033  64.874  1.00  0.00    -0.273 C  
HETATM    6  O   UNL     1     -10.948  11.273  65.894  1.00  0.00    -0.247 OA 
HETATM    7  C   UNL     1     -10.341  10.094  65.371  1.00  0.00    -0.106 C  
HETATM    8  C   UNL     1      -9.179  10.510  64.423  1.00  0.00    -0.245 C  
HETATM    9  O   UNL     1      -9.775  13.566  64.488  1.00  0.00    -0.602 OA 
HETATM   10  H   UNL     1      -9.144  13.900  63.861  1.00  0.00     0.000 HD 
HETATM   11  N   UNL     1      -8.105  11.221  65.178  1.00  0.00    -0.255 NA 
HETATM   12  C   UNL     1      -9.742  11.411  63.300  1.00  0.00    -0.394 C  
HETATM   13  H2  UNL     1      -7.769  10.669  65.967  1.00  0.00     0.000 HD 
HETATM   14  O   UNL     1     -10.483  10.641  62.343  1.00  0.00    -0.633 OA 
HETATM   15  C   UNL     1     -10.597  12.575  63.856  1.00  0.00    -0.440 C  
HETATM   16  H1  UNL     1      -7.344  11.494  64.556  1.00  0.00     0.000 HD 
HETATM   17  H   UNL     1     -10.828  11.195  61.653  1.00  0.00     0.000 HD 
BRANCH   7  18
HETATM   18  O   UNL     1      -9.806   9.281  66.419  1.00  0.00    -0.233 OA 
BRANCH  18  19
HETATM   19  C   UNL     1      -8.589   8.599  66.067  1.00  0.00    -0.155 C  
HETATM   20  O   UNL     1      -7.763   8.993  68.367  1.00  0.00    -0.096 OA 
HETATM   21  C   UNL     1      -9.006   7.310  65.362  1.00  0.00     0.205 C  
HETATM   22  C   UNL     1      -8.446   6.740  67.552  1.00  0.00    -0.121 C  
HETATM   23  H   UNL     1      -7.260   8.678  69.109  1.00  0.00     0.000 HD 
HETATM   24  O   UNL     1      -9.093   6.284  66.362  1.00  0.00    -0.146 OA 
HETATM   25  C   UNL     1      -7.785   8.095  67.255  1.00  0.00    -0.098 C  
BRANCH  21  26
HETATM   26  C   UNL     1      -8.024   6.848  64.284  1.00  0.00    -0.086 C  
HETATM   27  H   UNL     1      -7.144   5.167  63.736  1.00  0.00     0.000 HD 
HETATM   28  O   UNL     1      -7.753   5.453  64.406  1.00  0.00    -0.084 OA 
ENDBRANCH  21  26
BRANCH  22  29
HETATM   29  O   UNL     1      -7.438   5.821  67.962  1.00  0.00    -0.075 OA 
BRANCH  29  30
HETATM   30  C   UNL     1      -7.817   4.716  68.804  1.00  0.00    -0.075 C  
HETATM   31  C   UNL     1      -8.764   3.765  68.046  1.00  0.00    -0.104 C  
HETATM   32  O   UNL     1      -8.241   3.480  66.740  1.00  0.00    -0.094 OA 
HETATM   33  C   UNL     1      -8.951   2.458  68.824  1.00  0.00    -0.122 C  
HETATM   34  C   UNL     1      -9.594   2.768  70.175  1.00  0.00    -0.117 C  
HETATM   35  N   UNL     1      -9.780   1.502  68.063  1.00  0.00    -0.385 NA 
HETATM   36  H   UNL     1      -8.824   2.894  66.273  1.00  0.00     0.000 HD 
HETATM   37  H1  UNL     1      -9.905   0.633  68.580  1.00  0.00     0.000 HD 
HETATM   38  H2  UNL     1      -9.399   1.334  67.132  1.00  0.00     0.000 HD 
HETATM   39  C   UNL     1      -8.769   3.780  70.988  1.00  0.00    -0.078 C  
HETATM   40  C   UNL     1      -8.390   5.089  70.199  1.00  0.00    -0.085 C  
HETATM   41  N   UNL     1      -9.505   4.094  72.230  1.00  0.00    -0.127 NA 
HETATM   42  H2  UNL     1      -9.741   3.259  72.767  1.00  0.00     0.000 HD 
HETATM   43  H1  UNL     1      -8.958   4.765  72.769  1.00  0.00     0.000 HD 
BRANCH  40  44
HETATM   44  O   UNL     1      -7.474   5.825  71.042  1.00  0.00    -0.085 OA 
BRANCH  44  45
HETATM   45  C   UNL     1      -7.662   7.247  71.068  1.00  0.00    -0.089 C  
HETATM   46  O   UNL     1      -8.876   7.633  70.433  1.00  0.00    -0.142 OA 
HETATM   47  C   UNL     1     -10.071   7.234  71.103  1.00  0.00    -0.186 C  
HETATM   48  C   UNL     1     -10.113   7.852  72.503  1.00  0.00    -0.261 C  
HETATM   49  H1  UNL     1      -6.316   7.816  74.194  1.00  0.00     0.000 HD 
HETATM   50  H2  UNL     1      -5.531   7.694  72.718  1.00  0.00     0.000 HD 
HETATM   51  O   UNL     1     -11.275   7.461  73.237  1.00  0.00    -0.568 OA 
HETATM   52  C   UNL     1      -8.858   7.443  73.286  1.00  0.00    -0.157 C  
HETATM   53  H   UNL     1     -11.301   7.845  74.105  1.00  0.00     0.000 HD 
HETATM   54  O   UNL     1      -8.853   8.102  74.565  1.00  0.00    -0.353 OA 
HETATM   55  N   UNL     1      -6.365   7.439  73.248  1.00  0.00    -0.063 NA 
HETATM   56  C   UNL     1      -7.588   7.821  72.506  1.00  0.00    -0.098 C  
HETATM   57  H   UNL     1      -8.076   7.848  75.049  1.00  0.00     0.000 HD 
BRANCH  47  58
HETATM   58  C   UNL     1     -11.251   7.705  70.242  1.00  0.00    -0.216 C  
HETATM   59  O   UNL     1     -10.817   8.691  69.302  1.00  0.00    -0.369 OA 
HETATM   60  H   UNL     1     -11.548   8.982  68.769  1.00  0.00     0.000 HD 
ENDBRANCH  47  58
ENDBRANCH  44  45
ENDBRANCH  40  44
ENDBRANCH  29  30
ENDBRANCH  22  29
ENDBRANCH  18  19
ENDBRANCH   7  18
ENDBRANCH   2   5
TORSDOF 9
ENDMDL
MODEL      140
REMARK 921   NORMALIZED FREE ENERGY PREDICTED BY IDOCK:   -5.23 KCAL/MOL
REMARK 922        TOTAL FREE ENERGY PREDICTED BY IDOCK:  -10.02 KCAL/MOL
REMARK 923 INTER-LIGAND FREE ENERGY PREDICTED BY IDOCK:   -7.87 KCAL/MOL
REMARK 924 INTRA-LIGAND FREE ENERGY PREDICTED BY IDOCK:   -2.15 KCAL/MOL
REMARK 927      BINDING AFFINITY PREDICTED BY RF-SCORE:    0.00 PKD
ROOT
HETATM    1  N   UNL     1     -14.113  14.382  71.565  1.00  0.00    -0.392 NA 
HETATM    2  C   UNL     1     -12.723  14.655  71.147  1.00  0.00    -0.339 C  
HETATM    3  H1  UNL     1     -14.347  14.948  72.380  1.00  0.00     0.000 HD 
HETATM    4  H2  UNL     1     -14.276  13.389  71.728  1.00  0.00     0.000 HD 
ENDROOT
BRANCH   2   5
HETATM    5  C   UNL     1     -12.369  13.803  69.917  1.00  0.00    -0.275 C  
HETATM    6  O   UNL     1     -11.702  12.621  70.398  1.00  0.00    -0.216 OA 
HETATM    7  C   UNL     1     -11.505  11.658  69.365  1.00  0.00    -0.307 C  
HETATM    8  C   UNL     1     -10.492  12.234  68.333  1.00  0.00    -0.233 C  
HETATM    9  O   UNL     1     -10.330  15.083  69.581  1.00  0.00    -0.302 OA 
HETATM   10  H   UNL     1      -9.776  15.537  68.957  1.00  0.00     0.000 HD 
HETATM   11  N   UNL     1      -9.153  12.438  68.962  1.00  0.00    -0.258 NA 
HETATM   12  C   UNL     1     -11.040  13.568  67.777  1.00  0.00    -0.268 C  
HETATM   13  H2  UNL     1      -8.805  11.583  69.395  1.00  0.00     0.000 HD 
HETATM   14  O   UNL     1     -12.117  13.340  66.857  1.00  0.00    -0.380 OA 
HETATM   15  C   UNL     1     -11.470  14.540  68.902  1.00  0.00    -0.300 C  
HETATM   16  H1  UNL     1      -8.489  12.816  68.285  1.00  0.00     0.000 HD 
HETATM   17  H   UNL     1     -12.454  14.160  66.515  1.00  0.00     0.000 HD 
BRANCH   7  18
HETATM   18  O   UNL     1     -10.978  10.438  69.891  1.00  0.00    -0.266 OA 
BRANCH  18  19
HETATM   19  C   UNL     1     -10.188   9.688  68.950  1.00  0.00    -0.201 C  
HETATM   20  O   UNL     1      -8.187  10.170  70.325  1.00  0.00    -0.346 OA 
HETATM   21  C   UNL     1     -10.939   8.382  68.701  1.00  0.00     0.203 C  
HETATM   22  C   UNL     1      -9.222   7.906  70.204  1.00  0.00    -0.153 C  
HETATM   23  H   UNL     1      -7.349   9.875  70.663  1.00  0.00     0.000 HD 
HETATM   24  O   UNL     1     -10.437   7.415  69.636  1.00  0.00    -0.221 OA 
HETATM   25  C   UNL     1      -8.849   9.216  69.491  1.00  0.00    -0.149 C  
BRANCH  21  26
HETATM   26  C   UNL     1     -10.759   7.824  67.288  1.00  0.00    -0.255 C  
HETATM   27  H   UNL     1     -11.171   6.155  66.316  1.00  0.00     0.000 HD 
HETATM   28  O   UNL     1     -11.283   6.501  67.193  1.00  0.00    -0.388 OA 
ENDBRANCH  21  26
BRANCH  22  29
HETATM   29  O   UNL     1      -8.164   6.970  70.020  1.00  0.00    -0.128 OA 
BRANCH  29  30
HETATM   30  C   UNL     1      -8.323   5.941  69.025  1.00  0.00    -0.106 C  
HETATM   31  C   UNL     1      -8.139   4.549  69.661  1.00  0.00    -0.060 C  
HETATM   32  O   UNL     1      -8.901   4.450  70.872  1.00  0.00    -0.099 OA 
HETATM   33  C   UNL     1      -8.575   3.449  68.686  1.00  0.00    -0.091 C  
HETATM   34  C   UNL     1      -7.692   3.507  67.439  1.00  0.00    -0.078 C  
HETATM   35  N   UNL     1      -8.492   2.118  69.317  1.00  0.00    -0.049 NA 
HETATM   36  H   UNL     1      -8.788   3.593  71.264  1.00  0.00     0.000 HD 
HETATM   37  H1  UNL     1      -8.782   1.386  68.669  1.00  0.00     0.000 HD 
HETATM   38  H2  UNL     1      -9.024   2.081  70.186  1.00  0.00     0.000 HD 
HETATM   39  C   UNL     1      -7.735   4.890  66.767  1.00  0.00    -0.092 C  
HETATM   40  C   UNL     1      -7.460   6.095  67.744  1.00  0.00    -0.089 C  
HETATM   41  N   UNL     1      -6.787   4.889  65.633  1.00  0.00    -0.060 NA 
HETATM   42  H2  UNL     1      -6.963   4.128  64.976  1.00  0.00     0.000 HD 
HETATM   43  H1  UNL     1      -6.816   5.805  65.187  1.00  0.00     0.000 HD 
BRANCH  40  44
HETATM   44  O   UNL     1      -7.722   7.302  66.990  1.00  0.00    -0.106 OA 
BRANCH  44  45
HETATM   45  C   UNL     1      -6.587   7.876  66.327  1.00  0.00    -0.050 C  
HETATM   46  O   UNL     1      -6.740   7.870  64.912  1.00  0.00    -0.050 OA 
HETATM   47  C   UNL     1      -7.758   8.730  64.403  1.00  0.00    -0.123 C  
HETATM   48  C   UNL     1      -7.454  10.180  64.788  1.00  0.00    -0.136 C  
HETATM   49  H1  UNL     1      -5.919  10.342  68.647  1.00  0.00     0.000 HD 
HETATM   50  H2  UNL     1      -5.426   8.740  68.644  1.00  0.00     0.000 HD 
HETATM   51  O   UNL     1      -8.460  11.087  64.331  1.00  0.00    -0.373 OA 
HETATM   52  C   UNL     1      -7.324  10.293  66.313  1.00  0.00    -0.118 C  
HETATM   53  H   UNL     1      -8.271  11.987  64.570  1.00  0.00     0.000 HD 
HETATM   54  O   UNL     1      -6.944  11.635  66.665  1.00  0.00    -0.288 OA 
HETATM   55  N   UNL     1      -6.126   9.402  68.309  1.00  0.00    -0.048 NA 
HETATM   56  C   UNL     1      -6.272   9.304  66.839  1.00  0.00    -0.065 C  
HETATM   57  H   UNL     1      -6.863  11.705  67.608  1.00  0.00     0.000 HD 
BRANCH  47  58
HETATM   58  C   UNL     1      -7.788   8.544  62.879  1.00  0.00    -0.146 C  
HETATM   59  O   UNL     1      -9.055   8.952  62.355  1.00  0.00    -0.470 OA 
HETATM   60  H   UNL     1      -9.073   8.838  61.412  1.00  0.00     0.000 HD 
ENDBRANCH  47  58
ENDBRANCH  44  45
ENDBRANCH  40  44
ENDBRANCH  29  30
ENDBRANCH  22  29
ENDBRANCH  18  19
ENDBRANCH   7  18
ENDBRANCH   2   5
TORSDOF 9
ENDMDL
MODEL      141
REMARK 921   NORMALIZED FREE ENERGY PREDICTED BY IDOCK:   -5.22 KCAL/MOL
REMARK 922        TOTAL FREE ENERGY PREDICTED BY IDOCK:  -10.01 KCAL/MOL
REMARK 923 INTER-LIGAND FREE ENERGY PREDICTED BY IDOCK:   -9.18 KCAL/MOL
REMARK 924 INTRA-LIGAND FREE ENERGY PREDICTED BY IDOCK:   -0.83 KCAL/MOL
REMARK 927      BINDING AFFINITY PREDICTED BY RF-SCORE:    0.00 PKD
ROOT
HETATM    1  N   UNL     1      -6.689   7.569  72.533  1.00  0.00    -0.059 NA 
HETATM    2  C   UNL     1      -7.841   7.416  73.444  1.00  0.00    -0.101 C  
HETATM    3  H1  UNL     1      -6.001   8.199  72.947  1.00  0.00     0.000 HD 
HETATM    4  H2  UNL     1      -6.975   7.872  71.602  1.00  0.00     0.000 HD 
ENDROOT
BRANCH   2   5
HETATM    5  C   UNL     1      -8.878   6.467  72.821  1.00  0.00    -0.124 C  
HETATM    6  O   UNL     1      -9.443   7.144  71.683  1.00  0.00    -0.153 OA 
HETATM    7  C   UNL     1     -10.272   6.284  70.905  1.00  0.00    -0.193 C  
HETATM    8  C   UNL     1     -11.528   5.908  71.744  1.00  0.00    -0.198 C  
HETATM    9  O   UNL     1     -10.567   7.235  74.393  1.00  0.00    -0.464 OA 
HETATM   10  H   UNL     1     -11.256   6.984  74.996  1.00  0.00     0.000 HD 
HETATM   11  N   UNL     1     -12.353   7.117  72.035  1.00  0.00    -0.440 NA 
HETATM   12  C   UNL     1     -11.073   5.231  73.057  1.00  0.00    -0.317 C  
HETATM   13  H2  UNL     1     -12.605   7.617  71.182  1.00  0.00     0.000 HD 
HETATM   14  O   UNL     1     -10.616   3.893  72.817  1.00  0.00    -0.171 OA 
HETATM   15  C   UNL     1      -9.999   6.059  73.801  1.00  0.00    -0.209 C  
HETATM   16  H1  UNL     1     -13.176   6.871  72.585  1.00  0.00     0.000 HD 
HETATM   17  H   UNL     1     -10.337   3.477  73.624  1.00  0.00     0.000 HD 
BRANCH   7  18
HETATM   18  O   UNL     1     -10.702   6.930  69.704  1.00  0.00    -0.224 OA 
BRANCH  18  19
HETATM   19  C   UNL     1      -9.800   6.765  68.595  1.00  0.00    -0.142 C  
HETATM   20  O   UNL     1     -11.761   6.546  67.100  1.00  0.00    -0.632 OA 
HETATM   21  C   UNL     1      -8.757   7.873  68.719  1.00  0.00    -0.128 C  
HETATM   22  C   UNL     1     -10.289   8.557  67.101  1.00  0.00    -0.307 C  
HETATM   23  H   UNL     1     -12.150   6.712  66.249  1.00  0.00     0.000 HD 
HETATM   24  O   UNL     1      -9.227   8.991  67.952  1.00  0.00    -0.140 OA 
HETATM   25  C   UNL     1     -10.423   7.031  67.234  1.00  0.00    -0.293 C  
BRANCH  21  26
HETATM   26  C   UNL     1      -7.372   7.481  68.199  1.00  0.00    -0.096 C  
HETATM   27  H   UNL     1      -5.668   6.819  68.946  1.00  0.00     0.000 HD 
HETATM   28  O   UNL     1      -6.527   7.063  69.268  1.00  0.00    -0.040 OA 
ENDBRANCH  21  26
BRANCH  22  29
HETATM   29  O   UNL     1     -10.008   8.872  65.741  1.00  0.00    -0.188 OA 
BRANCH  29  30
HETATM   30  C   UNL     1      -8.714   9.416  65.416  1.00  0.00    -0.166 C  
HETATM   31  C   UNL     1      -7.665   8.289  65.336  1.00  0.00    -0.103 C  
HETATM   32  O   UNL     1      -8.163   7.199  64.548  1.00  0.00    -0.268 OA 
HETATM   33  C   UNL     1      -6.359   8.812  64.726  1.00  0.00    -0.066 C  
HETATM   34  C   UNL     1      -5.790   9.909  65.626  1.00  0.00    -0.067 C  
HETATM   35  N   UNL     1      -5.379   7.722  64.557  1.00  0.00    -0.029 NA 
HETATM   36  H   UNL     1      -7.517   6.506  64.499  1.00  0.00     0.000 HD 
HETATM   37  H1  UNL     1      -4.510   8.069  64.152  1.00  0.00     0.000 HD 
HETATM   38  H2  UNL     1      -5.765   6.950  64.013  1.00  0.00     0.000 HD 
HETATM   39  C   UNL     1      -6.795  11.054  65.843  1.00  0.00     0.036 C  
HETATM   40  C   UNL     1      -8.222  10.583  66.314  1.00  0.00    -0.147 C  
HETATM   41  N   UNL     1      -6.205  12.019  66.794  1.00  0.00    -0.412 NA 
HETATM   42  H2  UNL     1      -5.288  12.353  66.496  1.00  0.00     0.000 HD 
HETATM   43  H1  UNL     1      -6.871  12.778  66.938  1.00  0.00     0.000 HD 
BRANCH  40  44
HETATM   44  O   UNL     1      -9.070  11.755  66.286  1.00  0.00    -0.214 OA 
BRANCH  44  45
HETATM   45  C   UNL     1      -9.473  12.258  67.568  1.00  0.00    -0.182 C  
HETATM   46  O   UNL     1      -8.658  13.345  67.991  1.00  0.00    -0.156 OA 
HETATM   47  C   UNL     1      -8.789  14.542  67.226  1.00  0.00    -0.208 C  
HETATM   48  C   UNL     1     -10.233  15.047  67.295  1.00  0.00    -0.242 C  
HETATM   49  H1  UNL     1     -12.874  11.840  67.158  1.00  0.00     0.000 HD 
HETATM   50  H2  UNL     1     -11.733  10.726  67.674  1.00  0.00     0.000 HD 
HETATM   51  O   UNL     1     -10.434  16.230  66.519  1.00  0.00    -0.301 OA 
HETATM   52  C   UNL     1     -11.187  13.950  66.802  1.00  0.00    -0.318 C  
HETATM   53  H   UNL     1     -11.330  16.543  66.561  1.00  0.00     0.000 HD 
HETATM   54  O   UNL     1     -12.547  14.391  66.957  1.00  0.00    -0.538 OA 
HETATM   55  N   UNL     1     -11.888  11.581  67.140  1.00  0.00    -0.572 NA 
HETATM   56  C   UNL     1     -10.972  12.652  67.596  1.00  0.00    -0.241 C  
HETATM   57  H   UNL     1     -13.138  13.712  66.652  1.00  0.00     0.000 HD 
BRANCH  47  58
HETATM   58  C   UNL     1      -7.806  15.565  67.813  1.00  0.00    -0.143 C  
HETATM   59  O   UNL     1      -8.484  16.447  68.711  1.00  0.00    -0.225 OA 
HETATM   60  H   UNL     1      -7.876  17.080  69.074  1.00  0.00     0.000 HD 
ENDBRANCH  47  58
ENDBRANCH  44  45
ENDBRANCH  40  44
ENDBRANCH  29  30
ENDBRANCH  22  29
ENDBRANCH  18  19
ENDBRANCH   7  18
ENDBRANCH   2   5
TORSDOF 9
ENDMDL
MODEL      142
REMARK 921   NORMALIZED FREE ENERGY PREDICTED BY IDOCK:   -5.19 KCAL/MOL
REMARK 922        TOTAL FREE ENERGY PREDICTED BY IDOCK:   -9.96 KCAL/MOL
REMARK 923 INTER-LIGAND FREE ENERGY PREDICTED BY IDOCK:   -9.00 KCAL/MOL
REMARK 924 INTRA-LIGAND FREE ENERGY PREDICTED BY IDOCK:   -0.95 KCAL/MOL
REMARK 927      BINDING AFFINITY PREDICTED BY RF-SCORE:    0.00 PKD
ROOT
HETATM    1  N   UNL     1      -8.592  18.352  65.858  1.00  0.00    -0.473 NA 
HETATM    2  C   UNL     1      -7.203  17.851  65.878  1.00  0.00    -0.242 C  
HETATM    3  H1  UNL     1      -8.677  19.112  65.184  1.00  0.00     0.000 HD 
HETATM    4  H2  UNL     1      -8.914  18.625  66.787  1.00  0.00     0.000 HD 
ENDROOT
BRANCH   2   5
HETATM    5  C   UNL     1      -7.075  16.704  66.895  1.00  0.00    -0.229 C  
HETATM    6  O   UNL     1      -8.341  16.019  66.922  1.00  0.00    -0.195 OA 
HETATM    7  C   UNL     1      -8.281  14.813  67.680  1.00  0.00    -0.175 C  
HETATM    8  C   UNL     1      -8.049  15.174  69.176  1.00  0.00    -0.214 C  
HETATM    9  O   UNL     1      -7.609  18.224  68.717  1.00  0.00    -0.298 OA 
HETATM   10  H   UNL     1      -7.381  18.520  69.590  1.00  0.00     0.000 HD 
HETATM   11  N   UNL     1      -9.207  15.943  69.722  1.00  0.00    -0.083 NA 
HETATM   12  C   UNL     1      -6.744  15.995  69.301  1.00  0.00    -0.185 C  
HETATM   13  H2  UNL     1     -10.087  15.446  69.586  1.00  0.00     0.000 HD 
HETATM   14  O   UNL     1      -5.591  15.157  69.142  1.00  0.00    -0.097 OA 
HETATM   15  C   UNL     1      -6.705  17.186  68.314  1.00  0.00    -0.167 C  
HETATM   16  H1  UNL     1      -9.054  16.180  70.703  1.00  0.00     0.000 HD 
HETATM   17  H   UNL     1      -4.790  15.661  69.218  1.00  0.00     0.000 HD 
BRANCH   7  18
HETATM   18  O   UNL     1      -9.502  14.076  67.572  1.00  0.00    -0.210 OA 
BRANCH  18  19
HETATM   19  C   UNL     1      -9.364  12.813  66.896  1.00  0.00    -0.234 C  
HETATM   20  O   UNL     1      -8.504  11.838  69.003  1.00  0.00    -0.367 OA 
HETATM   21  C   UNL     1     -10.676  12.579  66.149  1.00  0.00    -0.261 C  
HETATM   22  C   UNL     1     -10.759  11.294  68.092  1.00  0.00    -0.204 C  
HETATM   23  H   UNL     1      -8.451  11.086  69.582  1.00  0.00     0.000 HD 
HETATM   24  O   UNL     1     -11.536  11.829  67.019  1.00  0.00    -0.480 OA 
HETATM   25  C   UNL     1      -9.279  11.611  67.823  1.00  0.00    -0.178 C  
BRANCH  21  26
HETATM   26  C   UNL     1     -10.514  11.799  64.843  1.00  0.00    -0.287 C  
HETATM   27  H   UNL     1     -10.472  12.189  62.907  1.00  0.00     0.000 HD 
HETATM   28  O   UNL     1     -10.572  12.673  63.718  1.00  0.00    -0.417 OA 
ENDBRANCH  21  26
BRANCH  22  29
HETATM   29  O   UNL     1     -10.915   9.880  68.172  1.00  0.00    -0.251 OA 
BRANCH  29  30
HETATM   30  C   UNL     1     -11.653   9.332  69.282  1.00  0.00     0.493 C  
HETATM   31  C   UNL     1     -11.959  10.433  70.316  1.00  0.00    -0.302 C  
HETATM   32  O   UNL     1     -12.477  11.600  69.663  1.00  0.00    -0.136 OA 
HETATM   33  C   UNL     1     -12.969   9.931  71.354  1.00  0.00    -0.407 C  
HETATM   34  C   UNL     1     -12.366   8.745  72.106  1.00  0.00    -0.458 C  
HETATM   35  N   UNL     1     -13.342  11.005  72.294  1.00  0.00    -0.562 NA 
HETATM   36  H   UNL     1     -12.666  12.278  70.300  1.00  0.00     0.000 HD 
HETATM   37  H1  UNL     1     -14.014  10.671  72.985  1.00  0.00     0.000 HD 
HETATM   38  H2  UNL     1     -13.686  11.830  71.804  1.00  0.00     0.000 HD 
HETATM   39  C   UNL     1     -11.944   7.613  71.154  1.00  0.00    -0.297 C  
HETATM   40  C   UNL     1     -11.033   8.079  69.957  1.00  0.00    -0.202 C  
HETATM   41  N   UNL     1     -11.289   6.553  71.949  1.00  0.00    -0.270 NA 
HETATM   42  H2  UNL     1     -11.872   6.222  72.717  1.00  0.00     0.000 HD 
HETATM   43  H1  UNL     1     -11.009   5.803  71.318  1.00  0.00     0.000 HD 
BRANCH  40  44
HETATM   44  O   UNL     1     -10.893   6.937  69.080  1.00  0.00    -0.227 OA 
BRANCH  44  45
HETATM   45  C   UNL     1      -9.561   6.671  68.617  1.00  0.00    -0.130 C  
HETATM   46  O   UNL     1      -8.731   6.162  69.655  1.00  0.00    -0.132 OA 
HETATM   47  C   UNL     1      -9.071   4.858  70.125  1.00  0.00    -0.110 C  
HETATM   48  C   UNL     1      -8.978   3.850  68.977  1.00  0.00    -0.119 C  
HETATM   49  H1  UNL     1     -10.403   5.552  65.463  1.00  0.00     0.000 HD 
HETATM   50  H2  UNL     1     -10.174   7.125  65.994  1.00  0.00     0.000 HD 
HETATM   51  O   UNL     1      -9.339   2.528  69.382  1.00  0.00    -0.124 OA 
HETATM   52  C   UNL     1      -9.889   4.294  67.825  1.00  0.00    -0.074 C  
HETATM   53  H   UNL     1      -9.281   1.902  68.670  1.00  0.00     0.000 HD 
HETATM   54  O   UNL     1      -9.727   3.398  66.711  1.00  0.00    -0.391 OA 
HETATM   55  N   UNL     1     -10.412   6.173  66.272  1.00  0.00     0.003 NA 
HETATM   56  C   UNL     1      -9.547   5.727  67.388  1.00  0.00    -0.115 C  
HETATM   57  H   UNL     1     -10.291   3.673  65.998  1.00  0.00     0.000 HD 
BRANCH  47  58
HETATM   58  C   UNL     1      -8.092   4.516  71.258  1.00  0.00    -0.087 C  
HETATM   59  O   UNL     1      -8.789   4.421  72.503  1.00  0.00    -0.111 OA 
HETATM   60  H   UNL     1      -8.184   4.209  73.204  1.00  0.00     0.000 HD 
ENDBRANCH  47  58
ENDBRANCH  44  45
ENDBRANCH  40  44
ENDBRANCH  29  30
ENDBRANCH  22  29
ENDBRANCH  18  19
ENDBRANCH   7  18
ENDBRANCH   2   5
TORSDOF 9
ENDMDL
MODEL      143
REMARK 921   NORMALIZED FREE ENERGY PREDICTED BY IDOCK:   -5.12 KCAL/MOL
REMARK 922        TOTAL FREE ENERGY PREDICTED BY IDOCK:   -9.86 KCAL/MOL
REMARK 923 INTER-LIGAND FREE ENERGY PREDICTED BY IDOCK:   -7.26 KCAL/MOL
REMARK 924 INTRA-LIGAND FREE ENERGY PREDICTED BY IDOCK:   -2.60 KCAL/MOL
REMARK 927      BINDING AFFINITY PREDICTED BY RF-SCORE:    0.00 PKD
ROOT
HETATM    1  N   UNL     1      -7.460   4.966  71.251  1.00  0.00    -0.075 NA 
HETATM    2  C   UNL     1      -6.771   3.911  70.481  1.00  0.00    -0.033 C  
HETATM    3  H1  UNL     1      -7.106   4.985  72.207  1.00  0.00     0.000 HD 
HETATM    4  H2  UNL     1      -8.475   4.863  71.219  1.00  0.00     0.000 HD 
ENDROOT
BRANCH   2   5
HETATM    5  C   UNL     1      -7.304   3.883  69.039  1.00  0.00    -0.054 C  
HETATM    6  O   UNL     1      -7.611   5.242  68.674  1.00  0.00    -0.080 OA 
HETATM    7  C   UNL     1      -7.925   5.367  67.289  1.00  0.00    -0.101 C  
HETATM    8  C   UNL     1      -9.262   4.622  67.011  1.00  0.00    -0.128 C  
HETATM    9  O   UNL     1      -9.538   3.364  69.846  1.00  0.00    -0.183 OA 
HETATM   10  H   UNL     1     -10.309   2.818  69.742  1.00  0.00     0.000 HD 
HETATM   11  N   UNL     1     -10.392   5.266  67.745  1.00  0.00    -0.162 NA 
HETATM   12  C   UNL     1      -9.113   3.142  67.432  1.00  0.00    -0.176 C  
HETATM   13  H2  UNL     1     -10.462   6.261  67.531  1.00  0.00     0.000 HD 
HETATM   14  O   UNL     1      -8.309   2.416  66.493  1.00  0.00    -0.084 OA 
HETATM   15  C   UNL     1      -8.556   2.996  68.869  1.00  0.00    -0.074 C  
HETATM   16  H1  UNL     1     -11.268   4.777  67.562  1.00  0.00     0.000 HD 
HETATM   17  H   UNL     1      -8.218   1.507  66.752  1.00  0.00     0.000 HD 
BRANCH   7  18
HETATM   18  O   UNL     1      -8.080   6.740  66.918  1.00  0.00    -0.107 OA 
BRANCH  18  19
HETATM   19  C   UNL     1      -8.556   6.932  65.574  1.00  0.00    -0.077 C  
HETATM   20  O   UNL     1     -10.615   7.945  66.502  1.00  0.00    -0.451 OA 
HETATM   21  C   UNL     1      -7.401   7.553  64.792  1.00  0.00    -0.080 C  
HETATM   22  C   UNL     1      -8.866   9.283  65.336  1.00  0.00    -0.192 C  
HETATM   23  H   UNL     1     -11.303   8.594  66.418  1.00  0.00     0.000 HD 
HETATM   24  O   UNL     1      -7.550   8.979  64.869  1.00  0.00    -0.102 OA 
HETATM   25  C   UNL     1      -9.658   7.970  65.440  1.00  0.00     0.749 C  
BRANCH  21  26
HETATM   26  C   UNL     1      -7.364   7.152  63.316  1.00  0.00    -0.081 C  
HETATM   27  H   UNL     1      -7.274   8.055  61.562  1.00  0.00     0.000 HD 
HETATM   28  O   UNL     1      -7.297   8.303  62.478  1.00  0.00    -0.094 OA 
ENDBRANCH  21  26
BRANCH  22  29
HETATM   29  O   UNL     1      -9.537  10.148  64.425  1.00  0.00    -0.287 OA 
BRANCH  29  30
HETATM   30  C   UNL     1     -10.035  11.408  64.916  1.00  0.00    -0.265 C  
HETATM   31  C   UNL     1     -10.795  12.153  63.801  1.00  0.00    -0.432 C  
HETATM   32  O   UNL     1     -11.712  11.267  63.145  1.00  0.00    -0.840 OA 
HETATM   33  C   UNL     1     -11.559  13.351  64.378  1.00  0.00    -0.384 C  
HETATM   34  C   UNL     1     -10.561  14.333  64.991  1.00  0.00    -0.444 C  
HETATM   35  N   UNL     1     -12.366  14.016  63.337  1.00  0.00    -1.154 NA 
HETATM   36  H   UNL     1     -12.180  11.726  62.458  1.00  0.00     0.000 HD 
HETATM   37  H1  UNL     1     -12.874  14.813  63.720  1.00  0.00     0.000 HD 
HETATM   38  H2  UNL     1     -12.992  13.361  62.871  1.00  0.00     0.000 HD 
HETATM   39  C   UNL     1      -9.684  13.667  66.066  1.00  0.00    -0.222 C  
HETATM   40  C   UNL     1      -8.991  12.331  65.602  1.00  0.00     0.315 C  
HETATM   41  N   UNL     1      -8.691  14.654  66.537  1.00  0.00    -0.455 NA 
HETATM   42  H2  UNL     1      -9.122  15.519  66.863  1.00  0.00     0.000 HD 
HETATM   43  H1  UNL     1      -8.110  14.213  67.250  1.00  0.00     0.000 HD 
BRANCH  40  44
HETATM   44  O   UNL     1      -8.373  11.760  66.778  1.00  0.00    -0.173 OA 
BRANCH  44  45
HETATM   45  C   UNL     1      -8.882  12.229  68.035  1.00  0.00    -0.182 C  
HETATM   46  O   UNL     1      -9.929  11.400  68.526  1.00  0.00    -0.190 OA 
HETATM   47  C   UNL     1      -9.535  10.086  68.919  1.00  0.00    -0.172 C  
HETATM   48  C   UNL     1      -8.499  10.167  70.043  1.00  0.00    -0.004 C  
HETATM   49  H1  UNL     1      -5.883  13.322  69.347  1.00  0.00     0.000 HD 
HETATM   50  H2  UNL     1      -6.942  14.131  68.331  1.00  0.00     0.000 HD 
HETATM   51  O   UNL     1      -8.041   8.878  70.456  1.00  0.00    -0.103 OA 
HETATM   52  C   UNL     1      -7.300  11.006  69.580  1.00  0.00    -0.061 C  
HETATM   53  H   UNL     1      -7.399   8.929  71.154  1.00  0.00     0.000 HD 
HETATM   54  O   UNL     1      -6.372  11.161  70.668  1.00  0.00    -0.412 OA 
HETATM   55  N   UNL     1      -6.619  13.217  68.650  1.00  0.00    -0.085 NA 
HETATM   56  C   UNL     1      -7.763  12.389  69.096  1.00  0.00     0.290 C  
HETATM   57  H   UNL     1      -5.630  11.680  70.382  1.00  0.00     0.000 HD 
BRANCH  47  58
HETATM   58  C   UNL     1     -10.803   9.349  69.372  1.00  0.00    -0.189 C  
HETATM   59  O   UNL     1     -10.612   7.934  69.288  1.00  0.00    -0.221 OA 
HETATM   60  H   UNL     1     -11.396   7.479  69.569  1.00  0.00     0.000 HD 
ENDBRANCH  47  58
ENDBRANCH  44  45
ENDBRANCH  40  44
ENDBRANCH  29  30
ENDBRANCH  22  29
ENDBRANCH  18  19
ENDBRANCH   7  18
ENDBRANCH   2   5
TORSDOF 9
ENDMDL
MODEL      144
REMARK 921   NORMALIZED FREE ENERGY PREDICTED BY IDOCK:   -5.08 KCAL/MOL
REMARK 922        TOTAL FREE ENERGY PREDICTED BY IDOCK:   -9.80 KCAL/MOL
REMARK 923 INTER-LIGAND FREE ENERGY PREDICTED BY IDOCK:   -9.49 KCAL/MOL
REMARK 924 INTRA-LIGAND FREE ENERGY PREDICTED BY IDOCK:   -0.31 KCAL/MOL
REMARK 927      BINDING AFFINITY PREDICTED BY RF-SCORE:    0.00 PKD
ROOT
HETATM    1  N   UNL     1     -13.812   7.773  70.908  1.00  0.00    -0.522 NA 
HETATM    2  C   UNL     1     -12.774   8.450  71.712  1.00  0.00    -0.342 C  
HETATM    3  H1  UNL     1     -14.699   7.780  71.411  1.00  0.00     0.000 HD 
HETATM    4  H2  UNL     1     -13.532   6.829  70.638  1.00  0.00     0.000 HD 
ENDROOT
BRANCH   2   5
HETATM    5  C   UNL     1     -11.436   8.438  70.954  1.00  0.00    -0.267 C  
HETATM    6  O   UNL     1     -11.165   7.071  70.593  1.00  0.00    -0.262 OA 
HETATM    7  C   UNL     1     -10.050   6.961  69.710  1.00  0.00    -0.184 C  
HETATM    8  C   UNL     1      -8.763   7.379  70.478  1.00  0.00    -0.147 C  
HETATM    9  O   UNL     1     -10.215   8.356  73.055  1.00  0.00    -0.210 OA 
HETATM   10  H   UNL     1      -9.493   8.707  73.563  1.00  0.00     0.000 HD 
HETATM   11  N   UNL     1      -8.487   6.439  71.604  1.00  0.00    -0.128 NA 
HETATM   12  C   UNL     1      -8.935   8.823  71.005  1.00  0.00    -0.217 C  
HETATM   13  H2  UNL     1      -8.438   5.471  71.285  1.00  0.00     0.000 HD 
HETATM   14  O   UNL     1      -8.823   9.777  69.940  1.00  0.00    -0.201 OA 
HETATM   15  C   UNL     1     -10.262   9.008  71.779  1.00  0.00    -0.319 C  
HETATM   16  H1  UNL     1      -7.643   6.714  72.108  1.00  0.00     0.000 HD 
HETATM   17  H   UNL     1      -8.930  10.664  70.264  1.00  0.00     0.000 HD 
BRANCH   7  18
HETATM   18  O   UNL     1      -9.890   5.617  69.248  1.00  0.00    -0.151 OA 
BRANCH  18  19
HETATM   19  C   UNL     1      -9.843   5.493  67.815  1.00  0.00    -0.138 C  
HETATM   20  O   UNL     1     -11.763   7.049  67.670  1.00  0.00    -0.230 OA 
HETATM   21  C   UNL     1      -8.380   5.670  67.415  1.00  0.00    -0.100 C  
HETATM   22  C   UNL     1      -9.453   7.697  66.997  1.00  0.00    -0.163 C  
HETATM   23  H   UNL     1     -12.200   7.750  67.201  1.00  0.00     0.000 HD 
HETATM   24  O   UNL     1      -8.179   7.063  67.133  1.00  0.00    -0.115 OA 
HETATM   25  C   UNL     1     -10.542   6.614  67.065  1.00  0.00    -0.333 C  
BRANCH  21  26
HETATM   26  C   UNL     1      -7.974   4.866  66.179  1.00  0.00    -0.107 C  
HETATM   27  H   UNL     1      -6.634   3.494  65.707  1.00  0.00     0.000 HD 
HETATM   28  O   UNL     1      -6.886   3.993  66.474  1.00  0.00    -0.055 OA 
ENDBRANCH  21  26
BRANCH  22  29
HETATM   29  O   UNL     1      -9.553   8.365  65.742  1.00  0.00    -0.115 OA 
BRANCH  29  30
HETATM   30  C   UNL     1      -8.542   9.332  65.397  1.00  0.00    -0.157 C  
HETATM   31  C   UNL     1      -7.291   8.623  64.843  1.00  0.00    -0.090 C  
HETATM   32  O   UNL     1      -7.665   7.648  63.859  1.00  0.00    -0.114 OA 
HETATM   33  C   UNL     1      -6.327   9.640  64.220  1.00  0.00    -0.105 C  
HETATM   34  C   UNL     1      -5.864  10.618  65.300  1.00  0.00    -0.107 C  
HETATM   35  N   UNL     1      -5.170   8.966  63.601  1.00  0.00    -0.061 NA 
HETATM   36  H   UNL     1      -6.894   7.212  63.518  1.00  0.00     0.000 HD 
HETATM   37  H1  UNL     1      -4.529   9.642  63.188  1.00  0.00     0.000 HD 
HETATM   38  H2  UNL     1      -5.463   8.263  62.924  1.00  0.00     0.000 HD 
HETATM   39  C   UNL     1      -7.047  11.324  65.984  1.00  0.00     0.143 C  
HETATM   40  C   UNL     1      -8.169  10.351  66.508  1.00  0.00    -0.131 C  
HETATM   41  N   UNL     1      -6.519  12.174  67.072  1.00  0.00    -0.296 NA 
HETATM   42  H2  UNL     1      -5.806  12.827  66.748  1.00  0.00     0.000 HD 
HETATM   43  H1  UNL     1      -7.303  12.642  67.525  1.00  0.00     0.000 HD 
BRANCH  40  44
HETATM   44  O   UNL     1      -9.266  11.187  66.943  1.00  0.00    -0.164 OA 
BRANCH  44  45
HETATM   45  C   UNL     1      -9.247  12.537  66.457  1.00  0.00    -0.210 C  
HETATM   46  O   UNL     1      -9.661  12.616  65.098  1.00  0.00    -0.144 OA 
HETATM   47  C   UNL     1     -11.034  12.309  64.858  1.00  0.00    -0.302 C  
HETATM   48  C   UNL     1     -11.927  13.284  65.629  1.00  0.00    -0.412 C  
HETATM   49  H1  UNL     1     -10.289  14.071  69.367  1.00  0.00     0.000 HD 
HETATM   50  H2  UNL     1      -8.740  13.619  68.914  1.00  0.00     0.000 HD 
HETATM   51  O   UNL     1     -13.318  13.005  65.453  1.00  0.00    -0.420 OA 
HETATM   52  C   UNL     1     -11.585  13.226  67.124  1.00  0.00    -0.357 C  
HETATM   53  H   UNL     1     -13.872  13.610  65.931  1.00  0.00     0.000 HD 
HETATM   54  O   UNL     1     -12.358  14.211  67.833  1.00  0.00    -0.553 OA 
HETATM   55  N   UNL     1      -9.736  13.444  68.783  1.00  0.00    -0.068 NA 
HETATM   56  C   UNL     1     -10.087  13.490  67.345  1.00  0.00    -0.237 C  
HETATM   57  H   UNL     1     -12.145  14.175  68.759  1.00  0.00     0.000 HD 
BRANCH  47  58
HETATM   58  C   UNL     1     -11.263  12.411  63.344  1.00  0.00    -0.422 C  
HETATM   59  O   UNL     1     -12.414  11.652  62.963  1.00  0.00    -0.972 OA 
HETATM   60  H   UNL     1     -12.555  11.715  62.027  1.00  0.00     0.000 HD 
ENDBRANCH  47  58
ENDBRANCH  44  45
ENDBRANCH  40  44
ENDBRANCH  29  30
ENDBRANCH  22  29
ENDBRANCH  18  19
ENDBRANCH   7  18
ENDBRANCH   2   5
TORSDOF 9
ENDMDL
MODEL      145
REMARK 921   NORMALIZED FREE ENERGY PREDICTED BY IDOCK:   -5.08 KCAL/MOL
REMARK 922        TOTAL FREE ENERGY PREDICTED BY IDOCK:   -9.80 KCAL/MOL
REMARK 923 INTER-LIGAND FREE ENERGY PREDICTED BY IDOCK:   -9.67 KCAL/MOL
REMARK 924 INTRA-LIGAND FREE ENERGY PREDICTED BY IDOCK:   -0.13 KCAL/MOL
REMARK 927      BINDING AFFINITY PREDICTED BY RF-SCORE:    0.00 PKD
ROOT
HETATM    1  N   UNL     1      -8.792   8.191  70.898  1.00  0.00    -0.137 NA 
HETATM    2  C   UNL     1      -9.840   7.249  71.342  1.00  0.00    -0.186 C  
HETATM    3  H1  UNL     1      -7.872   7.826  71.145  1.00  0.00     0.000 HD 
HETATM    4  H2  UNL     1      -8.942   9.131  71.264  1.00  0.00     0.000 HD 
ENDROOT
BRANCH   2   5
HETATM    5  C   UNL     1     -11.227   7.798  70.970  1.00  0.00    -0.266 C  
HETATM    6  O   UNL     1     -11.087   9.220  70.795  1.00  0.00    -0.244 OA 
HETATM    7  C   UNL     1     -12.265   9.812  70.251  1.00  0.00     0.017 C  
HETATM    8  C   UNL     1     -13.409   9.703  71.301  1.00  0.00    -0.330 C  
HETATM    9  O   UNL     1     -11.836   7.927  73.321  1.00  0.00    -0.639 OA 
HETATM   10  H   UNL     1     -12.500   7.745  73.976  1.00  0.00     0.000 HD 
HETATM   11  N   UNL     1     -13.082  10.492  72.526  1.00  0.00    -0.329 NA 
HETATM   12  C   UNL     1     -13.627   8.214  71.657  1.00  0.00    -0.343 C  
HETATM   13  H2  UNL     1     -12.868  11.464  72.302  1.00  0.00     0.000 HD 
HETATM   14  O   UNL     1     -14.298   7.523  70.594  1.00  0.00    -0.332 OA 
HETATM   15  C   UNL     1     -12.306   7.502  72.034  1.00  0.00    -0.271 C  
HETATM   16  H1  UNL     1     -13.832  10.420  73.214  1.00  0.00     0.000 HD 
HETATM   17  H   UNL     1     -14.432   6.608  70.813  1.00  0.00     0.000 HD 
BRANCH   7  18
HETATM   18  O   UNL     1     -12.055  11.194  69.947  1.00  0.00    -0.304 OA 
BRANCH  18  19
HETATM   19  C   UNL     1     -11.983  11.479  68.538  1.00  0.00    -0.224 C  
HETATM   20  O   UNL     1     -12.144  13.891  69.070  1.00  0.00    -0.349 OA 
HETATM   21  C   UNL     1     -10.822  10.651  67.990  1.00  0.00    -0.261 C  
HETATM   22  C   UNL     1     -10.040  12.830  68.259  1.00  0.00    -0.237 C  
HETATM   23  H   UNL     1     -11.888  14.782  68.862  1.00  0.00     0.000 HD 
HETATM   24  O   UNL     1      -9.647  11.473  68.045  1.00  0.00    -0.169 OA 
HETATM   25  C   UNL     1     -11.574  12.904  68.206  1.00  0.00    -0.335 C  
BRANCH  21  26
HETATM   26  C   UNL     1     -11.019  10.189  66.545  1.00  0.00     0.133 C  
HETATM   27  H   UNL     1      -9.892   9.574  65.045  1.00  0.00     0.000 HD 
HETATM   28  O   UNL     1      -9.770   9.861  65.941  1.00  0.00    -0.222 OA 
ENDBRANCH  21  26
BRANCH  22  29
HETATM   29  O   UNL     1      -9.508  13.675  67.243  1.00  0.00    -0.215 OA 
BRANCH  29  30
HETATM   30  C   UNL     1      -8.084  13.893  67.206  1.00  0.00    -0.145 C  
HETATM   31  C   UNL     1      -7.337  12.626  67.669  1.00  0.00    -0.139 C  
HETATM   32  O   UNL     1      -7.867  11.468  67.009  1.00  0.00    -0.148 OA 
HETATM   33  C   UNL     1      -5.838  12.748  67.374  1.00  0.00    -0.092 C  
HETATM   34  C   UNL     1      -5.268  13.931  68.156  1.00  0.00    -0.113 C  
HETATM   35  N   UNL     1      -5.126  11.504  67.725  1.00  0.00    -0.046 NA 
HETATM   36  H   UNL     1      -7.407  10.688  67.293  1.00  0.00     0.000 HD 
HETATM   37  H1  UNL     1      -4.129  11.584  67.529  1.00  0.00     0.000 HD 
HETATM   38  H2  UNL     1      -5.535  10.693  67.261  1.00  0.00     0.000 HD 
HETATM   39  C   UNL     1      -6.003  15.243  67.833  1.00  0.00    -0.150 C  
HETATM   40  C   UNL     1      -7.571  15.155  67.952  1.00  0.00    -0.139 C  
HETATM   41  N   UNL     1      -5.456  16.311  68.697  1.00  0.00    -0.100 NA 
HETATM   42  H2  UNL     1      -4.442  16.398  68.617  1.00  0.00     0.000 HD 
HETATM   43  H1  UNL     1      -5.943  17.180  68.482  1.00  0.00     0.000 HD 
BRANCH  40  44
HETATM   44  O   UNL     1      -8.091  16.403  67.438  1.00  0.00    -0.143 OA 
BRANCH  44  45
HETATM   45  C   UNL     1      -8.901  17.158  68.351  1.00  0.00    -0.255 C  
HETATM   46  O   UNL     1      -8.141  18.140  69.046  1.00  0.00    -0.198 OA 
HETATM   47  C   UNL     1      -7.647  19.212  68.244  1.00  0.00    -0.304 C  
HETATM   48  C   UNL     1      -8.815  19.961  67.599  1.00  0.00    -0.334 C  
HETATM   49  H1  UNL     1     -11.757  17.273  66.418  1.00  0.00     0.000 HD 
HETATM   50  H2  UNL     1     -11.248  16.072  67.470  1.00  0.00     0.000 HD 
HETATM   51  O   UNL     1      -8.379  21.029  66.755  1.00  0.00    -0.519 OA 
HETATM   52  C   UNL     1      -9.667  18.982  66.778  1.00  0.00    -0.330 C  
HETATM   53  H   UNL     1      -9.104  21.494  66.355  1.00  0.00     0.000 HD 
HETATM   54  O   UNL     1     -10.816  19.668  66.252  1.00  0.00    -0.430 OA 
HETATM   55  N   UNL     1     -10.952  16.849  66.879  1.00  0.00    -0.002 NA 
HETATM   56  C   UNL     1     -10.124  17.803  67.651  1.00  0.00    -0.342 C  
HETATM   57  H   UNL     1     -11.343  19.063  65.744  1.00  0.00     0.000 HD 
BRANCH  47  58
HETATM   58  C   UNL     1      -6.829  20.128  69.165  1.00  0.00    -0.199 C  
HETATM   59  O   UNL     1      -5.832  20.826  68.414  1.00  0.00    -0.290 OA 
HETATM   60  H   UNL     1      -5.326  21.392  68.983  1.00  0.00     0.000 HD 
ENDBRANCH  47  58
ENDBRANCH  44  45
ENDBRANCH  40  44
ENDBRANCH  29  30
ENDBRANCH  22  29
ENDBRANCH  18  19
ENDBRANCH   7  18
ENDBRANCH   2   5
TORSDOF 9
ENDMDL
MODEL      146
REMARK 921   NORMALIZED FREE ENERGY PREDICTED BY IDOCK:   -5.07 KCAL/MOL
REMARK 922        TOTAL FREE ENERGY PREDICTED BY IDOCK:   -9.79 KCAL/MOL
REMARK 923 INTER-LIGAND FREE ENERGY PREDICTED BY IDOCK:   -9.91 KCAL/MOL
REMARK 924 INTRA-LIGAND FREE ENERGY PREDICTED BY IDOCK:    0.12 KCAL/MOL
REMARK 927      BINDING AFFINITY PREDICTED BY RF-SCORE:    0.00 PKD
ROOT
HETATM    1  N   UNL     1      -6.567  18.960  65.029  1.00  0.00    -0.502 NA 
HETATM    2  C   UNL     1      -6.821  19.274  66.450  1.00  0.00    -0.205 C  
HETATM    3  H1  UNL     1      -5.683  19.377  64.735  1.00  0.00     0.000 HD 
HETATM    4  H2  UNL     1      -7.342  19.242  64.430  1.00  0.00     0.000 HD 
ENDROOT
BRANCH   2   5
HETATM    5  C   UNL     1      -8.153  18.645  66.893  1.00  0.00    -0.248 C  
HETATM    6  O   UNL     1      -8.373  17.490  66.063  1.00  0.00    -0.495 OA 
HETATM    7  C   UNL     1      -9.477  16.708  66.514  1.00  0.00    -0.266 C  
HETATM    8  C   UNL     1     -10.784  17.531  66.318  1.00  0.00    -0.087 C  
HETATM    9  O   UNL     1      -9.384  20.179  65.464  1.00  0.00    -0.443 OA 
HETATM   10  H   UNL     1     -10.122  20.774  65.394  1.00  0.00     0.000 HD 
HETATM   11  N   UNL     1     -11.034  17.794  64.870  1.00  0.00    -0.691 NA 
HETATM   12  C   UNL     1     -10.666  18.860  67.100  1.00  0.00    -0.432 C  
HETATM   13  H2  UNL     1     -11.047  16.930  64.327  1.00  0.00     0.000 HD 
HETATM   14  O   UNL     1     -10.804  18.643  68.511  1.00  0.00    -0.245 OA 
HETATM   15  C   UNL     1      -9.351  19.611  66.780  1.00  0.00    -0.364 C  
HETATM   16  H1  UNL     1     -11.890  18.333  64.742  1.00  0.00     0.000 HD 
HETATM   17  H   UNL     1     -10.731  19.460  68.990  1.00  0.00     0.000 HD 
BRANCH   7  18
HETATM   18  O   UNL     1      -9.587  15.492  65.769  1.00  0.00    -0.337 OA 
BRANCH  18  19
HETATM   19  C   UNL     1     -10.603  14.598  66.256  1.00  0.00    -0.306 C  
HETATM   20  O   UNL     1      -9.539  12.771  64.968  1.00  0.00    -0.483 OA 
HETATM   21  C   UNL     1     -10.700  14.834  67.761  1.00  0.00    -0.268 C  
HETATM   22  C   UNL     1      -9.437  12.899  67.454  1.00  0.00    -0.198 C  
HETATM   23  H   UNL     1      -9.312  11.850  64.910  1.00  0.00     0.000 HD 
HETATM   24  O   UNL     1      -9.812  13.904  68.399  1.00  0.00    -0.222 OA 
HETATM   25  C   UNL     1     -10.240  13.125  66.163  1.00  0.00    -0.290 C  
BRANCH  21  26
HETATM   26  C   UNL     1     -12.104  14.627  68.332  1.00  0.00    -0.188 C  
HETATM   27  H   UNL     1     -13.121  15.171  69.935  1.00  0.00     0.000 HD 
HETATM   28  O   UNL     1     -12.250  15.299  69.581  1.00  0.00    -0.316 OA 
ENDBRANCH  21  26
BRANCH  22  29
HETATM   29  O   UNL     1      -9.735  11.599  67.954  1.00  0.00    -0.170 OA 
BRANCH  29  30
HETATM   30  C   UNL     1      -8.690  10.863  68.618  1.00  0.00    -0.154 C  
HETATM   31  C   UNL     1      -7.389  11.689  68.648  1.00  0.00    -0.111 C  
HETATM   32  O   UNL     1      -7.660  13.029  69.083  1.00  0.00    -0.321 OA 
HETATM   33  C   UNL     1      -6.361  11.041  69.582  1.00  0.00    -0.106 C  
HETATM   34  C   UNL     1      -6.012   9.649  69.055  1.00  0.00    -0.038 C  
HETATM   35  N   UNL     1      -5.147  11.872  69.693  1.00  0.00    -0.065 NA 
HETATM   36  H   UNL     1      -6.859  13.537  69.101  1.00  0.00     0.000 HD 
HETATM   37  H1  UNL     1      -4.462  11.442  70.314  1.00  0.00     0.000 HD 
HETATM   38  H2  UNL     1      -5.369  12.825  69.982  1.00  0.00     0.000 HD 
HETATM   39  C   UNL     1      -7.258   8.761  68.905  1.00  0.00    -0.074 C  
HETATM   40  C   UNL     1      -8.433   9.424  68.092  1.00  0.00    -0.120 C  
HETATM   41  N   UNL     1      -6.846   7.475  68.304  1.00  0.00    -0.061 NA 
HETATM   42  H2  UNL     1      -6.100   7.018  68.829  1.00  0.00     0.000 HD 
HETATM   43  H1  UNL     1      -7.673   6.886  68.205  1.00  0.00     0.000 HD 
BRANCH  40  44
HETATM   44  O   UNL     1      -9.568   8.534  68.212  1.00  0.00    -0.141 OA 
BRANCH  44  45
HETATM   45  C   UNL     1     -10.303   8.302  67.003  1.00  0.00    -0.323 C  
HETATM   46  O   UNL     1      -9.692   8.932  65.882  1.00  0.00    -0.255 OA 
HETATM   47  C   UNL     1      -8.432   8.391  65.488  1.00  0.00    -0.168 C  
HETATM   48  C   UNL     1      -8.595   6.918  65.106  1.00  0.00     0.059 C  
HETATM   49  H1  UNL     1     -11.272   5.062  67.688  1.00  0.00     0.000 HD 
HETATM   50  H2  UNL     1     -12.002   6.497  68.153  1.00  0.00     0.000 HD 
HETATM   51  O   UNL     1      -7.356   6.312  64.732  1.00  0.00    -0.067 OA 
HETATM   52  C   UNL     1      -9.203   6.144  66.284  1.00  0.00    -0.147 C  
HETATM   53  H   UNL     1      -7.457   5.398  64.495  1.00  0.00     0.000 HD 
HETATM   54  O   UNL     1      -9.443   4.781  65.891  1.00  0.00    -0.148 OA 
HETATM   55  N   UNL     1     -11.128   6.056  67.865  1.00  0.00    -0.242 NA 
HETATM   56  C   UNL     1     -10.522   6.792  66.732  1.00  0.00    -0.228 C  
HETATM   57  H   UNL     1      -9.819   4.302  66.620  1.00  0.00     0.000 HD 
BRANCH  47  58
HETATM   58  C   UNL     1      -7.931   9.229  64.303  1.00  0.00    -0.135 C  
HETATM   59  O   UNL     1      -7.509  10.520  64.752  1.00  0.00    -0.307 OA 
HETATM   60  H   UNL     1      -7.198  11.038  64.019  1.00  0.00     0.000 HD 
ENDBRANCH  47  58
ENDBRANCH  44  45
ENDBRANCH  40  44
ENDBRANCH  29  30
ENDBRANCH  22  29
ENDBRANCH  18  19
ENDBRANCH   7  18
ENDBRANCH   2   5
TORSDOF 9
ENDMDL
MODEL      147
REMARK 921   NORMALIZED FREE ENERGY PREDICTED BY IDOCK:   -5.06 KCAL/MOL
REMARK 922        TOTAL FREE ENERGY PREDICTED BY IDOCK:   -9.76 KCAL/MOL
REMARK 923 INTER-LIGAND FREE ENERGY PREDICTED BY IDOCK:   -8.84 KCAL/MOL
REMARK 924 INTRA-LIGAND FREE ENERGY PREDICTED BY IDOCK:   -0.92 KCAL/MOL
REMARK 927      BINDING AFFINITY PREDICTED BY RF-SCORE:    0.00 PKD
ROOT
HETATM    1  N   UNL     1     -12.541   7.035  72.320  1.00  0.00    -0.528 NA 
HETATM    2  C   UNL     1     -11.165   6.682  72.723  1.00  0.00    -0.227 C  
HETATM    3  H1  UNL     1     -13.185   6.854  73.091  1.00  0.00     0.000 HD 
HETATM    4  H2  UNL     1     -12.824   6.558  71.464  1.00  0.00     0.000 HD 
ENDROOT
BRANCH   2   5
HETATM    5  C   UNL     1     -10.195   6.956  71.561  1.00  0.00    -0.196 C  
HETATM    6  O   UNL     1     -10.101   5.743  70.792  1.00  0.00    -0.184 OA 
HETATM    7  C   UNL     1      -9.386   5.934  69.573  1.00  0.00    -0.134 C  
HETATM    8  C   UNL     1      -7.899   6.248  69.911  1.00  0.00    -0.110 C  
HETATM    9  O   UNL     1      -8.295   6.455  72.993  1.00  0.00    -0.116 OA 
HETATM   10  H   UNL     1      -7.431   6.724  73.282  1.00  0.00     0.000 HD 
HETATM   11  N   UNL     1      -7.251   5.084  70.586  1.00  0.00    -0.055 NA 
HETATM   12  C   UNL     1      -7.840   7.502  70.813  1.00  0.00    -0.098 C  
HETATM   13  H2  UNL     1      -7.341   4.230  70.035  1.00  0.00     0.000 HD 
HETATM   14  O   UNL     1      -8.104   8.693  70.059  1.00  0.00    -0.103 OA 
HETATM   15  C   UNL     1      -8.790   7.394  72.029  1.00  0.00    -0.124 C  
HETATM   16  H1  UNL     1      -6.277   5.290  70.807  1.00  0.00     0.000 HD 
HETATM   17  H   UNL     1      -8.067   9.463  70.614  1.00  0.00     0.000 HD 
BRANCH   7  18
HETATM   18  O   UNL     1      -9.431   4.759  68.759  1.00  0.00    -0.128 OA 
BRANCH  18  19
HETATM   19  C   UNL     1      -9.847   5.004  67.403  1.00  0.00    -0.176 C  
HETATM   20  O   UNL     1     -11.522   6.611  68.261  1.00  0.00    -0.560 OA 
HETATM   21  C   UNL     1      -8.571   5.226  66.594  1.00  0.00    -0.110 C  
HETATM   22  C   UNL     1      -9.478   7.329  67.031  1.00  0.00    -0.156 C  
HETATM   23  H   UNL     1     -11.999   7.424  68.137  1.00  0.00     0.000 HD 
HETATM   24  O   UNL     1      -8.308   6.637  66.590  1.00  0.00    -0.112 OA 
HETATM   25  C   UNL     1     -10.610   6.303  67.205  1.00  0.00    -0.311 C  
BRANCH  21  26
HETATM   26  C   UNL     1      -8.666   4.750  65.144  1.00  0.00    -0.144 C  
HETATM   27  H   UNL     1      -7.742   5.093  63.432  1.00  0.00     0.000 HD 
HETATM   28  O   UNL     1      -7.683   5.389  64.333  1.00  0.00    -0.084 OA 
ENDBRANCH  21  26
BRANCH  22  29
HETATM   29  O   UNL     1      -9.884   8.297  66.069  1.00  0.00    -0.147 OA 
BRANCH  29  30
HETATM   30  C   UNL     1      -8.927   9.286  65.644  1.00  0.00    -0.199 C  
HETATM   31  C   UNL     1      -7.964   8.685  64.601  1.00  0.00    -0.141 C  
HETATM   32  O   UNL     1      -8.700   7.973  63.597  1.00  0.00    -0.374 OA 
HETATM   33  C   UNL     1      -7.127   9.788  63.942  1.00  0.00    -0.122 C  
HETATM   34  C   UNL     1      -6.278  10.477  65.010  1.00  0.00    -0.064 C  
HETATM   35  N   UNL     1      -6.270   9.237  62.875  1.00  0.00    -0.093 NA 
HETATM   36  H   UNL     1      -8.108   7.603  62.954  1.00  0.00     0.000 HD 
HETATM   37  H1  UNL     1      -5.712   9.970  62.437  1.00  0.00     0.000 HD 
HETATM   38  H2  UNL     1      -6.814   8.717  62.187  1.00  0.00     0.000 HD 
HETATM   39  C   UNL     1      -7.139  11.045  66.152  1.00  0.00    -0.054 C  
HETATM   40  C   UNL     1      -8.151  10.012  66.776  1.00  0.00    -0.118 C  
HETATM   41  N   UNL     1      -6.238  11.606  67.181  1.00  0.00    -0.117 NA 
HETATM   42  H2  UNL     1      -5.589  12.294  66.800  1.00  0.00     0.000 HD 
HETATM   43  H1  UNL     1      -6.809  11.983  67.938  1.00  0.00     0.000 HD 
BRANCH  40  44
HETATM   44  O   UNL     1      -8.989  10.760  67.688  1.00  0.00    -0.138 OA 
BRANCH  44  45
HETATM   45  C   UNL     1     -10.401  10.563  67.535  1.00  0.00    -0.223 C  
HETATM   46  O   UNL     1     -10.988  10.001  68.704  1.00  0.00    -0.227 OA 
HETATM   47  C   UNL     1     -11.001  10.851  69.850  1.00  0.00    -0.199 C  
HETATM   48  C   UNL     1     -11.800  12.121  69.546  1.00  0.00    -0.321 C  
HETATM   49  H1  UNL     1     -11.043  13.387  65.660  1.00  0.00     0.000 HD 
HETATM   50  H2  UNL     1     -10.523  11.880  65.145  1.00  0.00     0.000 HD 
HETATM   51  O   UNL     1     -11.821  13.029  70.650  1.00  0.00    -0.524 OA 
HETATM   52  C   UNL     1     -11.201  12.827  68.322  1.00  0.00    -0.271 C  
HETATM   53  H   UNL     1     -12.317  13.817  70.461  1.00  0.00     0.000 HD 
HETATM   54  O   UNL     1     -12.009  13.967  67.980  1.00  0.00    -0.361 OA 
HETATM   55  N   UNL     1     -10.562  12.529  65.930  1.00  0.00    -0.259 NA 
HETATM   56  C   UNL     1     -11.133  11.866  67.125  1.00  0.00    -0.293 C  
HETATM   57  H   UNL     1     -11.638  14.404  67.223  1.00  0.00     0.000 HD 
BRANCH  47  58
HETATM   58  C   UNL     1     -11.630  10.051  71.000  1.00  0.00    -0.393 C  
HETATM   59  O   UNL     1     -12.960   9.652  70.658  1.00  0.00    -0.546 OA 
HETATM   60  H   UNL     1     -13.349   9.157  71.369  1.00  0.00     0.000 HD 
ENDBRANCH  47  58
ENDBRANCH  44  45
ENDBRANCH  40  44
ENDBRANCH  29  30
ENDBRANCH  22  29
ENDBRANCH  18  19
ENDBRANCH   7  18
ENDBRANCH   2   5
TORSDOF 9
ENDMDL
MODEL      148
REMARK 921   NORMALIZED FREE ENERGY PREDICTED BY IDOCK:   -5.03 KCAL/MOL
REMARK 922        TOTAL FREE ENERGY PREDICTED BY IDOCK:   -9.72 KCAL/MOL
REMARK 923 INTER-LIGAND FREE ENERGY PREDICTED BY IDOCK:  -10.33 KCAL/MOL
REMARK 924 INTRA-LIGAND FREE ENERGY PREDICTED BY IDOCK:    0.61 KCAL/MOL
REMARK 927      BINDING AFFINITY PREDICTED BY RF-SCORE:    0.00 PKD
ROOT
HETATM    1  N   UNL     1      -9.006   7.399  71.581  1.00  0.00    -0.124 NA 
HETATM    2  C   UNL     1      -9.674   8.169  70.513  1.00  0.00    -0.174 C  
HETATM    3  H1  UNL     1      -9.634   6.674  71.930  1.00  0.00     0.000 HD 
HETATM    4  H2  UNL     1      -8.662   8.000  72.330  1.00  0.00     0.000 HD 
ENDROOT
BRANCH   2   5
HETATM    5  C   UNL     1      -8.728   9.262  69.987  1.00  0.00    -0.195 C  
HETATM    6  O   UNL     1      -8.631   9.088  68.562  1.00  0.00    -0.127 OA 
HETATM    7  C   UNL     1      -7.940  10.167  67.936  1.00  0.00    -0.101 C  
HETATM    8  C   UNL     1      -6.452  10.137  68.392  1.00  0.00    -0.053 C  
HETATM    9  O   UNL     1      -6.797   7.878  70.508  1.00  0.00    -0.041 OA 
HETATM   10  H   UNL     1      -5.932   7.845  70.899  1.00  0.00     0.000 HD 
HETATM   11  N   UNL     1      -5.777   8.892  67.921  1.00  0.00    -0.035 NA 
HETATM   12  C   UNL     1      -6.394  10.237  69.934  1.00  0.00    -0.082 C  
HETATM   13  H2  UNL     1      -5.864   8.774  66.911  1.00  0.00     0.000 HD 
HETATM   14  O   UNL     1      -6.686  11.569  70.376  1.00  0.00    -0.495 OA 
HETATM   15  C   UNL     1      -7.322   9.208  70.622  1.00  0.00    -0.111 C  
HETATM   16  H1  UNL     1      -4.802   8.872  68.219  1.00  0.00     0.000 HD 
HETATM   17  H   UNL     1      -6.651  11.630  71.323  1.00  0.00     0.000 HD 
BRANCH   7  18
HETATM   18  O   UNL     1      -7.983  10.050  66.511  1.00  0.00    -0.112 OA 
BRANCH  18  19
HETATM   19  C   UNL     1      -8.508  11.213  65.845  1.00  0.00    -0.105 C  
HETATM   20  O   UNL     1     -10.068   9.738  64.612  1.00  0.00    -0.354 OA 
HETATM   21  C   UNL     1      -8.765  12.253  66.933  1.00  0.00    -0.197 C  
HETATM   22  C   UNL     1     -10.821  11.285  66.414  1.00  0.00    -0.251 C  
HETATM   23  H   UNL     1     -10.927   9.615  64.226  1.00  0.00     0.000 HD 
HETATM   24  O   UNL     1     -10.125  12.094  67.364  1.00  0.00    -0.197 OA 
HETATM   25  C   UNL     1      -9.882  11.015  65.227  1.00  0.00    -0.259 C  
BRANCH  21  26
HETATM   26  C   UNL     1      -8.574  13.698  66.466  1.00  0.00     0.214 C  
HETATM   27  H   UNL     1      -8.111  15.441  67.270  1.00  0.00     0.000 HD 
HETATM   28  O   UNL     1      -8.229  14.545  67.559  1.00  0.00    -0.160 OA 
ENDBRANCH  21  26
BRANCH  22  29
HETATM   29  O   UNL     1     -11.982  11.956  65.933  1.00  0.00    -0.480 OA 
BRANCH  29  30
HETATM   30  C   UNL     1     -12.078  13.382  66.123  1.00  0.00    -0.429 C  
HETATM   31  C   UNL     1     -11.419  14.124  64.944  1.00  0.00    -0.366 C  
HETATM   32  O   UNL     1     -11.862  13.571  63.697  1.00  0.00    -0.648 OA 
HETATM   33  C   UNL     1     -11.755  15.619  64.994  1.00  0.00     0.028 C  
HETATM   34  C   UNL     1     -11.195  16.215  66.285  1.00  0.00     0.228 C  
HETATM   35  N   UNL     1     -11.209  16.325  63.819  1.00  0.00    -1.092 NA 
HETATM   36  H   UNL     1     -11.456  14.028  62.971  1.00  0.00     0.000 HD 
HETATM   37  H1  UNL     1     -11.431  17.319  63.852  1.00  0.00     0.000 HD 
HETATM   38  H2  UNL     1     -11.520  15.899  62.946  1.00  0.00     0.000 HD 
HETATM   39  C   UNL     1     -11.726  15.488  67.533  1.00  0.00     0.002 C  
HETATM   40  C   UNL     1     -11.568  13.922  67.487  1.00  0.00    -0.360 C  
HETATM   41  N   UNL     1     -11.066  16.062  68.725  1.00  0.00    -0.317 NA 
HETATM   42  H2  UNL     1     -11.176  17.074  68.784  1.00  0.00     0.000 HD 
HETATM   43  H1  UNL     1     -11.418  15.579  69.551  1.00  0.00     0.000 HD 
BRANCH  40  44
HETATM   44  O   UNL     1     -12.278  13.404  68.636  1.00  0.00    -0.298 OA 
BRANCH  44  45
HETATM   45  C   UNL     1     -11.471  13.123  69.788  1.00  0.00    -0.145 C  
HETATM   46  O   UNL     1     -11.440  14.220  70.694  1.00  0.00    -0.209 OA 
HETATM   47  C   UNL     1     -12.675  14.508  71.349  1.00  0.00    -0.337 C  
HETATM   48  C   UNL     1     -13.123  13.295  72.169  1.00  0.00    -0.385 C  
HETATM   49  H1  UNL     1     -12.290   9.786  70.102  1.00  0.00     0.000 HD 
HETATM   50  H2  UNL     1     -11.115  10.494  69.139  1.00  0.00     0.000 HD 
HETATM   51  O   UNL     1     -14.375  13.513  72.824  1.00  0.00    -0.640 OA 
HETATM   52  C   UNL     1     -13.235  12.067  71.256  1.00  0.00     0.020 C  
HETATM   53  H   UNL     1     -14.652  12.760  73.333  1.00  0.00     0.000 HD 
HETATM   54  O   UNL     1     -13.563  10.909  72.045  1.00  0.00    -0.377 OA 
HETATM   55  N   UNL     1     -11.999  10.641  69.627  1.00  0.00    -0.287 NA 
HETATM   56  C   UNL     1     -11.913  11.826  70.510  1.00  0.00    -0.289 C  
HETATM   57  H   UNL     1     -13.633  10.149  71.479  1.00  0.00     0.000 HD 
BRANCH  47  58
HETATM   58  C   UNL     1     -12.441  15.736  72.239  1.00  0.00    -0.450 C  
HETATM   59  O   UNL     1     -11.791  16.771  71.496  1.00  0.00    -0.538 OA 
HETATM   60  H   UNL     1     -11.646  17.531  72.046  1.00  0.00     0.000 HD 
ENDBRANCH  47  58
ENDBRANCH  44  45
ENDBRANCH  40  44
ENDBRANCH  29  30
ENDBRANCH  22  29
ENDBRANCH  18  19
ENDBRANCH   7  18
ENDBRANCH   2   5
TORSDOF 9
ENDMDL
MODEL      149
REMARK 921   NORMALIZED FREE ENERGY PREDICTED BY IDOCK:   -5.02 KCAL/MOL
REMARK 922        TOTAL FREE ENERGY PREDICTED BY IDOCK:   -9.71 KCAL/MOL
REMARK 923 INTER-LIGAND FREE ENERGY PREDICTED BY IDOCK:   -9.13 KCAL/MOL
REMARK 924 INTRA-LIGAND FREE ENERGY PREDICTED BY IDOCK:   -0.57 KCAL/MOL
REMARK 927      BINDING AFFINITY PREDICTED BY RF-SCORE:    0.00 PKD
ROOT
HETATM    1  N   UNL     1     -11.472  16.112  63.976  1.00  0.00    -1.425 NA 
HETATM    2  C   UNL     1     -11.517  14.647  64.157  1.00  0.00    -0.022 C  
HETATM    3  H1  UNL     1     -11.797  16.356  63.041  1.00  0.00     0.000 HD 
HETATM    4  H2  UNL     1     -10.547  16.494  64.173  1.00  0.00     0.000 HD 
ENDROOT
BRANCH   2   5
HETATM    5  C   UNL     1     -11.028  14.279  65.568  1.00  0.00    -0.319 C  
HETATM    6  O   UNL     1     -10.625  12.898  65.531  1.00  0.00    -0.271 OA 
HETATM    7  C   UNL     1      -9.964  12.499  66.730  1.00  0.00    -0.228 C  
HETATM    8  C   UNL     1     -10.991  12.530  67.899  1.00  0.00    -0.227 C  
HETATM    9  O   UNL     1     -13.310  13.822  66.271  1.00  0.00    -0.071 OA 
HETATM   10  H   UNL     1     -13.970  13.950  66.942  1.00  0.00     0.000 HD 
HETATM   11  N   UNL     1     -12.076  11.529  67.679  1.00  0.00    -0.541 NA 
HETATM   12  C   UNL     1     -11.580  13.955  68.016  1.00  0.00    -0.333 C  
HETATM   13  H2  UNL     1     -11.702  10.592  67.531  1.00  0.00     0.000 HD 
HETATM   14  O   UNL     1     -10.630  14.861  68.593  1.00  0.00    -0.237 OA 
HETATM   15  C   UNL     1     -12.100  14.486  66.659  1.00  0.00    -0.296 C  
HETATM   16  H1  UNL     1     -12.749  11.550  68.446  1.00  0.00     0.000 HD 
HETATM   17  H   UNL     1     -10.992  15.736  68.665  1.00  0.00     0.000 HD 
BRANCH   7  18
HETATM   18  O   UNL     1      -9.443  11.173  66.615  1.00  0.00    -0.177 OA 
BRANCH  18  19
HETATM   19  C   UNL     1      -8.390  10.875  67.550  1.00  0.00    -0.117 C  
HETATM   20  O   UNL     1      -9.958   9.393  68.763  1.00  0.00    -0.169 OA 
HETATM   21  C   UNL     1      -7.152  10.552  66.716  1.00  0.00    -0.109 C  
HETATM   22  C   UNL     1      -8.058   8.519  67.408  1.00  0.00    -0.106 C  
HETATM   23  H   UNL     1     -10.092   8.597  69.264  1.00  0.00     0.000 HD 
HETATM   24  O   UNL     1      -7.137   9.132  66.505  1.00  0.00    -0.080 OA 
HETATM   25  C   UNL     1      -8.605   9.602  68.352  1.00  0.00    -0.119 C  
BRANCH  21  26
HETATM   26  C   UNL     1      -5.835  10.953  67.383  1.00  0.00    -0.046 C  
HETATM   27  H   UNL     1      -4.335  12.187  67.024  1.00  0.00     0.000 HD 
HETATM   28  O   UNL     1      -5.152  11.938  66.610  1.00  0.00    -0.266 OA 
ENDBRANCH  21  26
BRANCH  22  29
HETATM   29  O   UNL     1      -7.411   7.519  68.189  1.00  0.00    -0.090 OA 
BRANCH  29  30
HETATM   30  C   UNL     1      -7.353   6.175  67.673  1.00  0.00    -0.080 C  
HETATM   31  C   UNL     1      -7.116   6.196  66.150  1.00  0.00    -0.067 C  
HETATM   32  O   UNL     1      -6.049   7.098  65.825  1.00  0.00    -0.035 OA 
HETATM   33  C   UNL     1      -6.780   4.791  65.637  1.00  0.00    -0.056 C  
HETATM   34  C   UNL     1      -7.963   3.863  65.907  1.00  0.00    -0.093 C  
HETATM   35  N   UNL     1      -6.458   4.815  64.197  1.00  0.00    -0.037 NA 
HETATM   36  H   UNL     1      -5.903   7.111  64.887  1.00  0.00     0.000 HD 
HETATM   37  H1  UNL     1      -6.234   3.880  63.856  1.00  0.00     0.000 HD 
HETATM   38  H2  UNL     1      -5.712   5.479  63.990  1.00  0.00     0.000 HD 
HETATM   39  C   UNL     1      -8.342   3.831  67.398  1.00  0.00    -0.095 C  
HETATM   40  C   UNL     1      -8.545   5.252  68.046  1.00  0.00    -0.103 C  
HETATM   41  N   UNL     1      -9.547   2.990  67.556  1.00  0.00    -0.346 NA 
HETATM   42  H2  UNL     1      -9.428   2.057  67.162  1.00  0.00     0.000 HD 
HETATM   43  H1  UNL     1      -9.798   2.969  68.544  1.00  0.00     0.000 HD 
BRANCH  40  44
HETATM   44  O   UNL     1      -8.708   5.035  69.467  1.00  0.00    -0.090 OA 
BRANCH  44  45
HETATM   45  C   UNL     1     -10.039   4.712  69.895  1.00  0.00    -0.187 C  
HETATM   46  O   UNL     1     -10.075   4.323  71.264  1.00  0.00    -0.177 OA 
HETATM   47  C   UNL     1      -9.781   5.357  72.201  1.00  0.00    -0.162 C  
HETATM   48  C   UNL     1     -10.797   6.493  72.059  1.00  0.00    -0.234 C  
HETATM   49  H1  UNL     1     -11.694   7.110  68.047  1.00  0.00     0.000 HD 
HETATM   50  H2  UNL     1     -11.203   5.577  67.580  1.00  0.00     0.000 HD 
HETATM   51  O   UNL     1     -10.533   7.576  72.953  1.00  0.00    -0.254 OA 
HETATM   52  C   UNL     1     -10.789   7.015  70.615  1.00  0.00    -0.246 C  
HETATM   53  H   UNL     1     -11.164   8.281  72.865  1.00  0.00     0.000 HD 
HETATM   54  O   UNL     1     -11.810   8.016  70.459  1.00  0.00    -0.463 OA 
HETATM   55  N   UNL     1     -11.038   6.350  68.225  1.00  0.00    -0.305 NA 
HETATM   56  C   UNL     1     -11.037   5.866  69.625  1.00  0.00    -0.343 C  
HETATM   57  H   UNL     1     -11.805   8.339  69.566  1.00  0.00     0.000 HD 
BRANCH  47  58
HETATM   58  C   UNL     1      -9.831   4.728  73.601  1.00  0.00    -0.143 C  
HETATM   59  O   UNL     1     -11.141   4.866  74.160  1.00  0.00    -0.365 OA 
HETATM   60  H   UNL     1     -11.172   4.476  75.025  1.00  0.00     0.000 HD 
ENDBRANCH  47  58
ENDBRANCH  44  45
ENDBRANCH  40  44
ENDBRANCH  29  30
ENDBRANCH  22  29
ENDBRANCH  18  19
ENDBRANCH   7  18
ENDBRANCH   2   5
TORSDOF 9
ENDMDL
MODEL      150
REMARK 921   NORMALIZED FREE ENERGY PREDICTED BY IDOCK:   -5.02 KCAL/MOL
REMARK 922        TOTAL FREE ENERGY PREDICTED BY IDOCK:   -9.70 KCAL/MOL
REMARK 923 INTER-LIGAND FREE ENERGY PREDICTED BY IDOCK:   -9.68 KCAL/MOL
REMARK 924 INTRA-LIGAND FREE ENERGY PREDICTED BY IDOCK:   -0.02 KCAL/MOL
REMARK 927      BINDING AFFINITY PREDICTED BY RF-SCORE:    0.00 PKD
ROOT
HETATM    1  N   UNL     1     -11.174  16.096  63.879  1.00  0.00    -1.112 NA 
HETATM    2  C   UNL     1     -11.591  16.952  65.008  1.00  0.00     0.834 C  
HETATM    3  H1  UNL     1     -11.964  15.938  63.253  1.00  0.00     0.000 HD 
HETATM    4  H2  UNL     1     -10.755  15.221  64.195  1.00  0.00     0.000 HD 
ENDROOT
BRANCH   2   5
HETATM    5  C   UNL     1     -10.399  17.190  65.950  1.00  0.00    -0.284 C  
HETATM    6  O   UNL     1     -10.760  16.649  67.235  1.00  0.00    -0.306 OA 
HETATM    7  C   UNL     1      -9.657  16.631  68.138  1.00  0.00    -0.228 C  
HETATM    8  C   UNL     1      -9.265  18.099  68.476  1.00  0.00    -0.314 C  
HETATM    9  O   UNL     1     -11.193  19.438  66.429  1.00  0.00    -0.109 OA 
HETATM   10  H   UNL     1     -10.961  20.355  66.516  1.00  0.00     0.000 HD 
HETATM   11  N   UNL     1     -10.373  18.791  69.199  1.00  0.00    -0.447 NA 
HETATM   12  C   UNL     1      -8.921  18.845  67.166  1.00  0.00    -0.284 C  
HETATM   13  H2  UNL     1     -10.661  18.276  70.031  1.00  0.00     0.000 HD 
HETATM   14  O   UNL     1      -7.644  18.435  66.659  1.00  0.00    -0.218 OA 
HETATM   15  C   UNL     1     -10.023  18.680  66.092  1.00  0.00    -0.330 C  
HETATM   16  H1  UNL     1     -10.116  19.753  69.421  1.00  0.00     0.000 HD 
HETATM   17  H   UNL     1      -7.433  18.893  65.854  1.00  0.00     0.000 HD 
BRANCH   7  18
HETATM   18  O   UNL     1      -9.996  15.957  69.353  1.00  0.00    -0.242 OA 
BRANCH  18  19
HETATM   19  C   UNL     1      -9.524  14.599  69.420  1.00  0.00     0.089 C  
HETATM   20  O   UNL     1     -11.821  13.884  70.001  1.00  0.00    -0.291 OA 
HETATM   21  C   UNL     1      -8.694  14.369  68.159  1.00  0.00    -0.175 C  
HETATM   22  C   UNL     1     -10.784  13.405  67.787  1.00  0.00    -0.248 C  
HETATM   23  H   UNL     1     -12.504  13.227  69.932  1.00  0.00     0.000 HD 
HETATM   24  O   UNL     1      -9.575  13.836  67.158  1.00  0.00    -0.229 OA 
HETATM   25  C   UNL     1     -10.616  13.549  69.308  1.00  0.00     0.069 C  
BRANCH  21  26
HETATM   26  C   UNL     1      -7.535  13.389  68.350  1.00  0.00    -0.117 C  
HETATM   27  H   UNL     1      -5.847  12.931  67.433  1.00  0.00     0.000 HD 
HETATM   28  O   UNL     1      -6.567  13.538  67.314  1.00  0.00    -0.247 OA 
ENDBRANCH  21  26
BRANCH  22  29
HETATM   29  O   UNL     1     -11.050  12.038  67.486  1.00  0.00    -0.244 OA 
BRANCH  29  30
HETATM   30  C   UNL     1     -10.186  11.360  66.554  1.00  0.00    -0.221 C  
HETATM   31  C   UNL     1     -10.518  11.785  65.110  1.00  0.00    -0.283 C  
HETATM   32  O   UNL     1     -10.626  13.212  65.024  1.00  0.00    -0.303 OA 
HETATM   33  C   UNL     1      -9.438  11.290  64.141  1.00  0.00    -0.177 C  
HETATM   34  C   UNL     1      -9.397   9.762  64.175  1.00  0.00    -0.237 C  
HETATM   35  N   UNL     1      -9.694  11.771  62.770  1.00  0.00    -0.504 NA 
HETATM   36  H   UNL     1     -10.830  13.474  64.135  1.00  0.00     0.000 HD 
HETATM   37  H1  UNL     1      -8.976  11.441  62.125  1.00  0.00     0.000 HD 
HETATM   38  H2  UNL     1      -9.789  12.785  62.740  1.00  0.00     0.000 HD 
HETATM   39  C   UNL     1      -9.154   9.223  65.595  1.00  0.00    -0.216 C  
HETATM   40  C   UNL     1     -10.123   9.814  66.687  1.00  0.00    -0.237 C  
HETATM   41  N   UNL     1      -9.224   7.747  65.553  1.00  0.00    -0.386 NA 
HETATM   42  H2  UNL     1      -8.587   7.344  64.866  1.00  0.00     0.000 HD 
HETATM   43  H1  UNL     1      -9.063   7.390  66.495  1.00  0.00     0.000 HD 
BRANCH  40  44
HETATM   44  O   UNL     1      -9.634   9.345  67.965  1.00  0.00    -0.136 OA 
BRANCH  44  45
HETATM   45  C   UNL     1      -9.470  10.352  68.973  1.00  0.00    -0.197 C  
HETATM   46  O   UNL     1     -10.643  10.505  69.765  1.00  0.00    -0.247 OA 
HETATM   47  C   UNL     1     -10.964   9.396  70.604  1.00  0.00    -0.290 C  
HETATM   48  C   UNL     1      -9.820   9.142  71.589  1.00  0.00    -0.225 C  
HETATM   49  H1  UNL     1      -6.159   9.714  69.706  1.00  0.00     0.000 HD 
HETATM   50  H2  UNL     1      -6.800  10.676  68.492  1.00  0.00     0.000 HD 
HETATM   51  O   UNL     1     -10.071   8.019  72.437  1.00  0.00    -0.218 OA 
HETATM   52  C   UNL     1      -8.514   8.911  70.816  1.00  0.00    -0.182 C  
HETATM   53  H   UNL     1      -9.362   7.861  73.048  1.00  0.00     0.000 HD 
HETATM   54  O   UNL     1      -7.425   8.768  71.744  1.00  0.00    -0.208 OA 
HETATM   55  N   UNL     1      -6.973   9.888  69.117  1.00  0.00    -0.054 NA 
HETATM   56  C   UNL     1      -8.233  10.088  69.869  1.00  0.00    -0.159 C  
HETATM   57  H   UNL     1      -6.617   8.625  71.266  1.00  0.00     0.000 HD 
BRANCH  47  58
HETATM   58  C   UNL     1     -12.270   9.742  71.332  1.00  0.00    -0.397 C  
HETATM   59  O   UNL     1     -12.583  11.127  71.158  1.00  0.00    -0.377 OA 
HETATM   60  H   UNL     1     -13.391  11.341  71.609  1.00  0.00     0.000 HD 
ENDBRANCH  47  58
ENDBRANCH  44  45
ENDBRANCH  40  44
ENDBRANCH  29  30
ENDBRANCH  22  29
ENDBRANCH  18  19
ENDBRANCH   7  18
ENDBRANCH   2   5
TORSDOF 9
ENDMDL
MODEL      151
REMARK 921   NORMALIZED FREE ENERGY PREDICTED BY IDOCK:   -5.00 KCAL/MOL
REMARK 922        TOTAL FREE ENERGY PREDICTED BY IDOCK:   -9.67 KCAL/MOL
REMARK 923 INTER-LIGAND FREE ENERGY PREDICTED BY IDOCK:   -7.96 KCAL/MOL
REMARK 924 INTRA-LIGAND FREE ENERGY PREDICTED BY IDOCK:   -1.71 KCAL/MOL
REMARK 927      BINDING AFFINITY PREDICTED BY RF-SCORE:    0.00 PKD
ROOT
HETATM    1  N   UNL     1     -11.182  15.025  70.858  1.00  0.00    -0.480 NA 
HETATM    2  C   UNL     1     -12.169  14.989  69.761  1.00  0.00    -0.285 C  
HETATM    3  H1  UNL     1     -11.559  15.551  71.647  1.00  0.00     0.000 HD 
HETATM    4  H2  UNL     1     -10.280  15.388  70.550  1.00  0.00     0.000 HD 
ENDROOT
BRANCH   2   5
HETATM    5  C   UNL     1     -11.602  14.194  68.573  1.00  0.00    -0.316 C  
HETATM    6  O   UNL     1     -10.240  13.860  68.899  1.00  0.00    -0.213 OA 
HETATM    7  C   UNL     1      -9.672  12.949  67.959  1.00  0.00    -0.224 C  
HETATM    8  C   UNL     1      -9.534  13.670  66.587  1.00  0.00    -0.277 C  
HETATM    9  O   UNL     1     -11.048  16.262  67.419  1.00  0.00    -0.232 OA 
HETATM   10  H   UNL     1     -11.078  16.741  66.599  1.00  0.00     0.000 HD 
HETATM   11  N   UNL     1      -8.576  14.811  66.681  1.00  0.00    -0.426 NA 
HETATM   12  C   UNL     1     -10.927  14.166  66.134  1.00  0.00    -0.309 C  
HETATM   13  H2  UNL     1      -7.670  14.514  67.044  1.00  0.00     0.000 HD 
HETATM   14  O   UNL     1     -11.740  13.076  65.679  1.00  0.00    -0.338 OA 
HETATM   15  C   UNL     1     -11.649  14.972  67.240  1.00  0.00    -0.273 C  
HETATM   16  H1  UNL     1      -8.485  15.284  65.781  1.00  0.00     0.000 HD 
HETATM   17  H   UNL     1     -12.595  13.381  65.401  1.00  0.00     0.000 HD 
BRANCH   7  18
HETATM   18  O   UNL     1      -8.376  12.516  68.380  1.00  0.00    -0.167 OA 
BRANCH  18  19
HETATM   19  C   UNL     1      -7.930  11.304  67.746  1.00  0.00    -0.117 C  
HETATM   20  O   UNL     1      -5.722  11.614  68.822  1.00  0.00    -0.046 OA 
HETATM   21  C   UNL     1      -9.023  10.264  67.988  1.00  0.00    -0.132 C  
HETATM   22  C   UNL     1      -7.324   9.839  69.526  1.00  0.00    -0.092 C  
HETATM   23  H   UNL     1      -4.958  11.218  69.225  1.00  0.00     0.000 HD 
HETATM   24  O   UNL     1      -8.685   9.560  69.192  1.00  0.00    -0.133 OA 
HETATM   25  C   UNL     1      -6.707  10.672  68.390  1.00  0.00    -0.060 C  
BRANCH  21  26
HETATM   26  C   UNL     1      -9.167   9.243  66.858  1.00  0.00    -0.144 C  
HETATM   27  H   UNL     1     -10.590   8.594  65.652  1.00  0.00     0.000 HD 
HETATM   28  O   UNL     1     -10.500   9.228  66.353  1.00  0.00    -0.208 OA 
ENDBRANCH  21  26
BRANCH  22  29
HETATM   29  O   UNL     1      -6.580   8.632  69.661  1.00  0.00    -0.039 OA 
BRANCH  29  30
HETATM   30  C   UNL     1      -6.972   7.694  70.682  1.00  0.00    -0.047 C  
HETATM   31  C   UNL     1      -6.308   8.056  72.025  1.00  0.00    -0.050 C  
HETATM   32  O   UNL     1      -6.458   9.457  72.292  1.00  0.00    -0.298 OA 
HETATM   33  C   UNL     1      -6.926   7.243  73.168  1.00  0.00    -0.068 C  
HETATM   34  C   UNL     1      -6.676   5.756  72.916  1.00  0.00    -0.074 C  
HETATM   35  N   UNL     1      -6.365   7.649  74.471  1.00  0.00    -0.088 NA 
HETATM   36  H   UNL     1      -6.050   9.680  73.120  1.00  0.00     0.000 HD 
HETATM   37  H1  UNL     1      -6.775   7.108  75.232  1.00  0.00     0.000 HD 
HETATM   38  H2  UNL     1      -6.465   8.652  74.627  1.00  0.00     0.000 HD 
HETATM   39  C   UNL     1      -7.228   5.301  71.554  1.00  0.00    -0.075 C  
HETATM   40  C   UNL     1      -6.770   6.193  70.339  1.00  0.00    -0.053 C  
HETATM   41  N   UNL     1      -6.863   3.884  71.351  1.00  0.00    -0.030 NA 
HETATM   42  H2  UNL     1      -7.171   3.286  72.119  1.00  0.00     0.000 HD 
HETATM   43  H1  UNL     1      -7.229   3.583  70.448  1.00  0.00     0.000 HD 
BRANCH  40  44
HETATM   44  O   UNL     1      -7.522   5.737  69.190  1.00  0.00    -0.080 OA 
BRANCH  44  45
HETATM   45  C   UNL     1      -8.644   4.891  69.481  1.00  0.00    -0.086 C  
HETATM   46  O   UNL     1      -9.746   5.630  69.995  1.00  0.00    -0.158 OA 
HETATM   47  C   UNL     1     -10.369   6.521  69.072  1.00  0.00    -0.195 C  
HETATM   48  C   UNL     1     -10.910   5.736  67.875  1.00  0.00    -0.165 C  
HETATM   49  H1  UNL     1      -8.254   2.713  66.833  1.00  0.00     0.000 HD 
HETATM   50  H2  UNL     1      -7.518   2.679  68.338  1.00  0.00     0.000 HD 
HETATM   51  O   UNL     1     -11.518   6.583  66.897  1.00  0.00    -0.762 OA 
HETATM   52  C   UNL     1      -9.770   4.944  67.219  1.00  0.00    -0.170 C  
HETATM   53  H   UNL     1     -11.854   6.096  66.155  1.00  0.00     0.000 HD 
HETATM   54  O   UNL     1     -10.298   4.133  66.155  1.00  0.00    -0.424 OA 
HETATM   55  N   UNL     1      -7.972   3.269  67.640  1.00  0.00    -0.076 NA 
HETATM   56  C   UNL     1      -9.073   4.047  68.254  1.00  0.00    -0.137 C  
HETATM   57  H   UNL     1      -9.593   3.643  65.750  1.00  0.00     0.000 HD 
BRANCH  47  58
HETATM   58  C   UNL     1     -11.493   7.244  69.828  1.00  0.00     0.006 C  
HETATM   59  O   UNL     1     -11.513   8.631  69.480  1.00  0.00    -0.419 OA 
HETATM   60  H   UNL     1     -12.208   9.078  69.948  1.00  0.00     0.000 HD 
ENDBRANCH  47  58
ENDBRANCH  44  45
ENDBRANCH  40  44
ENDBRANCH  29  30
ENDBRANCH  22  29
ENDBRANCH  18  19
ENDBRANCH   7  18
ENDBRANCH   2   5
TORSDOF 9
ENDMDL
MODEL      152
REMARK 921   NORMALIZED FREE ENERGY PREDICTED BY IDOCK:   -4.98 KCAL/MOL
REMARK 922        TOTAL FREE ENERGY PREDICTED BY IDOCK:   -9.65 KCAL/MOL
REMARK 923 INTER-LIGAND FREE ENERGY PREDICTED BY IDOCK:  -11.13 KCAL/MOL
REMARK 924 INTRA-LIGAND FREE ENERGY PREDICTED BY IDOCK:    1.48 KCAL/MOL
REMARK 927      BINDING AFFINITY PREDICTED BY RF-SCORE:    0.00 PKD
ROOT
HETATM    1  N   UNL     1      -9.134   7.059  69.254  1.00  0.00    -0.138 NA 
HETATM    2  C   UNL     1      -9.818   7.876  68.231  1.00  0.00    -0.169 C  
HETATM    3  H1  UNL     1      -9.818   6.683  69.911  1.00  0.00     0.000 HD 
HETATM    4  H2  UNL     1      -8.393   7.578  69.727  1.00  0.00     0.000 HD 
ENDROOT
BRANCH   2   5
HETATM    5  C   UNL     1      -8.787   8.443  67.241  1.00  0.00    -0.130 C  
HETATM    6  O   UNL     1      -9.519   8.947  66.109  1.00  0.00    -0.214 OA 
HETATM    7  C   UNL     1      -8.686   9.679  65.213  1.00  0.00    -0.160 C  
HETATM    8  C   UNL     1      -7.670   8.697  64.561  1.00  0.00    -0.124 C  
HETATM    9  O   UNL     1      -8.430   6.228  66.302  1.00  0.00    -0.123 OA 
HETATM   10  H   UNL     1      -7.792   5.586  66.016  1.00  0.00     0.000 HD 
HETATM   11  N   UNL     1      -8.376   7.682  63.724  1.00  0.00    -0.372 NA 
HETATM   12  C   UNL     1      -6.848   8.006  65.674  1.00  0.00    -0.056 C  
HETATM   13  H2  UNL     1      -8.978   8.120  63.027  1.00  0.00     0.000 HD 
HETATM   14  O   UNL     1      -5.885   8.907  66.238  1.00  0.00    -0.049 OA 
HETATM   15  C   UNL     1      -7.750   7.399  66.776  1.00  0.00    -0.109 C  
HETATM   16  H1  UNL     1      -7.710   7.038  63.296  1.00  0.00     0.000 HD 
HETATM   17  H   UNL     1      -5.380   8.483  66.922  1.00  0.00     0.000 HD 
BRANCH   7  18
HETATM   18  O   UNL     1      -9.456  10.294  64.177  1.00  0.00    -0.260 OA 
BRANCH  18  19
HETATM   19  C   UNL     1      -9.770  11.676  64.424  1.00  0.00    -0.175 C  
HETATM   20  O   UNL     1     -11.827  11.396  63.075  1.00  0.00    -0.903 OA 
HETATM   21  C   UNL     1      -9.580  11.901  65.923  1.00  0.00    -0.231 C  
HETATM   22  C   UNL     1     -11.870  11.662  65.553  1.00  0.00     0.227 C  
HETATM   23  H   UNL     1     -12.740  11.622  62.939  1.00  0.00     0.000 HD 
HETATM   24  O   UNL     1     -10.850  11.674  66.553  1.00  0.00    -0.261 OA 
HETATM   25  C   UNL     1     -11.230  12.037  64.206  1.00  0.00    -0.357 C  
BRANCH  21  26
HETATM   26  C   UNL     1      -9.109  13.310  66.283  1.00  0.00     0.029 C  
HETATM   27  H   UNL     1      -8.120  14.187  67.751  1.00  0.00     0.000 HD 
HETATM   28  O   UNL     1      -8.412  13.312  67.527  1.00  0.00    -0.177 OA 
ENDBRANCH  21  26
BRANCH  22  29
HETATM   29  O   UNL     1     -12.885  12.614  65.855  1.00  0.00    -0.259 OA 
BRANCH  29  30
HETATM   30  C   UNL     1     -12.487  13.952  66.212  1.00  0.00    -0.409 C  
HETATM   31  C   UNL     1     -11.781  14.636  65.024  1.00  0.00    -0.385 C  
HETATM   32  O   UNL     1     -12.539  14.448  63.821  1.00  0.00    -0.948 OA 
HETATM   33  C   UNL     1     -11.603  16.134  65.294  1.00  0.00     0.364 C  
HETATM   34  C   UNL     1     -10.716  16.319  66.525  1.00  0.00    -0.187 C  
HETATM   35  N   UNL     1     -11.014  16.817  64.125  1.00  0.00    -0.927 NA 
HETATM   36  H   UNL     1     -12.104  14.869  63.089  1.00  0.00     0.000 HD 
HETATM   37  H1  UNL     1     -10.895  17.813  64.304  1.00  0.00     0.000 HD 
HETATM   38  H2  UNL     1     -11.559  16.650  63.279  1.00  0.00     0.000 HD 
HETATM   39  C   UNL     1     -11.288  15.601  67.760  1.00  0.00    -0.261 C  
HETATM   40  C   UNL     1     -11.656  14.088  67.517  1.00  0.00    -0.367 C  
HETATM   41  N   UNL     1     -10.328  15.750  68.874  1.00  0.00    -0.214 NA 
HETATM   42  H2  UNL     1     -10.093  16.725  69.061  1.00  0.00     0.000 HD 
HETATM   43  H1  UNL     1     -10.707  15.273  69.692  1.00  0.00     0.000 HD 
BRANCH  40  44
HETATM   44  O   UNL     1     -12.339  13.637  68.709  1.00  0.00    -0.261 OA 
BRANCH  44  45
HETATM   45  C   UNL     1     -11.492  13.254  69.802  1.00  0.00    -0.158 C  
HETATM   46  O   UNL     1     -11.441  14.258  70.809  1.00  0.00    -0.187 OA 
HETATM   47  C   UNL     1     -12.655  14.466  71.528  1.00  0.00    -0.350 C  
HETATM   48  C   UNL     1     -13.066  13.175  72.240  1.00  0.00    -0.353 C  
HETATM   49  H1  UNL     1     -12.273   9.894  69.815  1.00  0.00     0.000 HD 
HETATM   50  H2  UNL     1     -11.136  10.705  68.888  1.00  0.00     0.000 HD 
HETATM   51  O   UNL     1     -14.297  13.313  72.952  1.00  0.00    -0.537 OA 
HETATM   52  C   UNL     1     -13.198  12.040  71.215  1.00  0.00     0.020 C  
HETATM   53  H   UNL     1     -14.552  12.512  73.394  1.00  0.00     0.000 HD 
HETATM   54  O   UNL     1     -13.490  10.808  71.897  1.00  0.00    -0.355 OA 
HETATM   55  N   UNL     1     -12.005  10.793  69.416  1.00  0.00    -0.303 NA 
HETATM   56  C   UNL     1     -11.899  11.888  70.408  1.00  0.00    -0.239 C  
HETATM   57  H   UNL     1     -13.572  10.105  71.263  1.00  0.00     0.000 HD 
BRANCH  47  58
HETATM   58  C   UNL     1     -12.402  15.605  72.526  1.00  0.00    -0.433 C  
HETATM   59  O   UNL     1     -13.452  15.657  73.496  1.00  0.00    -0.631 OA 
HETATM   60  H   UNL     1     -13.296  16.361  74.113  1.00  0.00     0.000 HD 
ENDBRANCH  47  58
ENDBRANCH  44  45
ENDBRANCH  40  44
ENDBRANCH  29  30
ENDBRANCH  22  29
ENDBRANCH  18  19
ENDBRANCH   7  18
ENDBRANCH   2   5
TORSDOF 9
ENDMDL
MODEL      153
REMARK 921   NORMALIZED FREE ENERGY PREDICTED BY IDOCK:   -4.93 KCAL/MOL
REMARK 922        TOTAL FREE ENERGY PREDICTED BY IDOCK:   -9.57 KCAL/MOL
REMARK 923 INTER-LIGAND FREE ENERGY PREDICTED BY IDOCK:   -6.96 KCAL/MOL
REMARK 924 INTRA-LIGAND FREE ENERGY PREDICTED BY IDOCK:   -2.61 KCAL/MOL
REMARK 927      BINDING AFFINITY PREDICTED BY RF-SCORE:    0.00 PKD
ROOT
HETATM    1  N   UNL     1     -11.156   5.241  65.864  1.00  0.00    -0.800 NA 
HETATM    2  C   UNL     1     -10.803   4.174  64.906  1.00  0.00    -0.068 C  
HETATM    3  H1  UNL     1     -12.095   5.587  65.667  1.00  0.00     0.000 HD 
HETATM    4  H2  UNL     1     -10.465   5.991  65.874  1.00  0.00     0.000 HD 
ENDROOT
BRANCH   2   5
HETATM    5  C   UNL     1      -9.387   3.652  65.203  1.00  0.00    -0.157 C  
HETATM    6  O   UNL     1      -8.629   4.758  65.726  1.00  0.00    -0.119 OA 
HETATM    7  C   UNL     1      -7.359   4.348  66.228  1.00  0.00    -0.081 C  
HETATM    8  C   UNL     1      -6.485   3.860  65.035  1.00  0.00    -0.035 C  
HETATM    9  O   UNL     1      -8.737   4.016  62.889  1.00  0.00    -0.091 OA 
HETATM   10  H   UNL     1      -8.301   3.656  62.125  1.00  0.00     0.000 HD 
HETATM   11  N   UNL     1      -6.208   4.980  64.088  1.00  0.00    -0.022 NA 
HETATM   12  C   UNL     1      -7.216   2.705  64.312  1.00  0.00    -0.054 C  
HETATM   13  H2  UNL     1      -5.787   5.780  64.561  1.00  0.00     0.000 HD 
HETATM   14  O   UNL     1      -7.156   1.496  65.080  1.00  0.00    -0.044 OA 
HETATM   15  C   UNL     1      -8.679   3.067  63.962  1.00  0.00    -0.089 C  
HETATM   16  H1  UNL     1      -5.635   4.661  63.306  1.00  0.00     0.000 HD 
HETATM   17  H   UNL     1      -7.605   0.786  64.636  1.00  0.00     0.000 HD 
BRANCH   7  18
HETATM   18  O   UNL     1      -6.685   5.431  66.874  1.00  0.00    -0.058 OA 
BRANCH  18  19
HETATM   19  C   UNL     1      -6.923   6.714  66.267  1.00  0.00    -0.062 C  
HETATM   20  O   UNL     1      -8.997   6.904  67.604  1.00  0.00    -0.118 OA 
HETATM   21  C   UNL     1      -5.605   7.481  66.352  1.00  0.00    -0.028 C  
HETATM   22  C   UNL     1      -6.968   8.274  68.069  1.00  0.00    -0.081 C  
HETATM   23  H   UNL     1      -9.600   7.459  68.084  1.00  0.00     0.000 HD 
HETATM   24  O   UNL     1      -5.630   8.241  67.570  1.00  0.00    -0.037 OA 
HETATM   25  C   UNL     1      -7.887   7.602  67.035  1.00  0.00    -0.112 C  
BRANCH  21  26
HETATM   26  C   UNL     1      -5.375   8.446  65.187  1.00  0.00    -0.035 C  
HETATM   27  H   UNL     1      -5.196  10.395  64.922  1.00  0.00     0.000 HD 
HETATM   28  O   UNL     1      -5.340   9.796  65.644  1.00  0.00    -0.041 OA 
ENDBRANCH  21  26
BRANCH  22  29
HETATM   29  O   UNL     1      -7.403   9.616  68.260  1.00  0.00    -0.079 OA 
BRANCH  29  30
HETATM   30  C   UNL     1      -8.810   9.906  68.140  1.00  0.00    -0.118 C  
HETATM   31  C   UNL     1      -9.069  10.799  66.911  1.00  0.00    -0.149 C  
HETATM   32  O   UNL     1      -8.380  10.280  65.765  1.00  0.00    -0.139 OA 
HETATM   33  C   UNL     1     -10.570  10.886  66.616  1.00  0.00    -0.249 C  
HETATM   34  C   UNL     1     -11.280  11.526  67.809  1.00  0.00    -0.343 C  
HETATM   35  N   UNL     1     -10.825  11.660  65.386  1.00  0.00    -0.289 NA 
HETATM   36  H   UNL     1      -8.540  10.830  65.008  1.00  0.00     0.000 HD 
HETATM   37  H1  UNL     1     -11.824  11.718  65.189  1.00  0.00     0.000 HD 
HETATM   38  H2  UNL     1     -10.307  11.285  64.592  1.00  0.00     0.000 HD 
HETATM   39  C   UNL     1     -11.018  10.757  69.115  1.00  0.00    -0.244 C  
HETATM   40  C   UNL     1      -9.495  10.480  69.410  1.00  0.00    -0.136 C  
HETATM   41  N   UNL     1     -11.657  11.492  70.227  1.00  0.00    -0.504 NA 
HETATM   42  H2  UNL     1     -12.649  11.662  70.064  1.00  0.00     0.000 HD 
HETATM   43  H1  UNL     1     -11.483  10.982  71.093  1.00  0.00     0.000 HD 
BRANCH  40  44
HETATM   44  O   UNL     1      -9.454   9.602  70.559  1.00  0.00    -0.256 OA 
BRANCH  44  45
HETATM   45  C   UNL     1     -10.177   8.370  70.423  1.00  0.00    -0.197 C  
HETATM   46  O   UNL     1      -9.310   7.273  70.158  1.00  0.00    -0.155 OA 
HETATM   47  C   UNL     1      -8.441   6.908  71.230  1.00  0.00    -0.120 C  
HETATM   48  C   UNL     1      -9.266   6.507  72.455  1.00  0.00    -0.135 C  
HETATM   49  H1  UNL     1     -12.575   8.996  72.824  1.00  0.00     0.000 HD 
HETATM   50  H2  UNL     1     -12.557   9.455  71.212  1.00  0.00     0.000 HD 
HETATM   51  O   UNL     1      -8.447   6.161  73.574  1.00  0.00    -0.119 OA 
HETATM   52  C   UNL     1     -10.200   7.660  72.848  1.00  0.00    -0.298 C  
HETATM   53  H   UNL     1      -8.959   5.912  74.334  1.00  0.00     0.000 HD 
HETATM   54  O   UNL     1     -11.042   7.247  73.939  1.00  0.00    -0.497 OA 
HETATM   55  N   UNL     1     -11.985   9.187  72.014  1.00  0.00    -0.367 NA 
HETATM   56  C   UNL     1     -11.072   8.079  71.654  1.00  0.00    -0.252 C  
HETATM   57  H   UNL     1     -11.620   7.960  74.182  1.00  0.00     0.000 HD 
BRANCH  47  58
HETATM   58  C   UNL     1      -7.571   5.746  70.731  1.00  0.00    -0.092 C  
HETATM   59  O   UNL     1      -8.200   5.094  69.624  1.00  0.00    -0.090 OA 
HETATM   60  H   UNL     1      -7.662   4.375  69.316  1.00  0.00     0.000 HD 
ENDBRANCH  47  58
ENDBRANCH  44  45
ENDBRANCH  40  44
ENDBRANCH  29  30
ENDBRANCH  22  29
ENDBRANCH  18  19
ENDBRANCH   7  18
ENDBRANCH   2   5
TORSDOF 9
ENDMDL
MODEL      154
REMARK 921   NORMALIZED FREE ENERGY PREDICTED BY IDOCK:   -4.92 KCAL/MOL
REMARK 922        TOTAL FREE ENERGY PREDICTED BY IDOCK:   -9.55 KCAL/MOL
REMARK 923 INTER-LIGAND FREE ENERGY PREDICTED BY IDOCK:   -9.76 KCAL/MOL
REMARK 924 INTRA-LIGAND FREE ENERGY PREDICTED BY IDOCK:    0.22 KCAL/MOL
REMARK 927      BINDING AFFINITY PREDICTED BY RF-SCORE:    0.00 PKD
ROOT
HETATM    1  N   UNL     1      -5.872   9.813  72.452  1.00  0.00    -0.287 NA 
HETATM    2  C   UNL     1      -6.442   8.454  72.550  1.00  0.00    -0.087 C  
HETATM    3  H1  UNL     1      -5.180   9.953  73.188  1.00  0.00     0.000 HD 
HETATM    4  H2  UNL     1      -6.594  10.534  72.462  1.00  0.00     0.000 HD 
ENDROOT
BRANCH   2   5
HETATM    5  C   UNL     1      -7.484   8.243  71.439  1.00  0.00    -0.085 C  
HETATM    6  O   UNL     1      -8.040   9.534  71.129  1.00  0.00    -0.308 OA 
HETATM    7  C   UNL     1      -8.874   9.495  69.973  1.00  0.00    -0.223 C  
HETATM    8  C   UNL     1     -10.135   8.643  70.296  1.00  0.00    -0.187 C  
HETATM    9  O   UNL     1      -9.172   7.672  73.094  1.00  0.00    -0.170 OA 
HETATM   10  H   UNL     1      -9.865   7.070  73.340  1.00  0.00     0.000 HD 
HETATM   11  N   UNL     1     -10.952   9.287  71.367  1.00  0.00    -0.335 NA 
HETATM   12  C   UNL     1      -9.690   7.227  70.730  1.00  0.00    -0.171 C  
HETATM   13  H2  UNL     1     -11.197  10.248  71.127  1.00  0.00     0.000 HD 
HETATM   14  O   UNL     1      -9.242   6.459  69.604  1.00  0.00    -0.142 OA 
HETATM   15  C   UNL     1      -8.611   7.266  71.838  1.00  0.00    -0.114 C  
HETATM   16  H1  UNL     1     -11.778   8.728  71.578  1.00  0.00     0.000 HD 
HETATM   17  H   UNL     1      -8.969   5.589  69.871  1.00  0.00     0.000 HD 
BRANCH   7  18
HETATM   18  O   UNL     1      -9.295  10.809  69.596  1.00  0.00     0.002 OA 
BRANCH  18  19
HETATM   19  C   UNL     1     -10.505  10.834  68.817  1.00  0.00    -0.199 C  
HETATM   20  O   UNL     1     -11.610  12.048  70.669  1.00  0.00    -0.423 OA 
HETATM   21  C   UNL     1     -10.106  11.296  67.417  1.00  0.00    -0.188 C  
HETATM   22  C   UNL     1     -11.018  13.141  68.510  1.00  0.00    -0.263 C  
HETATM   23  H   UNL     1     -12.238  12.707  70.941  1.00  0.00     0.000 HD 
HETATM   24  O   UNL     1     -10.251  12.723  67.379  1.00  0.00    -0.219 OA 
HETATM   25  C   UNL     1     -11.509  11.888  69.252  1.00  0.00    -0.306 C  
BRANCH  21  26
HETATM   26  C   UNL     1     -10.962  10.696  66.300  1.00  0.00     0.053 C  
HETATM   27  H   UNL     1     -10.986  10.687  64.325  1.00  0.00     0.000 HD 
HETATM   28  O   UNL     1     -10.455  11.060  65.018  1.00  0.00    -0.290 OA 
ENDBRANCH  21  26
BRANCH  22  29
HETATM   29  O   UNL     1     -12.151  13.901  68.099  1.00  0.00    -0.365 OA 
BRANCH  29  30
HETATM   30  C   UNL     1     -12.035  14.726  66.924  1.00  0.00    -0.192 C  
HETATM   31  C   UNL     1     -11.980  13.848  65.658  1.00  0.00    -0.392 C  
HETATM   32  O   UNL     1     -13.016  12.857  65.695  1.00  0.00    -0.366 OA 
HETATM   33  C   UNL     1     -12.135  14.710  64.399  1.00  0.00    -0.462 C  
HETATM   34  C   UNL     1     -10.973  15.700  64.324  1.00  0.00     0.157 C  
HETATM   35  N   UNL     1     -12.180  13.872  63.185  1.00  0.00    -1.066 NA 
HETATM   36  H   UNL     1     -12.982  12.317  64.915  1.00  0.00     0.000 HD 
HETATM   37  H1  UNL     1     -12.283  14.444  62.348  1.00  0.00     0.000 HD 
HETATM   38  H2  UNL     1     -12.909  13.161  63.246  1.00  0.00     0.000 HD 
HETATM   39  C   UNL     1     -10.881  16.577  65.585  1.00  0.00    -0.160 C  
HETATM   40  C   UNL     1     -10.885  15.770  66.937  1.00  0.00    -0.265 C  
HETATM   41  N   UNL     1      -9.683  17.434  65.472  1.00  0.00    -0.353 NA 
HETATM   42  H2  UNL     1      -9.673  17.982  64.611  1.00  0.00     0.000 HD 
HETATM   43  H1  UNL     1      -9.622  18.015  66.307  1.00  0.00     0.000 HD 
BRANCH  40  44
HETATM   44  O   UNL     1     -10.981  16.749  67.998  1.00  0.00    -0.356 OA 
BRANCH  44  45
HETATM   45  C   UNL     1      -9.973  16.660  69.016  1.00  0.00    -0.280 C  
HETATM   46  O   UNL     1      -9.095  15.562  68.797  1.00  0.00    -0.182 OA 
HETATM   47  C   UNL     1      -8.250  15.672  67.652  1.00  0.00    -0.150 C  
HETATM   48  C   UNL     1      -7.356  16.908  67.783  1.00  0.00    -0.155 C  
HETATM   49  H1  UNL     1      -9.498  20.047  69.467  1.00  0.00     0.000 HD 
HETATM   50  H2  UNL     1     -10.647  19.045  70.164  1.00  0.00     0.000 HD 
HETATM   51  O   UNL     1      -6.508  17.090  66.647  1.00  0.00    -0.200 OA 
HETATM   52  C   UNL     1      -8.227  18.158  67.971  1.00  0.00    -0.260 C  
HETATM   53  H   UNL     1      -5.953  17.857  66.729  1.00  0.00     0.000 HD 
HETATM   54  O   UNL     1      -7.385  19.303  68.189  1.00  0.00    -0.262 OA 
HETATM   55  N   UNL     1     -10.022  19.178  69.368  1.00  0.00    -0.184 NA 
HETATM   56  C   UNL     1      -9.176  17.980  69.167  1.00  0.00     0.073 C  
HETATM   57  H   UNL     1      -7.924  20.077  68.305  1.00  0.00     0.000 HD 
BRANCH  47  58
HETATM   58  C   UNL     1      -7.422  14.382  67.574  1.00  0.00    -0.186 C  
HETATM   59  O   UNL     1      -7.689  13.552  68.707  1.00  0.00    -0.213 OA 
HETATM   60  H   UNL     1      -7.177  12.753  68.659  1.00  0.00     0.000 HD 
ENDBRANCH  47  58
ENDBRANCH  44  45
ENDBRANCH  40  44
ENDBRANCH  29  30
ENDBRANCH  22  29
ENDBRANCH  18  19
ENDBRANCH   7  18
ENDBRANCH   2   5
TORSDOF 9
ENDMDL
MODEL      155
REMARK 921   NORMALIZED FREE ENERGY PREDICTED BY IDOCK:   -4.91 KCAL/MOL
REMARK 922        TOTAL FREE ENERGY PREDICTED BY IDOCK:   -9.53 KCAL/MOL
REMARK 923 INTER-LIGAND FREE ENERGY PREDICTED BY IDOCK:   -7.34 KCAL/MOL
REMARK 924 INTRA-LIGAND FREE ENERGY PREDICTED BY IDOCK:   -2.19 KCAL/MOL
REMARK 927      BINDING AFFINITY PREDICTED BY RF-SCORE:    0.00 PKD
ROOT
HETATM    1  N   UNL     1      -6.651   8.524  71.382  1.00  0.00    -0.060 NA 
HETATM    2  C   UNL     1      -5.866   7.282  71.537  1.00  0.00    -0.036 C  
HETATM    3  H1  UNL     1      -6.066   9.256  70.978  1.00  0.00     0.000 HD 
HETATM    4  H2  UNL     1      -7.081   8.818  72.260  1.00  0.00     0.000 HD 
ENDROOT
BRANCH   2   5
HETATM    5  C   UNL     1      -6.748   6.179  72.145  1.00  0.00    -0.068 C  
HETATM    6  O   UNL     1      -8.118   6.568  71.935  1.00  0.00    -0.104 OA 
HETATM    7  C   UNL     1      -9.030   5.527  72.278  1.00  0.00    -0.139 C  
HETATM    8  C   UNL     1      -8.967   5.294  73.815  1.00  0.00    -0.123 C  
HETATM    9  O   UNL     1      -6.564   7.206  74.342  1.00  0.00    -0.085 OA 
HETATM   10  H   UNL     1      -6.405   7.066  75.268  1.00  0.00     0.000 HD 
HETATM   11  N   UNL     1      -9.433   6.505  74.555  1.00  0.00    -0.237 NA 
HETATM   12  C   UNL     1      -7.515   4.939  74.213  1.00  0.00    -0.086 C  
HETATM   13  H2  UNL     1     -10.364   6.795  74.256  1.00  0.00     0.000 HD 
HETATM   14  O   UNL     1      -7.185   3.600  73.819  1.00  0.00    -0.053 OA 
HETATM   15  C   UNL     1      -6.490   5.952  73.650  1.00  0.00    -0.073 C  
HETATM   16  H1  UNL     1      -9.391   6.352  75.563  1.00  0.00     0.000 HD 
HETATM   17  H   UNL     1      -6.293   3.382  74.064  1.00  0.00     0.000 HD 
BRANCH   7  18
HETATM   18  O   UNL     1     -10.371   5.878  71.924  1.00  0.00    -0.199 OA 
BRANCH  18  19
HETATM   19  C   UNL     1     -10.806   5.329  70.667  1.00  0.00    -0.048 C  
HETATM   20  O   UNL     1     -12.171   7.364  70.312  1.00  0.00    -0.526 OA 
HETATM   21  C   UNL     1      -9.550   4.832  69.955  1.00  0.00    -0.190 C  
HETATM   22  C   UNL     1     -10.099   6.891  69.010  1.00  0.00    -0.170 C  
HETATM   23  H   UNL     1     -12.522   8.005  69.704  1.00  0.00     0.000 HD 
HETATM   24  O   UNL     1      -9.072   5.905  69.130  1.00  0.00    -0.121 OA 
HETATM   25  C   UNL     1     -11.367   6.355  69.696  1.00  0.00    -0.412 C  
BRANCH  21  26
HETATM   26  C   UNL     1      -9.785   3.609  69.067  1.00  0.00     0.008 C  
HETATM   27  H   UNL     1      -9.563   3.124  67.165  1.00  0.00     0.000 HD 
HETATM   28  O   UNL     1      -9.417   3.883  67.717  1.00  0.00    -0.174 OA 
ENDBRANCH  21  26
BRANCH  22  29
HETATM   29  O   UNL     1     -10.396   7.147  67.641  1.00  0.00    -0.180 OA 
BRANCH  29  30
HETATM   30  C   UNL     1      -9.390   7.782  66.828  1.00  0.00    -0.180 C  
HETATM   31  C   UNL     1      -8.505   6.720  66.145  1.00  0.00    -0.135 C  
HETATM   32  O   UNL     1      -9.321   5.702  65.549  1.00  0.00    -0.334 OA 
HETATM   33  C   UNL     1      -7.620   7.366  65.073  1.00  0.00    -0.103 C  
HETATM   34  C   UNL     1      -6.691   8.383  65.737  1.00  0.00    -0.053 C  
HETATM   35  N   UNL     1      -6.837   6.347  64.347  1.00  0.00    -0.041 NA 
HETATM   36  H   UNL     1      -8.776   5.049  65.128  1.00  0.00     0.000 HD 
HETATM   37  H1  UNL     1      -6.248   6.776  63.635  1.00  0.00     0.000 HD 
HETATM   38  H2  UNL     1      -7.438   5.624  63.953  1.00  0.00     0.000 HD 
HETATM   39  C   UNL     1      -7.472   9.449  66.524  1.00  0.00    -0.093 C  
HETATM   40  C   UNL     1      -8.529   8.865  67.534  1.00  0.00    -0.116 C  
HETATM   41  N   UNL     1      -6.502  10.330  67.207  1.00  0.00    -0.066 NA 
HETATM   42  H2  UNL     1      -5.822  10.737  66.565  1.00  0.00     0.000 HD 
HETATM   43  H1  UNL     1      -7.020  11.037  67.728  1.00  0.00     0.000 HD 
BRANCH  40  44
HETATM   44  O   UNL     1      -9.284   9.993  68.036  1.00  0.00    -0.134 OA 
BRANCH  44  45
HETATM   45  C   UNL     1     -10.630  10.101  67.553  1.00  0.00    -0.273 C  
HETATM   46  O   UNL     1     -11.581  10.009  68.608  1.00  0.00    -0.053 OA 
HETATM   47  C   UNL     1     -11.582  11.100  69.527  1.00  0.00    -0.321 C  
HETATM   48  C   UNL     1     -11.898  12.403  68.788  1.00  0.00    -0.311 C  
HETATM   49  H1  UNL     1     -10.028  12.427  65.076  1.00  0.00     0.000 HD 
HETATM   50  H2  UNL     1      -9.872  10.759  65.012  1.00  0.00     0.000 HD 
HETATM   51  O   UNL     1     -11.881  13.539  69.654  1.00  0.00    -0.300 OA 
HETATM   52  C   UNL     1     -10.883  12.613  67.656  1.00  0.00    -0.221 C  
HETATM   53  H   UNL     1     -12.078  14.347  69.195  1.00  0.00     0.000 HD 
HETATM   54  O   UNL     1     -11.238  13.786  66.904  1.00  0.00    -0.300 OA 
HETATM   55  N   UNL     1      -9.882  11.577  65.622  1.00  0.00    -0.228 NA 
HETATM   56  C   UNL     1     -10.852  11.391  66.724  1.00  0.00    -0.286 C  
HETATM   57  H   UNL     1     -10.609  13.916  66.203  1.00  0.00     0.000 HD 
BRANCH  47  58
HETATM   58  C   UNL     1     -12.637  10.789  70.598  1.00  0.00    -0.357 C  
HETATM   59  O   UNL     1     -12.036  10.111  71.705  1.00  0.00    -0.361 OA 
HETATM   60  H   UNL     1     -12.688   9.918  72.367  1.00  0.00     0.000 HD 
ENDBRANCH  47  58
ENDBRANCH  44  45
ENDBRANCH  40  44
ENDBRANCH  29  30
ENDBRANCH  22  29
ENDBRANCH  18  19
ENDBRANCH   7  18
ENDBRANCH   2   5
TORSDOF 9
ENDMDL
MODEL      156
REMARK 921   NORMALIZED FREE ENERGY PREDICTED BY IDOCK:   -4.87 KCAL/MOL
REMARK 922        TOTAL FREE ENERGY PREDICTED BY IDOCK:   -9.47 KCAL/MOL
REMARK 923 INTER-LIGAND FREE ENERGY PREDICTED BY IDOCK:   -7.23 KCAL/MOL
REMARK 924 INTRA-LIGAND FREE ENERGY PREDICTED BY IDOCK:   -2.24 KCAL/MOL
REMARK 927      BINDING AFFINITY PREDICTED BY RF-SCORE:    0.00 PKD
ROOT
HETATM    1  N   UNL     1     -11.661  16.167  70.481  1.00  0.00    -0.470 NA 
HETATM    2  C   UNL     1     -10.774  17.190  69.891  1.00  0.00     0.242 C  
HETATM    3  H1  UNL     1     -11.826  16.377  71.466  1.00  0.00     0.000 HD 
HETATM    4  H2  UNL     1     -11.301  15.223  70.345  1.00  0.00     0.000 HD 
ENDROOT
BRANCH   2   5
HETATM    5  C   UNL     1     -10.527  16.875  68.407  1.00  0.00    -0.355 C  
HETATM    6  O   UNL     1      -9.722  15.683  68.355  1.00  0.00    -0.198 OA 
HETATM    7  C   UNL     1      -9.596  15.178  67.027  1.00  0.00    -0.226 C  
HETATM    8  C   UNL     1      -8.769  16.192  66.184  1.00  0.00    -0.323 C  
HETATM    9  O   UNL     1      -8.643  18.412  68.366  1.00  0.00    -0.310 OA 
HETATM   10  H   UNL     1      -8.209  19.117  67.899  1.00  0.00     0.000 HD 
HETATM   11  N   UNL     1      -7.377  16.309  66.710  1.00  0.00    -0.223 NA 
HETATM   12  C   UNL     1      -9.478  17.566  66.210  1.00  0.00    -0.219 C  
HETATM   13  H2  UNL     1      -6.917  15.401  66.765  1.00  0.00     0.000 HD 
HETATM   14  O   UNL     1     -10.647  17.560  65.380  1.00  0.00    -0.648 OA 
HETATM   15  C   UNL     1      -9.822  18.020  67.649  1.00  0.00    -0.305 C  
HETATM   16  H1  UNL     1      -6.836  16.974  66.158  1.00  0.00     0.000 HD 
HETATM   17  H   UNL     1     -11.082  18.404  65.396  1.00  0.00     0.000 HD 
BRANCH   7  18
HETATM   18  O   UNL     1      -8.920  13.917  67.017  1.00  0.00    -0.227 OA 
BRANCH  18  19
HETATM   19  C   UNL     1      -8.551  13.440  68.323  1.00  0.00    -0.169 C  
HETATM   20  O   UNL     1     -10.502  11.918  68.262  1.00  0.00    -0.192 OA 
HETATM   21  C   UNL     1      -7.053  13.148  68.268  1.00  0.00    -0.105 C  
HETATM   22  C   UNL     1      -8.156  11.105  68.061  1.00  0.00    -0.123 C  
HETATM   23  H   UNL     1     -10.877  11.076  68.493  1.00  0.00     0.000 HD 
HETATM   24  O   UNL     1      -6.900  11.768  67.905  1.00  0.00    -0.068 OA 
HETATM   25  C   UNL     1      -9.150  12.093  68.692  1.00  0.00    -0.002 C  
BRANCH  21  26
HETATM   26  C   UNL     1      -6.327  13.380  69.594  1.00  0.00    -0.093 C  
HETATM   27  H   UNL     1      -4.804  12.600  70.579  1.00  0.00     0.000 HD 
HETATM   28  O   UNL     1      -5.254  12.456  69.756  1.00  0.00    -0.072 OA 
ENDBRANCH  21  26
BRANCH  22  29
HETATM   29  O   UNL     1      -8.028   9.977  68.922  1.00  0.00    -0.089 OA 
BRANCH  29  30
HETATM   30  C   UNL     1      -9.101   9.017  68.960  1.00  0.00    -0.143 C  
HETATM   31  C   UNL     1      -9.429   8.638  70.418  1.00  0.00    -0.170 C  
HETATM   32  O   UNL     1      -9.542   9.819  71.225  1.00  0.00    -0.270 OA 
HETATM   33  C   UNL     1     -10.736   7.840  70.486  1.00  0.00    -0.236 C  
HETATM   34  C   UNL     1     -10.570   6.540  69.698  1.00  0.00    -0.291 C  
HETATM   35  N   UNL     1     -11.110   7.553  71.884  1.00  0.00    -0.234 NA 
HETATM   36  H   UNL     1      -9.744   9.586  72.123  1.00  0.00     0.000 HD 
HETATM   37  H1  UNL     1     -11.979   7.022  71.930  1.00  0.00     0.000 HD 
HETATM   38  H2  UNL     1     -11.162   8.405  72.441  1.00  0.00     0.000 HD 
HETATM   39  C   UNL     1     -10.156   6.799  68.239  1.00  0.00    -0.161 C  
HETATM   40  C   UNL     1      -8.913   7.753  68.077  1.00  0.00    -0.126 C  
HETATM   41  N   UNL     1      -9.926   5.497  67.580  1.00  0.00    -0.148 NA 
HETATM   42  H2  UNL     1     -10.730   4.873  67.655  1.00  0.00     0.000 HD 
HETATM   43  H1  UNL     1      -9.653   5.669  66.613  1.00  0.00     0.000 HD 
BRANCH  40  44
HETATM   44  O   UNL     1      -8.789   8.027  66.662  1.00  0.00    -0.132 OA 
BRANCH  44  45
HETATM   45  C   UNL     1      -7.478   7.844  66.109  1.00  0.00    -0.079 C  
HETATM   46  O   UNL     1      -7.160   6.466  65.944  1.00  0.00    -0.063 OA 
HETATM   47  C   UNL     1      -7.921   5.777  64.954  1.00  0.00    -0.123 C  
HETATM   48  C   UNL     1      -7.704   6.427  63.585  1.00  0.00    -0.114 C  
HETATM   49  H1  UNL     1      -7.511  10.560  63.981  1.00  0.00     0.000 HD 
HETATM   50  H2  UNL     1      -7.107  10.503  65.606  1.00  0.00     0.000 HD 
HETATM   51  O   UNL     1      -8.469   5.797  62.555  1.00  0.00    -0.173 OA 
HETATM   52  C   UNL     1      -8.075   7.914  63.655  1.00  0.00    -0.074 C  
HETATM   53  H   UNL     1      -8.334   6.200  61.706  1.00  0.00     0.000 HD 
HETATM   54  O   UNL     1      -7.780   8.543  62.395  1.00  0.00    -0.116 OA 
HETATM   55  N   UNL     1      -7.633  10.053  64.857  1.00  0.00    -0.136 NA 
HETATM   56  C   UNL     1      -7.293   8.614  64.777  1.00  0.00    -0.091 C  
HETATM   57  H   UNL     1      -8.010   9.464  62.438  1.00  0.00     0.000 HD 
BRANCH  47  58
HETATM   58  C   UNL     1      -7.459   4.313  64.964  1.00  0.00    -0.073 C  
HETATM   59  O   UNL     1      -8.379   3.507  65.704  1.00  0.00    -0.103 OA 
HETATM   60  H   UNL     1      -8.093   2.602  65.711  1.00  0.00     0.000 HD 
ENDBRANCH  47  58
ENDBRANCH  44  45
ENDBRANCH  40  44
ENDBRANCH  29  30
ENDBRANCH  22  29
ENDBRANCH  18  19
ENDBRANCH   7  18
ENDBRANCH   2   5
TORSDOF 9
ENDMDL
MODEL      157
REMARK 921   NORMALIZED FREE ENERGY PREDICTED BY IDOCK:   -4.82 KCAL/MOL
REMARK 922        TOTAL FREE ENERGY PREDICTED BY IDOCK:   -9.40 KCAL/MOL
REMARK 923 INTER-LIGAND FREE ENERGY PREDICTED BY IDOCK:   -8.55 KCAL/MOL
REMARK 924 INTRA-LIGAND FREE ENERGY PREDICTED BY IDOCK:   -0.85 KCAL/MOL
REMARK 927      BINDING AFFINITY PREDICTED BY RF-SCORE:    0.00 PKD
ROOT
HETATM    1  N   UNL     1     -11.972  11.842  64.132  1.00  0.00    -0.334 NA 
HETATM    2  C   UNL     1     -10.514  11.617  64.063  1.00  0.00    -0.367 C  
HETATM    3  H1  UNL     1     -12.397  11.642  63.227  1.00  0.00     0.000 HD 
HETATM    4  H2  UNL     1     -12.199  12.780  64.463  1.00  0.00     0.000 HD 
ENDROOT
BRANCH   2   5
HETATM    5  C   UNL     1      -9.873  11.919  65.428  1.00  0.00    -0.233 C  
HETATM    6  O   UNL     1     -10.608  11.172  66.415  1.00  0.00    -0.252 OA 
HETATM    7  C   UNL     1      -9.981  11.214  67.695  1.00  0.00    -0.174 C  
HETATM    8  C   UNL     1     -10.051  12.671  68.238  1.00  0.00    -0.233 C  
HETATM    9  O   UNL     1     -11.211  13.938  65.640  1.00  0.00    -0.301 OA 
HETATM   10  H   UNL     1     -11.217  14.862  65.861  1.00  0.00     0.000 HD 
HETATM   11  N   UNL     1     -11.467  13.087  68.464  1.00  0.00    -0.281 NA 
HETATM   12  C   UNL     1      -9.360  13.619  67.230  1.00  0.00    -0.233 C  
HETATM   13  H2  UNL     1     -11.960  12.433  69.073  1.00  0.00     0.000 HD 
HETATM   14  O   UNL     1      -7.934  13.480  67.285  1.00  0.00    -0.236 OA 
HETATM   15  C   UNL     1      -9.882  13.420  65.787  1.00  0.00    -0.198 C  
HETATM   16  H1  UNL     1     -11.513  14.042  68.819  1.00  0.00     0.000 HD 
HETATM   17  H   UNL     1      -7.510  14.062  66.666  1.00  0.00     0.000 HD 
BRANCH   7  18
HETATM   18  O   UNL     1     -10.643  10.349  68.622  1.00  0.00    -0.186 OA 
BRANCH  18  19
HETATM   19  C   UNL     1      -9.937  10.173  69.864  1.00  0.00    -0.203 C  
HETATM   20  O   UNL     1     -11.974   9.137  70.815  1.00  0.00    -0.379 OA 
HETATM   21  C   UNL     1      -8.582   9.567  69.506  1.00  0.00    -0.169 C  
HETATM   22  C   UNL     1      -9.930   7.823  70.265  1.00  0.00    -0.189 C  
HETATM   23  H   UNL     1     -12.354   8.486  71.393  1.00  0.00     0.000 HD 
HETATM   24  O   UNL     1      -8.719   8.139  69.575  1.00  0.00    -0.139 OA 
HETATM   25  C   UNL     1     -10.545   9.131  70.788  1.00  0.00    -0.260 C  
BRANCH  21  26
HETATM   26  C   UNL     1      -7.448   9.986  70.444  1.00  0.00    -0.050 C  
HETATM   27  H   UNL     1      -6.846   9.575  72.279  1.00  0.00     0.000 HD 
HETATM   28  O   UNL     1      -7.549   9.314  71.697  1.00  0.00    -0.338 OA 
ENDBRANCH  21  26
BRANCH  22  29
HETATM   29  O   UNL     1      -9.671   6.966  71.373  1.00  0.00    -0.174 OA 
BRANCH  29  30
HETATM   30  C   UNL     1      -9.966   5.562  71.239  1.00  0.00    -0.192 C  
HETATM   31  C   UNL     1     -10.038   4.896  72.627  1.00  0.00    -0.174 C  
HETATM   32  O   UNL     1     -10.847   5.681  73.514  1.00  0.00    -0.267 OA 
HETATM   33  C   UNL     1     -10.618   3.481  72.515  1.00  0.00    -0.001 C  
HETATM   34  C   UNL     1      -9.696   2.630  71.642  1.00  0.00    -0.226 C  
HETATM   35  N   UNL     1     -10.780   2.868  73.848  1.00  0.00    -0.183 NA 
HETATM   36  H   UNL     1     -10.891   5.270  74.369  1.00  0.00     0.000 HD 
HETATM   37  H1  UNL     1     -11.166   1.927  73.774  1.00  0.00     0.000 HD 
HETATM   38  H2  UNL     1     -11.340   3.456  74.466  1.00  0.00     0.000 HD 
HETATM   39  C   UNL     1      -9.485   3.251  70.251  1.00  0.00    -0.164 C  
HETATM   40  C   UNL     1      -9.046   4.764  70.276  1.00  0.00    -0.115 C  
HETATM   41  N   UNL     1      -8.513   2.420  69.510  1.00  0.00    -0.049 NA 
HETATM   42  H2  UNL     1      -8.791   1.439  69.464  1.00  0.00     0.000 HD 
HETATM   43  H1  UNL     1      -8.373   2.832  68.588  1.00  0.00     0.000 HD 
BRANCH  40  44
HETATM   44  O   UNL     1      -9.077   5.222  68.904  1.00  0.00    -0.108 OA 
BRANCH  44  45
HETATM   45  C   UNL     1      -8.131   4.602  68.022  1.00  0.00    -0.088 C  
HETATM   46  O   UNL     1      -8.750   4.115  66.837  1.00  0.00    -0.110 OA 
HETATM   47  C   UNL     1      -9.257   5.117  65.956  1.00  0.00    -0.155 C  
HETATM   48  C   UNL     1      -8.117   6.027  65.493  1.00  0.00    -0.133 C  
HETATM   49  H1  UNL     1      -5.490   6.737  68.634  1.00  0.00     0.000 HD 
HETATM   50  H2  UNL     1      -5.962   5.376  69.492  1.00  0.00     0.000 HD 
HETATM   51  O   UNL     1      -8.571   7.073  64.631  1.00  0.00    -0.347 OA 
HETATM   52  C   UNL     1      -7.420   6.643  66.713  1.00  0.00    -0.079 C  
HETATM   53  H   UNL     1      -7.864   7.637  64.343  1.00  0.00     0.000 HD 
HETATM   54  O   UNL     1      -6.290   7.421  66.280  1.00  0.00    -0.040 OA 
HETATM   55  N   UNL     1      -6.268   6.117  68.860  1.00  0.00    -0.034 NA 
HETATM   56  C   UNL     1      -6.949   5.543  67.678  1.00  0.00    -0.066 C  
HETATM   57  H   UNL     1      -5.859   7.803  67.035  1.00  0.00     0.000 HD 
BRANCH  47  58
HETATM   58  C   UNL     1      -9.915   4.390  64.775  1.00  0.00    -0.091 C  
HETATM   59  O   UNL     1     -11.324   4.266  64.991  1.00  0.00    -0.996 OA 
HETATM   60  H   UNL     1     -11.731   3.816  64.261  1.00  0.00     0.000 HD 
ENDBRANCH  47  58
ENDBRANCH  44  45
ENDBRANCH  40  44
ENDBRANCH  29  30
ENDBRANCH  22  29
ENDBRANCH  18  19
ENDBRANCH   7  18
ENDBRANCH   2   5
TORSDOF 9
ENDMDL
MODEL      158
REMARK 921   NORMALIZED FREE ENERGY PREDICTED BY IDOCK:   -4.82 KCAL/MOL
REMARK 922        TOTAL FREE ENERGY PREDICTED BY IDOCK:   -9.39 KCAL/MOL
REMARK 923 INTER-LIGAND FREE ENERGY PREDICTED BY IDOCK:   -7.73 KCAL/MOL
REMARK 924 INTRA-LIGAND FREE ENERGY PREDICTED BY IDOCK:   -1.67 KCAL/MOL
REMARK 927      BINDING AFFINITY PREDICTED BY RF-SCORE:    0.00 PKD
ROOT
HETATM    1  N   UNL     1     -14.050   8.547  71.782  1.00  0.00    -0.426 NA 
HETATM    2  C   UNL     1     -13.069   7.489  72.098  1.00  0.00    -0.054 C  
HETATM    3  H1  UNL     1     -14.950   8.323  72.206  1.00  0.00     0.000 HD 
HETATM    4  H2  UNL     1     -14.129   8.708  70.777  1.00  0.00     0.000 HD 
ENDROOT
BRANCH   2   5
HETATM    5  C   UNL     1     -11.712   7.826  71.459  1.00  0.00    -0.280 C  
HETATM    6  O   UNL     1     -11.306   6.675  70.695  1.00  0.00    -0.299 OA 
HETATM    7  C   UNL     1     -10.158   6.942  69.893  1.00  0.00    -0.188 C  
HETATM    8  C   UNL     1      -8.939   7.185  70.830  1.00  0.00    -0.151 C  
HETATM    9  O   UNL     1     -10.557   7.158  73.492  1.00  0.00    -0.353 OA 
HETATM   10  H   UNL     1      -9.887   7.379  74.128  1.00  0.00     0.000 HD 
HETATM   11  N   UNL     1      -8.615   5.954  71.610  1.00  0.00    -0.131 NA 
HETATM   12  C   UNL     1      -9.260   8.362  71.781  1.00  0.00    -0.220 C  
HETATM   13  H2  UNL     1      -8.467   5.149  71.001  1.00  0.00     0.000 HD 
HETATM   14  O   UNL     1      -9.201   9.616  71.088  1.00  0.00    -0.333 OA 
HETATM   15  C   UNL     1     -10.623   8.184  72.492  1.00  0.00    -0.340 C  
HETATM   16  H1  UNL     1      -7.817   6.113  72.225  1.00  0.00     0.000 HD 
HETATM   17  H   UNL     1      -9.399  10.339  71.672  1.00  0.00     0.000 HD 
BRANCH   7  18
HETATM   18  O   UNL     1      -9.860   5.837  69.034  1.00  0.00    -0.141 OA 
BRANCH  18  19
HETATM   19  C   UNL     1     -10.515   5.898  67.755  1.00  0.00    -0.238 C  
HETATM   20  O   UNL     1     -11.041   8.276  68.195  1.00  0.00    -0.439 OA 
HETATM   21  C   UNL     1      -9.561   5.255  66.751  1.00  0.00    -0.148 C  
HETATM   22  C   UNL     1      -9.343   7.564  66.516  1.00  0.00    -0.181 C  
HETATM   23  H   UNL     1     -11.152   9.155  67.852  1.00  0.00     0.000 HD 
HETATM   24  O   UNL     1      -8.751   6.303  66.198  1.00  0.00    -0.136 OA 
HETATM   25  C   UNL     1     -10.692   7.304  67.207  1.00  0.00    -0.321 C  
BRANCH  21  26
HETATM   26  C   UNL     1     -10.265   4.533  65.601  1.00  0.00    -0.253 C  
HETATM   27  H   UNL     1      -9.821   3.909  63.780  1.00  0.00     0.000 HD 
HETATM   28  O   UNL     1      -9.383   4.357  64.494  1.00  0.00    -0.154 OA 
ENDBRANCH  21  26
BRANCH  22  29
HETATM   29  O   UNL     1      -9.575   8.325  65.335  1.00  0.00     0.221 OA 
BRANCH  29  30
HETATM   30  C   UNL     1      -8.444   8.913  64.664  1.00  0.00    -0.168 C  
HETATM   31  C   UNL     1      -7.580   7.817  64.011  1.00  0.00    -0.113 C  
HETATM   32  O   UNL     1      -8.407   6.903  63.278  1.00  0.00    -0.330 OA 
HETATM   33  C   UNL     1      -6.540   8.439  63.072  1.00  0.00    -0.086 C  
HETATM   34  C   UNL     1      -5.608   9.339  63.883  1.00  0.00    -0.070 C  
HETATM   35  N   UNL     1      -5.770   7.396  62.368  1.00  0.00    -0.049 NA 
HETATM   36  H   UNL     1      -7.875   6.228  62.875  1.00  0.00     0.000 HD 
HETATM   37  H1  UNL     1      -5.078   7.809  61.743  1.00  0.00     0.000 HD 
HETATM   38  H2  UNL     1      -6.381   6.747  61.873  1.00  0.00     0.000 HD 
HETATM   39  C   UNL     1      -6.380  10.426  64.650  1.00  0.00    -0.066 C  
HETATM   40  C   UNL     1      -7.578   9.882  65.515  1.00  0.00    -0.125 C  
HETATM   41  N   UNL     1      -5.419  11.186  65.477  1.00  0.00    -0.436 NA 
HETATM   42  H2  UNL     1      -4.646  11.566  64.930  1.00  0.00     0.000 HD 
HETATM   43  H1  UNL     1      -5.931  11.907  65.985  1.00  0.00     0.000 HD 
BRANCH  40  44
HETATM   44  O   UNL     1      -8.289  11.043  66.005  1.00  0.00    -0.168 OA 
BRANCH  44  45
HETATM   45  C   UNL     1      -8.928  10.885  67.280  1.00  0.00    -0.137 C  
HETATM   46  O   UNL     1      -7.986  10.632  68.317  1.00  0.00    -0.107 OA 
HETATM   47  C   UNL     1      -7.117  11.719  68.633  1.00  0.00    -0.101 C  
HETATM   48  C   UNL     1      -7.940  12.925  69.095  1.00  0.00     0.459 C  
HETATM   49  H1  UNL     1     -11.410  13.239  66.828  1.00  0.00     0.000 HD 
HETATM   50  H2  UNL     1     -11.389  11.630  66.357  1.00  0.00     0.000 HD 
HETATM   51  O   UNL     1      -7.123  14.059  69.395  1.00  0.00    -0.228 OA 
HETATM   52  C   UNL     1      -8.955  13.305  68.007  1.00  0.00    -0.191 C  
HETATM   53  H   UNL     1      -7.634  14.807  69.682  1.00  0.00     0.000 HD 
HETATM   54  O   UNL     1      -9.790  14.376  68.482  1.00  0.00    -0.223 OA 
HETATM   55  N   UNL     1     -10.818  12.443  66.593  1.00  0.00    -0.239 NA 
HETATM   56  C   UNL     1      -9.827  12.095  67.638  1.00  0.00    -0.194 C  
HETATM   57  H   UNL     1     -10.418  14.611  67.809  1.00  0.00     0.000 HD 
BRANCH  47  58
HETATM   58  C   UNL     1      -6.163  11.232  69.732  1.00  0.00    -0.124 C  
HETATM   59  O   UNL     1      -6.307  12.037  70.906  1.00  0.00    -0.463 OA 
HETATM   60  H   UNL     1      -5.717  11.735  71.586  1.00  0.00     0.000 HD 
ENDBRANCH  47  58
ENDBRANCH  44  45
ENDBRANCH  40  44
ENDBRANCH  29  30
ENDBRANCH  22  29
ENDBRANCH  18  19
ENDBRANCH   7  18
ENDBRANCH   2   5
TORSDOF 9
ENDMDL
MODEL      159
REMARK 921   NORMALIZED FREE ENERGY PREDICTED BY IDOCK:   -4.78 KCAL/MOL
REMARK 922        TOTAL FREE ENERGY PREDICTED BY IDOCK:   -9.34 KCAL/MOL
REMARK 923 INTER-LIGAND FREE ENERGY PREDICTED BY IDOCK:   -8.69 KCAL/MOL
REMARK 924 INTRA-LIGAND FREE ENERGY PREDICTED BY IDOCK:   -0.66 KCAL/MOL
REMARK 927      BINDING AFFINITY PREDICTED BY RF-SCORE:    0.00 PKD
ROOT
HETATM    1  N   UNL     1      -6.096  20.028  71.036  1.00  0.00    -0.327 NA 
HETATM    2  C   UNL     1      -6.042  19.820  69.575  1.00  0.00    -0.311 C  
HETATM    3  H1  UNL     1      -5.238  20.480  71.353  1.00  0.00     0.000 HD 
HETATM    4  H2  UNL     1      -6.281  19.161  71.540  1.00  0.00     0.000 HD 
ENDROOT
BRANCH   2   5
HETATM    5  C   UNL     1      -7.335  19.139  69.096  1.00  0.00    -0.286 C  
HETATM    6  O   UNL     1      -6.959  17.876  68.516  1.00  0.00    -0.221 OA 
HETATM    7  C   UNL     1      -8.093  17.064  68.218  1.00  0.00    -0.228 C  
HETATM    8  C   UNL     1      -8.906  17.742  67.077  1.00  0.00    -0.252 C  
HETATM    9  O   UNL     1      -7.243  20.375  67.004  1.00  0.00    -0.267 OA 
HETATM   10  H   UNL     1      -7.727  20.892  66.371  1.00  0.00     0.000 HD 
HETATM   11  N   UNL     1      -8.106  17.803  65.819  1.00  0.00    -0.531 NA 
HETATM   12  C   UNL     1      -9.320  19.163  67.527  1.00  0.00    -0.303 C  
HETATM   13  H2  UNL     1      -7.765  16.882  65.543  1.00  0.00     0.000 HD 
HETATM   14  O   UNL     1     -10.381  19.110  68.491  1.00  0.00    -0.415 OA 
HETATM   15  C   UNL     1      -8.121  19.979  68.067  1.00  0.00    -0.235 C  
HETATM   16  H1  UNL     1      -8.639  18.248  65.071  1.00  0.00     0.000 HD 
HETATM   17  H   UNL     1     -10.635  19.983  68.768  1.00  0.00     0.000 HD 
BRANCH   7  18
HETATM   18  O   UNL     1      -7.695  15.761  67.783  1.00  0.00    -0.130 OA 
BRANCH  18  19
HETATM   19  C   UNL     1      -7.399  14.851  68.858  1.00  0.00    -0.136 C  
HETATM   20  O   UNL     1      -9.352  13.492  68.176  1.00  0.00    -0.203 OA 
HETATM   21  C   UNL     1      -5.901  14.561  68.776  1.00  0.00    -0.085 C  
HETATM   22  C   UNL     1      -7.002  12.744  67.817  1.00  0.00    -0.131 C  
HETATM   23  H   UNL     1      -9.742  12.631  68.080  1.00  0.00     0.000 HD 
HETATM   24  O   UNL     1      -5.736  13.390  67.962  1.00  0.00    -0.099 OA 
HETATM   25  C   UNL     1      -8.023  13.475  68.704  1.00  0.00    -0.073 C  
BRANCH  21  26
HETATM   26  C   UNL     1      -5.246  14.301  70.133  1.00  0.00    -0.092 C  
HETATM   27  H   UNL     1      -5.715  14.498  72.041  1.00  0.00     0.000 HD 
HETATM   28  O   UNL     1      -6.122  14.660  71.199  1.00  0.00    -0.097 OA 
ENDBRANCH  21  26
BRANCH  22  29
HETATM   29  O   UNL     1      -6.925  11.385  68.236  1.00  0.00    -0.066 OA 
BRANCH  29  30
HETATM   30  C   UNL     1      -6.975  10.353  67.232  1.00  0.00    -0.086 C  
HETATM   31  C   UNL     1      -6.448  10.890  65.886  1.00  0.00    -0.056 C  
HETATM   32  O   UNL     1      -5.213  11.594  66.081  1.00  0.00    -0.363 OA 
HETATM   33  C   UNL     1      -6.237   9.742  64.893  1.00  0.00    -0.096 C  
HETATM   34  C   UNL     1      -7.578   9.059  64.624  1.00  0.00    -0.107 C  
HETATM   35  N   UNL     1      -5.643  10.232  63.634  1.00  0.00    -0.129 NA 
HETATM   36  H   UNL     1      -4.889  11.925  65.252  1.00  0.00     0.000 HD 
HETATM   37  H1  UNL     1      -5.503   9.468  62.973  1.00  0.00     0.000 HD 
HETATM   38  H2  UNL     1      -4.780  10.747  63.802  1.00  0.00     0.000 HD 
HETATM   39  C   UNL     1      -8.238   8.555  65.919  1.00  0.00    -0.125 C  
HETATM   40  C   UNL     1      -8.343   9.638  67.058  1.00  0.00    -0.117 C  
HETATM   41  N   UNL     1      -9.564   7.998  65.582  1.00  0.00    -0.356 NA 
HETATM   42  H2  UNL     1      -9.515   7.278  64.861  1.00  0.00     0.000 HD 
HETATM   43  H1  UNL     1     -10.001   7.664  66.440  1.00  0.00     0.000 HD 
BRANCH  40  44
HETATM   44  O   UNL     1      -8.808   8.947  68.240  1.00  0.00    -0.133 OA 
BRANCH  44  45
HETATM   45  C   UNL     1     -10.218   8.687  68.290  1.00  0.00    -0.198 C  
HETATM   46  O   UNL     1     -10.516   7.523  69.053  1.00  0.00    -0.210 OA 
HETATM   47  C   UNL     1     -10.255   7.626  70.452  1.00  0.00    -0.203 C  
HETATM   48  C   UNL     1     -11.097   8.753  71.056  1.00  0.00    -0.270 C  
HETATM   49  H1  UNL     1     -11.271  11.970  68.430  1.00  0.00     0.000 HD 
HETATM   50  H2  UNL     1     -10.893  11.044  67.085  1.00  0.00     0.000 HD 
HETATM   51  O   UNL     1     -10.853   8.925  72.454  1.00  0.00    -0.272 OA 
HETATM   52  C   UNL     1     -10.799  10.068  70.324  1.00  0.00    -0.313 C  
HETATM   53  H   UNL     1     -11.376   9.624  72.829  1.00  0.00     0.000 HD 
HETATM   54  O   UNL     1     -11.660  11.105  70.829  1.00  0.00    -0.397 OA 
HETATM   55  N   UNL     1     -10.743  11.167  68.087  1.00  0.00    -0.190 NA 
HETATM   56  C   UNL     1     -11.020   9.906  68.812  1.00  0.00    -0.179 C  
HETATM   57  H   UNL     1     -11.476  11.919  70.376  1.00  0.00     0.000 HD 
BRANCH  47  58
HETATM   58  C   UNL     1     -10.599   6.267  71.078  1.00  0.00    -0.238 C  
HETATM   59  O   UNL     1      -9.829   6.059  72.266  1.00  0.00    -0.161 OA 
HETATM   60  H   UNL     1     -10.042   5.218  72.653  1.00  0.00     0.000 HD 
ENDBRANCH  47  58
ENDBRANCH  44  45
ENDBRANCH  40  44
ENDBRANCH  29  30
ENDBRANCH  22  29
ENDBRANCH  18  19
ENDBRANCH   7  18
ENDBRANCH   2   5
TORSDOF 9
ENDMDL
MODEL      160
REMARK 921   NORMALIZED FREE ENERGY PREDICTED BY IDOCK:   -4.77 KCAL/MOL
REMARK 922        TOTAL FREE ENERGY PREDICTED BY IDOCK:   -9.33 KCAL/MOL
REMARK 923 INTER-LIGAND FREE ENERGY PREDICTED BY IDOCK:   -8.09 KCAL/MOL
REMARK 924 INTRA-LIGAND FREE ENERGY PREDICTED BY IDOCK:   -1.24 KCAL/MOL
REMARK 927      BINDING AFFINITY PREDICTED BY RF-SCORE:    0.00 PKD
ROOT
HETATM    1  N   UNL     1     -11.479   6.830  66.851  1.00  0.00    -0.717 NA 
HETATM    2  C   UNL     1     -10.294   6.604  67.703  1.00  0.00    -0.199 C  
HETATM    3  H1  UNL     1     -12.286   6.345  67.244  1.00  0.00     0.000 HD 
HETATM    4  H2  UNL     1     -11.309   6.567  65.880  1.00  0.00     0.000 HD 
ENDROOT
BRANCH   2   5
HETATM    5  C   UNL     1      -9.078   7.336  67.110  1.00  0.00    -0.130 C  
HETATM    6  O   UNL     1      -9.574   8.509  66.440  1.00  0.00    -0.212 OA 
HETATM    7  C   UNL     1      -8.521   9.375  66.023  1.00  0.00    -0.124 C  
HETATM    8  C   UNL     1      -7.699   8.661  64.911  1.00  0.00    -0.106 C  
HETATM    9  O   UNL     1      -9.147   5.912  65.140  1.00  0.00    -0.364 OA 
HETATM   10  H   UNL     1      -8.647   5.379  64.533  1.00  0.00     0.000 HD 
HETATM   11  N   UNL     1      -8.538   8.425  63.699  1.00  0.00    -0.410 NA 
HETATM   12  C   UNL     1      -7.156   7.323  65.464  1.00  0.00    -0.064 C  
HETATM   13  H2  UNL     1      -8.961   9.289  63.359  1.00  0.00     0.000 HD 
HETATM   14  O   UNL     1      -6.068   7.543  66.373  1.00  0.00    -0.039 OA 
HETATM   15  C   UNL     1      -8.265   6.469  66.125  1.00  0.00    -0.123 C  
HETATM   16  H1  UNL     1      -7.999   7.957  62.970  1.00  0.00     0.000 HD 
HETATM   17  H   UNL     1      -5.735   6.721  66.713  1.00  0.00     0.000 HD 
BRANCH   7  18
HETATM   18  O   UNL     1      -9.038  10.599  65.494  1.00  0.00    -0.175 OA 
BRANCH  18  19
HETATM   19  C   UNL     1     -10.236  11.057  66.146  1.00  0.00    -0.247 C  
HETATM   20  O   UNL     1      -9.086  10.808  68.323  1.00  0.00    -0.145 OA 
HETATM   21  C   UNL     1     -10.687  12.306  65.390  1.00  0.00    -0.284 C  
HETATM   22  C   UNL     1      -9.606  13.031  67.324  1.00  0.00    -0.225 C  
HETATM   23  H   UNL     1      -8.954  11.129  69.208  1.00  0.00     0.000 HD 
HETATM   24  O   UNL     1     -10.097  13.439  66.046  1.00  0.00    -0.293 OA 
HETATM   25  C   UNL     1     -10.025  11.570  67.560  1.00  0.00    -0.190 C  
BRANCH  21  26
HETATM   26  C   UNL     1     -12.204  12.500  65.363  1.00  0.00    -0.412 C  
HETATM   27  H   UNL     1     -13.517  13.590  64.369  1.00  0.00     0.000 HD 
HETATM   28  O   UNL     1     -12.576  13.469  64.386  1.00  0.00    -0.618 OA 
ENDBRANCH  21  26
BRANCH  22  29
HETATM   29  O   UNL     1     -10.162  13.836  68.359  1.00  0.00    -0.238 OA 
BRANCH  29  30
HETATM   30  C   UNL     1      -9.443  15.014  68.774  1.00  0.00    -0.210 C  
HETATM   31  C   UNL     1      -9.930  16.245  67.984  1.00  0.00    -0.240 C  
HETATM   32  O   UNL     1     -11.363  16.292  67.970  1.00  0.00    -0.313 OA 
HETATM   33  C   UNL     1      -9.377  17.534  68.602  1.00  0.00    -0.277 C  
HETATM   34  C   UNL     1      -7.851  17.511  68.526  1.00  0.00    -0.274 C  
HETATM   35  N   UNL     1      -9.912  18.724  67.913  1.00  0.00    -0.337 NA 
HETATM   36  H   UNL     1     -11.663  17.050  67.484  1.00  0.00     0.000 HD 
HETATM   37  H1  UNL     1      -9.545  19.582  68.324  1.00  0.00     0.000 HD 
HETATM   38  H2  UNL     1     -10.932  18.722  67.897  1.00  0.00     0.000 HD 
HETATM   39  C   UNL     1      -7.258  16.270  69.216  1.00  0.00    -0.221 C  
HETATM   40  C   UNL     1      -7.894  14.906  68.753  1.00  0.00    -0.149 C  
HETATM   41  N   UNL     1      -5.794  16.279  69.014  1.00  0.00    -0.127 NA 
HETATM   42  H2  UNL     1      -5.360  17.147  69.328  1.00  0.00     0.000 HD 
HETATM   43  H1  UNL     1      -5.401  15.456  69.472  1.00  0.00     0.000 HD 
BRANCH  40  44
HETATM   44  O   UNL     1      -7.355  13.886  69.627  1.00  0.00     0.115 OA 
BRANCH  44  45
HETATM   45  C   UNL     1      -5.954  13.619  69.476  1.00  0.00    -0.108 C  
HETATM   46  O   UNL     1      -5.484  12.692  70.449  1.00  0.00    -0.123 OA 
HETATM   47  C   UNL     1      -5.983  11.362  70.318  1.00  0.00    -0.159 C  
HETATM   48  C   UNL     1      -5.580  10.787  68.958  1.00  0.00    -0.040 C  
HETATM   49  H1  UNL     1      -5.850  13.723  66.029  1.00  0.00     0.000 HD 
HETATM   50  H2  UNL     1      -5.747  14.989  67.122  1.00  0.00     0.000 HD 
HETATM   51  O   UNL     1      -6.081   9.463  68.756  1.00  0.00    -0.043 OA 
HETATM   52  C   UNL     1      -6.095  11.700  67.837  1.00  0.00    -0.050 C  
HETATM   53  H   UNL     1      -5.830   9.106  67.912  1.00  0.00     0.000 HD 
HETATM   54  O   UNL     1      -5.634  11.210  66.566  1.00  0.00    -0.096 OA 
HETATM   55  N   UNL     1      -6.082  14.037  66.970  1.00  0.00     0.274 NA 
HETATM   56  C   UNL     1      -5.600  13.140  68.045  1.00  0.00    -0.110 C  
HETATM   57  H   UNL     1      -5.953  11.775  65.873  1.00  0.00     0.000 HD 
BRANCH  47  58
HETATM   58  C   UNL     1      -5.395  10.542  71.475  1.00  0.00    -0.002 C  
HETATM   59  O   UNL     1      -6.303   9.507  71.861  1.00  0.00    -0.291 OA 
HETATM   60  H   UNL     1      -5.940   9.000  72.577  1.00  0.00     0.000 HD 
ENDBRANCH  47  58
ENDBRANCH  44  45
ENDBRANCH  40  44
ENDBRANCH  29  30
ENDBRANCH  22  29
ENDBRANCH  18  19
ENDBRANCH   7  18
ENDBRANCH   2   5
TORSDOF 9
ENDMDL
MODEL      161
REMARK 921   NORMALIZED FREE ENERGY PREDICTED BY IDOCK:   -4.76 KCAL/MOL
REMARK 922        TOTAL FREE ENERGY PREDICTED BY IDOCK:   -9.30 KCAL/MOL
REMARK 923 INTER-LIGAND FREE ENERGY PREDICTED BY IDOCK:   -8.28 KCAL/MOL
REMARK 924 INTRA-LIGAND FREE ENERGY PREDICTED BY IDOCK:   -1.02 KCAL/MOL
REMARK 927      BINDING AFFINITY PREDICTED BY RF-SCORE:    0.00 PKD
ROOT
HETATM    1  N   UNL     1     -13.201   7.943  71.692  1.00  0.00    -0.337 NA 
HETATM    2  C   UNL     1     -12.031   8.180  72.562  1.00  0.00    -0.350 C  
HETATM    3  H1  UNL     1     -14.061   8.058  72.228  1.00  0.00     0.000 HD 
HETATM    4  H2  UNL     1     -13.157   7.035  71.228  1.00  0.00     0.000 HD 
ENDROOT
BRANCH   2   5
HETATM    5  C   UNL     1     -10.735   8.007  71.752  1.00  0.00    -0.240 C  
HETATM    6  O   UNL     1     -10.642   6.616  71.393  1.00  0.00    -0.219 OA 
HETATM    7  C   UNL     1      -9.584   6.371  70.469  1.00  0.00    -0.165 C  
HETATM    8  C   UNL     1      -8.226   6.637  71.183  1.00  0.00    -0.120 C  
HETATM    9  O   UNL     1      -9.450   7.789  73.806  1.00  0.00    -0.284 OA 
HETATM   10  H   UNL     1      -8.673   8.054  74.282  1.00  0.00     0.000 HD 
HETATM   11  N   UNL     1      -8.019   5.676  72.306  1.00  0.00    -0.106 NA 
HETATM   12  C   UNL     1      -8.207   8.093  71.704  1.00  0.00    -0.126 C  
HETATM   13  H2  UNL     1      -8.097   4.708  71.993  1.00  0.00     0.000 HD 
HETATM   14  O   UNL     1      -8.025   9.024  70.628  1.00  0.00    -0.108 OA 
HETATM   15  C   UNL     1      -9.471   8.438  72.527  1.00  0.00    -0.289 C  
HETATM   16  H1  UNL     1      -7.130   5.850  72.774  1.00  0.00     0.000 HD 
HETATM   17  H   UNL     1      -8.013   9.918  70.948  1.00  0.00     0.000 HD 
BRANCH   7  18
HETATM   18  O   UNL     1      -9.601   5.016  70.013  1.00  0.00    -0.156 OA 
BRANCH  18  19
HETATM   19  C   UNL     1      -9.924   4.873  68.618  1.00  0.00    -0.125 C  
HETATM   20  O   UNL     1     -11.732   6.537  68.919  1.00  0.00    -0.561 OA 
HETATM   21  C   UNL     1      -8.602   4.959  67.858  1.00  0.00    -0.103 C  
HETATM   22  C   UNL     1      -9.635   7.041  67.670  1.00  0.00    -0.131 C  
HETATM   23  H   UNL     1     -12.234   7.257  68.557  1.00  0.00     0.000 HD 
HETATM   24  O   UNL     1      -8.405   6.335  67.499  1.00  0.00    -0.112 OA 
HETATM   25  C   UNL     1     -10.729   6.025  68.039  1.00  0.00    -0.282 C  
BRANCH  21  26
HETATM   26  C   UNL     1      -8.566   4.118  66.581  1.00  0.00    -0.112 C  
HETATM   27  H   UNL     1      -7.340   3.830  65.059  1.00  0.00     0.000 HD 
HETATM   28  O   UNL     1      -7.363   4.352  65.852  1.00  0.00    -0.074 OA 
ENDBRANCH  21  26
BRANCH  22  29
HETATM   29  O   UNL     1     -10.012   7.698  66.464  1.00  0.00    -0.219 OA 
BRANCH  29  30
HETATM   30  C   UNL     1      -9.060   8.577  65.835  1.00  0.00    -0.183 C  
HETATM   31  C   UNL     1      -7.886   7.765  65.253  1.00  0.00    -0.117 C  
HETATM   32  O   UNL     1      -8.379   6.645  64.504  1.00  0.00    -0.300 OA 
HETATM   33  C   UNL     1      -7.017   8.647  64.349  1.00  0.00    -0.081 C  
HETATM   34  C   UNL     1      -6.423   9.784  65.181  1.00  0.00    -0.095 C  
HETATM   35  N   UNL     1      -5.945   7.858  63.711  1.00  0.00    -0.057 NA 
HETATM   36  H   UNL     1      -7.656   6.145  64.145  1.00  0.00     0.000 HD 
HETATM   37  H1  UNL     1      -5.366   8.445  63.110  1.00  0.00     0.000 HD 
HETATM   38  H2  UNL     1      -6.319   7.057  63.205  1.00  0.00     0.000 HD 
HETATM   39  C   UNL     1      -7.512  10.615  65.881  1.00  0.00    -0.131 C  
HETATM   40  C   UNL     1      -8.552   9.762  66.701  1.00  0.00    -0.128 C  
HETATM   41  N   UNL     1      -6.853  11.626  66.734  1.00  0.00    -0.289 NA 
HETATM   42  H2  UNL     1      -6.191  12.204  66.216  1.00  0.00     0.000 HD 
HETATM   43  H1  UNL     1      -7.575  12.176  67.198  1.00  0.00     0.000 HD 
BRANCH  40  44
HETATM   44  O   UNL     1      -9.589  10.677  67.126  1.00  0.00    -0.161 OA 
BRANCH  44  45
HETATM   45  C   UNL     1      -9.394  11.279  68.414  1.00  0.00    -0.181 C  
HETATM   46  O   UNL     1      -9.104  12.668  68.310  1.00  0.00    -0.199 OA 
HETATM   47  C   UNL     1     -10.176  13.484  67.840  1.00  0.00    -0.247 C  
HETATM   48  C   UNL     1     -11.370  13.372  68.791  1.00  0.00    -0.292 C  
HETATM   49  H1  UNL     1     -11.774   9.454  70.121  1.00  0.00     0.000 HD 
HETATM   50  H2  UNL     1     -10.181   9.053  69.788  1.00  0.00     0.000 HD 
HETATM   51  O   UNL     1     -12.490  14.144  68.352  1.00  0.00    -0.532 OA 
HETATM   52  C   UNL     1     -11.790  11.901  68.922  1.00  0.00    -0.307 C  
HETATM   53  H   UNL     1     -13.231  14.075  68.942  1.00  0.00     0.000 HD 
HETATM   54  O   UNL     1     -12.849  11.787  69.888  1.00  0.00     0.161 OA 
HETATM   55  N   UNL     1     -10.982   9.614  69.498  1.00  0.00    -0.229 NA 
HETATM   56  C   UNL     1     -10.597  11.037  69.360  1.00  0.00    -0.174 C  
HETATM   57  H   UNL     1     -13.109  10.877  69.969  1.00  0.00     0.000 HD 
BRANCH  47  58
HETATM   58  C   UNL     1      -9.649  14.924  67.763  1.00  0.00    -0.208 C  
HETATM   59  O   UNL     1     -10.574  15.752  67.052  1.00  0.00    -0.309 OA 
HETATM   60  H   UNL     1     -10.248  16.643  67.004  1.00  0.00     0.000 HD 
ENDBRANCH  47  58
ENDBRANCH  44  45
ENDBRANCH  40  44
ENDBRANCH  29  30
ENDBRANCH  22  29
ENDBRANCH  18  19
ENDBRANCH   7  18
ENDBRANCH   2   5
TORSDOF 9
ENDMDL
MODEL      162
REMARK 921   NORMALIZED FREE ENERGY PREDICTED BY IDOCK:   -4.74 KCAL/MOL
REMARK 922        TOTAL FREE ENERGY PREDICTED BY IDOCK:   -9.27 KCAL/MOL
REMARK 923 INTER-LIGAND FREE ENERGY PREDICTED BY IDOCK:   -7.13 KCAL/MOL
REMARK 924 INTRA-LIGAND FREE ENERGY PREDICTED BY IDOCK:   -2.15 KCAL/MOL
REMARK 927      BINDING AFFINITY PREDICTED BY RF-SCORE:    0.00 PKD
ROOT
HETATM    1  N   UNL     1     -13.885  13.358  72.198  1.00  0.00    -0.528 NA 
HETATM    2  C   UNL     1     -12.805  14.262  71.753  1.00  0.00    -0.348 C  
HETATM    3  H1  UNL     1     -14.146  13.577  73.159  1.00  0.00     0.000 HD 
HETATM    4  H2  UNL     1     -13.634  12.376  72.083  1.00  0.00     0.000 HD 
ENDROOT
BRANCH   2   5
HETATM    5  C   UNL     1     -12.412  13.932  70.303  1.00  0.00    -0.314 C  
HETATM    6  O   UNL     1     -11.448  12.864  70.357  1.00  0.00     0.009 OA 
HETATM    7  C   UNL     1     -11.159  12.335  69.065  1.00  0.00    -0.236 C  
HETATM    8  C   UNL     1     -10.423  13.426  68.233  1.00  0.00    -0.250 C  
HETATM    9  O   UNL     1     -10.761  15.717  70.315  1.00  0.00    -0.315 OA 
HETATM   10  H   UNL     1     -10.397  16.460  69.847  1.00  0.00     0.000 HD 
HETATM   11  N   UNL     1      -9.102  13.757  68.842  1.00  0.00    -0.388 NA 
HETATM   12  C   UNL     1     -11.316  14.686  68.150  1.00  0.00    -0.302 C  
HETATM   13  H2  UNL     1      -8.525  12.925  68.968  1.00  0.00     0.000 HD 
HETATM   14  O   UNL     1     -12.411  14.485  67.247  1.00  0.00    -0.578 OA 
HETATM   15  C   UNL     1     -11.820  15.138  69.542  1.00  0.00    -0.332 C  
HETATM   16  H1  UNL     1      -8.620  14.472  68.297  1.00  0.00     0.000 HD 
HETATM   17  H   UNL     1     -12.959  15.259  67.196  1.00  0.00     0.000 HD 
BRANCH   7  18
HETATM   18  O   UNL     1     -10.316  11.184  69.155  1.00  0.00    -0.211 OA 
BRANCH  18  19
HETATM   19  C   UNL     1     -11.015   9.934  69.009  1.00  0.00    -0.190 C  
HETATM   20  O   UNL     1     -10.229   9.828  66.665  1.00  0.00    -0.226 OA 
HETATM   21  C   UNL     1     -10.646   9.089  70.227  1.00  0.00    -0.217 C  
HETATM   22  C   UNL     1      -9.344   8.330  68.449  1.00  0.00    -0.135 C  
HETATM   23  H   UNL     1      -9.933   9.295  65.936  1.00  0.00     0.000 HD 
HETATM   24  O   UNL     1      -9.503   8.299  69.868  1.00  0.00    -0.165 OA 
HETATM   25  C   UNL     1     -10.541   9.082  67.844  1.00  0.00    -0.196 C  
BRANCH  21  26
HETATM   26  C   UNL     1     -11.759   8.146  70.686  1.00  0.00    -0.143 C  
HETATM   27  H   UNL     1     -13.432   8.262  71.730  1.00  0.00     0.000 HD 
HETATM   28  O   UNL     1     -12.741   8.848  71.445  1.00  0.00    -0.320 OA 
ENDBRANCH  21  26
BRANCH  22  29
HETATM   29  O   UNL     1      -9.320   7.010  67.914  1.00  0.00    -0.125 OA 
BRANCH  29  30
HETATM   30  C   UNL     1      -8.058   6.469  67.478  1.00  0.00    -0.121 C  
HETATM   31  C   UNL     1      -8.172   5.942  66.034  1.00  0.00    -0.123 C  
HETATM   32  O   UNL     1      -8.824   6.911  65.201  1.00  0.00    -0.367 OA 
HETATM   33  C   UNL     1      -6.785   5.622  65.466  1.00  0.00    -0.041 C  
HETATM   34  C   UNL     1      -6.140   4.522  66.308  1.00  0.00    -0.031 C  
HETATM   35  N   UNL     1      -6.873   5.207  64.052  1.00  0.00    -0.046 NA 
HETATM   36  H   UNL     1      -8.894   6.587  64.311  1.00  0.00     0.000 HD 
HETATM   37  H1  UNL     1      -5.951   4.994  63.674  1.00  0.00     0.000 HD 
HETATM   38  H2  UNL     1      -7.360   5.902  63.486  1.00  0.00     0.000 HD 
HETATM   39  C   UNL     1      -6.052   4.911  67.794  1.00  0.00    -0.027 C  
HETATM   40  C   UNL     1      -7.410   5.413  68.414  1.00  0.00    -0.072 C  
HETATM   41  N   UNL     1      -5.507   3.762  68.547  1.00  0.00    -0.012 NA 
HETATM   42  H2  UNL     1      -4.616   3.436  68.174  1.00  0.00     0.000 HD 
HETATM   43  H1  UNL     1      -5.449   4.021  69.532  1.00  0.00     0.000 HD 
BRANCH  40  44
HETATM   44  O   UNL     1      -7.098   5.903  69.739  1.00  0.00    -0.064 OA 
BRANCH  44  45
HETATM   45  C   UNL     1      -5.790   6.469  69.899  1.00  0.00    -0.018 C  
HETATM   46  O   UNL     1      -5.799   7.882  69.729  1.00  0.00    -0.023 OA 
HETATM   47  C   UNL     1      -6.486   8.615  70.742  1.00  0.00    -0.043 C  
HETATM   48  C   UNL     1      -5.835   8.358  72.103  1.00  0.00    -0.053 C  
HETATM   49  H1  UNL     1      -4.703   4.371  72.414  1.00  0.00     0.000 HD 
HETATM   50  H2  UNL     1      -4.670   4.128  70.756  1.00  0.00     0.000 HD 
HETATM   51  O   UNL     1      -6.504   9.043  73.165  1.00  0.00    -0.313 OA 
HETATM   52  C   UNL     1      -5.830   6.851  72.396  1.00  0.00    -0.038 C  
HETATM   53  H   UNL     1      -6.099   8.884  74.009  1.00  0.00     0.000 HD 
HETATM   54  O   UNL     1      -5.133   6.604  73.630  1.00  0.00    -0.039 OA 
HETATM   55  N   UNL     1      -5.126   4.626  71.521  1.00  0.00    -0.004 NA 
HETATM   56  C   UNL     1      -5.147   6.082  71.255  1.00  0.00    -0.013 C  
HETATM   57  H   UNL     1      -5.129   5.672  73.812  1.00  0.00     0.000 HD 
BRANCH  47  58
HETATM   58  C   UNL     1      -6.416  10.099  70.354  1.00  0.00    -0.131 C  
HETATM   59  O   UNL     1      -6.120  10.233  68.961  1.00  0.00    -0.037 OA 
HETATM   60  H   UNL     1      -6.077  11.151  68.720  1.00  0.00     0.000 HD 
ENDBRANCH  47  58
ENDBRANCH  44  45
ENDBRANCH  40  44
ENDBRANCH  29  30
ENDBRANCH  22  29
ENDBRANCH  18  19
ENDBRANCH   7  18
ENDBRANCH   2   5
TORSDOF 9
ENDMDL
MODEL      163
REMARK 921   NORMALIZED FREE ENERGY PREDICTED BY IDOCK:   -4.68 KCAL/MOL
REMARK 922        TOTAL FREE ENERGY PREDICTED BY IDOCK:   -9.19 KCAL/MOL
REMARK 923 INTER-LIGAND FREE ENERGY PREDICTED BY IDOCK:   -9.18 KCAL/MOL
REMARK 924 INTRA-LIGAND FREE ENERGY PREDICTED BY IDOCK:   -0.01 KCAL/MOL
REMARK 927      BINDING AFFINITY PREDICTED BY RF-SCORE:    0.00 PKD
ROOT
HETATM    1  N   UNL     1     -10.447  18.538  69.229  1.00  0.00    -0.310 NA 
HETATM    2  C   UNL     1     -10.322  18.565  67.758  1.00  0.00    -0.402 C  
HETATM    3  H1  UNL     1     -11.293  19.032  69.514  1.00  0.00     0.000 HD 
HETATM    4  H2  UNL     1      -9.615  18.905  69.691  1.00  0.00     0.000 HD 
ENDROOT
BRANCH   2   5
HETATM    5  C   UNL     1      -9.047  17.819  67.328  1.00  0.00    -0.246 C  
HETATM    6  O   UNL     1      -8.997  16.595  68.084  1.00  0.00    -0.201 OA 
HETATM    7  C   UNL     1      -7.965  15.724  67.626  1.00  0.00    -0.146 C  
HETATM    8  C   UNL     1      -6.587  16.379  67.935  1.00  0.00    -0.133 C  
HETATM    9  O   UNL     1      -7.727  19.107  68.914  1.00  0.00    -0.339 OA 
HETATM   10  H   UNL     1      -6.933  19.609  69.056  1.00  0.00     0.000 HD 
HETATM   11  N   UNL     1      -6.383  16.516  69.407  1.00  0.00    -0.194 NA 
HETATM   12  C   UNL     1      -6.519  17.761  67.245  1.00  0.00    -0.163 C  
HETATM   13  H2  UNL     1      -6.492  15.624  69.889  1.00  0.00     0.000 HD 
HETATM   14  O   UNL     1      -6.334  17.622  65.829  1.00  0.00    -0.201 OA 
HETATM   15  C   UNL     1      -7.757  18.634  67.560  1.00  0.00    -0.229 C  
HETATM   16  H1  UNL     1      -5.479  16.946  69.610  1.00  0.00     0.000 HD 
HETATM   17  H   UNL     1      -6.292  18.472  65.406  1.00  0.00     0.000 HD 
BRANCH   7  18
HETATM   18  O   UNL     1      -8.027  14.458  68.288  1.00  0.00    -0.124 OA 
BRANCH  18  19
HETATM   19  C   UNL     1      -7.896  13.329  67.405  1.00  0.00    -0.153 C  
HETATM   20  O   UNL     1      -5.542  13.097  68.135  1.00  0.00    -0.078 OA 
HETATM   21  C   UNL     1      -9.113  12.441  67.657  1.00  0.00    -0.186 C  
HETATM   22  C   UNL     1      -7.322  11.487  68.805  1.00  0.00    -0.115 C  
HETATM   23  H   UNL     1      -4.813  12.523  68.338  1.00  0.00     0.000 HD 
HETATM   24  O   UNL     1      -8.744  11.484  68.661  1.00  0.00    -0.158 OA 
HETATM   25  C   UNL     1      -6.729  12.411  67.729  1.00  0.00    -0.115 C  
BRANCH  21  26
HETATM   26  C   UNL     1      -9.590  11.679  66.419  1.00  0.00    -0.217 C  
HETATM   27  H   UNL     1     -10.377  12.104  64.658  1.00  0.00     0.000 HD 
HETATM   28  O   UNL     1     -10.081  12.577  65.426  1.00  0.00    -0.277 OA 
ENDBRANCH  21  26
BRANCH  22  29
HETATM   29  O   UNL     1      -6.794  10.177  68.621  1.00  0.00    -0.056 OA 
BRANCH  29  30
HETATM   30  C   UNL     1      -7.630   9.180  68.002  1.00  0.00    -0.085 C  
HETATM   31  C   UNL     1      -7.888   9.540  66.526  1.00  0.00    -0.101 C  
HETATM   32  O   UNL     1      -6.658   9.896  65.878  1.00  0.00    -0.081 OA 
HETATM   33  C   UNL     1      -8.536   8.362  65.790  1.00  0.00    -0.159 C  
HETATM   34  C   UNL     1      -9.889   8.053  66.432  1.00  0.00    -0.237 C  
HETATM   35  N   UNL     1      -8.702   8.659  64.354  1.00  0.00    -0.403 NA 
HETATM   36  H   UNL     1      -6.817  10.117  64.969  1.00  0.00     0.000 HD 
HETATM   37  H1  UNL     1      -9.133   7.876  63.864  1.00  0.00     0.000 HD 
HETATM   38  H2  UNL     1      -7.818   8.931  63.923  1.00  0.00     0.000 HD 
HETATM   39  C   UNL     1      -9.758   7.760  67.937  1.00  0.00    -0.153 C  
HETATM   40  C   UNL     1      -8.955   8.849  68.742  1.00  0.00    -0.134 C  
HETATM   41  N   UNL     1     -11.113   7.567  68.495  1.00  0.00    -0.421 NA 
HETATM   42  H2  UNL     1     -11.642   6.850  68.000  1.00  0.00     0.000 HD 
HETATM   43  H1  UNL     1     -11.026   7.373  69.492  1.00  0.00     0.000 HD 
BRANCH  40  44
HETATM   44  O   UNL     1      -8.776   8.322  70.078  1.00  0.00    -0.130 OA 
BRANCH  44  45
HETATM   45  C   UNL     1      -9.138   9.208  71.147  1.00  0.00    -0.205 C  
HETATM   46  O   UNL     1     -10.550   9.335  71.274  1.00  0.00    -0.299 OA 
HETATM   47  C   UNL     1     -11.233   8.161  71.712  1.00  0.00    -0.272 C  
HETATM   48  C   UNL     1     -10.720   7.746  73.093  1.00  0.00    -0.351 C  
HETATM   49  H1  UNL     1      -6.612   8.330  73.327  1.00  0.00     0.000 HD 
HETATM   50  H2  UNL     1      -6.581   9.446  72.077  1.00  0.00     0.000 HD 
HETATM   51  O   UNL     1     -11.347   6.554  73.571  1.00  0.00    -0.426 OA 
HETATM   52  C   UNL     1      -9.201   7.534  73.038  1.00  0.00    -0.183 C  
HETATM   53  H   UNL     1     -11.029   6.297  74.429  1.00  0.00     0.000 HD 
HETATM   54  O   UNL     1      -8.709   7.238  74.357  1.00  0.00    -0.197 OA 
HETATM   55  N   UNL     1      -7.032   8.606  72.439  1.00  0.00    -0.252 NA 
HETATM   56  C   UNL     1      -8.500   8.789  72.495  1.00  0.00     0.125 C  
HETATM   57  H   UNL     1      -7.769   7.106  74.323  1.00  0.00     0.000 HD 
BRANCH  47  58
HETATM   58  C   UNL     1     -12.731   8.493  71.742  1.00  0.00    -0.349 C  
HETATM   59  O   UNL     1     -13.183   8.627  73.092  1.00  0.00    -0.826 OA 
HETATM   60  H   UNL     1     -14.110   8.832  73.111  1.00  0.00     0.000 HD 
ENDBRANCH  47  58
ENDBRANCH  44  45
ENDBRANCH  40  44
ENDBRANCH  29  30
ENDBRANCH  22  29
ENDBRANCH  18  19
ENDBRANCH   7  18
ENDBRANCH   2   5
TORSDOF 9
ENDMDL
MODEL      164
REMARK 921   NORMALIZED FREE ENERGY PREDICTED BY IDOCK:   -4.66 KCAL/MOL
REMARK 922        TOTAL FREE ENERGY PREDICTED BY IDOCK:   -9.16 KCAL/MOL
REMARK 923 INTER-LIGAND FREE ENERGY PREDICTED BY IDOCK:   -9.46 KCAL/MOL
REMARK 924 INTRA-LIGAND FREE ENERGY PREDICTED BY IDOCK:    0.30 KCAL/MOL
REMARK 927      BINDING AFFINITY PREDICTED BY RF-SCORE:    0.00 PKD
ROOT
HETATM    1  N   UNL     1     -14.181  13.246  72.610  1.00  0.00    -0.656 NA 
HETATM    2  C   UNL     1     -13.149  14.292  72.467  1.00  0.00    -0.461 C  
HETATM    3  H1  UNL     1     -14.392  13.099  73.597  1.00  0.00     0.000 HD 
HETATM    4  H2  UNL     1     -13.915  12.379  72.142  1.00  0.00     0.000 HD 
ENDROOT
BRANCH   2   5
HETATM    5  C   UNL     1     -12.832  14.514  70.979  1.00  0.00    -0.350 C  
HETATM    6  O   UNL     1     -12.473  13.234  70.427  1.00  0.00    -0.295 OA 
HETATM    7  C   UNL     1     -12.353  13.277  69.007  1.00  0.00     0.058 C  
HETATM    8  C   UNL     1     -11.133  14.169  68.636  1.00  0.00    -0.262 C  
HETATM    9  O   UNL     1     -10.554  15.159  71.532  1.00  0.00    -0.397 OA 
HETATM   10  H   UNL     1      -9.852  15.783  71.387  1.00  0.00     0.000 HD 
HETATM   11  N   UNL     1      -9.862  13.565  69.136  1.00  0.00    -0.378 NA 
HETATM   12  C   UNL     1     -11.337  15.579  69.237  1.00  0.00    -0.325 C  
HETATM   13  H2  UNL     1      -9.743  12.607  68.804  1.00  0.00     0.000 HD 
HETATM   14  O   UNL     1     -12.323  16.316  68.501  1.00  0.00    -0.039 OA 
HETATM   15  C   UNL     1     -11.692  15.528  70.743  1.00  0.00    -0.362 C  
HETATM   16  H1  UNL     1      -9.062  14.150  68.893  1.00  0.00     0.000 HD 
HETATM   17  H   UNL     1     -12.448  17.182  68.871  1.00  0.00     0.000 HD 
BRANCH   7  18
HETATM   18  O   UNL     1     -12.143  11.969  68.467  1.00  0.00    -0.367 OA 
BRANCH  18  19
HETATM   19  C   UNL     1     -10.759  11.639  68.254  1.00  0.00    -0.213 C  
HETATM   20  O   UNL     1     -10.668  10.753  70.564  1.00  0.00    -0.381 OA 
HETATM   21  C   UNL     1     -10.688  10.925  66.906  1.00  0.00    -0.264 C  
HETATM   22  C   UNL     1     -10.611   9.279  68.555  1.00  0.00    -0.183 C  
HETATM   23  H   UNL     1     -10.322  10.106  71.167  1.00  0.00     0.000 HD 
HETATM   24  O   UNL     1     -10.810   9.518  67.160  1.00  0.00    -0.224 OA 
HETATM   25  C   UNL     1     -10.205  10.605  69.219  1.00  0.00    -0.213 C  
BRANCH  21  26
HETATM   26  C   UNL     1      -9.383  11.165  66.145  1.00  0.00    -0.206 C  
HETATM   27  H   UNL     1      -8.760  11.136  64.271  1.00  0.00     0.000 HD 
HETATM   28  O   UNL     1      -9.570  10.987  64.743  1.00  0.00    -0.223 OA 
ENDBRANCH  21  26
BRANCH  22  29
HETATM   29  O   UNL     1      -9.571   8.329  68.761  1.00  0.00    -0.148 OA 
BRANCH  29  30
HETATM   30  C   UNL     1      -9.919   7.034  69.290  1.00  0.00    -0.162 C  
HETATM   31  C   UNL     1     -10.587   7.182  70.671  1.00  0.00    -0.225 C  
HETATM   32  O   UNL     1     -11.602   8.195  70.627  1.00  0.00    -0.359 OA 
HETATM   33  C   UNL     1     -11.206   5.852  71.115  1.00  0.00    -0.211 C  
HETATM   34  C   UNL     1     -10.100   4.805  71.247  1.00  0.00    -0.258 C  
HETATM   35  N   UNL     1     -11.931   6.003  72.391  1.00  0.00    -0.483 NA 
HETATM   36  H   UNL     1     -12.014   8.286  71.477  1.00  0.00     0.000 HD 
HETATM   37  H1  UNL     1     -12.342   5.118  72.687  1.00  0.00     0.000 HD 
HETATM   38  H2  UNL     1     -12.630   6.744  72.340  1.00  0.00     0.000 HD 
HETATM   39  C   UNL     1      -9.306   4.636  69.940  1.00  0.00    -0.144 C  
HETATM   40  C   UNL     1      -8.774   5.985  69.326  1.00  0.00    -0.117 C  
HETATM   41  N   UNL     1      -8.204   3.682  70.182  1.00  0.00    -0.052 NA 
HETATM   42  H2  UNL     1      -8.531   2.793  70.560  1.00  0.00     0.000 HD 
HETATM   43  H1  UNL     1      -7.678   3.570  69.315  1.00  0.00     0.000 HD 
BRANCH  40  44
HETATM   44  O   UNL     1      -8.226   5.656  68.028  1.00  0.00    -0.100 OA 
BRANCH  44  45
HETATM   45  C   UNL     1      -9.180   5.545  66.963  1.00  0.00    -0.116 C  
HETATM   46  O   UNL     1      -9.076   6.627  66.044  1.00  0.00    -0.148 OA 
HETATM   47  C   UNL     1      -7.878   6.660  65.271  1.00  0.00    -0.110 C  
HETATM   48  C   UNL     1      -7.763   5.383  64.434  1.00  0.00    -0.096 C  
HETATM   49  H1  UNL     1      -9.081   2.112  66.633  1.00  0.00     0.000 HD 
HETATM   50  H2  UNL     1      -9.993   3.040  67.690  1.00  0.00     0.000 HD 
HETATM   51  O   UNL     1      -6.562   5.344  63.661  1.00  0.00    -0.032 OA 
HETATM   52  C   UNL     1      -7.813   4.156  65.355  1.00  0.00    -0.086 C  
HETATM   53  H   UNL     1      -6.491   4.552  63.141  1.00  0.00     0.000 HD 
HETATM   54  O   UNL     1      -7.801   2.957  64.560  1.00  0.00    -0.076 OA 
HETATM   55  N   UNL     1      -9.148   3.007  67.118  1.00  0.00    -0.164 NA 
HETATM   56  C   UNL     1      -9.079   4.186  66.226  1.00  0.00    -0.134 C  
HETATM   57  H   UNL     1      -7.832   2.198  65.130  1.00  0.00     0.000 HD 
BRANCH  47  58
HETATM   58  C   UNL     1      -7.944   7.911  64.384  1.00  0.00    -0.132 C  
HETATM   59  O   UNL     1      -8.551   7.598  63.128  1.00  0.00    -0.372 OA 
HETATM   60  H   UNL     1      -8.593   8.372  62.579  1.00  0.00     0.000 HD 
ENDBRANCH  47  58
ENDBRANCH  44  45
ENDBRANCH  40  44
ENDBRANCH  29  30
ENDBRANCH  22  29
ENDBRANCH  18  19
ENDBRANCH   7  18
ENDBRANCH   2   5
TORSDOF 9
ENDMDL
MODEL      165
REMARK 921   NORMALIZED FREE ENERGY PREDICTED BY IDOCK:   -4.65 KCAL/MOL
REMARK 922        TOTAL FREE ENERGY PREDICTED BY IDOCK:   -9.14 KCAL/MOL
REMARK 923 INTER-LIGAND FREE ENERGY PREDICTED BY IDOCK:   -8.68 KCAL/MOL
REMARK 924 INTRA-LIGAND FREE ENERGY PREDICTED BY IDOCK:   -0.46 KCAL/MOL
REMARK 927      BINDING AFFINITY PREDICTED BY RF-SCORE:    0.00 PKD
ROOT
HETATM    1  N   UNL     1     -11.829  14.312  71.572  1.00  0.00    -0.416 NA 
HETATM    2  C   UNL     1     -10.985  15.117  70.666  1.00  0.00    -0.225 C  
HETATM    3  H1  UNL     1     -11.734  14.653  72.529  1.00  0.00     0.000 HD 
HETATM    4  H2  UNL     1     -11.626  13.314  71.499  1.00  0.00     0.000 HD 
ENDROOT
BRANCH   2   5
HETATM    5  C   UNL     1     -11.129  14.601  69.224  1.00  0.00    -0.269 C  
HETATM    6  O   UNL     1      -9.928  13.871  68.913  1.00  0.00    -0.182 OA 
HETATM    7  C   UNL     1     -10.029  13.175  67.673  1.00  0.00    -0.219 C  
HETATM    8  C   UNL     1     -10.110  14.218  66.520  1.00  0.00    -0.278 C  
HETATM    9  O   UNL     1     -10.324  16.726  68.356  1.00  0.00    -0.281 OA 
HETATM   10  H   UNL     1     -10.456  17.420  67.721  1.00  0.00     0.000 HD 
HETATM   11  N   UNL     1      -8.851  15.018  66.438  1.00  0.00    -0.445 NA 
HETATM   12  C   UNL     1     -11.326  15.143  66.760  1.00  0.00    -0.248 C  
HETATM   13  H2  UNL     1      -8.029  14.420  66.349  1.00  0.00     0.000 HD 
HETATM   14  O   UNL     1     -12.555  14.464  66.469  1.00  0.00    -0.519 OA 
HETATM   15  C   UNL     1     -11.342  15.729  68.191  1.00  0.00    -0.337 C  
HETATM   16  H1  UNL     1      -8.904  15.701  65.683  1.00  0.00     0.000 HD 
HETATM   17  H   UNL     1     -13.302  15.032  66.616  1.00  0.00     0.000 HD 
BRANCH   7  18
HETATM   18  O   UNL     1      -8.888  12.341  67.454  1.00  0.00    -0.169 OA 
BRANCH  18  19
HETATM   19  C   UNL     1      -8.971  11.535  66.266  1.00  0.00    -0.196 C  
HETATM   20  O   UNL     1      -7.241  10.043  67.218  1.00  0.00    -0.085 OA 
HETATM   21  C   UNL     1     -10.458  11.303  66.006  1.00  0.00    -0.257 C  
HETATM   22  C   UNL     1      -9.631   9.369  67.009  1.00  0.00    -0.158 C  
HETATM   23  H   UNL     1      -6.901   9.162  67.317  1.00  0.00     0.000 HD 
HETATM   24  O   UNL     1     -10.821  10.078  66.660  1.00  0.00    -0.119 OA 
HETATM   25  C   UNL     1      -8.427  10.125  66.424  1.00  0.00    -0.131 C  
BRANCH  21  26
HETATM   26  C   UNL     1     -10.817  11.182  64.524  1.00  0.00    -0.250 C  
HETATM   27  H   UNL     1     -10.093  11.798  62.793  1.00  0.00     0.000 HD 
HETATM   28  O   UNL     1      -9.870  11.874  63.713  1.00  0.00    -0.310 OA 
ENDBRANCH  21  26
BRANCH  22  29
HETATM   29  O   UNL     1      -9.649   8.052  66.465  1.00  0.00    -0.207 OA 
BRANCH  29  30
HETATM   30  C   UNL     1      -8.413   7.314  66.412  1.00  0.00    -0.129 C  
HETATM   31  C   UNL     1      -8.120   6.866  64.966  1.00  0.00    -0.117 C  
HETATM   32  O   UNL     1      -8.298   7.963  64.059  1.00  0.00    -0.348 OA 
HETATM   33  C   UNL     1      -6.689   6.327  64.850  1.00  0.00    -0.043 C  
HETATM   34  C   UNL     1      -6.540   5.102  65.752  1.00  0.00    -0.044 C  
HETATM   35  N   UNL     1      -6.364   5.983  63.452  1.00  0.00    -0.028 NA 
HETATM   36  H   UNL     1      -8.117   7.687  63.169  1.00  0.00     0.000 HD 
HETATM   37  H1  UNL     1      -5.413   5.624  63.374  1.00  0.00     0.000 HD 
HETATM   38  H2  UNL     1      -6.521   6.772  62.825  1.00  0.00     0.000 HD 
HETATM   39  C   UNL     1      -6.894   5.418  67.216  1.00  0.00    -0.060 C  
HETATM   40  C   UNL     1      -8.286   6.129  67.407  1.00  0.00    -0.108 C  
HETATM   41  N   UNL     1      -6.816   4.165  67.996  1.00  0.00    -0.047 NA 
HETATM   42  H2  UNL     1      -5.913   3.700  67.902  1.00  0.00     0.000 HD 
HETATM   43  H1  UNL     1      -7.050   4.375  68.966  1.00  0.00     0.000 HD 
BRANCH  40  44
HETATM   44  O   UNL     1      -8.363   6.510  68.801  1.00  0.00    -0.120 OA 
BRANCH  44  45
HETATM   45  C   UNL     1      -9.050   5.588  69.658  1.00  0.00    -0.128 C  
HETATM   46  O   UNL     1      -8.701   5.774  71.025  1.00  0.00    -0.132 OA 
HETATM   47  C   UNL     1      -9.145   6.998  71.608  1.00  0.00    -0.138 C  
HETATM   48  C   UNL     1     -10.672   7.080  71.549  1.00  0.00    -0.221 C  
HETATM   49  H1  UNL     1     -12.044   5.534  67.942  1.00  0.00     0.000 HD 
HETATM   50  H2  UNL     1     -10.658   4.633  67.666  1.00  0.00     0.000 HD 
HETATM   51  O   UNL     1     -11.174   8.303  72.091  1.00  0.00    -0.294 OA 
HETATM   52  C   UNL     1     -11.140   6.941  70.093  1.00  0.00    -0.299 C  
HETATM   53  H   UNL     1     -12.122   8.353  72.054  1.00  0.00     0.000 HD 
HETATM   54  O   UNL     1     -12.577   6.921  70.050  1.00  0.00    -0.420 OA 
HETATM   55  N   UNL     1     -11.032   5.493  68.066  1.00  0.00     0.021 NA 
HETATM   56  C   UNL     1     -10.587   5.649  69.470  1.00  0.00    -0.314 C  
HETATM   57  H   UNL     1     -12.867   6.835  69.149  1.00  0.00     0.000 HD 
BRANCH  47  58
HETATM   58  C   UNL     1      -8.634   7.021  73.056  1.00  0.00    -0.118 C  
HETATM   59  O   UNL     1      -9.342   8.004  73.816  1.00  0.00    -0.296 OA 
HETATM   60  H   UNL     1      -9.027   8.018  74.712  1.00  0.00     0.000 HD 
ENDBRANCH  47  58
ENDBRANCH  44  45
ENDBRANCH  40  44
ENDBRANCH  29  30
ENDBRANCH  22  29
ENDBRANCH  18  19
ENDBRANCH   7  18
ENDBRANCH   2   5
TORSDOF 9
ENDMDL
MODEL      166
REMARK 921   NORMALIZED FREE ENERGY PREDICTED BY IDOCK:   -4.63 KCAL/MOL
REMARK 922        TOTAL FREE ENERGY PREDICTED BY IDOCK:   -9.10 KCAL/MOL
REMARK 923 INTER-LIGAND FREE ENERGY PREDICTED BY IDOCK:   -6.58 KCAL/MOL
REMARK 924 INTRA-LIGAND FREE ENERGY PREDICTED BY IDOCK:   -2.52 KCAL/MOL
REMARK 927      BINDING AFFINITY PREDICTED BY RF-SCORE:    0.00 PKD
ROOT
HETATM    1  N   UNL     1     -12.169   9.851  71.423  1.00  0.00    -0.380 NA 
HETATM    2  C   UNL     1     -11.934   8.508  71.990  1.00  0.00    -0.361 C  
HETATM    3  H1  UNL     1     -13.166   9.986  71.255  1.00  0.00     0.000 HD 
HETATM    4  H2  UNL     1     -11.613  10.015  70.584  1.00  0.00     0.000 HD 
ENDROOT
BRANCH   2   5
HETATM    5  C   UNL     1     -10.431   8.304  72.245  1.00  0.00    -0.321 C  
HETATM    6  O   UNL     1      -9.969   7.328  71.293  1.00  0.00    -0.188 OA 
HETATM    7  C   UNL     1      -8.549   7.204  71.298  1.00  0.00    -0.124 C  
HETATM    8  C   UNL     1      -8.106   6.597  72.661  1.00  0.00    -0.102 C  
HETATM    9  O   UNL     1     -10.919   6.688  73.995  1.00  0.00    -0.418 OA 
HETATM   10  H   UNL     1     -10.724   6.398  74.878  1.00  0.00     0.000 HD 
HETATM   11  N   UNL     1      -8.636   5.211  72.823  1.00  0.00    -0.119 NA 
HETATM   12  C   UNL     1      -8.606   7.508  73.806  1.00  0.00    -0.208 C  
HETATM   13  H2  UNL     1      -8.373   4.612  72.040  1.00  0.00     0.000 HD 
HETATM   14  O   UNL     1      -7.827   8.710  73.888  1.00  0.00    -0.406 OA 
HETATM   15  C   UNL     1     -10.114   7.832  73.680  1.00  0.00    -0.069 C  
HETATM   16  H1  UNL     1      -8.346   4.814  73.716  1.00  0.00     0.000 HD 
HETATM   17  H   UNL     1      -8.135   9.269  74.591  1.00  0.00     0.000 HD 
BRANCH   7  18
HETATM   18  O   UNL     1      -8.102   6.343  70.248  1.00  0.00    -0.116 OA 
BRANCH  18  19
HETATM   19  C   UNL     1      -9.131   5.491  69.712  1.00  0.00    -0.132 C  
HETATM   20  O   UNL     1      -9.820   7.347  68.226  1.00  0.00    -0.153 OA 
HETATM   21  C   UNL     1      -8.463   4.154  69.397  1.00  0.00    -0.072 C  
HETATM   22  C   UNL     1      -8.659   5.310  67.382  1.00  0.00    -0.104 C  
HETATM   23  H   UNL     1     -10.157   7.623  67.381  1.00  0.00     0.000 HD 
HETATM   24  O   UNL     1      -8.027   4.205  68.030  1.00  0.00    -0.084 OA 
HETATM   25  C   UNL     1      -9.669   5.932  68.361  1.00  0.00    -0.129 C  
BRANCH  21  26
HETATM   26  C   UNL     1      -9.387   2.946  69.563  1.00  0.00    -0.129 C  
HETATM   27  H   UNL     1     -10.133   1.514  68.426  1.00  0.00     0.000 HD 
HETATM   28  O   UNL     1      -9.559   2.263  68.323  1.00  0.00    -0.211 OA 
ENDBRANCH  21  26
BRANCH  22  29
HETATM   29  O   UNL     1      -9.359   4.880  66.218  1.00  0.00    -0.133 OA 
BRANCH  29  30
HETATM   30  C   UNL     1      -8.609   4.660  65.008  1.00  0.00    -0.138 C  
HETATM   31  C   UNL     1      -7.903   3.291  65.059  1.00  0.00    -0.082 C  
HETATM   32  O   UNL     1      -8.819   2.274  65.487  1.00  0.00    -0.117 OA 
HETATM   33  C   UNL     1      -7.335   2.927  63.682  1.00  0.00    -0.057 C  
HETATM   34  C   UNL     1      -6.292   3.969  63.279  1.00  0.00    -0.022 C  
HETATM   35  N   UNL     1      -6.739   1.577  63.694  1.00  0.00    -0.024 NA 
HETATM   36  H   UNL     1      -8.384   1.430  65.518  1.00  0.00     0.000 HD 
HETATM   37  H1  UNL     1      -6.361   1.335  62.779  1.00  0.00     0.000 HD 
HETATM   38  H2  UNL     1      -7.403   0.876  64.023  1.00  0.00     0.000 HD 
HETATM   39  C   UNL     1      -6.872   5.394  63.278  1.00  0.00    -0.037 C  
HETATM   40  C   UNL     1      -7.622   5.790  64.605  1.00  0.00    -0.083 C  
HETATM   41  N   UNL     1      -5.781   6.343  62.973  1.00  0.00    -0.026 NA 
HETATM   42  H2  UNL     1      -5.296   6.116  62.104  1.00  0.00     0.000 HD 
HETATM   43  H1  UNL     1      -6.166   7.287  62.972  1.00  0.00     0.000 HD 
BRANCH  40  44
HETATM   44  O   UNL     1      -8.251   7.068  64.355  1.00  0.00    -0.084 OA 
BRANCH  44  45
HETATM   45  C   UNL     1      -7.783   8.157  65.164  1.00  0.00    -0.107 C  
HETATM   46  O   UNL     1      -6.589   8.730  64.642  1.00  0.00    -0.066 OA 
HETATM   47  C   UNL     1      -6.732   9.416  63.399  1.00  0.00    -0.094 C  
HETATM   48  C   UNL     1      -7.721  10.574  63.556  1.00  0.00     0.016 C  
HETATM   49  H1  UNL     1     -10.871   9.436  66.017  1.00  0.00     0.000 HD 
HETATM   50  H2  UNL     1     -10.010   8.196  66.745  1.00  0.00     0.000 HD 
HETATM   51  O   UNL     1      -7.931  11.281  62.332  1.00  0.00    -0.452 OA 
HETATM   52  C   UNL     1      -9.065  10.039  64.068  1.00  0.00    -0.257 C  
HETATM   53  H   UNL     1      -8.544  12.000  62.429  1.00  0.00     0.000 HD 
HETATM   54  O   UNL     1      -9.962  11.138  64.305  1.00  0.00    -0.255 OA 
HETATM   55  N   UNL     1     -10.156   8.722  65.882  1.00  0.00    -0.008 NA 
HETATM   56  C   UNL     1      -8.869   9.243  65.368  1.00  0.00    -0.192 C  
HETATM   57  H   UNL     1     -10.794  10.807  64.623  1.00  0.00     0.000 HD 
BRANCH  47  58
HETATM   58  C   UNL     1      -5.338   9.916  62.995  1.00  0.00    -0.094 C  
HETATM   59  O   UNL     1      -5.173  11.286  63.373  1.00  0.00    -0.443 OA 
HETATM   60  H   UNL     1      -4.311  11.595  63.123  1.00  0.00     0.000 HD 
ENDBRANCH  47  58
ENDBRANCH  44  45
ENDBRANCH  40  44
ENDBRANCH  29  30
ENDBRANCH  22  29
ENDBRANCH  18  19
ENDBRANCH   7  18
ENDBRANCH   2   5
TORSDOF 9
ENDMDL
MODEL      167
REMARK 921   NORMALIZED FREE ENERGY PREDICTED BY IDOCK:   -4.61 KCAL/MOL
REMARK 922        TOTAL FREE ENERGY PREDICTED BY IDOCK:   -9.07 KCAL/MOL
REMARK 923 INTER-LIGAND FREE ENERGY PREDICTED BY IDOCK:   -8.25 KCAL/MOL
REMARK 924 INTRA-LIGAND FREE ENERGY PREDICTED BY IDOCK:   -0.82 KCAL/MOL
REMARK 927      BINDING AFFINITY PREDICTED BY RF-SCORE:    0.00 PKD
ROOT
HETATM    1  N   UNL     1     -10.022  10.770  64.813  1.00  0.00    -0.294 NA 
HETATM    2  C   UNL     1      -9.787  12.226  64.893  1.00  0.00    -0.118 C  
HETATM    3  H1  UNL     1      -9.808  10.435  63.874  1.00  0.00     0.000 HD 
HETATM    4  H2  UNL     1     -10.967  10.518  65.105  1.00  0.00     0.000 HD 
ENDROOT
BRANCH   2   5
HETATM    5  C   UNL     1     -10.109  12.731  66.310  1.00  0.00    -0.259 C  
HETATM    6  O   UNL     1     -10.003  11.601  67.196  1.00  0.00    -0.197 OA 
HETATM    7  C   UNL     1     -10.083  11.986  68.566  1.00  0.00    -0.196 C  
HETATM    8  C   UNL     1     -11.516  12.520  68.853  1.00  0.00    -0.307 C  
HETATM    9  O   UNL     1     -12.489  12.462  65.894  1.00  0.00    -0.583 OA 
HETATM   10  H   UNL     1     -13.352  12.852  65.966  1.00  0.00     0.000 HD 
HETATM   11  N   UNL     1     -12.531  11.440  68.672  1.00  0.00    -0.318 NA 
HETATM   12  C   UNL     1     -11.812  13.707  67.906  1.00  0.00    -0.366 C  
HETATM   13  H2  UNL     1     -12.314  10.620  69.239  1.00  0.00     0.000 HD 
HETATM   14  O   UNL     1     -11.101  14.883  68.316  1.00  0.00    -0.260 OA 
HETATM   15  C   UNL     1     -11.511  13.365  66.427  1.00  0.00    -0.329 C  
HETATM   16  H1  UNL     1     -13.471  11.790  68.860  1.00  0.00     0.000 HD 
HETATM   17  H   UNL     1     -11.283  15.612  67.734  1.00  0.00     0.000 HD 
BRANCH   7  18
HETATM   18  O   UNL     1      -9.829  10.875  69.430  1.00  0.00    -0.154 OA 
BRANCH  18  19
HETATM   19  C   UNL     1     -10.937   9.966  69.555  1.00  0.00    -0.242 C  
HETATM   20  O   UNL     1     -10.072   8.722  67.599  1.00  0.00    -0.187 OA 
HETATM   21  C   UNL     1     -11.014   9.581  71.031  1.00  0.00    -0.353 C  
HETATM   22  C   UNL     1      -9.966   7.820  69.919  1.00  0.00    -0.191 C  
HETATM   23  H   UNL     1      -9.945   7.886  67.165  1.00  0.00     0.000 HD 
HETATM   24  O   UNL     1     -10.234   8.388  71.203  1.00  0.00    -0.189 OA 
HETATM   25  C   UNL     1     -10.734   8.629  68.862  1.00  0.00    -0.082 C  
BRANCH  21  26
HETATM   26  C   UNL     1     -12.434   9.302  71.526  1.00  0.00    -0.355 C  
HETATM   27  H   UNL     1     -13.863  10.275  72.482  1.00  0.00     0.000 HD 
HETATM   28  O   UNL     1     -12.981  10.448  72.175  1.00  0.00    -0.429 OA 
ENDBRANCH  21  26
BRANCH  22  29
HETATM   29  O   UNL     1     -10.404   6.466  69.864  1.00  0.00    -0.178 OA 
BRANCH  29  30
HETATM   30  C   UNL     1      -9.590   5.455  70.489  1.00  0.00    -0.175 C  
HETATM   31  C   UNL     1      -9.722   5.533  72.022  1.00  0.00    -0.160 C  
HETATM   32  O   UNL     1     -11.103   5.624  72.399  1.00  0.00    -0.248 OA 
HETATM   33  C   UNL     1      -9.088   4.303  72.681  1.00  0.00    -0.110 C  
HETATM   34  C   UNL     1      -7.596   4.269  72.348  1.00  0.00    -0.074 C  
HETATM   35  N   UNL     1      -9.292   4.319  74.142  1.00  0.00    -0.105 NA 
HETATM   36  H   UNL     1     -11.185   5.672  73.343  1.00  0.00     0.000 HD 
HETATM   37  H1  UNL     1      -8.869   3.501  74.581  1.00  0.00     0.000 HD 
HETATM   38  H2  UNL     1     -10.278   4.407  74.383  1.00  0.00     0.000 HD 
HETATM   39  C   UNL     1      -7.345   4.275  70.830  1.00  0.00    -0.044 C  
HETATM   40  C   UNL     1      -8.100   5.417  70.052  1.00  0.00    -0.085 C  
HETATM   41  N   UNL     1      -5.886   4.337  70.598  1.00  0.00    -0.013 NA 
HETATM   42  H2  UNL     1      -5.381   3.592  71.077  1.00  0.00     0.000 HD 
HETATM   43  H1  UNL     1      -5.720   4.341  69.592  1.00  0.00     0.000 HD 
BRANCH  40  44
HETATM   44  O   UNL     1      -7.898   5.155  68.643  1.00  0.00    -0.078 OA 
BRANCH  44  45
HETATM   45  C   UNL     1      -9.085   5.156  67.837  1.00  0.00    -0.112 C  
HETATM   46  O   UNL     1      -9.051   6.176  66.845  1.00  0.00    -0.121 OA 
HETATM   47  C   UNL     1      -8.079   5.996  65.816  1.00  0.00    -0.123 C  
HETATM   48  C   UNL     1      -8.350   4.689  65.068  1.00  0.00    -0.127 C  
HETATM   49  H1  UNL     1      -9.555   1.739  67.736  1.00  0.00     0.000 HD 
HETATM   50  H2  UNL     1     -10.047   2.833  68.907  1.00  0.00     0.000 HD 
HETATM   51  O   UNL     1      -7.386   4.438  64.043  1.00  0.00    -0.053 OA 
HETATM   52  C   UNL     1      -8.351   3.517  66.059  1.00  0.00    -0.106 C  
HETATM   53  H   UNL     1      -7.554   3.627  63.578  1.00  0.00     0.000 HD 
HETATM   54  O   UNL     1      -8.700   2.304  65.369  1.00  0.00    -0.109 OA 
HETATM   55  N   UNL     1      -9.377   2.650  68.159  1.00  0.00    -0.205 NA 
HETATM   56  C   UNL     1      -9.356   3.772  67.194  1.00  0.00    -0.196 C  
HETATM   57  H   UNL     1      -8.701   1.579  65.983  1.00  0.00     0.000 HD 
BRANCH  47  58
HETATM   58  C   UNL     1      -8.177   7.212  64.883  1.00  0.00    -0.071 C  
HETATM   59  O   UNL     1      -8.512   6.793  63.557  1.00  0.00    -0.344 OA 
HETATM   60  H   UNL     1      -8.573   7.545  62.980  1.00  0.00     0.000 HD 
ENDBRANCH  47  58
ENDBRANCH  44  45
ENDBRANCH  40  44
ENDBRANCH  29  30
ENDBRANCH  22  29
ENDBRANCH  18  19
ENDBRANCH   7  18
ENDBRANCH   2   5
TORSDOF 9
ENDMDL
MODEL      168
REMARK 921   NORMALIZED FREE ENERGY PREDICTED BY IDOCK:   -4.60 KCAL/MOL
REMARK 922        TOTAL FREE ENERGY PREDICTED BY IDOCK:   -9.06 KCAL/MOL
REMARK 923 INTER-LIGAND FREE ENERGY PREDICTED BY IDOCK:   -6.66 KCAL/MOL
REMARK 924 INTRA-LIGAND FREE ENERGY PREDICTED BY IDOCK:   -2.41 KCAL/MOL
REMARK 927      BINDING AFFINITY PREDICTED BY RF-SCORE:    0.00 PKD
ROOT
HETATM    1  N   UNL     1     -11.740  15.607  68.276  1.00  0.00    -0.394 NA 
HETATM    2  C   UNL     1     -10.460  14.872  68.317  1.00  0.00    -0.239 C  
HETATM    3  H1  UNL     1     -11.599  16.527  67.859  1.00  0.00     0.000 HD 
HETATM    4  H2  UNL     1     -12.178  15.666  69.196  1.00  0.00     0.000 HD 
ENDROOT
BRANCH   2   5
HETATM    5  C   UNL     1     -10.674  13.485  68.946  1.00  0.00    -0.201 C  
HETATM    6  O   UNL     1      -9.767  12.578  68.291  1.00  0.00    -0.219 OA 
HETATM    7  C   UNL     1      -9.731  11.303  68.928  1.00  0.00    -0.127 C  
HETATM    8  C   UNL     1     -11.111  10.611  68.738  1.00  0.00    -0.265 C  
HETATM    9  O   UNL     1     -12.534  13.058  67.439  1.00  0.00    -0.177 OA 
HETATM   10  H   UNL     1     -13.426  12.742  67.355  1.00  0.00     0.000 HD 
HETATM   11  N   UNL     1     -11.375  10.339  67.293  1.00  0.00    -0.378 NA 
HETATM   12  C   UNL     1     -12.216  11.516  69.330  1.00  0.00    -0.207 C  
HETATM   13  H2  UNL     1     -10.621   9.799  66.867  1.00  0.00     0.000 HD 
HETATM   14  O   UNL     1     -12.198  11.481  70.764  1.00  0.00    -0.374 OA 
HETATM   15  C   UNL     1     -12.123  12.970  68.810  1.00  0.00    -0.162 C  
HETATM   16  H1  UNL     1     -12.280   9.885  67.169  1.00  0.00     0.000 HD 
HETATM   17  H   UNL     1     -12.877  12.037  71.127  1.00  0.00     0.000 HD 
BRANCH   7  18
HETATM   18  O   UNL     1      -8.719  10.469  68.356  1.00  0.00    -0.125 OA 
BRANCH  18  19
HETATM   19  C   UNL     1      -8.452   9.273  69.109  1.00  0.00    -0.133 C  
HETATM   20  O   UNL     1      -9.731   7.988  67.424  1.00  0.00    -0.148 OA 
HETATM   21  C   UNL     1      -6.959   9.290  69.431  1.00  0.00    -0.049 C  
HETATM   22  C   UNL     1      -7.252   7.841  67.629  1.00  0.00    -0.091 C  
HETATM   23  H   UNL     1      -9.835   7.183  66.931  1.00  0.00     0.000 HD 
HETATM   24  O   UNL     1      -6.287   8.578  68.381  1.00  0.00    -0.052 OA 
HETATM   25  C   UNL     1      -8.618   7.985  68.320  1.00  0.00    -0.130 C  
BRANCH  21  26
HETATM   26  C   UNL     1      -6.605   8.629  70.764  1.00  0.00    -0.045 C  
HETATM   27  H   UNL     1      -6.977   8.923  72.682  1.00  0.00     0.000 HD 
HETATM   28  O   UNL     1      -7.196   9.333  71.854  1.00  0.00    -0.326 OA 
ENDBRANCH  21  26
BRANCH  22  29
HETATM   29  O   UNL     1      -6.909   6.460  67.582  1.00  0.00    -0.070 OA 
BRANCH  29  30
HETATM   30  C   UNL     1      -7.575   5.618  66.621  1.00  0.00    -0.092 C  
HETATM   31  C   UNL     1      -7.005   4.187  66.677  1.00  0.00    -0.059 C  
HETATM   32  O   UNL     1      -6.924   3.737  68.037  1.00  0.00    -0.050 OA 
HETATM   33  C   UNL     1      -7.883   3.227  65.867  1.00  0.00    -0.085 C  
HETATM   34  C   UNL     1      -7.885   3.665  64.402  1.00  0.00    -0.085 C  
HETATM   35  N   UNL     1      -7.402   1.837  65.990  1.00  0.00    -0.059 NA 
HETATM   36  H   UNL     1      -6.574   2.855  68.071  1.00  0.00     0.000 HD 
HETATM   37  H1  UNL     1      -7.985   1.197  65.451  1.00  0.00     0.000 HD 
HETATM   38  H2  UNL     1      -7.332   1.549  66.966  1.00  0.00     0.000 HD 
HETATM   39  C   UNL     1      -8.360   5.119  64.237  1.00  0.00    -0.137 C  
HETATM   40  C   UNL     1      -7.616   6.153  65.164  1.00  0.00    -0.090 C  
HETATM   41  N   UNL     1      -8.241   5.490  62.811  1.00  0.00    -0.108 NA 
HETATM   42  H2  UNL     1      -8.735   4.844  62.196  1.00  0.00     0.000 HD 
HETATM   43  H1  UNL     1      -8.556   6.454  62.702  1.00  0.00     0.000 HD 
BRANCH  40  44
HETATM   44  O   UNL     1      -8.310   7.413  65.010  1.00  0.00    -0.125 OA 
BRANCH  44  45
HETATM   45  C   UNL     1      -7.814   8.270  63.972  1.00  0.00    -0.146 C  
HETATM   46  O   UNL     1      -8.832   9.123  63.458  1.00  0.00    -0.181 OA 
HETATM   47  C   UNL     1      -9.311  10.117  64.362  1.00  0.00    -0.293 C  
HETATM   48  C   UNL     1      -8.162  11.037  64.781  1.00  0.00     0.264 C  
HETATM   49  H1  UNL     1      -4.683   8.825  65.310  1.00  0.00     0.000 HD 
HETATM   50  H2  UNL     1      -5.207   7.552  64.355  1.00  0.00     0.000 HD 
HETATM   51  O   UNL     1      -8.577  12.037  65.714  1.00  0.00    -0.381 OA 
HETATM   52  C   UNL     1      -7.032  10.203  65.400  1.00  0.00    -0.139 C  
HETATM   53  H   UNL     1      -7.863  12.608  65.974  1.00  0.00     0.000 HD 
HETATM   54  O   UNL     1      -5.915  11.057  65.704  1.00  0.00    -0.310 OA 
HETATM   55  N   UNL     1      -5.492   8.282  65.008  1.00  0.00    -0.039 NA 
HETATM   56  C   UNL     1      -6.586   9.096  64.431  1.00  0.00    -0.080 C  
HETATM   57  H   UNL     1      -5.216  10.541  66.087  1.00  0.00     0.000 HD 
BRANCH  47  58
HETATM   58  C   UNL     1     -10.420  10.892  63.636  1.00  0.00    -0.232 C  
HETATM   59  O   UNL     1     -11.181  11.662  64.572  1.00  0.00    -0.315 OA 
HETATM   60  H   UNL     1     -11.866  12.141  64.123  1.00  0.00     0.000 HD 
ENDBRANCH  47  58
ENDBRANCH  44  45
ENDBRANCH  40  44
ENDBRANCH  29  30
ENDBRANCH  22  29
ENDBRANCH  18  19
ENDBRANCH   7  18
ENDBRANCH   2   5
TORSDOF 9
ENDMDL
MODEL      169
REMARK 921   NORMALIZED FREE ENERGY PREDICTED BY IDOCK:   -4.57 KCAL/MOL
REMARK 922        TOTAL FREE ENERGY PREDICTED BY IDOCK:   -9.01 KCAL/MOL
REMARK 923 INTER-LIGAND FREE ENERGY PREDICTED BY IDOCK:   -6.81 KCAL/MOL
REMARK 924 INTRA-LIGAND FREE ENERGY PREDICTED BY IDOCK:   -2.20 KCAL/MOL
REMARK 927      BINDING AFFINITY PREDICTED BY RF-SCORE:    0.00 PKD
ROOT
HETATM    1  N   UNL     1     -12.361  15.213  70.524  1.00  0.00    -0.332 NA 
HETATM    2  C   UNL     1     -11.329  15.839  69.674  1.00  0.00    -0.334 C  
HETATM    3  H1  UNL     1     -12.366  15.653  71.445  1.00  0.00     0.000 HD 
HETATM    4  H2  UNL     1     -12.247  14.201  70.584  1.00  0.00     0.000 HD 
ENDROOT
BRANCH   2   5
HETATM    5  C   UNL     1     -11.323  15.177  68.286  1.00  0.00    -0.327 C  
HETATM    6  O   UNL     1     -10.574  13.953  68.404  1.00  0.00    -0.241 OA 
HETATM    7  C   UNL     1     -10.669  13.151  67.229  1.00  0.00    -0.254 C  
HETATM    8  C   UNL     1      -9.950  13.887  66.062  1.00  0.00    -0.310 C  
HETATM    9  O   UNL     1      -9.420  16.534  67.616  1.00  0.00    -0.222 OA 
HETATM   10  H   UNL     1      -9.041  17.084  66.939  1.00  0.00     0.000 HD 
HETATM   11  N   UNL     1      -8.491  14.029  66.342  1.00  0.00    -0.272 NA 
HETATM   12  C   UNL     1     -10.602  15.275  65.862  1.00  0.00    -0.335 C  
HETATM   13  H2  UNL     1      -8.056  13.128  66.544  1.00  0.00     0.000 HD 
HETATM   14  O   UNL     1     -11.885  15.157  65.232  1.00  0.00    -0.212 OA 
HETATM   15  C   UNL     1     -10.707  16.068  67.187  1.00  0.00    -0.283 C  
HETATM   16  H1  UNL     1      -8.019  14.512  65.577  1.00  0.00     0.000 HD 
HETATM   17  H   UNL     1     -12.286  16.009  65.109  1.00  0.00     0.000 HD 
BRANCH   7  18
HETATM   18  O   UNL     1     -10.043  11.879  67.421  1.00  0.00    -0.194 OA 
BRANCH  18  19
HETATM   19  C   UNL     1      -9.425  11.720  68.711  1.00  0.00    -0.026 C  
HETATM   20  O   UNL     1     -11.270  10.197  69.349  1.00  0.00    -0.230 OA 
HETATM   21  C   UNL     1      -7.946  11.443  68.449  1.00  0.00    -0.142 C  
HETATM   22  C   UNL     1      -8.953   9.392  68.909  1.00  0.00    -0.136 C  
HETATM   23  H   UNL     1     -11.551   9.425  69.826  1.00  0.00     0.000 HD 
HETATM   24  O   UNL     1      -7.783  10.019  68.381  1.00  0.00    -0.083 OA 
HETATM   25  C   UNL     1      -9.875  10.485  69.474  1.00  0.00    -0.142 C  
BRANCH  21  26
HETATM   26  C   UNL     1      -7.013  11.984  69.534  1.00  0.00     0.085 C  
HETATM   27  H   UNL     1      -5.331  11.440  70.414  1.00  0.00     0.000 HD 
HETATM   28  O   UNL     1      -5.910  11.105  69.740  1.00  0.00    -0.059 OA 
ENDBRANCH  21  26
BRANCH  22  29
HETATM   29  O   UNL     1      -8.614   8.494  69.961  1.00  0.00    -0.128 OA 
BRANCH  29  30
HETATM   30  C   UNL     1      -9.441   7.331  70.165  1.00  0.00    -0.165 C  
HETATM   31  C   UNL     1     -10.045   7.346  71.583  1.00  0.00    -0.183 C  
HETATM   32  O   UNL     1     -10.599   8.636  71.874  1.00  0.00    -0.286 OA 
HETATM   33  C   UNL     1     -11.133   6.275  71.716  1.00  0.00    -0.273 C  
HETATM   34  C   UNL     1     -10.509   4.897  71.495  1.00  0.00    -0.179 C  
HETATM   35  N   UNL     1     -11.784   6.341  73.038  1.00  0.00    -0.450 NA 
HETATM   36  H   UNL     1     -10.971   8.645  72.748  1.00  0.00     0.000 HD 
HETATM   37  H1  UNL     1     -12.508   5.628  73.128  1.00  0.00     0.000 HD 
HETATM   38  H2  UNL     1     -12.150   7.274  73.230  1.00  0.00     0.000 HD 
HETATM   39  C   UNL     1      -9.800   4.798  70.133  1.00  0.00    -0.238 C  
HETATM   40  C   UNL     1      -8.779   5.963  69.847  1.00  0.00    -0.129 C  
HETATM   41  N   UNL     1      -9.147   3.475  70.041  1.00  0.00    -0.111 NA 
HETATM   42  H2  UNL     1      -9.797   2.705  70.202  1.00  0.00     0.000 HD 
HETATM   43  H1  UNL     1      -8.677   3.409  69.138  1.00  0.00     0.000 HD 
BRANCH  40  44
HETATM   44  O   UNL     1      -8.358   5.810  68.472  1.00  0.00    -0.107 OA 
BRANCH  44  45
HETATM   45  C   UNL     1      -6.939   5.773  68.259  1.00  0.00    -0.069 C  
HETATM   46  O   UNL     1      -6.402   4.476  68.493  1.00  0.00    -0.034 OA 
HETATM   47  C   UNL     1      -6.796   3.473  67.558  1.00  0.00    -0.050 C  
HETATM   48  C   UNL     1      -6.346   3.868  66.150  1.00  0.00    -0.033 C  
HETATM   49  H1  UNL     1      -6.834   7.958  65.590  1.00  0.00     0.000 HD 
HETATM   50  H2  UNL     1      -6.833   8.302  67.231  1.00  0.00     0.000 HD 
HETATM   51  O   UNL     1      -6.742   2.914  65.163  1.00  0.00    -0.038 OA 
HETATM   52  C   UNL     1      -6.927   5.242  65.788  1.00  0.00    -0.066 C  
HETATM   53  H   UNL     1      -6.462   3.159  64.289  1.00  0.00     0.000 HD 
HETATM   54  O   UNL     1      -6.425   5.654  64.505  1.00  0.00    -0.035 OA 
HETATM   55  N   UNL     1      -7.093   7.620  66.517  1.00  0.00    -0.073 NA 
HETATM   56  C   UNL     1      -6.546   6.286  66.850  1.00  0.00    -0.059 C  
HETATM   57  H   UNL     1      -6.785   6.504  64.281  1.00  0.00     0.000 HD 
BRANCH  47  58
HETATM   58  C   UNL     1      -6.149   2.155  68.009  1.00  0.00    -0.024 C  
HETATM   59  O   UNL     1      -6.690   1.742  69.267  1.00  0.00    -0.029 OA 
HETATM   60  H   UNL     1      -6.290   0.927  69.546  1.00  0.00     0.000 HD 
ENDBRANCH  47  58
ENDBRANCH  44  45
ENDBRANCH  40  44
ENDBRANCH  29  30
ENDBRANCH  22  29
ENDBRANCH  18  19
ENDBRANCH   7  18
ENDBRANCH   2   5
TORSDOF 9
ENDMDL
MODEL      170
REMARK 921   NORMALIZED FREE ENERGY PREDICTED BY IDOCK:   -4.56 KCAL/MOL
REMARK 922        TOTAL FREE ENERGY PREDICTED BY IDOCK:   -9.01 KCAL/MOL
REMARK 923 INTER-LIGAND FREE ENERGY PREDICTED BY IDOCK:   -9.40 KCAL/MOL
REMARK 924 INTRA-LIGAND FREE ENERGY PREDICTED BY IDOCK:    0.39 KCAL/MOL
REMARK 927      BINDING AFFINITY PREDICTED BY RF-SCORE:    0.00 PKD
ROOT
HETATM    1  N   UNL     1      -8.192  18.342  67.220  1.00  0.00    -0.235 NA 
HETATM    2  C   UNL     1      -7.811  16.954  66.888  1.00  0.00    -0.217 C  
HETATM    3  H1  UNL     1      -7.391  18.961  67.098  1.00  0.00     0.000 HD 
HETATM    4  H2  UNL     1      -8.595  18.416  68.155  1.00  0.00     0.000 HD 
ENDROOT
BRANCH   2   5
HETATM    5  C   UNL     1      -9.020  16.022  67.072  1.00  0.00    -0.214 C  
HETATM    6  O   UNL     1      -8.742  14.817  66.336  1.00  0.00    -0.197 OA 
HETATM    7  C   UNL     1      -9.703  13.796  66.595  1.00  0.00    -0.289 C  
HETATM    8  C   UNL     1     -11.077  14.245  66.019  1.00  0.00    -0.319 C  
HETATM    9  O   UNL     1     -10.186  17.129  65.248  1.00  0.00    -0.591 OA 
HETATM   10  H   UNL     1     -11.003  17.511  64.950  1.00  0.00     0.000 HD 
HETATM   11  N   UNL     1     -11.012  14.377  64.534  1.00  0.00    -0.600 NA 
HETATM   12  C   UNL     1     -11.480  15.590  66.667  1.00  0.00     0.068 C  
HETATM   13  H2  UNL     1     -10.681  13.519  64.092  1.00  0.00     0.000 HD 
HETATM   14  O   UNL     1     -11.911  15.401  68.022  1.00  0.00    -0.405 OA 
HETATM   15  C   UNL     1     -10.348  16.642  66.587  1.00  0.00    -0.296 C  
HETATM   16  H1  UNL     1     -11.913  14.673  64.156  1.00  0.00     0.000 HD 
HETATM   17  H   UNL     1     -12.159  16.228  68.420  1.00  0.00     0.000 HD 
BRANCH   7  18
HETATM   18  O   UNL     1      -9.328  12.564  65.972  1.00  0.00    -0.195 OA 
BRANCH  18  19
HETATM   19  C   UNL     1      -9.795  11.392  66.664  1.00  0.00    -0.205 C  
HETATM   20  O   UNL     1      -8.141  10.051  65.403  1.00  0.00    -0.131 OA 
HETATM   21  C   UNL     1      -9.861  11.764  68.144  1.00  0.00    -0.190 C  
HETATM   22  C   UNL     1      -7.899  10.543  67.833  1.00  0.00    -0.105 C  
HETATM   23  H   UNL     1      -7.534   9.320  65.392  1.00  0.00     0.000 HD 
HETATM   24  O   UNL     1      -8.602  11.403  68.732  1.00  0.00    -0.153 OA 
HETATM   25  C   UNL     1      -8.824  10.224  66.647  1.00  0.00    -0.136 C  
BRANCH  21  26
HETATM   26  C   UNL     1     -10.973  11.049  68.914  1.00  0.00    -0.227 C  
HETATM   27  H   UNL     1     -12.898  10.674  68.682  1.00  0.00     0.000 HD 
HETATM   28  O   UNL     1     -12.208  11.117  68.204  1.00  0.00    -0.612 OA 
ENDBRANCH  21  26
BRANCH  22  29
HETATM   29  O   UNL     1      -7.545   9.322  68.476  1.00  0.00    -0.083 OA 
BRANCH  29  30
HETATM   30  C   UNL     1      -8.081   8.091  67.953  1.00  0.00    -0.129 C  
HETATM   31  C   UNL     1      -7.545   7.835  66.531  1.00  0.00    -0.096 C  
HETATM   32  O   UNL     1      -6.125   8.031  66.492  1.00  0.00    -0.046 OA 
HETATM   33  C   UNL     1      -7.882   6.410  66.077  1.00  0.00    -0.103 C  
HETATM   34  C   UNL     1      -9.401   6.244  66.034  1.00  0.00    -0.068 C  
HETATM   35  N   UNL     1      -7.293   6.121  64.755  1.00  0.00    -0.070 NA 
HETATM   36  H   UNL     1      -5.795   7.873  65.616  1.00  0.00     0.000 HD 
HETATM   37  H1  UNL     1      -7.517   5.174  64.453  1.00  0.00     0.000 HD 
HETATM   38  H2  UNL     1      -6.287   6.290  64.748  1.00  0.00     0.000 HD 
HETATM   39  C   UNL     1     -10.054   6.560  67.391  1.00  0.00    -0.162 C  
HETATM   40  C   UNL     1      -9.626   7.944  68.010  1.00  0.00    -0.151 C  
HETATM   41  N   UNL     1     -11.521   6.469  67.238  1.00  0.00    -0.743 NA 
HETATM   42  H2  UNL     1     -11.819   5.570  66.859  1.00  0.00     0.000 HD 
HETATM   43  H1  UNL     1     -11.953   6.678  68.137  1.00  0.00     0.000 HD 
BRANCH  40  44
HETATM   44  O   UNL     1     -10.180   7.985  69.345  1.00  0.00    -0.200 OA 
BRANCH  44  45
HETATM   45  C   UNL     1     -10.208   6.732  70.043  1.00  0.00    -0.191 C  
HETATM   46  O   UNL     1      -8.927   6.381  70.552  1.00  0.00    -0.149 OA 
HETATM   47  C   UNL     1      -8.437   7.213  71.603  1.00  0.00    -0.114 C  
HETATM   48  C   UNL     1      -9.395   7.161  72.797  1.00  0.00    -0.141 C  
HETATM   49  H1  UNL     1     -13.332   7.084  71.466  1.00  0.00     0.000 HD 
HETATM   50  H2  UNL     1     -12.930   6.514  69.942  1.00  0.00     0.000 HD 
HETATM   51  O   UNL     1      -8.972   8.004  73.871  1.00  0.00    -0.284 OA 
HETATM   52  C   UNL     1     -10.802   7.579  72.348  1.00  0.00    -0.276 C  
HETATM   53  H   UNL     1      -9.566   7.971  74.612  1.00  0.00     0.000 HD 
HETATM   54  O   UNL     1     -11.719   7.438  73.447  1.00  0.00    -0.496 OA 
HETATM   55  N   UNL     1     -12.631   7.097  70.725  1.00  0.00    -0.224 NA 
HETATM   56  C   UNL     1     -11.272   6.713  71.169  1.00  0.00    -0.292 C  
HETATM   57  H   UNL     1     -12.590   7.697  73.170  1.00  0.00     0.000 HD 
BRANCH  47  58
HETATM   58  C   UNL     1      -7.041   6.697  71.977  1.00  0.00    -0.080 C  
HETATM   59  O   UNL     1      -6.315   7.702  72.690  1.00  0.00    -0.056 OA 
HETATM   60  H   UNL     1      -5.451   7.383  72.921  1.00  0.00     0.000 HD 
ENDBRANCH  47  58
ENDBRANCH  44  45
ENDBRANCH  40  44
ENDBRANCH  29  30
ENDBRANCH  22  29
ENDBRANCH  18  19
ENDBRANCH   7  18
ENDBRANCH   2   5
TORSDOF 9
ENDMDL
MODEL      171
REMARK 921   NORMALIZED FREE ENERGY PREDICTED BY IDOCK:   -4.55 KCAL/MOL
REMARK 922        TOTAL FREE ENERGY PREDICTED BY IDOCK:   -8.99 KCAL/MOL
REMARK 923 INTER-LIGAND FREE ENERGY PREDICTED BY IDOCK:   -7.88 KCAL/MOL
REMARK 924 INTRA-LIGAND FREE ENERGY PREDICTED BY IDOCK:   -1.11 KCAL/MOL
REMARK 927      BINDING AFFINITY PREDICTED BY RF-SCORE:    0.00 PKD
ROOT
HETATM    1  N   UNL     1     -12.686  16.325  73.626  1.00  0.00    -0.533 NA 
HETATM    2  C   UNL     1     -11.693  16.344  72.532  1.00  0.00    -0.352 C  
HETATM    3  H1  UNL     1     -12.653  17.206  74.139  1.00  0.00     0.000 HD 
HETATM    4  H2  UNL     1     -12.565  15.519  74.239  1.00  0.00     0.000 HD 
ENDROOT
BRANCH   2   5
HETATM    5  C   UNL     1     -11.743  15.015  71.758  1.00  0.00    -0.385 C  
HETATM    6  O   UNL     1     -10.950  15.188  70.570  1.00  0.00    -0.273 OA 
HETATM    7  C   UNL     1     -10.756  13.959  69.872  1.00  0.00     0.378 C  
HETATM    8  C   UNL     1     -12.127  13.484  69.309  1.00  0.00    -0.288 C  
HETATM    9  O   UNL     1     -13.841  15.670  70.718  1.00  0.00    -0.850 OA 
HETATM   10  H   UNL     1     -14.723  15.405  70.484  1.00  0.00     0.000 HD 
HETATM   11  N   UNL     1     -12.650  14.450  68.298  1.00  0.00    -0.331 NA 
HETATM   12  C   UNL     1     -13.126  13.327  70.479  1.00  0.00     0.262 C  
HETATM   13  H2  UNL     1     -11.974  14.618  67.552  1.00  0.00     0.000 HD 
HETATM   14  O   UNL     1     -12.837  12.154  71.251  1.00  0.00    -0.358 OA 
HETATM   15  C   UNL     1     -13.176  14.585  71.378  1.00  0.00    -0.355 C  
HETATM   16  H1  UNL     1     -13.549  14.138  67.929  1.00  0.00     0.000 HD 
HETATM   17  H   UNL     1     -13.451  12.057  71.969  1.00  0.00     0.000 HD 
BRANCH   7  18
HETATM   18  O   UNL     1      -9.847  14.124  68.780  1.00  0.00    -0.224 OA 
BRANCH  18  19
HETATM   19  C   UNL     1      -8.862  13.080  68.676  1.00  0.00     0.061 C  
HETATM   20  O   UNL     1     -10.591  11.452  69.375  1.00  0.00    -0.390 OA 
HETATM   21  C   UNL     1      -8.162  13.280  67.334  1.00  0.00    -0.183 C  
HETATM   22  C   UNL     1      -9.711  11.562  67.046  1.00  0.00    -0.184 C  
HETATM   23  H   UNL     1     -10.954  10.577  69.298  1.00  0.00     0.000 HD 
HETATM   24  O   UNL     1      -8.861  12.486  66.364  1.00  0.00    -0.141 OA 
HETATM   25  C   UNL     1      -9.442  11.681  68.555  1.00  0.00    -0.173 C  
BRANCH  21  26
HETATM   26  C   UNL     1      -6.692  12.856  67.333  1.00  0.00    -0.124 C  
HETATM   27  H   UNL     1      -4.923  13.724  67.473  1.00  0.00     0.000 HD 
HETATM   28  O   UNL     1      -5.835  13.987  67.473  1.00  0.00    -0.338 OA 
ENDBRANCH  21  26
BRANCH  22  29
HETATM   29  O   UNL     1      -9.435  10.226  66.637  1.00  0.00    -0.158 OA 
BRANCH  29  30
HETATM   30  C   UNL     1      -8.059   9.822  66.495  1.00  0.00    -0.116 C  
HETATM   31  C   UNL     1      -7.681   9.731  65.003  1.00  0.00    -0.126 C  
HETATM   32  O   UNL     1      -8.123  10.903  64.305  1.00  0.00    -0.365 OA 
HETATM   33  C   UNL     1      -6.164   9.575  64.842  1.00  0.00    -0.080 C  
HETATM   34  C   UNL     1      -5.721   8.274  65.511  1.00  0.00    -0.044 C  
HETATM   35  N   UNL     1      -5.779   9.581  63.417  1.00  0.00    -0.087 NA 
HETATM   36  H   UNL     1      -7.889  10.847  63.387  1.00  0.00     0.000 HD 
HETATM   37  H1  UNL     1      -4.771   9.477  63.309  1.00  0.00     0.000 HD 
HETATM   38  H2  UNL     1      -6.124  10.413  62.939  1.00  0.00     0.000 HD 
HETATM   39  C   UNL     1      -6.126   8.221  66.994  1.00  0.00    -0.054 C  
HETATM   40  C   UNL     1      -7.646   8.537  67.262  1.00  0.00    -0.097 C  
HETATM   41  N   UNL     1      -5.746   6.900  67.536  1.00  0.00    -0.019 NA 
HETATM   42  H2  UNL     1      -4.759   6.686  67.391  1.00  0.00     0.000 HD 
HETATM   43  H1  UNL     1      -6.014   6.866  68.519  1.00  0.00     0.000 HD 
BRANCH  40  44
HETATM   44  O   UNL     1      -7.798   8.625  68.698  1.00  0.00    -0.103 OA 
BRANCH  44  45
HETATM   45  C   UNL     1      -8.414   7.491  69.326  1.00  0.00    -0.136 C  
HETATM   46  O   UNL     1      -7.531   6.846  70.237  1.00  0.00    -0.082 OA 
HETATM   47  C   UNL     1      -7.199   7.597  71.403  1.00  0.00    -0.066 C  
HETATM   48  C   UNL     1      -8.468   7.912  72.198  1.00  0.00    -0.132 C  
HETATM   49  H1  UNL     1     -11.590   8.809  69.605  1.00  0.00     0.000 HD 
HETATM   50  H2  UNL     1     -10.890   8.023  68.301  1.00  0.00     0.000 HD 
HETATM   51  O   UNL     1      -8.201   8.694  73.365  1.00  0.00    -0.408 OA 
HETATM   52  C   UNL     1      -9.465   8.662  71.304  1.00  0.00    -0.224 C  
HETATM   53  H   UNL     1      -8.989   8.888  73.858  1.00  0.00     0.000 HD 
HETATM   54  O   UNL     1     -10.693   8.872  72.023  1.00  0.00    -0.339 OA 
HETATM   55  N   UNL     1     -10.712   8.565  69.147  1.00  0.00    -0.165 NA 
HETATM   56  C   UNL     1      -9.748   7.861  70.022  1.00  0.00    -0.179 C  
HETATM   57  H   UNL     1     -11.310   9.336  71.469  1.00  0.00     0.000 HD 
BRANCH  47  58
HETATM   58  C   UNL     1      -6.215   6.750  72.223  1.00  0.00    -0.045 C  
HETATM   59  O   UNL     1      -6.859   6.233  73.390  1.00  0.00    -0.074 OA 
HETATM   60  H   UNL     1      -6.251   5.709  73.897  1.00  0.00     0.000 HD 
ENDBRANCH  47  58
ENDBRANCH  44  45
ENDBRANCH  40  44
ENDBRANCH  29  30
ENDBRANCH  22  29
ENDBRANCH  18  19
ENDBRANCH   7  18
ENDBRANCH   2   5
TORSDOF 9
ENDMDL
MODEL      172
REMARK 921   NORMALIZED FREE ENERGY PREDICTED BY IDOCK:   -4.55 KCAL/MOL
REMARK 922        TOTAL FREE ENERGY PREDICTED BY IDOCK:   -8.98 KCAL/MOL
REMARK 923 INTER-LIGAND FREE ENERGY PREDICTED BY IDOCK:   -7.46 KCAL/MOL
REMARK 924 INTRA-LIGAND FREE ENERGY PREDICTED BY IDOCK:   -1.52 KCAL/MOL
REMARK 927      BINDING AFFINITY PREDICTED BY RF-SCORE:    0.00 PKD
ROOT
HETATM    1  N   UNL     1     -12.290  15.736  69.978  1.00  0.00    -0.421 NA 
HETATM    2  C   UNL     1     -11.209  16.652  69.561  1.00  0.00    -0.058 C  
HETATM    3  H1  UNL     1     -12.526  15.901  70.956  1.00  0.00     0.000 HD 
HETATM    4  H2  UNL     1     -12.055  14.759  69.799  1.00  0.00     0.000 HD 
ENDROOT
BRANCH   2   5
HETATM    5  C   UNL     1     -10.853  16.403  68.085  1.00  0.00    -0.346 C  
HETATM    6  O   UNL     1     -10.006  15.240  68.044  1.00  0.00    -0.222 OA 
HETATM    7  C   UNL     1      -9.775  14.793  66.710  1.00  0.00    -0.254 C  
HETATM    8  C   UNL     1      -8.930  15.865  65.963  1.00  0.00    -0.302 C  
HETATM    9  O   UNL     1      -9.025  18.000  68.229  1.00  0.00    -0.268 OA 
HETATM   10  H   UNL     1      -8.586  18.737  67.819  1.00  0.00     0.000 HD 
HETATM   11  N   UNL     1      -7.581  16.006  66.585  1.00  0.00    -0.211 NA 
HETATM   12  C   UNL     1      -9.686  17.214  65.992  1.00  0.00    -0.189 C  
HETATM   13  H2  UNL     1      -7.094  15.111  66.637  1.00  0.00     0.000 HD 
HETATM   14  O   UNL     1     -10.797  17.203  65.085  1.00  0.00    -0.626 OA 
HETATM   15  C   UNL     1     -10.140  17.600  67.420  1.00  0.00    -0.331 C  
HETATM   16  H1  UNL     1      -7.027  16.709  66.096  1.00  0.00     0.000 HD 
HETATM   17  H   UNL     1     -11.261  18.032  65.103  1.00  0.00     0.000 HD 
BRANCH   7  18
HETATM   18  O   UNL     1      -9.057  13.556  66.698  1.00  0.00    -0.234 OA 
BRANCH  18  19
HETATM   19  C   UNL     1      -8.528  13.174  67.980  1.00  0.00    -0.181 C  
HETATM   20  O   UNL     1     -10.782  12.369  68.612  1.00  0.00    -0.227 OA 
HETATM   21  C   UNL     1      -7.235  12.410  67.703  1.00  0.00    -0.130 C  
HETATM   22  C   UNL     1      -8.885  10.823  68.143  1.00  0.00    -0.133 C  
HETATM   23  H   UNL     1     -11.310  11.733  69.080  1.00  0.00     0.000 HD 
HETATM   24  O   UNL     1      -7.572  11.017  67.614  1.00  0.00    -0.099 OA 
HETATM   25  C   UNL     1      -9.373  12.157  68.730  1.00  0.00     0.083 C  
BRANCH  21  26
HETATM   26  C   UNL     1      -6.170  12.580  68.788  1.00  0.00    -0.074 C  
HETATM   27  H   UNL     1      -4.840  11.453  69.715  1.00  0.00     0.000 HD 
HETATM   28  O   UNL     1      -5.501  11.347  69.042  1.00  0.00    -0.041 OA 
ENDBRANCH  21  26
BRANCH  22  29
HETATM   29  O   UNL     1      -8.872   9.847  69.180  1.00  0.00    -0.142 OA 
BRANCH  29  30
HETATM   30  C   UNL     1      -9.957   8.901  69.245  1.00  0.00    -0.192 C  
HETATM   31  C   UNL     1     -10.557   8.871  70.665  1.00  0.00    -0.229 C  
HETATM   32  O   UNL     1     -10.788  10.207  71.135  1.00  0.00    -0.278 OA 
HETATM   33  C   UNL     1     -11.872   8.085  70.678  1.00  0.00    -0.093 C  
HETATM   34  C   UNL     1     -11.595   6.639  70.264  1.00  0.00    -0.454 C  
HETATM   35  N   UNL     1     -12.504   8.129  72.010  1.00  0.00    -0.324 NA 
HETATM   36  H   UNL     1     -11.157  10.189  72.009  1.00  0.00     0.000 HD 
HETATM   37  H1  UNL     1     -13.379   7.606  72.020  1.00  0.00     0.000 HD 
HETATM   38  H2  UNL     1     -12.637   9.088  72.331  1.00  0.00     0.000 HD 
HETATM   39  C   UNL     1     -10.915   6.555  68.887  1.00  0.00    -0.314 C  
HETATM   40  C   UNL     1      -9.640   7.468  68.736  1.00  0.00    -0.149 C  
HETATM   41  N   UNL     1     -10.599   5.138  68.608  1.00  0.00    -0.037 NA 
HETATM   42  H2  UNL     1     -11.417   4.533  68.679  1.00  0.00     0.000 HD 
HETATM   43  H1  UNL     1     -10.147   5.082  67.695  1.00  0.00     0.000 HD 
BRANCH  40  44
HETATM   44  O   UNL     1      -9.251   7.402  67.345  1.00  0.00    -0.129 OA 
BRANCH  44  45
HETATM   45  C   UNL     1      -7.842   7.296  67.100  1.00  0.00    -0.110 C  
HETATM   46  O   UNL     1      -7.097   7.238  68.311  1.00  0.00    -0.076 OA 
HETATM   47  C   UNL     1      -7.281   6.055  69.087  1.00  0.00    -0.082 C  
HETATM   48  C   UNL     1      -6.860   4.828  68.274  1.00  0.00    -0.055 C  
HETATM   49  H1  UNL     1      -8.027   5.274  64.310  1.00  0.00     0.000 HD 
HETATM   50  H2  UNL     1      -8.139   6.944  64.407  1.00  0.00     0.000 HD 
HETATM   51  O   UNL     1      -7.053   3.607  68.990  1.00  0.00    -0.048 OA 
HETATM   52  C   UNL     1      -7.657   4.779  66.963  1.00  0.00    -0.087 C  
HETATM   53  H   UNL     1      -6.791   2.846  68.486  1.00  0.00     0.000 HD 
HETATM   54  O   UNL     1      -7.192   3.681  66.159  1.00  0.00    -0.065 OA 
HETATM   55  N   UNL     1      -8.254   6.065  64.913  1.00  0.00    -0.136 NA 
HETATM   56  C   UNL     1      -7.496   6.094  66.184  1.00  0.00    -0.085 C  
HETATM   57  H   UNL     1      -7.686   3.651  65.347  1.00  0.00     0.000 HD 
BRANCH  47  58
HETATM   58  C   UNL     1      -6.432   6.209  70.357  1.00  0.00    -0.040 C  
HETATM   59  O   UNL     1      -7.078   5.576  71.465  1.00  0.00    -0.067 OA 
HETATM   60  H   UNL     1      -6.553   5.671  72.250  1.00  0.00     0.000 HD 
ENDBRANCH  47  58
ENDBRANCH  44  45
ENDBRANCH  40  44
ENDBRANCH  29  30
ENDBRANCH  22  29
ENDBRANCH  18  19
ENDBRANCH   7  18
ENDBRANCH   2   5
TORSDOF 9
ENDMDL
MODEL      173
REMARK 921   NORMALIZED FREE ENERGY PREDICTED BY IDOCK:   -4.53 KCAL/MOL
REMARK 922        TOTAL FREE ENERGY PREDICTED BY IDOCK:   -8.96 KCAL/MOL
REMARK 923 INTER-LIGAND FREE ENERGY PREDICTED BY IDOCK:   -7.31 KCAL/MOL
REMARK 924 INTRA-LIGAND FREE ENERGY PREDICTED BY IDOCK:   -1.65 KCAL/MOL
REMARK 927      BINDING AFFINITY PREDICTED BY RF-SCORE:    0.00 PKD
ROOT
HETATM    1  N   UNL     1     -11.150   6.237  73.509  1.00  0.00    -0.450 NA 
HETATM    2  C   UNL     1     -10.298   5.034  73.599  1.00  0.00    -0.219 C  
HETATM    3  H1  UNL     1     -12.045   6.063  73.968  1.00  0.00     0.000 HD 
HETATM    4  H2  UNL     1     -11.268   6.552  72.546  1.00  0.00     0.000 HD 
ENDROOT
BRANCH   2   5
HETATM    5  C   UNL     1      -8.949   5.297  72.908  1.00  0.00    -0.120 C  
HETATM    6  O   UNL     1      -9.238   5.775  71.582  1.00  0.00    -0.146 OA 
HETATM    7  C   UNL     1      -8.069   6.243  70.914  1.00  0.00    -0.124 C  
HETATM    8  C   UNL     1      -7.127   5.034  70.650  1.00  0.00    -0.053 C  
HETATM    9  O   UNL     1      -8.790   2.956  72.268  1.00  0.00    -0.073 OA 
HETATM   10  H   UNL     1      -8.236   2.186  72.222  1.00  0.00     0.000 HD 
HETATM   11  N   UNL     1      -7.765   4.057  69.718  1.00  0.00    -0.052 NA 
HETATM   12  C   UNL     1      -6.784   4.356  71.997  1.00  0.00    -0.030 C  
HETATM   13  H2  UNL     1      -8.060   4.501  68.849  1.00  0.00     0.000 HD 
HETATM   14  O   UNL     1      -5.852   5.145  72.749  1.00  0.00    -0.020 OA 
HETATM   15  C   UNL     1      -8.049   4.046  72.833  1.00  0.00    -0.088 C  
HETATM   16  H1  UNL     1      -7.147   3.263  69.545  1.00  0.00     0.000 HD 
HETATM   17  H   UNL     1      -5.641   4.728  73.576  1.00  0.00     0.000 HD 
BRANCH   7  18
HETATM   18  O   UNL     1      -8.398   6.848  69.660  1.00  0.00    -0.129 OA 
BRANCH  18  19
HETATM   19  C   UNL     1      -7.484   7.881  69.251  1.00  0.00    -0.092 C  
HETATM   20  O   UNL     1      -8.093   7.415  66.897  1.00  0.00    -0.115 OA 
HETATM   21  C   UNL     1      -7.773   9.089  70.138  1.00  0.00    -0.089 C  
HETATM   22  C   UNL     1      -8.810   9.483  68.088  1.00  0.00    -0.124 C  
HETATM   23  H   UNL     1      -8.247   7.750  66.021  1.00  0.00     0.000 HD 
HETATM   24  O   UNL     1      -8.736   9.903  69.451  1.00  0.00    -0.151 OA 
HETATM   25  C   UNL     1      -7.729   8.417  67.850  1.00  0.00    -0.103 C  
BRANCH  21  26
HETATM   26  C   UNL     1      -6.543   9.948  70.436  1.00  0.00    -0.125 C  
HETATM   27  H   UNL     1      -6.142  11.849  70.790  1.00  0.00     0.000 HD 
HETATM   28  O   UNL     1      -6.906  11.316  70.604  1.00  0.00     0.064 OA 
ENDBRANCH  21  26
BRANCH  22  29
HETATM   29  O   UNL     1      -8.571  10.578  67.208  1.00  0.00    -0.123 OA 
BRANCH  29  30
HETATM   30  C   UNL     1      -9.506  10.817  66.139  1.00  0.00    -0.187 C  
HETATM   31  C   UNL     1      -8.857  10.493  64.779  1.00  0.00    -0.196 C  
HETATM   32  O   UNL     1      -8.195   9.222  64.834  1.00  0.00    -0.129 OA 
HETATM   33  C   UNL     1      -9.913  10.476  63.668  1.00  0.00    -0.234 C  
HETATM   34  C   UNL     1     -10.546  11.864  63.558  1.00  0.00    -0.507 C  
HETATM   35  N   UNL     1      -9.321  10.074  62.378  1.00  0.00    -0.385 NA 
HETATM   36  H   UNL     1      -7.795   9.022  63.996  1.00  0.00     0.000 HD 
HETATM   37  H1  UNL     1     -10.023  10.063  61.639  1.00  0.00     0.000 HD 
HETATM   38  H2  UNL     1      -8.837   9.179  62.450  1.00  0.00     0.000 HD 
HETATM   39  C   UNL     1     -11.155  12.327  64.893  1.00  0.00    -0.311 C  
HETATM   40  C   UNL     1     -10.178  12.217  66.124  1.00  0.00    -0.227 C  
HETATM   41  N   UNL     1     -11.657  13.706  64.725  1.00  0.00    -0.341 NA 
HETATM   42  H2  UNL     1     -12.309  13.794  63.945  1.00  0.00     0.000 HD 
HETATM   43  H1  UNL     1     -12.060  14.013  65.609  1.00  0.00     0.000 HD 
BRANCH  40  44
HETATM   44  O   UNL     1     -10.967  12.512  67.300  1.00  0.00    -0.245 OA 
BRANCH  44  45
HETATM   45  C   UNL     1     -10.299  13.268  68.320  1.00  0.00    -0.249 C  
HETATM   46  O   UNL     1      -9.398  14.222  67.768  1.00  0.00    -0.189 OA 
HETATM   47  C   UNL     1     -10.007  15.296  67.052  1.00  0.00    -0.234 C  
HETATM   48  C   UNL     1     -10.935  16.081  67.983  1.00  0.00    -0.341 C  
HETATM   49  H1  UNL     1     -12.947  13.478  70.523  1.00  0.00     0.000 HD 
HETATM   50  H2  UNL     1     -11.822  12.248  70.346  1.00  0.00     0.000 HD 
HETATM   51  O   UNL     1     -11.600  17.153  67.311  1.00  0.00     0.508 OA 
HETATM   52  C   UNL     1     -11.981  15.135  68.587  1.00  0.00    -0.240 C  
HETATM   53  H   UNL     1     -12.175  17.641  67.889  1.00  0.00     0.000 HD 
HETATM   54  O   UNL     1     -12.791  15.855  69.534  1.00  0.00    -0.499 OA 
HETATM   55  N   UNL     1     -12.290  13.029  69.885  1.00  0.00    -0.174 NA 
HETATM   56  C   UNL     1     -11.297  13.951  69.289  1.00  0.00    -0.272 C  
HETATM   57  H   UNL     1     -13.438  15.269  69.908  1.00  0.00     0.000 HD 
BRANCH  47  58
HETATM   58  C   UNL     1      -8.874  16.177  66.509  1.00  0.00    -0.296 C  
HETATM   59  O   UNL     1      -7.679  15.408  66.350  1.00  0.00    -0.199 OA 
HETATM   60  H   UNL     1      -6.979  15.953  66.013  1.00  0.00     0.000 HD 
ENDBRANCH  47  58
ENDBRANCH  44  45
ENDBRANCH  40  44
ENDBRANCH  29  30
ENDBRANCH  22  29
ENDBRANCH  18  19
ENDBRANCH   7  18
ENDBRANCH   2   5
TORSDOF 9
ENDMDL
MODEL      174
REMARK 921   NORMALIZED FREE ENERGY PREDICTED BY IDOCK:   -4.52 KCAL/MOL
REMARK 922        TOTAL FREE ENERGY PREDICTED BY IDOCK:   -8.94 KCAL/MOL
REMARK 923 INTER-LIGAND FREE ENERGY PREDICTED BY IDOCK:   -8.22 KCAL/MOL
REMARK 924 INTRA-LIGAND FREE ENERGY PREDICTED BY IDOCK:   -0.72 KCAL/MOL
REMARK 927      BINDING AFFINITY PREDICTED BY RF-SCORE:    0.00 PKD
ROOT
HETATM    1  N   UNL     1      -6.968   4.776  70.403  1.00  0.00    -0.043 NA 
HETATM    2  C   UNL     1      -7.317   4.411  71.790  1.00  0.00    -0.068 C  
HETATM    3  H1  UNL     1      -6.300   4.104  70.025  1.00  0.00     0.000 HD 
HETATM    4  H2  UNL     1      -6.628   5.736  70.333  1.00  0.00     0.000 HD 
ENDROOT
BRANCH   2   5
HETATM    5  C   UNL     1      -8.324   5.423  72.360  1.00  0.00    -0.118 C  
HETATM    6  O   UNL     1      -8.080   6.680  71.702  1.00  0.00    -0.106 OA 
HETATM    7  C   UNL     1      -9.085   7.646  72.002  1.00  0.00    -0.131 C  
HETATM    8  C   UNL     1      -8.986   8.018  73.510  1.00  0.00    -0.260 C  
HETATM    9  O   UNL     1      -6.851   5.871  74.242  1.00  0.00    -0.079 OA 
HETATM   10  H   UNL     1      -6.784   5.979  75.184  1.00  0.00     0.000 HD 
HETATM   11  N   UNL     1      -7.681   8.680  73.809  1.00  0.00    -0.417 NA 
HETATM   12  C   UNL     1      -9.153   6.736  74.358  1.00  0.00    -0.203 C  
HETATM   13  H2  UNL     1      -7.523   9.490  73.210  1.00  0.00     0.000 HD 
HETATM   14  O   UNL     1     -10.519   6.302  74.373  1.00  0.00    -0.353 OA 
HETATM   15  C   UNL     1      -8.214   5.598  73.890  1.00  0.00    -0.110 C  
HETATM   16  H1  UNL     1      -7.617   8.923  74.798  1.00  0.00     0.000 HD 
HETATM   17  H   UNL     1     -10.622   5.514  74.895  1.00  0.00     0.000 HD 
BRANCH   7  18
HETATM   18  O   UNL     1      -8.905   8.834  71.226  1.00  0.00    -0.189 OA 
BRANCH  18  19
HETATM   19  C   UNL     1     -10.133   9.511  70.900  1.00  0.00    -0.260 C  
HETATM   20  O   UNL     1      -8.859  10.971  69.360  1.00  0.00    -0.388 OA 
HETATM   21  C   UNL     1     -11.165   8.420  70.619  1.00  0.00    -0.255 C  
HETATM   22  C   UNL     1     -10.425   9.209  68.554  1.00  0.00    -0.204 C  
HETATM   23  H   UNL     1      -8.834  11.458  68.544  1.00  0.00     0.000 HD 
HETATM   24  O   UNL     1     -11.133   8.155  69.209  1.00  0.00    -0.036 OA 
HETATM   25  C   UNL     1     -10.093  10.289  69.596  1.00  0.00    -0.224 C  
BRANCH  21  26
HETATM   26  C   UNL     1     -12.594   8.806  71.004  1.00  0.00    -0.077 C  
HETATM   27  H   UNL     1     -13.485  10.135  72.162  1.00  0.00     0.000 HD 
HETATM   28  O   UNL     1     -12.597   9.896  71.923  1.00  0.00    -0.388 OA 
ENDBRANCH  21  26
BRANCH  22  29
HETATM   29  O   UNL     1     -11.224   9.793  67.530  1.00  0.00    -0.155 OA 
BRANCH  29  30
HETATM   30  C   UNL     1     -10.642  10.825  66.710  1.00  0.00    -0.250 C  
HETATM   31  C   UNL     1     -11.421  12.145  66.877  1.00  0.00    -0.351 C  
HETATM   32  O   UNL     1     -11.638  12.421  68.268  1.00  0.00    -0.289 OA 
HETATM   33  C   UNL     1     -10.656  13.307  66.234  1.00  0.00    -0.289 C  
HETATM   34  C   UNL     1     -10.512  13.043  64.735  1.00  0.00    -0.382 C  
HETATM   35  N   UNL     1     -11.344  14.590  66.470  1.00  0.00    -0.345 NA 
HETATM   36  H   UNL     1     -12.118  13.234  68.371  1.00  0.00     0.000 HD 
HETATM   37  H1  UNL     1     -10.836  15.364  66.042  1.00  0.00     0.000 HD 
HETATM   38  H2  UNL     1     -11.507  14.752  67.463  1.00  0.00     0.000 HD 
HETATM   39  C   UNL     1      -9.818  11.700  64.450  1.00  0.00    -0.223 C  
HETATM   40  C   UNL     1     -10.446  10.472  65.210  1.00  0.00    -0.162 C  
HETATM   41  N   UNL     1      -9.805  11.481  62.989  1.00  0.00    -0.551 NA 
HETATM   42  H2  UNL     1      -9.382  12.257  62.480  1.00  0.00     0.000 HD 
HETATM   43  H1  UNL     1      -9.345  10.591  62.800  1.00  0.00     0.000 HD 
BRANCH  40  44
HETATM   44  O   UNL     1      -9.564   9.349  64.973  1.00  0.00    -0.228 OA 
BRANCH  44  45
HETATM   45  C   UNL     1      -8.846   8.873  66.119  1.00  0.00    -0.161 C  
HETATM   46  O   UNL     1      -9.000   7.469  66.295  1.00  0.00    -0.159 OA 
HETATM   47  C   UNL     1      -8.390   6.656  65.293  1.00  0.00    -0.111 C  
HETATM   48  C   UNL     1      -6.881   6.915  65.260  1.00  0.00    -0.051 C  
HETATM   49  H1  UNL     1      -6.113  10.960  65.830  1.00  0.00     0.000 HD 
HETATM   50  H2  UNL     1      -7.589  11.257  66.566  1.00  0.00     0.000 HD 
HETATM   51  O   UNL     1      -6.219   6.150  64.250  1.00  0.00    -0.028 OA 
HETATM   52  C   UNL     1      -6.618   8.408  65.020  1.00  0.00    -0.063 C  
HETATM   53  H   UNL     1      -5.283   6.311  64.230  1.00  0.00     0.000 HD 
HETATM   54  O   UNL     1      -5.204   8.663  65.085  1.00  0.00    -0.034 OA 
HETATM   55  N   UNL     1      -7.100  10.704  65.861  1.00  0.00    -0.133 NA 
HETATM   56  C   UNL     1      -7.346   9.260  66.072  1.00  0.00    -0.095 C  
HETATM   57  H   UNL     1      -5.042   9.587  64.937  1.00  0.00     0.000 HD 
BRANCH  47  58
HETATM   58  C   UNL     1      -8.705   5.195  65.641  1.00  0.00    -0.143 C  
HETATM   59  O   UNL     1      -8.602   4.988  67.052  1.00  0.00    -0.107 OA 
HETATM   60  H   UNL     1      -8.797   4.084  67.267  1.00  0.00     0.000 HD 
ENDBRANCH  47  58
ENDBRANCH  44  45
ENDBRANCH  40  44
ENDBRANCH  29  30
ENDBRANCH  22  29
ENDBRANCH  18  19
ENDBRANCH   7  18
ENDBRANCH   2   5
TORSDOF 9
ENDMDL
MODEL      175
REMARK 921   NORMALIZED FREE ENERGY PREDICTED BY IDOCK:   -4.51 KCAL/MOL
REMARK 922        TOTAL FREE ENERGY PREDICTED BY IDOCK:   -8.93 KCAL/MOL
REMARK 923 INTER-LIGAND FREE ENERGY PREDICTED BY IDOCK:   -9.07 KCAL/MOL
REMARK 924 INTRA-LIGAND FREE ENERGY PREDICTED BY IDOCK:    0.14 KCAL/MOL
REMARK 927      BINDING AFFINITY PREDICTED BY RF-SCORE:    0.00 PKD
ROOT
HETATM    1  N   UNL     1     -11.765  11.093  69.702  1.00  0.00    -0.306 NA 
HETATM    2  C   UNL     1     -12.777  11.538  70.681  1.00  0.00    -0.172 C  
HETATM    3  H1  UNL     1     -11.753  10.074  69.655  1.00  0.00     0.000 HD 
HETATM    4  H2  UNL     1     -10.842  11.479  69.903  1.00  0.00     0.000 HD 
ENDROOT
BRANCH   2   5
HETATM    5  C   UNL     1     -12.796  13.075  70.752  1.00  0.00    -0.074 C  
HETATM    6  O   UNL     1     -11.442  13.504  70.989  1.00  0.00     0.396 OA 
HETATM    7  C   UNL     1     -11.301  14.918  70.874  1.00  0.00    -0.216 C  
HETATM    8  C   UNL     1     -12.088  15.595  72.033  1.00  0.00    -0.443 C  
HETATM    9  O   UNL     1     -13.411  12.986  73.103  1.00  0.00    -0.415 OA 
HETATM   10  H   UNL     1     -13.983  13.323  73.782  1.00  0.00     0.000 HD 
HETATM   11  N   UNL     1     -11.500  15.232  73.357  1.00  0.00    -0.041 NA 
HETATM   12  C   UNL     1     -13.570  15.159  71.959  1.00  0.00    -0.446 C  
HETATM   13  H2  UNL     1     -10.505  15.450  73.400  1.00  0.00     0.000 HD 
HETATM   14  O   UNL     1     -14.248  15.817  70.879  1.00  0.00    -0.694 OA 
HETATM   15  C   UNL     1     -13.724  13.623  71.857  1.00  0.00    -0.410 C  
HETATM   16  H1  UNL     1     -12.017  15.676  74.117  1.00  0.00     0.000 HD 
HETATM   17  H   UNL     1     -15.158  15.549  70.834  1.00  0.00     0.000 HD 
BRANCH   7  18
HETATM   18  O   UNL     1      -9.928  15.309  70.965  1.00  0.00     0.500 OA 
BRANCH  18  19
HETATM   19  C   UNL     1      -9.455  16.055  69.830  1.00  0.00     0.044 C  
HETATM   20  O   UNL     1      -7.571  14.463  69.633  1.00  0.00    -0.363 OA 
HETATM   21  C   UNL     1     -10.668  16.286  68.930  1.00  0.00    -0.300 C  
HETATM   22  C   UNL     1      -9.459  14.518  68.008  1.00  0.00    -0.209 C  
HETATM   23  H   UNL     1      -6.974  13.984  69.069  1.00  0.00     0.000 HD 
HETATM   24  O   UNL     1     -10.713  15.204  67.988  1.00  0.00    -0.253 OA 
HETATM   25  C   UNL     1      -8.500  15.290  68.929  1.00  0.00    -0.202 C  
BRANCH  21  26
HETATM   26  C   UNL     1     -10.620  17.601  68.150  1.00  0.00    -0.356 C  
HETATM   27  H   UNL     1      -9.929  19.431  68.419  1.00  0.00     0.000 HD 
HETATM   28  O   UNL     1      -9.959  18.615  68.903  1.00  0.00    -0.389 OA 
ENDBRANCH  21  26
BRANCH  22  29
HETATM   29  O   UNL     1      -8.892  14.463  66.703  1.00  0.00    -0.232 OA 
BRANCH  29  30
HETATM   30  C   UNL     1      -9.738  14.077  65.602  1.00  0.00    -0.151 C  
HETATM   31  C   UNL     1     -10.761  15.190  65.298  1.00  0.00    -0.404 C  
HETATM   32  O   UNL     1     -10.107  16.465  65.240  1.00  0.00    -0.545 OA 
HETATM   33  C   UNL     1     -11.475  14.915  63.970  1.00  0.00     0.209 C  
HETATM   34  C   UNL     1     -12.244  13.599  64.078  1.00  0.00    -0.443 C  
HETATM   35  N   UNL     1     -12.388  16.021  63.620  1.00  0.00    -0.839 NA 
HETATM   36  H   UNL     1     -10.737  17.150  65.052  1.00  0.00     0.000 HD 
HETATM   37  H1  UNL     1     -12.864  15.839  62.737  1.00  0.00     0.000 HD 
HETATM   38  H2  UNL     1     -11.904  16.918  63.608  1.00  0.00     0.000 HD 
HETATM   39  C   UNL     1     -11.327  12.425  64.464  1.00  0.00    -0.328 C  
HETATM   40  C   UNL     1     -10.431  12.693  65.731  1.00  0.00    -0.277 C  
HETATM   41  N   UNL     1     -12.161  11.218  64.638  1.00  0.00     0.406 NA 
HETATM   42  H2  UNL     1     -12.733  11.015  63.819  1.00  0.00     0.000 HD 
HETATM   43  H1  UNL     1     -11.553  10.440  64.894  1.00  0.00     0.000 HD 
BRANCH  40  44
HETATM   44  O   UNL     1      -9.517  11.576  65.829  1.00  0.00    -0.227 OA 
BRANCH  44  45
HETATM   45  C   UNL     1     -10.053  10.301  65.446  1.00  0.00    -0.284 C  
HETATM   46  O   UNL     1      -9.415   9.786  64.283  1.00  0.00    -0.263 OA 
HETATM   47  C   UNL     1      -8.048   9.415  64.449  1.00  0.00    -0.138 C  
HETATM   48  C   UNL     1      -7.931   8.321  65.514  1.00  0.00    -0.120 C  
HETATM   49  H1  UNL     1     -10.583   9.070  68.626  1.00  0.00     0.000 HD 
HETATM   50  H2  UNL     1     -11.579  10.049  67.699  1.00  0.00     0.000 HD 
HETATM   51  O   UNL     1      -6.576   7.931  65.748  1.00  0.00    -0.045 OA 
HETATM   52  C   UNL     1      -8.551   8.813  66.829  1.00  0.00    -0.115 C  
HETATM   53  H   UNL     1      -6.504   7.252  66.408  1.00  0.00     0.000 HD 
HETATM   54  O   UNL     1      -8.526   7.751  67.799  1.00  0.00    -0.121 OA 
HETATM   55  N   UNL     1     -10.618   9.746  67.863  1.00  0.00    -0.244 NA 
HETATM   56  C   UNL     1     -10.000   9.273  66.604  1.00  0.00    -0.264 C  
HETATM   57  H   UNL     1      -8.910   8.055  68.613  1.00  0.00     0.000 HD 
BRANCH  47  58
HETATM   58  C   UNL     1      -7.541   8.930  63.084  1.00  0.00    -0.105 C  
HETATM   59  O   UNL     1      -8.043   7.620  62.805  1.00  0.00    -0.192 OA 
HETATM   60  H   UNL     1      -7.730   7.320  61.961  1.00  0.00     0.000 HD 
ENDBRANCH  47  58
ENDBRANCH  44  45
ENDBRANCH  40  44
ENDBRANCH  29  30
ENDBRANCH  22  29
ENDBRANCH  18  19
ENDBRANCH   7  18
ENDBRANCH   2   5
TORSDOF 9
ENDMDL
MODEL      176
REMARK 921   NORMALIZED FREE ENERGY PREDICTED BY IDOCK:   -4.48 KCAL/MOL
REMARK 922        TOTAL FREE ENERGY PREDICTED BY IDOCK:   -8.89 KCAL/MOL
REMARK 923 INTER-LIGAND FREE ENERGY PREDICTED BY IDOCK:   -8.55 KCAL/MOL
REMARK 924 INTRA-LIGAND FREE ENERGY PREDICTED BY IDOCK:   -0.34 KCAL/MOL
REMARK 927      BINDING AFFINITY PREDICTED BY RF-SCORE:    0.00 PKD
ROOT
HETATM    1  N   UNL     1     -13.977   9.118  71.164  1.00  0.00    -0.507 NA 
HETATM    2  C   UNL     1     -13.584   7.976  72.015  1.00  0.00    -0.248 C  
HETATM    3  H1  UNL     1     -14.993   9.151  71.075  1.00  0.00     0.000 HD 
HETATM    4  H2  UNL     1     -13.513   9.097  70.256  1.00  0.00     0.000 HD 
ENDROOT
BRANCH   2   5
HETATM    5  C   UNL     1     -12.053   7.928  72.150  1.00  0.00    -0.326 C  
HETATM    6  O   UNL     1     -11.522   7.632  70.845  1.00  0.00    -0.277 OA 
HETATM    7  C   UNL     1     -10.102   7.760  70.802  1.00  0.00    -0.192 C  
HETATM    8  C   UNL     1      -9.474   6.649  71.693  1.00  0.00    -0.159 C  
HETATM    9  O   UNL     1     -12.163   5.609  72.872  1.00  0.00    -0.548 OA 
HETATM   10  H   UNL     1     -11.862   4.962  73.500  1.00  0.00     0.000 HD 
HETATM   11  N   UNL     1      -9.778   5.294  71.146  1.00  0.00    -0.166 NA 
HETATM   12  C   UNL     1     -10.019   6.789  73.134  1.00  0.00    -0.192 C  
HETATM   13  H2  UNL     1      -9.487   5.206  70.173  1.00  0.00     0.000 HD 
HETATM   14  O   UNL     1      -9.425   7.909  73.804  1.00  0.00    -0.309 OA 
HETATM   15  C   UNL     1     -11.563   6.877  73.169  1.00  0.00     0.234 C  
HETATM   16  H1  UNL     1      -9.367   4.566  71.731  1.00  0.00     0.000 HD 
HETATM   17  H   UNL     1      -9.760   7.994  74.689  1.00  0.00     0.000 HD 
BRANCH   7  18
HETATM   18  O   UNL     1      -9.610   7.607  69.468  1.00  0.00    -0.163 OA 
BRANCH  18  19
HETATM   19  C   UNL     1      -8.205   7.882  69.328  1.00  0.00    -0.128 C  
HETATM   20  O   UNL     1      -8.482   7.776  66.870  1.00  0.00    -0.120 OA 
HETATM   21  C   UNL     1      -7.902   9.061  70.250  1.00  0.00    -0.109 C  
HETATM   22  C   UNL     1      -8.072   9.912  68.087  1.00  0.00    -0.104 C  
HETATM   23  H   UNL     1      -8.229   8.103  66.015  1.00  0.00     0.000 HD 
HETATM   24  O   UNL     1      -8.042  10.259  69.472  1.00  0.00    -0.155 OA 
HETATM   25  C   UNL     1      -7.801   8.404  67.959  1.00  0.00    -0.111 C  
BRANCH  21  26
HETATM   26  C   UNL     1      -6.493   9.035  70.845  1.00  0.00    -0.064 C  
HETATM   27  H   UNL     1      -5.337   7.752  71.803  1.00  0.00     0.000 HD 
HETATM   28  O   UNL     1      -6.212   7.768  71.434  1.00  0.00    -0.035 OA 
ENDBRANCH  21  26
BRANCH  22  29
HETATM   29  O   UNL     1      -7.065  10.618  67.368  1.00  0.00    -0.086 OA 
BRANCH  29  30
HETATM   30  C   UNL     1      -7.117  12.058  67.347  1.00  0.00    -0.136 C  
HETATM   31  C   UNL     1      -6.539  12.632  68.655  1.00  0.00    -0.083 C  
HETATM   32  O   UNL     1      -5.289  12.000  68.967  1.00  0.00    -0.051 OA 
HETATM   33  C   UNL     1      -6.335  14.147  68.534  1.00  0.00    -0.093 C  
HETATM   34  C   UNL     1      -7.687  14.817  68.294  1.00  0.00    -0.120 C  
HETATM   35  N   UNL     1      -5.693  14.695  69.745  1.00  0.00    -0.099 NA 
HETATM   36  H   UNL     1      -4.933  12.355  69.772  1.00  0.00     0.000 HD 
HETATM   37  H1  UNL     1      -5.558  15.702  69.664  1.00  0.00     0.000 HD 
HETATM   38  H2  UNL     1      -4.819  14.214  69.957  1.00  0.00     0.000 HD 
HETATM   39  C   UNL     1      -8.397  14.254  67.050  1.00  0.00    -0.131 C  
HETATM   40  C   UNL     1      -8.500  12.682  67.019  1.00  0.00    -0.150 C  
HETATM   41  N   UNL     1      -9.730  14.884  66.947  1.00  0.00    -0.233 NA 
HETATM   42  H2  UNL     1      -9.682  15.903  66.943  1.00  0.00     0.000 HD 
HETATM   43  H1  UNL     1     -10.199  14.511  66.122  1.00  0.00     0.000 HD 
BRANCH  40  44
HETATM   44  O   UNL     1      -9.018  12.332  65.714  1.00  0.00     0.022 OA 
BRANCH  44  45
HETATM   45  C   UNL     1     -10.205  11.527  65.715  1.00  0.00    -0.249 C  
HETATM   46  O   UNL     1     -10.577  11.132  67.031  1.00  0.00    -0.227 OA 
HETATM   47  C   UNL     1     -11.019  12.186  67.884  1.00  0.00    -0.229 C  
HETATM   48  C   UNL     1     -12.254  12.860  67.281  1.00  0.00    -0.055 C  
HETATM   49  H1  UNL     1     -11.849  13.156  63.155  1.00  0.00     0.000 HD 
HETATM   50  H2  UNL     1     -10.713  11.927  63.061  1.00  0.00     0.000 HD 
HETATM   51  O   UNL     1     -12.725  13.949  68.079  1.00  0.00    -0.179 OA 
HETATM   52  C   UNL     1     -11.928  13.369  65.871  1.00  0.00    -0.409 C  
HETATM   53  H   UNL     1     -13.492  14.366  67.705  1.00  0.00     0.000 HD 
HETATM   54  O   UNL     1     -13.116  13.915  65.270  1.00  0.00    -0.777 OA 
HETATM   55  N   UNL     1     -11.071  12.695  63.628  1.00  0.00    -0.451 NA 
HETATM   56  C   UNL     1     -11.387  12.226  64.997  1.00  0.00    -0.328 C  
HETATM   57  H   UNL     1     -12.914  14.230  64.397  1.00  0.00     0.000 HD 
BRANCH  47  58
HETATM   58  C   UNL     1     -11.327  11.563  69.253  1.00  0.00    -0.288 C  
HETATM   59  O   UNL     1     -11.510  12.586  70.234  1.00  0.00    -0.521 OA 
HETATM   60  H   UNL     1     -11.701  12.201  71.081  1.00  0.00     0.000 HD 
ENDBRANCH  47  58
ENDBRANCH  44  45
ENDBRANCH  40  44
ENDBRANCH  29  30
ENDBRANCH  22  29
ENDBRANCH  18  19
ENDBRANCH   7  18
ENDBRANCH   2   5
TORSDOF 9
ENDMDL
MODEL      177
REMARK 921   NORMALIZED FREE ENERGY PREDICTED BY IDOCK:   -4.44 KCAL/MOL
REMARK 922        TOTAL FREE ENERGY PREDICTED BY IDOCK:   -8.82 KCAL/MOL
REMARK 923 INTER-LIGAND FREE ENERGY PREDICTED BY IDOCK:   -7.61 KCAL/MOL
REMARK 924 INTRA-LIGAND FREE ENERGY PREDICTED BY IDOCK:   -1.21 KCAL/MOL
REMARK 927      BINDING AFFINITY PREDICTED BY RF-SCORE:    0.00 PKD
ROOT
HETATM    1  N   UNL     1     -11.269   4.768  73.247  1.00  0.00    -0.327 NA 
HETATM    2  C   UNL     1     -10.435   5.199  74.388  1.00  0.00    -0.255 C  
HETATM    3  H1  UNL     1     -12.148   4.378  73.588  1.00  0.00     0.000 HD 
HETATM    4  H2  UNL     1     -10.774   4.121  72.634  1.00  0.00     0.000 HD 
ENDROOT
BRANCH   2   5
HETATM    5  C   UNL     1      -9.111   5.788  73.874  1.00  0.00    -0.126 C  
HETATM    6  O   UNL     1      -9.372   6.346  72.573  1.00  0.00    -0.147 OA 
HETATM    7  C   UNL     1      -8.266   7.099  72.080  1.00  0.00    -0.098 C  
HETATM    8  C   UNL     1      -7.081   6.128  71.810  1.00  0.00    -0.085 C  
HETATM    9  O   UNL     1      -8.431   3.606  73.043  1.00  0.00    -0.088 OA 
HETATM   10  H   UNL     1      -7.732   2.965  72.988  1.00  0.00     0.000 HD 
HETATM   11  N   UNL     1      -7.426   5.156  70.730  1.00  0.00    -0.072 NA 
HETATM   12  C   UNL     1      -6.730   5.383  73.119  1.00  0.00    -0.077 C  
HETATM   13  H2  UNL     1      -7.727   5.630  69.878  1.00  0.00     0.000 HD 
HETATM   14  O   UNL     1      -6.044   6.246  74.036  1.00  0.00    -0.062 OA 
HETATM   15  C   UNL     1      -7.975   4.747  73.783  1.00  0.00    -0.105 C  
HETATM   16  H1  UNL     1      -6.649   4.519  70.554  1.00  0.00     0.000 HD 
HETATM   17  H   UNL     1      -5.828   5.789  74.840  1.00  0.00     0.000 HD 
BRANCH   7  18
HETATM   18  O   UNL     1      -8.598   7.765  70.859  1.00  0.00    -0.125 OA 
BRANCH  18  19
HETATM   19  C   UNL     1      -9.999   8.059  70.715  1.00  0.00    -0.188 C  
HETATM   20  O   UNL     1      -9.406  10.424  70.288  1.00  0.00    -0.286 OA 
HETATM   21  C   UNL     1     -10.571   6.989  69.788  1.00  0.00    -0.233 C  
HETATM   22  C   UNL     1     -10.250   8.905  68.501  1.00  0.00    -0.197 C  
HETATM   23  H   UNL     1      -9.592  11.231  69.823  1.00  0.00     0.000 HD 
HETATM   24  O   UNL     1     -10.499   7.499  68.449  1.00  0.00    -0.194 OA 
HETATM   25  C   UNL     1     -10.296   9.351  69.972  1.00  0.00    -0.233 C  
BRANCH  21  26
HETATM   26  C   UNL     1     -12.027   6.625  70.086  1.00  0.00    -0.186 C  
HETATM   27  H   UNL     1     -13.343   6.935  71.526  1.00  0.00     0.000 HD 
HETATM   28  O   UNL     1     -12.439   7.161  71.341  1.00  0.00    -0.350 OA 
ENDBRANCH  21  26
BRANCH  22  29
HETATM   29  O   UNL     1     -11.245   9.622  67.777  1.00  0.00    -0.142 OA 
BRANCH  29  30
HETATM   30  C   UNL     1     -10.876  10.864  67.148  1.00  0.00    -0.280 C  
HETATM   31  C   UNL     1     -11.812  11.998  67.611  1.00  0.00    -0.224 C  
HETATM   32  O   UNL     1     -11.955  11.972  69.038  1.00  0.00    -0.307 OA 
HETATM   33  C   UNL     1     -11.266  13.361  67.171  1.00  0.00    -0.302 C  
HETATM   34  C   UNL     1     -11.207  13.407  65.645  1.00  0.00    -0.307 C  
HETATM   35  N   UNL     1     -12.103  14.460  67.690  1.00  0.00    -0.590 NA 
HETATM   36  H   UNL     1     -12.531  12.671  69.324  1.00  0.00     0.000 HD 
HETATM   37  H1  UNL     1     -11.740  15.367  67.398  1.00  0.00     0.000 HD 
HETATM   38  H2  UNL     1     -12.207  14.406  68.703  1.00  0.00     0.000 HD 
HETATM   39  C   UNL     1     -10.360  12.260  65.066  1.00  0.00    -0.291 C  
HETATM   40  C   UNL     1     -10.752  10.832  65.600  1.00  0.00    -0.072 C  
HETATM   41  N   UNL     1     -10.433  12.324  63.591  1.00  0.00    -0.441 NA 
HETATM   42  H2  UNL     1     -10.161  13.236  63.224  1.00  0.00     0.000 HD 
HETATM   43  H1  UNL     1      -9.872  11.563  63.208  1.00  0.00     0.000 HD 
BRANCH  40  44
HETATM   44  O   UNL     1      -9.748   9.918  65.101  1.00  0.00    -0.289 OA 
BRANCH  44  45
HETATM   45  C   UNL     1      -8.477  10.506  64.788  1.00  0.00    -0.147 C  
HETATM   46  O   UNL     1      -7.986  11.306  65.858  1.00  0.00    -0.062 OA 
HETATM   47  C   UNL     1      -7.620  10.592  67.038  1.00  0.00    -0.110 C  
HETATM   48  C   UNL     1      -6.509   9.590  66.716  1.00  0.00    -0.067 C  
HETATM   49  H1  UNL     1      -7.187   7.849  63.003  1.00  0.00     0.000 HD 
HETATM   50  H2  UNL     1      -8.176   9.093  62.469  1.00  0.00     0.000 HD 
HETATM   51  O   UNL     1      -6.122   8.820  67.857  1.00  0.00    -0.049 OA 
HETATM   52  C   UNL     1      -6.974   8.644  65.600  1.00  0.00    -0.075 C  
HETATM   53  H   UNL     1      -5.432   8.198  67.657  1.00  0.00     0.000 HD 
HETATM   54  O   UNL     1      -5.895   7.765  65.234  1.00  0.00    -0.037 OA 
HETATM   55  N   UNL     1      -7.877   8.548  63.279  1.00  0.00    -0.146 NA 
HETATM   56  C   UNL     1      -7.429   9.444  64.370  1.00  0.00    -0.110 C  
HETATM   57  H   UNL     1      -6.183   7.180  64.543  1.00  0.00     0.000 HD 
BRANCH  47  58
HETATM   58  C   UNL     1      -7.162  11.631  68.071  1.00  0.00    -0.083 C  
HETATM   59  O   UNL     1      -5.756  11.511  68.305  1.00  0.00    -0.046 OA 
HETATM   60  H   UNL     1      -5.472  12.153  68.944  1.00  0.00     0.000 HD 
ENDBRANCH  47  58
ENDBRANCH  44  45
ENDBRANCH  40  44
ENDBRANCH  29  30
ENDBRANCH  22  29
ENDBRANCH  18  19
ENDBRANCH   7  18
ENDBRANCH   2   5
TORSDOF 9
ENDMDL
MODEL      178
REMARK 921   NORMALIZED FREE ENERGY PREDICTED BY IDOCK:   -4.43 KCAL/MOL
REMARK 922        TOTAL FREE ENERGY PREDICTED BY IDOCK:   -8.80 KCAL/MOL
REMARK 923 INTER-LIGAND FREE ENERGY PREDICTED BY IDOCK:   -6.95 KCAL/MOL
REMARK 924 INTRA-LIGAND FREE ENERGY PREDICTED BY IDOCK:   -1.85 KCAL/MOL
REMARK 927      BINDING AFFINITY PREDICTED BY RF-SCORE:    0.00 PKD
ROOT
HETATM    1  N   UNL     1      -5.992  13.886  69.315  1.00  0.00    -0.085 NA 
HETATM    2  C   UNL     1      -6.365  13.264  68.029  1.00  0.00    -0.128 C  
HETATM    3  H1  UNL     1      -5.025  14.209  69.276  1.00  0.00     0.000 HD 
HETATM    4  H2  UNL     1      -6.156  13.261  70.105  1.00  0.00     0.000 HD 
ENDROOT
BRANCH   2   5
HETATM    5  C   UNL     1      -7.823  12.777  68.088  1.00  0.00    -0.146 C  
HETATM    6  O   UNL     1      -7.937  11.670  67.174  1.00  0.00    -0.148 OA 
HETATM    7  C   UNL     1      -9.194  11.006  67.291  1.00  0.00    -0.148 C  
HETATM    8  C   UNL     1     -10.315  11.972  66.809  1.00  0.00    -0.207 C  
HETATM    9  O   UNL     1      -8.481  14.466  66.467  1.00  0.00    -0.423 OA 
HETATM   10  H   UNL     1      -9.111  15.140  66.241  1.00  0.00     0.000 HD 
HETATM   11  N   UNL     1     -10.154  12.290  65.359  1.00  0.00    -0.269 NA 
HETATM   12  C   UNL     1     -10.268  13.264  67.657  1.00  0.00    -0.228 C  
HETATM   13  H2  UNL     1     -10.114  11.445  64.789  1.00  0.00     0.000 HD 
HETATM   14  O   UNL     1     -10.788  13.035  68.974  1.00  0.00    -0.344 OA 
HETATM   15  C   UNL     1      -8.847  13.872  67.720  1.00  0.00    -0.189 C  
HETATM   16  H1  UNL     1     -10.889  12.923  65.043  1.00  0.00     0.000 HD 
HETATM   17  H   UNL     1     -10.759  13.829  69.495  1.00  0.00     0.000 HD 
BRANCH   7  18
HETATM   18  O   UNL     1      -9.230   9.825  66.485  1.00  0.00    -0.148 OA 
BRANCH  18  19
HETATM   19  C   UNL     1      -7.936   9.251  66.230  1.00  0.00    -0.107 C  
HETATM   20  O   UNL     1      -7.598   9.056  68.675  1.00  0.00    -0.089 OA 
HETATM   21  C   UNL     1      -8.142   8.180  65.161  1.00  0.00    -0.139 C  
HETATM   22  C   UNL     1      -7.997   7.079  67.210  1.00  0.00    -0.111 C  
HETATM   23  H   UNL     1      -7.236   8.564  69.403  1.00  0.00     0.000 HD 
HETATM   24  O   UNL     1      -8.374   6.937  65.840  1.00  0.00    -0.125 OA 
HETATM   25  C   UNL     1      -7.357   8.465  67.395  1.00  0.00    -0.089 C  
BRANCH  21  26
HETATM   26  C   UNL     1      -6.946   8.001  64.224  1.00  0.00    -0.072 C  
HETATM   27  H   UNL     1      -5.805   6.523  63.583  1.00  0.00     0.000 HD 
HETATM   28  O   UNL     1      -6.547   6.634  64.164  1.00  0.00    -0.039 OA 
ENDBRANCH  21  26
BRANCH  22  29
HETATM   29  O   UNL     1      -7.045   6.086  67.578  1.00  0.00    -0.070 OA 
BRANCH  29  30
HETATM   30  C   UNL     1      -7.526   4.787  67.975  1.00  0.00    -0.074 C  
HETATM   31  C   UNL     1      -8.308   4.130  66.822  1.00  0.00    -0.101 C  
HETATM   32  O   UNL     1      -7.572   4.238  65.596  1.00  0.00    -0.083 OA 
HETATM   33  C   UNL     1      -8.584   2.654  67.130  1.00  0.00    -0.108 C  
HETATM   34  C   UNL     1      -9.449   2.558  68.387  1.00  0.00    -0.217 C  
HETATM   35  N   UNL     1      -9.250   1.990  65.992  1.00  0.00    -0.310 NA 
HETATM   36  H   UNL     1      -8.054   3.833  64.885  1.00  0.00     0.000 HD 
HETATM   37  H1  UNL     1      -9.434   1.008  66.197  1.00  0.00     0.000 HD 
HETATM   38  H2  UNL     1      -8.718   2.101  65.129  1.00  0.00     0.000 HD 
HETATM   39  C   UNL     1      -8.796   3.261  69.590  1.00  0.00    -0.088 C  
HETATM   40  C   UNL     1      -8.329   4.738  69.303  1.00  0.00    -0.080 C  
HETATM   41  N   UNL     1      -9.734   3.203  70.730  1.00  0.00    -0.148 NA 
HETATM   42  H2  UNL     1     -10.031   2.252  70.946  1.00  0.00     0.000 HD 
HETATM   43  H1  UNL     1      -9.301   3.669  71.528  1.00  0.00     0.000 HD 
BRANCH  40  44
HETATM   44  O   UNL     1      -7.585   5.165  70.467  1.00  0.00    -0.067 OA 
BRANCH  44  45
HETATM   45  C   UNL     1      -7.735   6.546  70.827  1.00  0.00    -0.101 C  
HETATM   46  O   UNL     1      -9.023   7.045  70.484  1.00  0.00    -0.153 OA 
HETATM   47  C   UNL     1     -10.110   6.498  71.230  1.00  0.00    -0.186 C  
HETATM   48  C   UNL     1      -9.923   6.800  72.719  1.00  0.00    -0.173 C  
HETATM   49  H1  UNL     1      -5.914   6.445  73.755  1.00  0.00     0.000 HD 
HETATM   50  H2  UNL     1      -5.367   6.653  72.184  1.00  0.00     0.000 HD 
HETATM   51  O   UNL     1     -10.967   6.246  73.522  1.00  0.00    -0.428 OA 
HETATM   52  C   UNL     1      -8.572   6.246  73.192  1.00  0.00    -0.120 C  
HETATM   53  H   UNL     1     -10.852   6.434  74.446  1.00  0.00     0.000 HD 
HETATM   54  O   UNL     1      -8.356   6.614  74.566  1.00  0.00    -0.129 OA 
HETATM   55  N   UNL     1      -6.115   6.279  72.769  1.00  0.00    -0.048 NA 
HETATM   56  C   UNL     1      -7.429   6.797  72.325  1.00  0.00    -0.092 C  
HETATM   57  H   UNL     1      -7.520   6.272  74.859  1.00  0.00     0.000 HD 
BRANCH  47  58
HETATM   58  C   UNL     1     -11.398   7.129  70.683  1.00  0.00    -0.292 C  
HETATM   59  O   UNL     1     -11.786   6.488  69.465  1.00  0.00    -0.649 OA 
HETATM   60  H   UNL     1     -12.583   6.878  69.126  1.00  0.00     0.000 HD 
ENDBRANCH  47  58
ENDBRANCH  44  45
ENDBRANCH  40  44
ENDBRANCH  29  30
ENDBRANCH  22  29
ENDBRANCH  18  19
ENDBRANCH   7  18
ENDBRANCH   2   5
TORSDOF 9
ENDMDL
MODEL      179
REMARK 921   NORMALIZED FREE ENERGY PREDICTED BY IDOCK:   -4.42 KCAL/MOL
REMARK 922        TOTAL FREE ENERGY PREDICTED BY IDOCK:   -8.79 KCAL/MOL
REMARK 923 INTER-LIGAND FREE ENERGY PREDICTED BY IDOCK:   -7.72 KCAL/MOL
REMARK 924 INTRA-LIGAND FREE ENERGY PREDICTED BY IDOCK:   -1.07 KCAL/MOL
REMARK 927      BINDING AFFINITY PREDICTED BY RF-SCORE:    0.00 PKD
ROOT
HETATM    1  N   UNL     1      -8.514   8.694  73.753  1.00  0.00    -0.289 NA 
HETATM    2  C   UNL     1      -8.051   7.522  72.983  1.00  0.00    -0.111 C  
HETATM    3  H1  UNL     1      -7.859   8.893  74.509  1.00  0.00     0.000 HD 
HETATM    4  H2  UNL     1      -9.468   8.576  74.094  1.00  0.00     0.000 HD 
ENDROOT
BRANCH   2   5
HETATM    5  C   UNL     1      -9.038   7.223  71.843  1.00  0.00    -0.133 C  
HETATM    6  O   UNL     1      -9.482   8.489  71.322  1.00  0.00    -0.169 OA 
HETATM    7  C   UNL     1     -10.247   8.340  70.128  1.00  0.00    -0.199 C  
HETATM    8  C   UNL     1     -11.582   7.622  70.478  1.00  0.00    -0.175 C  
HETATM    9  O   UNL     1     -10.857   6.996  73.442  1.00  0.00    -0.409 OA 
HETATM   10  H   UNL     1     -11.604   6.479  73.719  1.00  0.00     0.000 HD 
HETATM   11  N   UNL     1     -12.413   8.460  71.392  1.00  0.00    -0.338 NA 
HETATM   12  C   UNL     1     -11.265   6.256  71.130  1.00  0.00    -0.305 C  
HETATM   13  H2  UNL     1     -12.574   9.391  71.008  1.00  0.00     0.000 HD 
HETATM   14  O   UNL     1     -10.808   5.311  70.153  1.00  0.00    -0.240 OA 
HETATM   15  C   UNL     1     -10.253   6.384  72.293  1.00  0.00    -0.185 C  
HETATM   16  H1  UNL     1     -13.288   7.989  71.622  1.00  0.00     0.000 HD 
HETATM   17  H   UNL     1     -10.614   4.472  70.553  1.00  0.00     0.000 HD 
BRANCH   7  18
HETATM   18  O   UNL     1     -10.550   9.612  69.548  1.00  0.00    -0.208 OA 
BRANCH  18  19
HETATM   19  C   UNL     1     -10.100   9.757  68.189  1.00  0.00    -0.165 C  
HETATM   20  O   UNL     1     -11.798  11.530  67.871  1.00  0.00    -0.565 OA 
HETATM   21  C   UNL     1      -8.576   9.831  68.245  1.00  0.00    -0.119 C  
HETATM   22  C   UNL     1      -9.357  12.013  68.000  1.00  0.00    -0.196 C  
HETATM   23  H   UNL     1     -12.038  12.354  67.464  1.00  0.00     0.000 HD 
HETATM   24  O   UNL     1      -8.218  11.218  68.334  1.00  0.00    -0.135 OA 
HETATM   25  C   UNL     1     -10.484  11.075  67.538  1.00  0.00    -0.209 C  
BRANCH  21  26
HETATM   26  C   UNL     1      -7.881   9.232  67.021  1.00  0.00    -0.098 C  
HETATM   27  H   UNL     1      -6.438   9.738  65.770  1.00  0.00     0.000 HD 
HETATM   28  O   UNL     1      -6.870  10.109  66.530  1.00  0.00    -0.083 OA 
ENDBRANCH  21  26
BRANCH  22  29
HETATM   29  O   UNL     1      -9.051  12.913  66.939  1.00  0.00    -0.218 OA 
BRANCH  29  30
HETATM   30  C   UNL     1      -9.938  14.024  66.703  1.00  0.00    -0.278 C  
HETATM   31  C   UNL     1     -10.496  13.967  65.268  1.00  0.00    -0.382 C  
HETATM   32  O   UNL     1     -10.964  12.645  64.967  1.00  0.00    -0.277 OA 
HETATM   33  C   UNL     1     -11.640  14.972  65.095  1.00  0.00    -0.294 C  
HETATM   34  C   UNL     1     -11.106  16.385  65.327  1.00  0.00    -0.117 C  
HETATM   35  N   UNL     1     -12.246  14.861  63.754  1.00  0.00    -1.026 NA 
HETATM   36  H   UNL     1     -11.308  12.611  64.083  1.00  0.00     0.000 HD 
HETATM   37  H1  UNL     1     -13.007  15.530  63.638  1.00  0.00     0.000 HD 
HETATM   38  H2  UNL     1     -12.549  13.908  63.556  1.00  0.00     0.000 HD 
HETATM   39  C   UNL     1     -10.446  16.532  66.709  1.00  0.00    -0.269 C  
HETATM   40  C   UNL     1      -9.368  15.430  67.033  1.00  0.00    -0.224 C  
HETATM   41  N   UNL     1      -9.876  17.892  66.813  1.00  0.00    -0.316 NA 
HETATM   42  H2  UNL     1     -10.565  18.621  66.627  1.00  0.00     0.000 HD 
HETATM   43  H1  UNL     1      -9.439  17.989  67.729  1.00  0.00     0.000 HD 
BRANCH  40  44
HETATM   44  O   UNL     1      -8.999  15.614  68.420  1.00  0.00    -0.177 OA 
BRANCH  44  45
HETATM   45  C   UNL     1      -7.710  16.204  68.645  1.00  0.00    -0.186 C  
HETATM   46  O   UNL     1      -7.211  15.906  69.943  1.00  0.00    -0.084 OA 
HETATM   47  C   UNL     1      -6.876  14.537  70.170  1.00  0.00    -0.026 C  
HETATM   48  C   UNL     1      -5.786  14.099  69.188  1.00  0.00    -0.087 C  
HETATM   49  H1  UNL     1      -6.468  15.788  65.452  1.00  0.00     0.000 HD 
HETATM   50  H2  UNL     1      -7.420  17.028  66.056  1.00  0.00     0.000 HD 
HETATM   51  O   UNL     1      -5.432  12.723  69.347  1.00  0.00    -0.074 OA 
HETATM   52  C   UNL     1      -6.263  14.336  67.749  1.00  0.00    -0.137 C  
HETATM   53  H   UNL     1      -4.755  12.451  68.738  1.00  0.00     0.000 HD 
HETATM   54  O   UNL     1      -5.203  14.013  66.832  1.00  0.00     0.389 OA 
HETATM   55  N   UNL     1      -7.143  16.053  66.170  1.00  0.00     0.513 NA 
HETATM   56  C   UNL     1      -6.685  15.801  67.555  1.00  0.00    -0.190 C  
HETATM   57  H   UNL     1      -5.498  14.160  65.941  1.00  0.00     0.000 HD 
BRANCH  47  58
HETATM   58  C   UNL     1      -6.403  14.423  71.626  1.00  0.00     0.553 C  
HETATM   59  O   UNL     1      -5.881  13.114  71.877  1.00  0.00    -0.487 OA 
HETATM   60  H   UNL     1      -5.588  13.043  72.777  1.00  0.00     0.000 HD 
ENDBRANCH  47  58
ENDBRANCH  44  45
ENDBRANCH  40  44
ENDBRANCH  29  30
ENDBRANCH  22  29
ENDBRANCH  18  19
ENDBRANCH   7  18
ENDBRANCH   2   5
TORSDOF 9
ENDMDL
MODEL      180
REMARK 921   NORMALIZED FREE ENERGY PREDICTED BY IDOCK:   -4.40 KCAL/MOL
REMARK 922        TOTAL FREE ENERGY PREDICTED BY IDOCK:   -8.77 KCAL/MOL
REMARK 923 INTER-LIGAND FREE ENERGY PREDICTED BY IDOCK:   -7.17 KCAL/MOL
REMARK 924 INTRA-LIGAND FREE ENERGY PREDICTED BY IDOCK:   -1.60 KCAL/MOL
REMARK 927      BINDING AFFINITY PREDICTED BY RF-SCORE:    0.00 PKD
ROOT
HETATM    1  N   UNL     1      -8.337   3.406  71.123  1.00  0.00    -0.066 NA 
HETATM    2  C   UNL     1      -7.940   3.884  72.463  1.00  0.00    -0.081 C  
HETATM    3  H1  UNL     1      -8.047   2.435  71.001  1.00  0.00     0.000 HD 
HETATM    4  H2  UNL     1      -7.982   4.008  70.380  1.00  0.00     0.000 HD 
ENDROOT
BRANCH   2   5
HETATM    5  C   UNL     1      -8.377   5.347  72.646  1.00  0.00    -0.114 C  
HETATM    6  O   UNL     1      -7.572   6.144  71.758  1.00  0.00    -0.093 OA 
HETATM    7  C   UNL     1      -8.025   7.495  71.692  1.00  0.00    -0.090 C  
HETATM    8  C   UNL     1      -7.788   8.169  73.075  1.00  0.00    -0.154 C  
HETATM    9  O   UNL     1      -6.891   5.580  74.557  1.00  0.00    -0.076 OA 
HETATM   10  H   UNL     1      -6.795   5.891  75.449  1.00  0.00     0.000 HD 
HETATM   11  N   UNL     1      -6.330   8.241  73.388  1.00  0.00    -0.098 NA 
HETATM   12  C   UNL     1      -8.538   7.366  74.163  1.00  0.00    -0.216 C  
HETATM   13  H2  UNL     1      -5.808   8.708  72.647  1.00  0.00     0.000 HD 
HETATM   14  O   UNL     1      -9.952   7.598  74.094  1.00  0.00    -0.347 OA 
HETATM   15  C   UNL     1      -8.221   5.852  74.096  1.00  0.00    -0.103 C  
HETATM   16  H1  UNL     1      -6.175   8.682  74.294  1.00  0.00     0.000 HD 
HETATM   17  H   UNL     1     -10.412   7.105  74.762  1.00  0.00     0.000 HD 
BRANCH   7  18
HETATM   18  O   UNL     1      -7.308   8.231  70.697  1.00  0.00    -0.053 OA 
BRANCH  18  19
HETATM   19  C   UNL     1      -7.898   8.170  69.386  1.00  0.00    -0.105 C  
HETATM   20  O   UNL     1      -8.139  10.633  69.437  1.00  0.00    -0.246 OA 
HETATM   21  C   UNL     1      -6.993   7.271  68.547  1.00  0.00    -0.079 C  
HETATM   22  C   UNL     1      -6.477   9.474  67.985  1.00  0.00    -0.061 C  
HETATM   23  H   UNL     1      -8.124  11.455  68.961  1.00  0.00     0.000 HD 
HETATM   24  O   UNL     1      -6.036   8.118  67.893  1.00  0.00    -0.040 OA 
HETATM   25  C   UNL     1      -7.875   9.485  68.626  1.00  0.00    -0.084 C  
BRANCH  21  26
HETATM   26  C   UNL     1      -7.735   6.468  67.477  1.00  0.00    -0.106 C  
HETATM   27  H   UNL     1      -8.847   4.839  67.386  1.00  0.00     0.000 HD 
HETATM   28  O   UNL     1      -8.386   5.336  68.050  1.00  0.00    -0.099 OA 
ENDBRANCH  21  26
BRANCH  22  29
HETATM   29  O   UNL     1      -6.564  10.065  66.693  1.00  0.00    -0.069 OA 
BRANCH  29  30
HETATM   30  C   UNL     1      -7.631   9.651  65.818  1.00  0.00    -0.103 C  
HETATM   31  C   UNL     1      -7.066   8.857  64.624  1.00  0.00    -0.088 C  
HETATM   32  O   UNL     1      -6.135   7.866  65.081  1.00  0.00    -0.041 OA 
HETATM   33  C   UNL     1      -8.198   8.180  63.843  1.00  0.00    -0.064 C  
HETATM   34  C   UNL     1      -9.132   9.254  63.283  1.00  0.00     0.048 C  
HETATM   35  N   UNL     1      -7.663   7.341  62.754  1.00  0.00    -0.124 NA 
HETATM   36  H   UNL     1      -5.787   7.377  64.345  1.00  0.00     0.000 HD 
HETATM   37  H1  UNL     1      -8.416   6.891  62.233  1.00  0.00     0.000 HD 
HETATM   38  H2  UNL     1      -6.988   6.660  63.101  1.00  0.00     0.000 HD 
HETATM   39  C   UNL     1      -9.691  10.165  64.389  1.00  0.00    -0.277 C  
HETATM   40  C   UNL     1      -8.597  10.771  65.345  1.00  0.00    -0.157 C  
HETATM   41  N   UNL     1     -10.502  11.225  63.756  1.00  0.00    -0.372 NA 
HETATM   42  H2  UNL     1     -11.232  10.851  63.149  1.00  0.00     0.000 HD 
HETATM   43  H1  UNL     1     -10.873  11.829  64.490  1.00  0.00     0.000 HD 
BRANCH  40  44
HETATM   44  O   UNL     1      -9.309  11.435  66.415  1.00  0.00    -0.192 OA 
BRANCH  44  45
HETATM   45  C   UNL     1     -10.738  11.312  66.377  1.00  0.00    -0.267 C  
HETATM   46  O   UNL     1     -11.218  10.411  67.369  1.00  0.00    -0.301 OA 
HETATM   47  C   UNL     1     -11.065  10.849  68.718  1.00  0.00    -0.256 C  
HETATM   48  C   UNL     1     -11.831  12.157  68.930  1.00  0.00    -0.304 C  
HETATM   49  H1  UNL     1     -11.447  14.594  65.586  1.00  0.00     0.000 HD 
HETATM   50  H2  UNL     1     -11.059  13.327  64.560  1.00  0.00     0.000 HD 
HETATM   51  O   UNL     1     -11.687  12.663  70.260  1.00  0.00    -0.525 OA 
HETATM   52  C   UNL     1     -11.337  13.212  67.931  1.00  0.00    -0.286 C  
HETATM   53  H   UNL     1     -12.162  13.475  70.391  1.00  0.00     0.000 HD 
HETATM   54  O   UNL     1     -12.122  14.409  68.068  1.00  0.00    -0.523 OA 
HETATM   55  N   UNL     1     -10.980  13.691  65.510  1.00  0.00    -0.289 NA 
HETATM   56  C   UNL     1     -11.447  12.685  66.492  1.00  0.00    -0.353 C  
HETATM   57  H   UNL     1     -11.817  15.062  67.449  1.00  0.00     0.000 HD 
BRANCH  47  58
HETATM   58  C   UNL     1     -11.601   9.729  69.621  1.00  0.00     0.020 C  
HETATM   59  O   UNL     1     -11.148   9.916  70.965  1.00  0.00    -0.337 OA 
HETATM   60  H   UNL     1     -11.480   9.223  71.524  1.00  0.00     0.000 HD 
ENDBRANCH  47  58
ENDBRANCH  44  45
ENDBRANCH  40  44
ENDBRANCH  29  30
ENDBRANCH  22  29
ENDBRANCH  18  19
ENDBRANCH   7  18
ENDBRANCH   2   5
TORSDOF 9
ENDMDL
MODEL      181
REMARK 921   NORMALIZED FREE ENERGY PREDICTED BY IDOCK:   -4.38 KCAL/MOL
REMARK 922        TOTAL FREE ENERGY PREDICTED BY IDOCK:   -8.73 KCAL/MOL
REMARK 923 INTER-LIGAND FREE ENERGY PREDICTED BY IDOCK:   -9.16 KCAL/MOL
REMARK 924 INTRA-LIGAND FREE ENERGY PREDICTED BY IDOCK:    0.44 KCAL/MOL
REMARK 927      BINDING AFFINITY PREDICTED BY RF-SCORE:    0.00 PKD
ROOT
HETATM    1  N   UNL     1     -10.201  15.070  65.323  1.00  0.00    -0.377 NA 
HETATM    2  C   UNL     1     -10.428  16.387  65.952  1.00  0.00    -0.337 C  
HETATM    3  H1  UNL     1     -10.232  15.162  64.307  1.00  0.00     0.000 HD 
HETATM    4  H2  UNL     1     -10.853  14.364  65.665  1.00  0.00     0.000 HD 
ENDROOT
BRANCH   2   5
HETATM    5  C   UNL     1     -10.380  16.249  67.483  1.00  0.00    -0.288 C  
HETATM    6  O   UNL     1      -9.543  15.116  67.781  1.00  0.00    -0.202 OA 
HETATM    7  C   UNL     1      -9.260  15.010  69.174  1.00  0.00    -0.183 C  
HETATM    8  C   UNL     1     -10.580  14.675  69.928  1.00  0.00     0.016 C  
HETATM    9  O   UNL     1     -12.458  14.987  67.462  1.00  0.00    -0.310 OA 
HETATM   10  H   UNL     1     -13.315  14.871  67.855  1.00  0.00     0.000 HD 
HETATM   11  N   UNL     1     -11.103  13.339  69.514  1.00  0.00    -0.464 NA 
HETATM   12  C   UNL     1     -11.622  15.780  69.637  1.00  0.00    -0.358 C  
HETATM   13  H2  UNL     1     -10.404  12.606  69.635  1.00  0.00     0.000 HD 
HETATM   14  O   UNL     1     -11.312  16.983  70.353  1.00  0.00    -0.301 OA 
HETATM   15  C   UNL     1     -11.772  16.059  68.122  1.00  0.00    -0.076 C  
HETATM   16  H1  UNL     1     -11.969  13.119  70.008  1.00  0.00     0.000 HD 
HETATM   17  H   UNL     1     -11.952  17.662  70.175  1.00  0.00     0.000 HD 
BRANCH   7  18
HETATM   18  O   UNL     1      -8.312  13.970  69.430  1.00  0.00     0.265 OA 
BRANCH  18  19
HETATM   19  C   UNL     1      -7.956  13.203  68.266  1.00  0.00    -0.148 C  
HETATM   20  O   UNL     1      -5.749  12.761  69.296  1.00  0.00    -0.072 OA 
HETATM   21  C   UNL     1      -9.134  12.272  67.987  1.00  0.00    -0.191 C  
HETATM   22  C   UNL     1      -7.501  11.004  69.065  1.00  0.00    -0.129 C  
HETATM   23  H   UNL     1      -5.026  12.159  69.428  1.00  0.00     0.000 HD 
HETATM   24  O   UNL     1      -8.874  11.037  68.672  1.00  0.00    -0.156 OA 
HETATM   25  C   UNL     1      -6.800  12.240  68.478  1.00  0.00    -0.081 C  
BRANCH  21  26
HETATM   26  C   UNL     1      -9.342  11.964  66.503  1.00  0.00    -0.216 C  
HETATM   27  H   UNL     1     -10.559  10.869  65.398  1.00  0.00     0.000 HD 
HETATM   28  O   UNL     1     -10.429  11.060  66.319  1.00  0.00    -0.248 OA 
ENDBRANCH  21  26
BRANCH  22  29
HETATM   29  O   UNL     1      -6.860   9.836  68.562  1.00  0.00    -0.056 OA 
BRANCH  29  30
HETATM   30  C   UNL     1      -7.676   8.805  67.973  1.00  0.00    -0.101 C  
HETATM   31  C   UNL     1      -7.936   9.112  66.485  1.00  0.00    -0.100 C  
HETATM   32  O   UNL     1      -6.712   9.470  65.830  1.00  0.00    -0.078 OA 
HETATM   33  C   UNL     1      -8.561   7.900  65.786  1.00  0.00    -0.147 C  
HETATM   34  C   UNL     1      -9.910   7.587  66.435  1.00  0.00    -0.152 C  
HETATM   35  N   UNL     1      -8.728   8.148  64.341  1.00  0.00    -0.385 NA 
HETATM   36  H   UNL     1      -6.872   9.659  64.913  1.00  0.00     0.000 HD 
HETATM   37  H1  UNL     1      -9.144   7.342  63.876  1.00  0.00     0.000 HD 
HETATM   38  H2  UNL     1      -7.848   8.422  63.904  1.00  0.00     0.000 HD 
HETATM   39  C   UNL     1      -9.778   7.345  67.949  1.00  0.00    -0.143 C  
HETATM   40  C   UNL     1      -8.996   8.474  68.721  1.00  0.00    -0.139 C  
HETATM   41  N   UNL     1     -11.131   7.145  68.510  1.00  0.00    -0.470 NA 
HETATM   42  H2  UNL     1     -11.645   6.403  68.037  1.00  0.00     0.000 HD 
HETATM   43  H1  UNL     1     -11.043   6.985  69.513  1.00  0.00     0.000 HD 
BRANCH  40  44
HETATM   44  O   UNL     1      -8.812   7.993  70.073  1.00  0.00    -0.141 OA 
BRANCH  44  45
HETATM   45  C   UNL     1      -9.016   8.964  71.109  1.00  0.00    -0.241 C  
HETATM   46  O   UNL     1     -10.200   9.725  70.895  1.00  0.00    -0.271 OA 
HETATM   47  C   UNL     1     -11.423   9.002  71.019  1.00  0.00    -0.295 C  
HETATM   48  C   UNL     1     -11.544   8.422  72.430  1.00  0.00    -0.380 C  
HETATM   49  H1  UNL     1      -7.840   7.063  73.737  1.00  0.00     0.000 HD 
HETATM   50  H2  UNL     1      -6.978   8.020  72.664  1.00  0.00     0.000 HD 
HETATM   51  O   UNL     1     -12.739   7.657  72.604  1.00  0.00    -0.509 OA 
HETATM   52  C   UNL     1     -10.327   7.537  72.730  1.00  0.00    -0.278 C  
HETATM   53  H   UNL     1     -12.814   7.297  73.480  1.00  0.00     0.000 HD 
HETATM   54  O   UNL     1     -10.395   7.070  74.089  1.00  0.00    -0.390 OA 
HETATM   55  N   UNL     1      -7.836   7.486  72.809  1.00  0.00    -0.095 NA 
HETATM   56  C   UNL     1      -9.023   8.322  72.519  1.00  0.00    -0.236 C  
HETATM   57  H   UNL     1      -9.642   6.522  74.275  1.00  0.00     0.000 HD 
BRANCH  47  58
HETATM   58  C   UNL     1     -12.563   9.984  70.712  1.00  0.00    -0.285 C  
HETATM   59  O   UNL     1     -13.328  10.239  71.893  1.00  0.00    -0.415 OA 
HETATM   60  H   UNL     1     -14.033  10.847  71.704  1.00  0.00     0.000 HD 
ENDBRANCH  47  58
ENDBRANCH  44  45
ENDBRANCH  40  44
ENDBRANCH  29  30
ENDBRANCH  22  29
ENDBRANCH  18  19
ENDBRANCH   7  18
ENDBRANCH   2   5
TORSDOF 9
ENDMDL
MODEL      182
REMARK 921   NORMALIZED FREE ENERGY PREDICTED BY IDOCK:   -4.37 KCAL/MOL
REMARK 922        TOTAL FREE ENERGY PREDICTED BY IDOCK:   -8.71 KCAL/MOL
REMARK 923 INTER-LIGAND FREE ENERGY PREDICTED BY IDOCK:   -8.96 KCAL/MOL
REMARK 924 INTRA-LIGAND FREE ENERGY PREDICTED BY IDOCK:    0.25 KCAL/MOL
REMARK 927      BINDING AFFINITY PREDICTED BY RF-SCORE:    0.00 PKD
ROOT
HETATM    1  N   UNL     1     -11.816  13.822  68.061  1.00  0.00    -0.360 NA 
HETATM    2  C   UNL     1     -12.095  14.224  66.667  1.00  0.00    -0.420 C  
HETATM    3  H1  UNL     1     -11.920  14.625  68.681  1.00  0.00     0.000 HD 
HETATM    4  H2  UNL     1     -10.901  13.380  68.156  1.00  0.00     0.000 HD 
ENDROOT
BRANCH   2   5
HETATM    5  C   UNL     1     -11.938  13.013  65.732  1.00  0.00    -0.429 C  
HETATM    6  O   UNL     1     -10.661  12.417  66.021  1.00  0.00    -0.247 OA 
HETATM    7  C   UNL     1     -10.489  11.167  65.357  1.00  0.00    -0.259 C  
HETATM    8  C   UNL     1     -10.415  11.423  63.824  1.00  0.00    -0.399 C  
HETATM    9  O   UNL     1     -11.110  14.456  63.958  1.00  0.00    -0.534 OA 
HETATM   10  H   UNL     1     -11.162  14.684  63.038  1.00  0.00     0.000 HD 
HETATM   11  N   UNL     1      -9.211  12.236  63.479  1.00  0.00    -0.385 NA 
HETATM   12  C   UNL     1     -11.706  12.142  63.368  1.00  0.00    -0.444 C  
HETATM   13  H2  UNL     1      -8.354  11.811  63.832  1.00  0.00     0.000 HD 
HETATM   14  O   UNL     1     -12.818  11.237  63.341  1.00  0.00    -0.335 OA 
HETATM   15  C   UNL     1     -12.021  13.384  64.236  1.00  0.00    -0.430 C  
HETATM   16  H1  UNL     1      -9.163  12.404  62.474  1.00  0.00     0.000 HD 
HETATM   17  H   UNL     1     -13.611  11.680  63.061  1.00  0.00     0.000 HD 
BRANCH   7  18
HETATM   18  O   UNL     1      -9.282  10.523  65.772  1.00  0.00    -0.167 OA 
BRANCH  18  19
HETATM   19  C   UNL     1      -9.288   9.096  65.592  1.00  0.00    -0.235 C  
HETATM   20  O   UNL     1      -6.945   9.237  64.807  1.00  0.00    -0.087 OA 
HETATM   21  C   UNL     1      -9.880   8.503  66.868  1.00  0.00    -0.242 C  
HETATM   22  C   UNL     1      -7.566   8.265  67.016  1.00  0.00    -0.092 C  
HETATM   23  H   UNL     1      -6.081   8.842  64.768  1.00  0.00     0.000 HD 
HETATM   24  O   UNL     1      -8.788   8.218  67.755  1.00  0.00    -0.136 OA 
HETATM   25  C   UNL     1      -7.907   8.465  65.530  1.00  0.00    -0.109 C  
BRANCH  21  26
HETATM   26  C   UNL     1     -10.668   7.211  66.644  1.00  0.00    -0.022 C  
HETATM   27  H   UNL     1     -11.918   6.069  67.661  1.00  0.00     0.000 HD 
HETATM   28  O   UNL     1     -11.429   6.871  67.801  1.00  0.00    -0.007 OA 
ENDBRANCH  21  26
BRANCH  22  29
HETATM   29  O   UNL     1      -6.842   7.047  67.157  1.00  0.00    -0.061 OA 
BRANCH  29  30
HETATM   30  C   UNL     1      -7.450   5.969  67.895  1.00  0.00    -0.085 C  
HETATM   31  C   UNL     1      -8.418   5.180  66.990  1.00  0.00    -0.106 C  
HETATM   32  O   UNL     1      -7.791   4.879  65.736  1.00  0.00    -0.093 OA 
HETATM   33  C   UNL     1      -8.855   3.880  67.674  1.00  0.00    -0.115 C  
HETATM   34  C   UNL     1      -9.602   4.219  68.964  1.00  0.00    -0.240 C  
HETATM   35  N   UNL     1      -9.705   3.070  66.781  1.00  0.00    -0.395 NA 
HETATM   36  H   UNL     1      -8.387   4.393  65.179  1.00  0.00     0.000 HD 
HETATM   37  H1  UNL     1      -9.997   2.205  67.235  1.00  0.00     0.000 HD 
HETATM   38  H2  UNL     1      -9.247   2.889  65.888  1.00  0.00     0.000 HD 
HETATM   39  C   UNL     1      -8.753   5.083  69.912  1.00  0.00    -0.101 C  
HETATM   40  C   UNL     1      -8.125   6.361  69.237  1.00  0.00    -0.111 C  
HETATM   41  N   UNL     1      -9.579   5.442  71.083  1.00  0.00    -0.159 NA 
HETATM   42  H2  UNL     1      -9.977   4.626  71.548  1.00  0.00     0.000 HD 
HETATM   43  H1  UNL     1      -9.016   6.015  71.712  1.00  0.00     0.000 HD 
BRANCH  40  44
HETATM   44  O   UNL     1      -7.225   6.938  70.212  1.00  0.00    -0.072 OA 
BRANCH  44  45
HETATM   45  C   UNL     1      -7.470   8.311  70.544  1.00  0.00    -0.067 C  
HETATM   46  O   UNL     1      -8.855   8.569  70.744  1.00  0.00    -0.139 OA 
HETATM   47  C   UNL     1      -9.433   7.951  71.894  1.00  0.00    -0.168 C  
HETATM   48  C   UNL     1      -8.725   8.444  73.159  1.00  0.00    -0.144 C  
HETATM   49  H1  UNL     1      -4.645   8.815  72.460  1.00  0.00     0.000 HD 
HETATM   50  H2  UNL     1      -4.820   8.926  70.797  1.00  0.00     0.000 HD 
HETATM   51  O   UNL     1      -9.241   7.833  74.344  1.00  0.00    -0.410 OA 
HETATM   52  C   UNL     1      -7.221   8.157  73.054  1.00  0.00    -0.114 C  
HETATM   53  H   UNL     1      -8.802   8.139  75.129  1.00  0.00     0.000 HD 
HETATM   54  O   UNL     1      -6.546   8.705  74.200  1.00  0.00    -0.181 OA 
HETATM   55  N   UNL     1      -5.190   8.512  71.653  1.00  0.00    -0.034 NA 
HETATM   56  C   UNL     1      -6.643   8.773  71.771  1.00  0.00    -0.072 C  
HETATM   57  H   UNL     1      -5.615   8.528  74.135  1.00  0.00     0.000 HD 
BRANCH  47  58
HETATM   58  C   UNL     1     -10.924   8.316  71.903  1.00  0.00    -0.287 C  
HETATM   59  O   UNL     1     -11.671   7.329  72.619  1.00  0.00    -0.470 OA 
HETATM   60  H   UNL     1     -12.594   7.554  72.625  1.00  0.00     0.000 HD 
ENDBRANCH  47  58
ENDBRANCH  44  45
ENDBRANCH  40  44
ENDBRANCH  29  30
ENDBRANCH  22  29
ENDBRANCH  18  19
ENDBRANCH   7  18
ENDBRANCH   2   5
TORSDOF 9
ENDMDL
MODEL      183
REMARK 921   NORMALIZED FREE ENERGY PREDICTED BY IDOCK:   -4.36 KCAL/MOL
REMARK 922        TOTAL FREE ENERGY PREDICTED BY IDOCK:   -8.70 KCAL/MOL
REMARK 923 INTER-LIGAND FREE ENERGY PREDICTED BY IDOCK:   -6.94 KCAL/MOL
REMARK 924 INTRA-LIGAND FREE ENERGY PREDICTED BY IDOCK:   -1.75 KCAL/MOL
REMARK 927      BINDING AFFINITY PREDICTED BY RF-SCORE:    0.00 PKD
ROOT
HETATM    1  N   UNL     1     -12.621  14.234  67.116  1.00  0.00    -0.449 NA 
HETATM    2  C   UNL     1     -11.317  14.018  66.456  1.00  0.00    -0.336 C  
HETATM    3  H1  UNL     1     -12.570  15.049  67.726  1.00  0.00     0.000 HD 
HETATM    4  H2  UNL     1     -12.942  13.402  67.612  1.00  0.00     0.000 HD 
ENDROOT
BRANCH   2   5
HETATM    5  C   UNL     1     -11.395  12.789  65.535  1.00  0.00    -0.312 C  
HETATM    6  O   UNL     1     -10.502  11.797  66.076  1.00  0.00    -0.231 OA 
HETATM    7  C   UNL     1     -10.639  10.538  65.421  1.00  0.00    -0.073 C  
HETATM    8  C   UNL     1     -10.147  10.684  63.952  1.00  0.00    -0.289 C  
HETATM    9  O   UNL     1      -9.749  13.772  64.040  1.00  0.00    -0.383 OA 
HETATM   10  H   UNL     1      -9.515  13.962  63.139  1.00  0.00     0.000 HD 
HETATM   11  N   UNL     1      -8.691  11.010  63.909  1.00  0.00    -0.375 NA 
HETATM   12  C   UNL     1     -10.972  11.787  63.250  1.00  0.00    -0.308 C  
HETATM   13  H2  UNL     1      -8.136  10.328  64.427  1.00  0.00     0.000 HD 
HETATM   14  O   UNL     1     -12.297  11.328  62.947  1.00  0.00    -0.876 OA 
HETATM   15  C   UNL     1     -11.014  13.098  64.072  1.00  0.00    -0.346 C  
HETATM   16  H1  UNL     1      -8.369  11.105  62.946  1.00  0.00     0.000 HD 
HETATM   17  H   UNL     1     -12.803  12.006  62.516  1.00  0.00     0.000 HD 
BRANCH   7  18
HETATM   18  O   UNL     1      -9.855   9.532  66.068  1.00  0.00    -0.252 OA 
BRANCH  18  19
HETATM   19  C   UNL     1      -9.636   9.772  67.470  1.00  0.00    -0.150 C  
HETATM   20  O   UNL     1     -10.439   7.477  67.935  1.00  0.00    -0.203 OA 
HETATM   21  C   UNL     1      -8.243  10.387  67.589  1.00  0.00    -0.110 C  
HETATM   22  C   UNL     1      -8.045   8.135  68.157  1.00  0.00    -0.128 C  
HETATM   23  H   UNL     1     -10.371   6.690  68.462  1.00  0.00     0.000 HD 
HETATM   24  O   UNL     1      -7.317   9.311  67.800  1.00  0.00    -0.083 OA 
HETATM   25  C   UNL     1      -9.528   8.512  68.312  1.00  0.00    -0.134 C  
BRANCH  21  26
HETATM   26  C   UNL     1      -8.100  11.379  68.745  1.00  0.00    -0.112 C  
HETATM   27  H   UNL     1      -6.661  12.429  69.597  1.00  0.00     0.000 HD 
HETATM   28  O   UNL     1      -6.749  11.814  68.879  1.00  0.00    -0.079 OA 
ENDBRANCH  21  26
BRANCH  22  29
HETATM   29  O   UNL     1      -7.578   7.606  69.394  1.00  0.00    -0.090 OA 
BRANCH  29  30
HETATM   30  C   UNL     1      -7.998   6.282  69.777  1.00  0.00    -0.118 C  
HETATM   31  C   UNL     1      -8.475   6.276  71.243  1.00  0.00    -0.124 C  
HETATM   32  O   UNL     1      -9.372   7.371  71.479  1.00  0.00    -0.144 OA 
HETATM   33  C   UNL     1      -9.176   4.954  71.575  1.00  0.00    -0.145 C  
HETATM   34  C   UNL     1      -8.183   3.805  71.409  1.00  0.00    -0.073 C  
HETATM   35  N   UNL     1      -9.722   4.973  72.946  1.00  0.00    -0.146 NA 
HETATM   36  H   UNL     1      -9.666   7.367  72.381  1.00  0.00     0.000 HD 
HETATM   37  H1  UNL     1     -10.188   4.094  73.168  1.00  0.00     0.000 HD 
HETATM   38  H2  UNL     1     -10.337   5.772  73.095  1.00  0.00     0.000 HD 
HETATM   39  C   UNL     1      -7.575   3.768  69.996  1.00  0.00    -0.048 C  
HETATM   40  C   UNL     1      -6.978   5.142  69.511  1.00  0.00    -0.054 C  
HETATM   41  N   UNL     1      -6.562   2.693  69.951  1.00  0.00    -0.032 NA 
HETATM   42  H2  UNL     1      -6.936   1.789  70.241  1.00  0.00     0.000 HD 
HETATM   43  H1  UNL     1      -6.160   2.669  69.014  1.00  0.00     0.000 HD 
BRANCH  40  44
HETATM   44  O   UNL     1      -6.629   4.968  68.118  1.00  0.00    -0.046 OA 
BRANCH  44  45
HETATM   45  C   UNL     1      -7.691   4.518  67.265  1.00  0.00    -0.089 C  
HETATM   46  O   UNL     1      -8.207   5.574  66.461  1.00  0.00    -0.105 OA 
HETATM   47  C   UNL     1      -7.317   6.077  65.467  1.00  0.00    -0.076 C  
HETATM   48  C   UNL     1      -6.933   4.957  64.496  1.00  0.00    -0.050 C  
HETATM   49  H1  UNL     1      -6.409   1.392  66.568  1.00  0.00     0.000 HD 
HETATM   50  H2  UNL     1      -7.331   1.881  67.879  1.00  0.00     0.000 HD 
HETATM   51  O   UNL     1      -6.014   5.396  63.494  1.00  0.00    -0.020 OA 
HETATM   52  C   UNL     1      -6.314   3.789  65.276  1.00  0.00    -0.031 C  
HETATM   53  H   UNL     1      -5.776   4.701  62.892  1.00  0.00     0.000 HD 
HETATM   54  O   UNL     1      -6.043   2.700  64.375  1.00  0.00    -0.017 OA 
HETATM   55  N   UNL     1      -6.689   2.184  67.146  1.00  0.00    -0.038 NA 
HETATM   56  C   UNL     1      -7.266   3.315  66.385  1.00  0.00    -0.067 C  
HETATM   57  H   UNL     1      -5.659   1.977  64.858  1.00  0.00     0.000 HD 
BRANCH  47  58
HETATM   58  C   UNL     1      -8.042   7.223  64.748  1.00  0.00    -0.097 C  
HETATM   59  O   UNL     1      -7.621   7.298  63.383  1.00  0.00    -0.103 OA 
HETATM   60  H   UNL     1      -8.070   8.006  62.938  1.00  0.00     0.000 HD 
ENDBRANCH  47  58
ENDBRANCH  44  45
ENDBRANCH  40  44
ENDBRANCH  29  30
ENDBRANCH  22  29
ENDBRANCH  18  19
ENDBRANCH   7  18
ENDBRANCH   2   5
TORSDOF 9
ENDMDL
MODEL      184
REMARK 921   NORMALIZED FREE ENERGY PREDICTED BY IDOCK:   -4.35 KCAL/MOL
REMARK 922        TOTAL FREE ENERGY PREDICTED BY IDOCK:   -8.69 KCAL/MOL
REMARK 923 INTER-LIGAND FREE ENERGY PREDICTED BY IDOCK:   -7.74 KCAL/MOL
REMARK 924 INTRA-LIGAND FREE ENERGY PREDICTED BY IDOCK:   -0.95 KCAL/MOL
REMARK 927      BINDING AFFINITY PREDICTED BY RF-SCORE:    0.00 PKD
ROOT
HETATM    1  N   UNL     1     -12.029  13.244  70.276  1.00  0.00    -0.471 NA 
HETATM    2  C   UNL     1     -11.922  14.317  69.267  1.00  0.00    -0.335 C  
HETATM    3  H1  UNL     1     -12.833  13.415  70.880  1.00  0.00     0.000 HD 
HETATM    4  H2  UNL     1     -11.166  13.131  70.808  1.00  0.00     0.000 HD 
ENDROOT
BRANCH   2   5
HETATM    5  C   UNL     1     -10.710  14.058  68.356  1.00  0.00    -0.251 C  
HETATM    6  O   UNL     1      -9.943  13.001  68.961  1.00  0.00     0.029 OA 
HETATM    7  C   UNL     1      -8.902  12.536  68.104  1.00  0.00    -0.191 C  
HETATM    8  C   UNL     1      -7.853  13.672  67.931  1.00  0.00    -0.159 C  
HETATM    9  O   UNL     1      -9.483  15.862  69.431  1.00  0.00    -0.246 OA 
HETATM   10  H   UNL     1      -8.937  16.629  69.306  1.00  0.00     0.000 HD 
HETATM   11  N   UNL     1      -7.196  13.991  69.233  1.00  0.00    -0.266 NA 
HETATM   12  C   UNL     1      -8.554  14.924  67.354  1.00  0.00    -0.193 C  
HETATM   13  H2  UNL     1      -6.787  13.162  69.663  1.00  0.00     0.000 HD 
HETATM   14  O   UNL     1      -8.856  14.751  65.962  1.00  0.00    -0.465 OA 
HETATM   15  C   UNL     1      -9.822  15.305  68.153  1.00  0.00    -0.217 C  
HETATM   16  H1  UNL     1      -6.509  14.736  69.120  1.00  0.00     0.000 HD 
HETATM   17  H   UNL     1      -9.286  15.520  65.608  1.00  0.00     0.000 HD 
BRANCH   7  18
HETATM   18  O   UNL     1      -8.249  11.391  68.660  1.00  0.00    -0.150 OA 
BRANCH  18  19
HETATM   19  C   UNL     1      -8.131  10.285  67.747  1.00  0.00    -0.103 C  
HETATM   20  O   UNL     1      -7.879   8.775  69.693  1.00  0.00    -0.085 OA 
HETATM   21  C   UNL     1      -9.267  10.435  66.738  1.00  0.00    -0.155 C  
HETATM   22  C   UNL     1      -9.933   8.820  68.283  1.00  0.00    -0.176 C  
HETATM   23  H   UNL     1      -8.049   7.925  70.082  1.00  0.00     0.000 HD 
HETATM   24  O   UNL     1     -10.385   9.685  67.239  1.00  0.00    -0.217 OA 
HETATM   25  C   UNL     1      -8.402   8.926  68.371  1.00  0.00    -0.125 C  
BRANCH  21  26
HETATM   26  C   UNL     1      -8.927   9.916  65.340  1.00  0.00    -0.184 C  
HETATM   27  H   UNL     1      -7.314   9.369  64.340  1.00  0.00     0.000 HD 
HETATM   28  O   UNL     1      -7.525   9.691  65.208  1.00  0.00    -0.104 OA 
ENDBRANCH  21  26
BRANCH  22  29
HETATM   29  O   UNL     1     -10.281   7.468  68.004  1.00  0.00    -0.179 OA 
BRANCH  29  30
HETATM   30  C   UNL     1     -10.194   6.503  69.071  1.00  0.00    -0.177 C  
HETATM   31  C   UNL     1     -10.791   7.083  70.367  1.00  0.00    -0.254 C  
HETATM   32  O   UNL     1     -12.063   7.690  70.101  1.00  0.00    -0.430 OA 
HETATM   33  C   UNL     1     -10.956   5.984  71.423  1.00  0.00    -0.276 C  
HETATM   34  C   UNL     1      -9.582   5.409  71.766  1.00  0.00    -0.186 C  
HETATM   35  N   UNL     1     -11.615   6.507  72.635  1.00  0.00    -0.464 NA 
HETATM   36  H   UNL     1     -12.432   8.047  70.899  1.00  0.00     0.000 HD 
HETATM   37  H1  UNL     1     -11.724   5.776  73.338  1.00  0.00     0.000 HD 
HETATM   38  H2  UNL     1     -12.505   6.953  72.416  1.00  0.00     0.000 HD 
HETATM   39  C   UNL     1      -8.854   4.873  70.520  1.00  0.00    -0.115 C  
HETATM   40  C   UNL     1      -8.788   5.892  69.321  1.00  0.00    -0.118 C  
HETATM   41  N   UNL     1      -7.504   4.426  70.924  1.00  0.00    -0.051 NA 
HETATM   42  H2  UNL     1      -7.528   3.749  71.686  1.00  0.00     0.000 HD 
HETATM   43  H1  UNL     1      -7.023   4.071  70.098  1.00  0.00     0.000 HD 
BRANCH  40  44
HETATM   44  O   UNL     1      -8.245   5.164  68.195  1.00  0.00    -0.097 OA 
BRANCH  44  45
HETATM   45  C   UNL     1      -9.166   4.899  67.127  1.00  0.00    -0.123 C  
HETATM   46  O   UNL     1      -8.814   5.599  65.939  1.00  0.00    -0.145 OA 
HETATM   47  C   UNL     1      -7.608   5.169  65.309  1.00  0.00    -0.082 C  
HETATM   48  C   UNL     1      -7.726   3.695  64.911  1.00  0.00    -0.081 C  
HETATM   49  H1  UNL     1      -9.752   1.578  67.859  1.00  0.00     0.000 HD 
HETATM   50  H2  UNL     1     -10.492   2.941  68.495  1.00  0.00     0.000 HD 
HETATM   51  O   UNL     1      -6.532   3.198  64.303  1.00  0.00    -0.029 OA 
HETATM   52  C   UNL     1      -8.054   2.851  66.150  1.00  0.00    -0.083 C  
HETATM   53  H   UNL     1      -6.605   2.284  64.056  1.00  0.00     0.000 HD 
HETATM   54  O   UNL     1      -8.258   1.482  65.758  1.00  0.00    -0.077 OA 
HETATM   55  N   UNL     1      -9.653   2.576  68.043  1.00  0.00    -0.138 NA 
HETATM   56  C   UNL     1      -9.316   3.382  66.847  1.00  0.00    -0.175 C  
HETATM   57  H   UNL     1      -8.461   0.959  66.525  1.00  0.00     0.000 HD 
BRANCH  47  58
HETATM   58  C   UNL     1      -7.391   6.069  64.085  1.00  0.00    -0.069 C  
HETATM   59  O   UNL     1      -8.642   6.575  63.613  1.00  0.00    -0.326 OA 
HETATM   60  H   UNL     1      -8.508   7.132  62.855  1.00  0.00     0.000 HD 
ENDBRANCH  47  58
ENDBRANCH  44  45
ENDBRANCH  40  44
ENDBRANCH  29  30
ENDBRANCH  22  29
ENDBRANCH  18  19
ENDBRANCH   7  18
ENDBRANCH   2   5
TORSDOF 9
ENDMDL
MODEL      185
REMARK 921   NORMALIZED FREE ENERGY PREDICTED BY IDOCK:   -4.34 KCAL/MOL
REMARK 922        TOTAL FREE ENERGY PREDICTED BY IDOCK:   -8.67 KCAL/MOL
REMARK 923 INTER-LIGAND FREE ENERGY PREDICTED BY IDOCK:   -8.48 KCAL/MOL
REMARK 924 INTRA-LIGAND FREE ENERGY PREDICTED BY IDOCK:   -0.18 KCAL/MOL
REMARK 927      BINDING AFFINITY PREDICTED BY RF-SCORE:    0.00 PKD
ROOT
HETATM    1  N   UNL     1      -8.711   3.753  63.503  1.00  0.00    -0.096 NA 
HETATM    2  C   UNL     1      -9.673   3.000  64.333  1.00  0.00    -0.146 C  
HETATM    3  H1  UNL     1      -8.872   3.551  62.516  1.00  0.00     0.000 HD 
HETATM    4  H2  UNL     1      -7.745   3.574  63.779  1.00  0.00     0.000 HD 
ENDROOT
BRANCH   2   5
HETATM    5  C   UNL     1      -9.431   3.306  65.821  1.00  0.00    -0.087 C  
HETATM    6  O   UNL     1      -8.546   4.439  65.882  1.00  0.00    -0.113 OA 
HETATM    7  C   UNL     1      -8.408   4.941  67.209  1.00  0.00    -0.106 C  
HETATM    8  C   UNL     1      -7.670   3.876  68.071  1.00  0.00    -0.066 C  
HETATM    9  O   UNL     1      -7.660   1.641  65.902  1.00  0.00    -0.063 OA 
HETATM   10  H   UNL     1      -7.286   0.910  66.379  1.00  0.00     0.000 HD 
HETATM   11  N   UNL     1      -6.280   3.659  67.571  1.00  0.00    -0.035 NA 
HETATM   12  C   UNL     1      -8.472   2.555  68.038  1.00  0.00    -0.076 C  
HETATM   13  H2  UNL     1      -5.756   4.533  67.521  1.00  0.00     0.000 HD 
HETATM   14  O   UNL     1      -9.653   2.647  68.847  1.00  0.00    -0.140 OA 
HETATM   15  C   UNL     1      -8.822   2.118  66.595  1.00  0.00    -0.122 C  
HETATM   16  H1  UNL     1      -5.796   2.961  68.136  1.00  0.00     0.000 HD 
HETATM   17  H   UNL     1     -10.145   1.835  68.827  1.00  0.00     0.000 HD 
BRANCH   7  18
HETATM   18  O   UNL     1      -7.646   6.151  67.227  1.00  0.00    -0.090 OA 
BRANCH  18  19
HETATM   19  C   UNL     1      -8.094   7.109  68.203  1.00  0.00    -0.124 C  
HETATM   20  O   UNL     1      -6.750   8.837  67.046  1.00  0.00    -0.064 OA 
HETATM   21  C   UNL     1      -9.606   6.932  68.320  1.00  0.00    -0.128 C  
HETATM   22  C   UNL     1      -9.240   8.793  66.965  1.00  0.00    -0.142 C  
HETATM   23  H   UNL     1      -6.661   9.743  66.776  1.00  0.00     0.000 HD 
HETATM   24  O   UNL     1     -10.217   7.842  67.393  1.00  0.00    -0.203 OA 
HETATM   25  C   UNL     1      -7.951   8.559  67.770  1.00  0.00    -0.107 C  
BRANCH  21  26
HETATM   26  C   UNL     1     -10.158   7.225  69.716  1.00  0.00    -0.194 C  
HETATM   27  H   UNL     1     -11.319   8.574  70.572  1.00  0.00     0.000 HD 
HETATM   28  O   UNL     1     -10.976   8.392  69.706  1.00  0.00    -0.221 OA 
ENDBRANCH  21  26
BRANCH  22  29
HETATM   29  O   UNL     1      -9.691  10.123  67.205  1.00  0.00    -0.164 OA 
BRANCH  29  30
HETATM   30  C   UNL     1     -10.391  10.811  66.150  1.00  0.00    -0.239 C  
HETATM   31  C   UNL     1      -9.714  10.538  64.792  1.00  0.00    -0.305 C  
HETATM   32  O   UNL     1      -9.458   9.135  64.638  1.00  0.00    -0.418 OA 
HETATM   33  C   UNL     1     -10.598  11.030  63.641  1.00  0.00    -0.269 C  
HETATM   34  C   UNL     1     -10.787  12.542  63.766  1.00  0.00    -0.489 C  
HETATM   35  N   UNL     1     -10.006  10.689  62.333  1.00  0.00    -0.738 NA 
HETATM   36  H   UNL     1      -9.041   8.966  63.801  1.00  0.00     0.000 HD 
HETATM   37  H1  UNL     1     -10.593  11.017  61.567  1.00  0.00     0.000 HD 
HETATM   38  H2  UNL     1      -9.812   9.691  62.258  1.00  0.00     0.000 HD 
HETATM   39  C   UNL     1     -11.383  12.938  65.129  1.00  0.00    -0.298 C  
HETATM   40  C   UNL     1     -10.624  12.331  66.368  1.00  0.00    -0.242 C  
HETATM   41  N   UNL     1     -11.443  14.413  65.202  1.00  0.00    -0.347 NA 
HETATM   42  H2  UNL     1     -11.949  14.824  64.418  1.00  0.00     0.000 HD 
HETATM   43  H1  UNL     1     -11.838  14.674  66.105  1.00  0.00     0.000 HD 
BRANCH  40  44
HETATM   44  O   UNL     1     -11.422  12.650  67.532  1.00  0.00    -0.297 OA 
BRANCH  44  45
HETATM   45  C   UNL     1     -10.690  12.838  68.752  1.00  0.00    -0.214 C  
HETATM   46  O   UNL     1      -9.288  12.686  68.557  1.00  0.00    -0.178 OA 
HETATM   47  C   UNL     1      -8.668  13.696  67.764  1.00  0.00    -0.184 C  
HETATM   48  C   UNL     1      -8.856  15.065  68.423  1.00  0.00    -0.178 C  
HETATM   49  H1  UNL     1     -12.662  15.343  70.072  1.00  0.00     0.000 HD 
HETATM   50  H2  UNL     1     -12.873  13.683  70.160  1.00  0.00     0.000 HD 
HETATM   51  O   UNL     1      -8.282  16.124  67.655  1.00  0.00    -0.143 OA 
HETATM   52  C   UNL     1     -10.353  15.339  68.625  1.00  0.00    -0.232 C  
HETATM   53  H   UNL     1      -8.398  16.973  68.064  1.00  0.00     0.000 HD 
HETATM   54  O   UNL     1     -10.523  16.581  69.331  1.00  0.00    -0.292 OA 
HETATM   55  N   UNL     1     -12.452  14.447  69.631  1.00  0.00    -0.243 NA 
HETATM   56  C   UNL     1     -11.008  14.199  69.421  1.00  0.00    -0.179 C  
HETATM   57  H   UNL     1     -11.449  16.750  69.456  1.00  0.00     0.000 HD 
BRANCH  47  58
HETATM   58  C   UNL     1      -7.182  13.328  67.642  1.00  0.00    -0.162 C  
HETATM   59  O   UNL     1      -6.995  12.360  66.605  1.00  0.00    -0.351 OA 
HETATM   60  H   UNL     1      -6.076  12.133  66.530  1.00  0.00     0.000 HD 
ENDBRANCH  47  58
ENDBRANCH  44  45
ENDBRANCH  40  44
ENDBRANCH  29  30
ENDBRANCH  22  29
ENDBRANCH  18  19
ENDBRANCH   7  18
ENDBRANCH   2   5
TORSDOF 9
ENDMDL
MODEL      186
REMARK 921   NORMALIZED FREE ENERGY PREDICTED BY IDOCK:   -4.29 KCAL/MOL
REMARK 922        TOTAL FREE ENERGY PREDICTED BY IDOCK:   -8.59 KCAL/MOL
REMARK 923 INTER-LIGAND FREE ENERGY PREDICTED BY IDOCK:   -8.05 KCAL/MOL
REMARK 924 INTRA-LIGAND FREE ENERGY PREDICTED BY IDOCK:   -0.54 KCAL/MOL
REMARK 927      BINDING AFFINITY PREDICTED BY RF-SCORE:    0.00 PKD
ROOT
HETATM    1  N   UNL     1      -5.722  20.120  70.340  1.00  0.00    -0.303 NA 
HETATM    2  C   UNL     1      -6.098  19.304  69.167  1.00  0.00    -0.258 C  
HETATM    3  H1  UNL     1      -4.707  20.218  70.383  1.00  0.00     0.000 HD 
HETATM    4  H2  UNL     1      -6.108  19.746  71.207  1.00  0.00     0.000 HD 
ENDROOT
BRANCH   2   5
HETATM    5  C   UNL     1      -7.627  19.157  69.102  1.00  0.00    -0.238 C  
HETATM    6  O   UNL     1      -7.904  17.835  68.604  1.00  0.00    -0.278 OA 
HETATM    7  C   UNL     1      -9.290  17.509  68.690  1.00  0.00    -0.277 C  
HETATM    8  C   UNL     1     -10.079  18.423  67.708  1.00  0.00    -0.356 C  
HETATM    9  O   UNL     1      -7.664  20.225  66.918  1.00  0.00    -0.296 OA 
HETATM   10  H   UNL     1      -8.080  20.875  66.364  1.00  0.00     0.000 HD 
HETATM   11  N   UNL     1      -9.682  18.151  66.294  1.00  0.00    -0.444 NA 
HETATM   12  C   UNL     1      -9.814  19.903  68.071  1.00  0.00    -0.412 C  
HETATM   13  H2  UNL     1      -9.786  17.164  66.057  1.00  0.00     0.000 HD 
HETATM   14  O   UNL     1     -10.519  20.276  69.263  1.00  0.00    -0.514 OA 
HETATM   15  C   UNL     1      -8.303  20.212  68.201  1.00  0.00    -0.100 C  
HETATM   16  H1  UNL     1     -10.199  18.750  65.651  1.00  0.00     0.000 HD 
HETATM   17  H   UNL     1     -10.356  21.185  69.486  1.00  0.00     0.000 HD 
BRANCH   7  18
HETATM   18  O   UNL     1      -9.523  16.145  68.331  1.00  0.00    -0.201 OA 
BRANCH  18  19
HETATM   19  C   UNL     1      -8.866  15.194  69.188  1.00  0.00    -0.221 C  
HETATM   20  O   UNL     1     -10.626  13.547  68.623  1.00  0.00    -0.244 OA 
HETATM   21  C   UNL     1      -7.384  15.238  68.823  1.00  0.00    -0.131 C  
HETATM   22  C   UNL     1      -8.288  13.359  67.781  1.00  0.00    -0.178 C  
HETATM   23  H   UNL     1     -10.860  12.642  68.457  1.00  0.00     0.000 HD 
HETATM   24  O   UNL     1      -7.160  14.235  67.821  1.00  0.00    -0.144 OA 
HETATM   25  C   UNL     1      -9.242  13.746  68.923  1.00  0.00     0.128 C  
BRANCH  21  26
HETATM   26  C   UNL     1      -6.448  14.958  70.001  1.00  0.00    -0.167 C  
HETATM   27  H   UNL     1      -4.866  15.794  70.837  1.00  0.00     0.000 HD 
HETATM   28  O   UNL     1      -5.446  15.968  70.106  1.00  0.00    -0.147 OA 
ENDBRANCH  21  26
BRANCH  22  29
HETATM   29  O   UNL     1      -7.883  12.006  67.964  1.00  0.00    -0.126 OA 
BRANCH  29  30
HETATM   30  C   UNL     1      -8.518  10.986  67.169  1.00  0.00    -0.137 C  
HETATM   31  C   UNL     1      -9.464  11.625  66.134  1.00  0.00    -0.224 C  
HETATM   32  O   UNL     1      -8.806  12.705  65.458  1.00  0.00    -0.106 OA 
HETATM   33  C   UNL     1      -9.928  10.582  65.111  1.00  0.00    -0.309 C  
HETATM   34  C   UNL     1     -10.709   9.485  65.834  1.00  0.00     0.585 C  
HETATM   35  N   UNL     1     -10.759  11.202  64.060  1.00  0.00    -0.430 NA 
HETATM   36  H   UNL     1      -9.389  13.099  64.820  1.00  0.00     0.000 HD 
HETATM   37  H1  UNL     1     -11.068  10.509  63.380  1.00  0.00     0.000 HD 
HETATM   38  H2  UNL     1     -10.277  11.980  63.611  1.00  0.00     0.000 HD 
HETATM   39  C   UNL     1      -9.881   8.830  66.953  1.00  0.00    -0.229 C  
HETATM   40  C   UNL     1      -9.227   9.852  67.958  1.00  0.00    -0.124 C  
HETATM   41  N   UNL     1     -10.737   7.853  67.658  1.00  0.00    -0.469 NA 
HETATM   42  H2  UNL     1     -11.152   7.169  67.026  1.00  0.00     0.000 HD 
HETATM   43  H1  UNL     1     -10.188   7.420  68.400  1.00  0.00     0.000 HD 
BRANCH  40  44
HETATM   44  O   UNL     1      -8.351   9.082  68.813  1.00  0.00    -0.119 OA 
BRANCH  44  45
HETATM   45  C   UNL     1      -8.628   9.162  70.218  1.00  0.00    -0.198 C  
HETATM   46  O   UNL     1      -9.494   8.117  70.648  1.00  0.00    -0.160 OA 
HETATM   47  C   UNL     1      -8.937   6.804  70.602  1.00  0.00    -0.151 C  
HETATM   48  C   UNL     1      -7.705   6.730  71.508  1.00  0.00    -0.096 C  
HETATM   49  H1  UNL     1      -5.512  10.250  71.225  1.00  0.00     0.000 HD 
HETATM   50  H2  UNL     1      -6.809  11.151  70.662  1.00  0.00     0.000 HD 
HETATM   51  O   UNL     1      -7.083   5.444  71.478  1.00  0.00    -0.063 OA 
HETATM   52  C   UNL     1      -6.686   7.795  71.080  1.00  0.00    -0.041 C  
HETATM   53  H   UNL     1      -6.319   5.398  72.040  1.00  0.00     0.000 HD 
HETATM   54  O   UNL     1      -5.572   7.788  71.990  1.00  0.00    -0.036 OA 
HETATM   55  N   UNL     1      -6.365  10.232  70.665  1.00  0.00    -0.239 NA 
HETATM   56  C   UNL     1      -7.334   9.189  71.070  1.00  0.00    -0.098 C  
HETATM   57  H   UNL     1      -4.941   8.447  71.726  1.00  0.00     0.000 HD 
BRANCH  47  58
HETATM   58  C   UNL     1     -10.033   5.832  71.060  1.00  0.00    -0.190 C  
HETATM   59  O   UNL     1     -11.325   6.352  70.736  1.00  0.00    -0.311 OA 
HETATM   60  H   UNL     1     -12.003   5.751  71.019  1.00  0.00     0.000 HD 
ENDBRANCH  47  58
ENDBRANCH  44  45
ENDBRANCH  40  44
ENDBRANCH  29  30
ENDBRANCH  22  29
ENDBRANCH  18  19
ENDBRANCH   7  18
ENDBRANCH   2   5
TORSDOF 9
ENDMDL
MODEL      187
REMARK 921   NORMALIZED FREE ENERGY PREDICTED BY IDOCK:   -4.24 KCAL/MOL
REMARK 922        TOTAL FREE ENERGY PREDICTED BY IDOCK:   -8.51 KCAL/MOL
REMARK 923 INTER-LIGAND FREE ENERGY PREDICTED BY IDOCK:   -8.04 KCAL/MOL
REMARK 924 INTRA-LIGAND FREE ENERGY PREDICTED BY IDOCK:   -0.47 KCAL/MOL
REMARK 927      BINDING AFFINITY PREDICTED BY RF-SCORE:    0.00 PKD
ROOT
HETATM    1  N   UNL     1     -11.126  14.323  70.263  1.00  0.00    -0.475 NA 
HETATM    2  C   UNL     1     -12.113  13.338  69.776  1.00  0.00    -0.290 C  
HETATM    3  H1  UNL     1     -11.336  14.575  71.228  1.00  0.00     0.000 HD 
HETATM    4  H2  UNL     1     -11.070  15.141  69.656  1.00  0.00     0.000 HD 
ENDROOT
BRANCH   2   5
HETATM    5  C   UNL     1     -11.797  12.957  68.320  1.00  0.00    -0.330 C  
HETATM    6  O   UNL     1     -10.368  12.820  68.219  1.00  0.00    -0.231 OA 
HETATM    7  C   UNL     1      -9.969  12.271  66.964  1.00  0.00    -0.211 C  
HETATM    8  C   UNL     1     -10.300  13.299  65.843  1.00  0.00    -0.292 C  
HETATM    9  O   UNL     1     -11.838  15.299  67.669  1.00  0.00    -0.346 OA 
HETATM   10  H   UNL     1     -12.148  15.938  67.038  1.00  0.00     0.000 HD 
HETATM   11  N   UNL     1      -9.500  14.548  66.015  1.00  0.00    -0.480 NA 
HETATM   12  C   UNL     1     -11.813  13.613  65.876  1.00  0.00    -0.378 C  
HETATM   13  H2  UNL     1      -8.500  14.353  66.065  1.00  0.00     0.000 HD 
HETATM   14  O   UNL     1     -12.579  12.523  65.346  1.00  0.00    -0.656 OA 
HETATM   15  C   UNL     1     -12.301  13.995  67.295  1.00  0.00    -0.160 C  
HETATM   16  H1  UNL     1      -9.717  15.222  65.281  1.00  0.00     0.000 HD 
HETATM   17  H   UNL     1     -13.508  12.716  65.366  1.00  0.00     0.000 HD 
BRANCH   7  18
HETATM   18  O   UNL     1      -8.564  12.006  66.940  1.00  0.00    -0.182 OA 
BRANCH  18  19
HETATM   19  C   UNL     1      -8.118  11.322  65.756  1.00  0.00     0.111 C  
HETATM   20  O   UNL     1      -5.938  10.933  66.863  1.00  0.00    -0.060 OA 
HETATM   21  C   UNL     1      -9.233  10.350  65.374  1.00  0.00    -0.193 C  
HETATM   22  C   UNL     1      -7.586   9.108  66.460  1.00  0.00    -0.093 C  
HETATM   23  H   UNL     1      -5.192  10.361  66.998  1.00  0.00     0.000 HD 
HETATM   24  O   UNL     1      -8.940   9.094  66.006  1.00  0.00    -0.157 OA 
HETATM   25  C   UNL     1      -6.924  10.407  65.971  1.00  0.00    -0.129 C  
BRANCH  21  26
HETATM   26  C   UNL     1      -9.359  10.112  63.868  1.00  0.00    -0.287 C  
HETATM   27  H   UNL     1     -10.502  10.739  62.384  1.00  0.00     0.000 HD 
HETATM   28  O   UNL     1     -10.423  10.886  63.319  1.00  0.00    -0.290 OA 
ENDBRANCH  21  26
BRANCH  22  29
HETATM   29  O   UNL     1      -6.864   8.001  65.928  1.00  0.00    -0.055 OA 
BRANCH  29  30
HETATM   30  C   UNL     1      -7.428   6.682  66.067  1.00  0.00    -0.081 C  
HETATM   31  C   UNL     1      -7.955   6.180  64.709  1.00  0.00    -0.124 C  
HETATM   32  O   UNL     1      -6.976   6.397  63.684  1.00  0.00    -0.043 OA 
HETATM   33  C   UNL     1      -8.301   4.688  64.785  1.00  0.00    -0.127 C  
HETATM   34  C   UNL     1      -9.411   4.483  65.816  1.00  0.00    -0.162 C  
HETATM   35  N   UNL     1      -8.717   4.172  63.466  1.00  0.00    -0.107 NA 
HETATM   36  H   UNL     1      -7.301   6.087  62.847  1.00  0.00     0.000 HD 
HETATM   37  H1  UNL     1      -8.947   3.180  63.516  1.00  0.00     0.000 HD 
HETATM   38  H2  UNL     1      -8.015   4.359  62.751  1.00  0.00     0.000 HD 
HETATM   39  C   UNL     1      -9.020   5.030  67.200  1.00  0.00    -0.112 C  
HETATM   40  C   UNL     1      -8.493   6.514  67.185  1.00  0.00    -0.112 C  
HETATM   41  N   UNL     1     -10.178   4.878  68.106  1.00  0.00    -0.084 NA 
HETATM   42  H2  UNL     1     -10.520   3.918  68.146  1.00  0.00     0.000 HD 
HETATM   43  H1  UNL     1      -9.918   5.241  69.023  1.00  0.00     0.000 HD 
BRANCH  40  44
HETATM   44  O   UNL     1      -8.006   6.789  68.519  1.00  0.00    -0.115 OA 
BRANCH  44  45
HETATM   45  C   UNL     1      -8.928   6.514  69.583  1.00  0.00    -0.141 C  
HETATM   46  O   UNL     1      -8.280   5.927  70.706  1.00  0.00    -0.119 OA 
HETATM   47  C   UNL     1      -7.376   6.780  71.406  1.00  0.00    -0.082 C  
HETATM   48  C   UNL     1      -8.124   8.003  71.942  1.00  0.00    -0.121 C  
HETATM   49  H1  UNL     1     -10.934   9.290  69.163  1.00  0.00     0.000 HD 
HETATM   50  H2  UNL     1     -11.008   7.811  68.378  1.00  0.00     0.000 HD 
HETATM   51  O   UNL     1      -7.260   8.913  72.627  1.00  0.00    -0.337 OA 
HETATM   52  C   UNL     1      -8.815   8.735  70.783  1.00  0.00    -0.191 C  
HETATM   53  H   UNL     1      -7.725   9.672  72.960  1.00  0.00     0.000 HD 
HETATM   54  O   UNL     1      -9.595   9.827  71.301  1.00  0.00    -0.270 OA 
HETATM   55  N   UNL     1     -10.408   8.461  68.885  1.00  0.00    -0.218 NA 
HETATM   56  C   UNL     1      -9.727   7.773  70.005  1.00  0.00    -0.176 C  
HETATM   57  H   UNL     1     -10.023  10.280  70.584  1.00  0.00     0.000 HD 
BRANCH  47  58
HETATM   58  C   UNL     1      -6.759   5.953  72.543  1.00  0.00    -0.069 C  
HETATM   59  O   UNL     1      -7.129   4.577  72.412  1.00  0.00    -0.064 OA 
HETATM   60  H   UNL     1      -6.748   4.065  73.115  1.00  0.00     0.000 HD 
ENDBRANCH  47  58
ENDBRANCH  44  45
ENDBRANCH  40  44
ENDBRANCH  29  30
ENDBRANCH  22  29
ENDBRANCH  18  19
ENDBRANCH   7  18
ENDBRANCH   2   5
TORSDOF 9
ENDMDL
MODEL      188
REMARK 921   NORMALIZED FREE ENERGY PREDICTED BY IDOCK:   -4.24 KCAL/MOL
REMARK 922        TOTAL FREE ENERGY PREDICTED BY IDOCK:   -8.51 KCAL/MOL
REMARK 923 INTER-LIGAND FREE ENERGY PREDICTED BY IDOCK:   -7.96 KCAL/MOL
REMARK 924 INTRA-LIGAND FREE ENERGY PREDICTED BY IDOCK:   -0.55 KCAL/MOL
REMARK 927      BINDING AFFINITY PREDICTED BY RF-SCORE:    0.00 PKD
ROOT
HETATM    1  N   UNL     1     -14.097  12.862  72.402  1.00  0.00    -0.510 NA 
HETATM    2  C   UNL     1     -13.135  13.981  72.329  1.00  0.00    -0.423 C  
HETATM    3  H1  UNL     1     -14.304  12.646  73.377  1.00  0.00     0.000 HD 
HETATM    4  H2  UNL     1     -13.772  12.043  71.887  1.00  0.00     0.000 HD 
ENDROOT
BRANCH   2   5
HETATM    5  C   UNL     1     -12.824  14.308  70.859  1.00  0.00    -0.347 C  
HETATM    6  O   UNL     1     -12.326  13.101  70.253  1.00  0.00    -0.310 OA 
HETATM    7  C   UNL     1     -12.192  13.227  68.839  1.00  0.00    -0.098 C  
HETATM    8  C   UNL     1     -11.068  14.259  68.533  1.00  0.00    -0.257 C  
HETATM    9  O   UNL     1     -10.634  15.159  71.483  1.00  0.00    -0.397 OA 
HETATM   10  H   UNL     1     -10.001  15.860  71.381  1.00  0.00     0.000 HD 
HETATM   11  N   UNL     1      -9.748  13.767  69.026  1.00  0.00    -0.415 NA 
HETATM   12  C   UNL     1     -11.428  15.608  69.197  1.00  0.00    -0.359 C  
HETATM   13  H2  UNL     1      -9.525  12.845  68.651  1.00  0.00     0.000 HD 
HETATM   14  O   UNL     1     -12.476  16.273  68.480  1.00  0.00     0.083 OA 
HETATM   15  C   UNL     1     -11.795  15.446  70.692  1.00  0.00    -0.351 C  
HETATM   16  H1  UNL     1      -9.011  14.444  68.826  1.00  0.00     0.000 HD 
HETATM   17  H   UNL     1     -12.697  17.102  68.888  1.00  0.00     0.000 HD 
BRANCH   7  18
HETATM   18  O   UNL     1     -11.839  11.976  68.241  1.00  0.00    -0.339 OA 
BRANCH  18  19
HETATM   19  C   UNL     1     -10.426  11.704  68.245  1.00  0.00    -0.204 C  
HETATM   20  O   UNL     1     -10.693  10.629  70.458  1.00  0.00    -0.419 OA 
HETATM   21  C   UNL     1     -10.097  11.109  66.877  1.00  0.00    -0.214 C  
HETATM   22  C   UNL     1     -10.233   9.333  68.380  1.00  0.00    -0.202 C  
HETATM   23  H   UNL     1     -10.427   9.943  71.060  1.00  0.00     0.000 HD 
HETATM   24  O   UNL     1     -10.202   9.683  66.995  1.00  0.00    -0.215 OA 
HETATM   25  C   UNL     1     -10.001  10.608  69.207  1.00  0.00    -0.193 C  
BRANCH  21  26
HETATM   26  C   UNL     1      -8.693  11.449  66.375  1.00  0.00    -0.185 C  
HETATM   27  H   UNL     1      -7.113  12.441  67.023  1.00  0.00     0.000 HD 
HETATM   28  O   UNL     1      -7.984  12.230  67.334  1.00  0.00    -0.153 OA 
ENDBRANCH  21  26
BRANCH  22  29
HETATM   29  O   UNL     1      -9.204   8.397  68.688  1.00  0.00    -0.143 OA 
BRANCH  29  30
HETATM   30  C   UNL     1      -9.571   7.022  68.910  1.00  0.00    -0.140 C  
HETATM   31  C   UNL     1      -9.858   6.780  70.405  1.00  0.00    -0.175 C  
HETATM   32  O   UNL     1     -10.718   7.806  70.919  1.00  0.00    -0.217 OA 
HETATM   33  C   UNL     1     -10.510   5.408  70.613  1.00  0.00    -0.259 C  
HETATM   34  C   UNL     1      -9.544   4.319  70.147  1.00  0.00    -0.269 C  
HETATM   35  N   UNL     1     -10.877   5.204  72.028  1.00  0.00    -0.171 NA 
HETATM   36  H   UNL     1     -10.896   7.657  71.840  1.00  0.00     0.000 HD 
HETATM   37  H1  UNL     1     -11.310   4.291  72.167  1.00  0.00     0.000 HD 
HETATM   38  H2  UNL     1     -11.469   5.958  72.375  1.00  0.00     0.000 HD 
HETATM   39  C   UNL     1      -9.122   4.513  68.680  1.00  0.00    -0.120 C  
HETATM   40  C   UNL     1      -8.592   5.957  68.344  1.00  0.00    -0.113 C  
HETATM   41  N   UNL     1      -8.121   3.479  68.342  1.00  0.00    -0.069 NA 
HETATM   42  H2  UNL     1      -8.454   2.534  68.532  1.00  0.00     0.000 HD 
HETATM   43  H1  UNL     1      -7.841   3.608  67.370  1.00  0.00     0.000 HD 
BRANCH  40  44
HETATM   44  O   UNL     1      -8.422   6.007  66.908  1.00  0.00    -0.109 OA 
BRANCH  44  45
HETATM   45  C   UNL     1      -7.065   6.055  66.446  1.00  0.00    -0.068 C  
HETATM   46  O   UNL     1      -6.639   4.802  65.923  1.00  0.00    -0.042 OA 
HETATM   47  C   UNL     1      -7.275   4.397  64.712  1.00  0.00    -0.070 C  
HETATM   48  C   UNL     1      -7.005   5.427  63.612  1.00  0.00    -0.046 C  
HETATM   49  H1  UNL     1      -7.136   9.269  65.193  1.00  0.00     0.000 HD 
HETATM   50  H2  UNL     1      -6.848   8.760  66.763  1.00  0.00     0.000 HD 
HETATM   51  O   UNL     1      -7.647   5.090  62.381  1.00  0.00    -0.051 OA 
HETATM   52  C   UNL     1      -7.486   6.810  64.072  1.00  0.00    -0.098 C  
HETATM   53  H   UNL     1      -7.479   5.729  61.698  1.00  0.00     0.000 HD 
HETATM   54  O   UNL     1      -7.145   7.793  63.078  1.00  0.00    -0.077 OA 
HETATM   55  N   UNL     1      -7.285   8.523  65.872  1.00  0.00    -0.075 NA 
HETATM   56  C   UNL     1      -6.838   7.188  65.414  1.00  0.00    -0.052 C  
HETATM   57  H   UNL     1      -7.442   8.649  63.362  1.00  0.00     0.000 HD 
BRANCH  47  58
HETATM   58  C   UNL     1      -6.711   3.017  64.344  1.00  0.00    -0.036 C  
HETATM   59  O   UNL     1      -7.365   2.509  63.178  1.00  0.00    -0.046 OA 
HETATM   60  H   UNL     1      -7.016   1.656  62.950  1.00  0.00     0.000 HD 
ENDBRANCH  47  58
ENDBRANCH  44  45
ENDBRANCH  40  44
ENDBRANCH  29  30
ENDBRANCH  22  29
ENDBRANCH  18  19
ENDBRANCH   7  18
ENDBRANCH   2   5
TORSDOF 9
ENDMDL
MODEL      189
REMARK 921   NORMALIZED FREE ENERGY PREDICTED BY IDOCK:   -4.23 KCAL/MOL
REMARK 922        TOTAL FREE ENERGY PREDICTED BY IDOCK:   -8.50 KCAL/MOL
REMARK 923 INTER-LIGAND FREE ENERGY PREDICTED BY IDOCK:   -7.43 KCAL/MOL
REMARK 924 INTRA-LIGAND FREE ENERGY PREDICTED BY IDOCK:   -1.08 KCAL/MOL
REMARK 927      BINDING AFFINITY PREDICTED BY RF-SCORE:    0.00 PKD
ROOT
HETATM    1  N   UNL     1     -14.210  15.180  71.057  1.00  0.00    -0.727 NA 
HETATM    2  C   UNL     1     -12.819  15.346  70.589  1.00  0.00    -0.430 C  
HETATM    3  H1  UNL     1     -14.428  15.890  71.757  1.00  0.00     0.000 HD 
HETATM    4  H2  UNL     1     -14.389  14.236  71.400  1.00  0.00     0.000 HD 
ENDROOT
BRANCH   2   5
HETATM    5  C   UNL     1     -12.491  14.277  69.533  1.00  0.00    -0.128 C  
HETATM    6  O   UNL     1     -11.606  13.327  70.154  1.00  0.00    -0.212 OA 
HETATM    7  C   UNL     1     -11.392  12.179  69.335  1.00  0.00    -0.245 C  
HETATM    8  C   UNL     1     -10.603  12.611  68.066  1.00  0.00    -0.221 C  
HETATM    9  O   UNL     1     -10.716  15.673  68.631  1.00  0.00    -0.238 OA 
HETATM   10  H   UNL     1     -10.313  16.029  67.848  1.00  0.00     0.000 HD 
HETATM   11  N   UNL     1      -9.244  13.112  68.430  1.00  0.00    -0.314 NA 
HETATM   12  C   UNL     1     -11.404  13.705  67.321  1.00  0.00    -0.323 C  
HETATM   13  H2  UNL     1      -8.726  12.428  68.981  1.00  0.00     0.000 HD 
HETATM   14  O   UNL     1     -12.536  13.144  66.642  1.00  0.00    -0.319 OA 
HETATM   15  C   UNL     1     -11.836  14.856  68.262  1.00  0.00    -0.278 C  
HETATM   16  H1  UNL     1      -8.727  13.396  67.597  1.00  0.00     0.000 HD 
HETATM   17  H   UNL     1     -13.027  13.816  66.185  1.00  0.00     0.000 HD 
BRANCH   7  18
HETATM   18  O   UNL     1     -10.633  11.185  70.028  1.00  0.00     0.036 OA 
BRANCH  18  19
HETATM   19  C   UNL     1     -10.137  10.132  69.182  1.00  0.00    -0.213 C  
HETATM   20  O   UNL     1      -7.840  10.967  69.577  1.00  0.00    -0.354 OA 
HETATM   21  C   UNL     1     -10.827   8.849  69.641  1.00  0.00    -0.178 C  
HETATM   22  C   UNL     1      -8.684   8.838  70.559  1.00  0.00    -0.174 C  
HETATM   23  H   UNL     1      -6.919  10.769  69.695  1.00  0.00     0.000 HD 
HETATM   24  O   UNL     1      -9.977   8.233  70.621  1.00  0.00    -0.181 OA 
HETATM   25  C   UNL     1      -8.663   9.816  69.372  1.00  0.00    -0.174 C  
BRANCH  21  26
HETATM   26  C   UNL     1     -11.073   7.842  68.517  1.00  0.00     0.328 C  
HETATM   27  H   UNL     1     -11.467   5.914  68.346  1.00  0.00     0.000 HD 
HETATM   28  O   UNL     1     -11.314   6.539  69.044  1.00  0.00    -0.302 OA 
ENDBRANCH  21  26
BRANCH  22  29
HETATM   29  O   UNL     1      -7.675   7.853  70.354  1.00  0.00    -0.084 OA 
BRANCH  29  30
HETATM   30  C   UNL     1      -8.083   6.507  70.040  1.00  0.00    -0.121 C  
HETATM   31  C   UNL     1      -8.227   5.677  71.330  1.00  0.00    -0.122 C  
HETATM   32  O   UNL     1      -8.979   6.405  72.310  1.00  0.00    -0.139 OA 
HETATM   33  C   UNL     1      -8.919   4.341  71.036  1.00  0.00    -0.116 C  
HETATM   34  C   UNL     1      -8.061   3.535  70.062  1.00  0.00    -0.056 C  
HETATM   35  N   UNL     1      -9.148   3.577  72.278  1.00  0.00    -0.099 NA 
HETATM   36  H   UNL     1      -9.068   5.894  73.105  1.00  0.00     0.000 HD 
HETATM   37  H1  UNL     1      -9.608   2.689  72.083  1.00  0.00     0.000 HD 
HETATM   38  H2  UNL     1      -9.665   4.125  72.966  1.00  0.00     0.000 HD 
HETATM   39  C   UNL     1      -7.782   4.310  68.763  1.00  0.00    -0.066 C  
HETATM   40  C   UNL     1      -7.220   5.765  68.983  1.00  0.00    -0.078 C  
HETATM   41  N   UNL     1      -6.872   3.503  67.922  1.00  0.00    -0.049 NA 
HETATM   42  H2  UNL     1      -7.230   2.563  67.750  1.00  0.00     0.000 HD 
HETATM   43  H1  UNL     1      -6.688   4.017  67.061  1.00  0.00     0.000 HD 
BRANCH  40  44
HETATM   44  O   UNL     1      -7.197   6.397  67.682  1.00  0.00    -0.081 OA 
BRANCH  44  45
HETATM   45  C   UNL     1      -8.466   6.851  67.191  1.00  0.00    -0.121 C  
HETATM   46  O   UNL     1      -8.489   8.262  67.006  1.00  0.00    -0.120 OA 
HETATM   47  C   UNL     1      -7.653   8.755  65.960  1.00  0.00    -0.093 C  
HETATM   48  C   UNL     1      -8.081   8.147  64.622  1.00  0.00    -0.148 C  
HETATM   49  H1  UNL     1      -9.137   4.160  65.138  1.00  0.00     0.000 HD 
HETATM   50  H2  UNL     1      -9.429   4.327  66.780  1.00  0.00     0.000 HD 
HETATM   51  O   UNL     1      -7.256   8.580  63.538  1.00  0.00    -0.091 OA 
HETATM   52  C   UNL     1      -8.035   6.615  64.713  1.00  0.00    -0.118 C  
HETATM   53  H   UNL     1      -7.522   8.203  62.708  1.00  0.00     0.000 HD 
HETATM   54  O   UNL     1      -8.528   6.046  63.487  1.00  0.00    -0.319 OA 
HETATM   55  N   UNL     1      -8.860   4.642  65.993  1.00  0.00    -0.118 NA 
HETATM   56  C   UNL     1      -8.887   6.119  65.892  1.00  0.00    -0.143 C  
HETATM   57  H   UNL     1      -8.500   5.098  63.544  1.00  0.00     0.000 HD 
BRANCH  47  58
HETATM   58  C   UNL     1      -7.789  10.284  65.954  1.00  0.00    -0.139 C  
HETATM   59  O   UNL     1      -6.678  10.878  65.277  1.00  0.00    -0.357 OA 
HETATM   60  H   UNL     1      -6.762  11.824  65.273  1.00  0.00     0.000 HD 
ENDBRANCH  47  58
ENDBRANCH  44  45
ENDBRANCH  40  44
ENDBRANCH  29  30
ENDBRANCH  22  29
ENDBRANCH  18  19
ENDBRANCH   7  18
ENDBRANCH   2   5
TORSDOF 9
ENDMDL
MODEL      190
REMARK 921   NORMALIZED FREE ENERGY PREDICTED BY IDOCK:   -4.23 KCAL/MOL
REMARK 922        TOTAL FREE ENERGY PREDICTED BY IDOCK:   -8.49 KCAL/MOL
REMARK 923 INTER-LIGAND FREE ENERGY PREDICTED BY IDOCK:   -6.58 KCAL/MOL
REMARK 924 INTRA-LIGAND FREE ENERGY PREDICTED BY IDOCK:   -1.91 KCAL/MOL
REMARK 927      BINDING AFFINITY PREDICTED BY RF-SCORE:    0.00 PKD
ROOT
HETATM    1  N   UNL     1      -9.494  14.828  66.396  1.00  0.00    -0.287 NA 
HETATM    2  C   UNL     1      -9.267  15.293  67.779  1.00  0.00    -0.187 C  
HETATM    3  H1  UNL     1      -9.028  15.453  65.738  1.00  0.00     0.000 HD 
HETATM    4  H2  UNL     1     -10.487  14.721  66.186  1.00  0.00     0.000 HD 
ENDROOT
BRANCH   2   5
HETATM    5  C   UNL     1      -9.969  14.350  68.770  1.00  0.00    -0.223 C  
HETATM    6  O   UNL     1      -9.753  13.006  68.301  1.00  0.00    -0.222 OA 
HETATM    7  C   UNL     1     -10.186  12.032  69.248  1.00  0.00     0.278 C  
HETATM    8  C   UNL     1     -11.736  12.112  69.373  1.00  0.00    -0.329 C  
HETATM    9  O   UNL     1     -12.081  14.651  67.603  1.00  0.00    -0.558 OA 
HETATM   10  H   UNL     1     -13.012  14.820  67.686  1.00  0.00     0.000 HD 
HETATM   11  N   UNL     1     -12.392  11.747  68.082  1.00  0.00    -0.235 NA 
HETATM   12  C   UNL     1     -12.135  13.543  69.800  1.00  0.00    -0.318 C  
HETATM   13  H2  UNL     1     -12.087  10.832  67.749  1.00  0.00     0.000 HD 
HETATM   14  O   UNL     1     -11.836  13.772  71.184  1.00  0.00    -0.466 OA 
HETATM   15  C   UNL     1     -11.482  14.624  68.905  1.00  0.00    -0.298 C  
HETATM   16  H1  UNL     1     -13.407  11.799  68.164  1.00  0.00     0.000 HD 
HETATM   17  H   UNL     1     -12.081  14.651  71.446  1.00  0.00     0.000 HD 
BRANCH   7  18
HETATM   18  O   UNL     1      -9.829  10.712  68.830  1.00  0.00    -0.185 OA 
BRANCH  18  19
HETATM   19  C   UNL     1      -8.742  10.670  67.889  1.00  0.00    -0.127 C  
HETATM   20  O   UNL     1      -7.349   9.587  69.625  1.00  0.00    -0.068 OA 
HETATM   21  C   UNL     1      -9.320  10.123  66.586  1.00  0.00    -0.162 C  
HETATM   22  C   UNL     1      -8.208   8.362  67.632  1.00  0.00    -0.126 C  
HETATM   23  H   UNL     1      -6.669   8.958  69.838  1.00  0.00     0.000 HD 
HETATM   24  O   UNL     1      -9.139   8.699  66.602  1.00  0.00    -0.148 OA 
HETATM   25  C   UNL     1      -7.654   9.665  68.230  1.00  0.00    -0.078 C  
BRANCH  21  26
HETATM   26  C   UNL     1      -8.650  10.679  65.328  1.00  0.00    -0.169 C  
HETATM   27  H   UNL     1      -7.320  10.078  63.998  1.00  0.00     0.000 HD 
HETATM   28  O   UNL     1      -7.735   9.733  64.778  1.00  0.00    -0.117 OA 
ENDBRANCH  21  26
BRANCH  22  29
HETATM   29  O   UNL     1      -7.122   7.606  67.104  1.00  0.00    -0.080 OA 
BRANCH  29  30
HETATM   30  C   UNL     1      -7.414   6.382  66.402  1.00  0.00    -0.086 C  
HETATM   31  C   UNL     1      -7.048   6.520  64.911  1.00  0.00    -0.057 C  
HETATM   32  O   UNL     1      -5.740   7.090  64.770  1.00  0.00    -0.031 OA 
HETATM   33  C   UNL     1      -7.093   5.153  64.218  1.00  0.00    -0.050 C  
HETATM   34  C   UNL     1      -8.516   4.599  64.295  1.00  0.00    -0.131 C  
HETATM   35  N   UNL     1      -6.653   5.256  62.813  1.00  0.00    -0.025 NA 
HETATM   36  H   UNL     1      -5.515   7.174  63.852  1.00  0.00     0.000 HD 
HETATM   37  H1  UNL     1      -6.683   4.348  62.351  1.00  0.00     0.000 HD 
HETATM   38  H2  UNL     1      -5.731   5.685  62.739  1.00  0.00     0.000 HD 
HETATM   39  C   UNL     1      -9.017   4.498  65.746  1.00  0.00    -0.131 C  
HETATM   40  C   UNL     1      -8.852   5.823  66.582  1.00  0.00    -0.121 C  
HETATM   41  N   UNL     1     -10.424   4.047  65.724  1.00  0.00    -0.443 NA 
HETATM   42  H2  UNL     1     -10.549   3.178  65.205  1.00  0.00     0.000 HD 
HETATM   43  H1  UNL     1     -10.756   3.980  66.686  1.00  0.00     0.000 HD 
BRANCH  40  44
HETATM   44  O   UNL     1      -9.196   5.491  67.947  1.00  0.00    -0.108 OA 
BRANCH  44  45
HETATM   45  C   UNL     1      -8.192   4.778  68.683  1.00  0.00    -0.083 C  
HETATM   46  O   UNL     1      -7.526   5.617  69.621  1.00  0.00    -0.071 OA 
HETATM   47  C   UNL     1      -8.327   6.069  70.712  1.00  0.00    -0.126 C  
HETATM   48  C   UNL     1      -8.844   4.870  71.511  1.00  0.00    -0.134 C  
HETATM   49  H1  UNL     1      -9.873   1.775  68.935  1.00  0.00     0.000 HD 
HETATM   50  H2  UNL     1      -8.913   2.340  67.683  1.00  0.00     0.000 HD 
HETATM   51  O   UNL     1      -9.681   5.262  72.601  1.00  0.00    -0.149 OA 
HETATM   52  C   UNL     1      -9.626   3.931  70.583  1.00  0.00    -0.189 C  
HETATM   53  H   UNL     1     -10.002   4.518  73.097  1.00  0.00     0.000 HD 
HETATM   54  O   UNL     1     -10.028   2.759  71.314  1.00  0.00    -0.121 OA 
HETATM   55  N   UNL     1      -9.498   2.605  68.476  1.00  0.00    -0.185 NA 
HETATM   56  C   UNL     1      -8.762   3.517  69.381  1.00  0.00    -0.079 C  
HETATM   57  H   UNL     1     -10.513   2.177  70.740  1.00  0.00     0.000 HD 
BRANCH  47  58
HETATM   58  C   UNL     1      -7.444   6.983  71.573  1.00  0.00    -0.084 C  
HETATM   59  O   UNL     1      -6.971   6.276  72.723  1.00  0.00    -0.073 OA 
HETATM   60  H   UNL     1      -6.424   6.841  73.255  1.00  0.00     0.000 HD 
ENDBRANCH  47  58
ENDBRANCH  44  45
ENDBRANCH  40  44
ENDBRANCH  29  30
ENDBRANCH  22  29
ENDBRANCH  18  19
ENDBRANCH   7  18
ENDBRANCH   2   5
TORSDOF 9
ENDMDL
MODEL      191
REMARK 921   NORMALIZED FREE ENERGY PREDICTED BY IDOCK:   -4.20 KCAL/MOL
REMARK 922        TOTAL FREE ENERGY PREDICTED BY IDOCK:   -8.45 KCAL/MOL
REMARK 923 INTER-LIGAND FREE ENERGY PREDICTED BY IDOCK:  -10.24 KCAL/MOL
REMARK 924 INTRA-LIGAND FREE ENERGY PREDICTED BY IDOCK:    1.79 KCAL/MOL
REMARK 927      BINDING AFFINITY PREDICTED BY RF-SCORE:    0.00 PKD
ROOT
HETATM    1  N   UNL     1      -8.140   6.499  67.407  1.00  0.00    -0.119 NA 
HETATM    2  C   UNL     1      -9.100   6.927  66.370  1.00  0.00    -0.159 C  
HETATM    3  H1  UNL     1      -8.536   5.731  67.950  1.00  0.00     0.000 HD 
HETATM    4  H2  UNL     1      -7.845   7.275  68.000  1.00  0.00     0.000 HD 
ENDROOT
BRANCH   2   5
HETATM    5  C   UNL     1      -8.503   8.085  65.552  1.00  0.00    -0.144 C  
HETATM    6  O   UNL     1      -9.583   8.985  65.241  1.00  0.00    -0.142 OA 
HETATM    7  C   UNL     1      -9.117  10.200  64.657  1.00  0.00    -0.227 C  
HETATM    8  C   UNL     1      -8.516   9.882  63.257  1.00  0.00    -0.180 C  
HETATM    9  O   UNL     1      -8.710   6.783  63.508  1.00  0.00    -0.197 OA 
HETATM   10  H   UNL     1      -8.285   6.497  62.708  1.00  0.00     0.000 HD 
HETATM   11  N   UNL     1      -9.568   9.362  62.334  1.00  0.00    -0.516 NA 
HETATM   12  C   UNL     1      -7.376   8.850  63.419  1.00  0.00    -0.098 C  
HETATM   13  H2  UNL     1     -10.361   9.999  62.268  1.00  0.00     0.000 HD 
HETATM   14  O   UNL     1      -6.205   9.459  63.979  1.00  0.00    -0.087 OA 
HETATM   15  C   UNL     1      -7.814   7.620  64.251  1.00  0.00    -0.135 C  
HETATM   16  H1  UNL     1      -9.174   9.153  61.416  1.00  0.00     0.000 HD 
HETATM   17  H   UNL     1      -5.504   8.824  64.079  1.00  0.00     0.000 HD 
BRANCH   7  18
HETATM   18  O   UNL     1     -10.185  11.136  64.494  1.00  0.00    -0.275 OA 
BRANCH  18  19
HETATM   19  C   UNL     1      -9.836  12.489  64.839  1.00  0.00    -0.072 C  
HETATM   20  O   UNL     1     -12.006  13.233  63.909  1.00  0.00    -0.438 OA 
HETATM   21  C   UNL     1      -9.326  12.448  66.278  1.00  0.00    -0.189 C  
HETATM   22  C   UNL     1     -11.525  13.217  66.354  1.00  0.00    -0.329 C  
HETATM   23  H   UNL     1     -12.744  13.828  63.961  1.00  0.00     0.000 HD 
HETATM   24  O   UNL     1     -10.449  12.697  67.137  1.00  0.00    -0.233 OA 
HETATM   25  C   UNL     1     -11.017  13.441  64.921  1.00  0.00    -0.342 C  
BRANCH  21  26
HETATM   26  C   UNL     1      -8.247  13.488  66.583  1.00  0.00     0.376 C  
HETATM   27  H   UNL     1      -6.858  13.790  67.955  1.00  0.00     0.000 HD 
HETATM   28  O   UNL     1      -7.528  13.144  67.765  1.00  0.00    -0.120 OA 
ENDBRANCH  21  26
BRANCH  22  29
HETATM   29  O   UNL     1     -11.973  14.464  66.878  1.00  0.00    -0.410 OA 
BRANCH  29  30
HETATM   30  C   UNL     1     -11.002  15.352  67.464  1.00  0.00    -0.315 C  
HETATM   31  C   UNL     1     -10.062  15.909  66.377  1.00  0.00    -0.292 C  
HETATM   32  O   UNL     1     -10.822  16.377  65.254  1.00  0.00    -0.416 OA 
HETATM   33  C   UNL     1      -9.211  17.054  66.937  1.00  0.00    -0.240 C  
HETATM   34  C   UNL     1      -8.337  16.521  68.072  1.00  0.00    -0.180 C  
HETATM   35  N   UNL     1      -8.375  17.660  65.882  1.00  0.00    -0.546 NA 
HETATM   36  H   UNL     1     -10.243  16.721  64.585  1.00  0.00     0.000 HD 
HETATM   37  H1  UNL     1      -7.809  18.421  66.254  1.00  0.00     0.000 HD 
HETATM   38  H2  UNL     1      -8.936  17.963  65.086  1.00  0.00     0.000 HD 
HETATM   39  C   UNL     1      -9.174  15.861  69.182  1.00  0.00    -0.253 C  
HETATM   40  C   UNL     1     -10.200  14.783  68.666  1.00  0.00    -0.236 C  
HETATM   41  N   UNL     1      -8.252  15.292  70.187  1.00  0.00    -0.082 NA 
HETATM   42  H2  UNL     1      -7.594  15.981  70.550  1.00  0.00     0.000 HD 
HETATM   43  H1  UNL     1      -8.807  14.855  70.922  1.00  0.00     0.000 HD 
BRANCH  40  44
HETATM   44  O   UNL     1     -11.013  14.414  69.805  1.00  0.00    -0.211 OA 
BRANCH  44  45
HETATM   45  C   UNL     1     -12.343  13.971  69.498  1.00  0.00    -0.229 C  
HETATM   46  O   UNL     1     -12.379  12.586  69.174  1.00  0.00    -0.084 OA 
HETATM   47  C   UNL     1     -12.088  11.698  70.252  1.00  0.00    -0.358 C  
HETATM   48  C   UNL     1     -13.107  11.894  71.377  1.00  0.00    -0.204 C  
HETATM   49  H1  UNL     1     -14.004  15.931  71.802  1.00  0.00     0.000 HD 
HETATM   50  H2  UNL     1     -13.507  16.325  70.251  1.00  0.00     0.000 HD 
HETATM   51  O   UNL     1     -12.847  11.051  72.501  1.00  0.00    -0.121 OA 
HETATM   52  C   UNL     1     -13.100  13.360  71.830  1.00  0.00    -0.383 C  
HETATM   53  H   UNL     1     -13.480  11.173  73.199  1.00  0.00     0.000 HD 
HETATM   54  O   UNL     1     -14.124  13.563  72.820  1.00  0.00    -0.719 OA 
HETATM   55  N   UNL     1     -13.345  15.717  71.054  1.00  0.00    -0.568 NA 
HETATM   56  C   UNL     1     -13.344  14.296  70.636  1.00  0.00    -0.017 C  
HETATM   57  H   UNL     1     -14.119  14.471  73.100  1.00  0.00     0.000 HD 
BRANCH  47  58
HETATM   58  C   UNL     1     -12.138  10.271  69.688  1.00  0.00    -0.010 C  
HETATM   59  O   UNL     1     -11.865  10.282  68.284  1.00  0.00    -0.734 OA 
HETATM   60  H   UNL     1     -11.895   9.399  67.936  1.00  0.00     0.000 HD 
ENDBRANCH  47  58
ENDBRANCH  44  45
ENDBRANCH  40  44
ENDBRANCH  29  30
ENDBRANCH  22  29
ENDBRANCH  18  19
ENDBRANCH   7  18
ENDBRANCH   2   5
TORSDOF 9
ENDMDL
MODEL      192
REMARK 921   NORMALIZED FREE ENERGY PREDICTED BY IDOCK:   -4.19 KCAL/MOL
REMARK 922        TOTAL FREE ENERGY PREDICTED BY IDOCK:   -8.43 KCAL/MOL
REMARK 923 INTER-LIGAND FREE ENERGY PREDICTED BY IDOCK:   -7.18 KCAL/MOL
REMARK 924 INTRA-LIGAND FREE ENERGY PREDICTED BY IDOCK:   -1.25 KCAL/MOL
REMARK 927      BINDING AFFINITY PREDICTED BY RF-SCORE:    0.00 PKD
ROOT
HETATM    1  N   UNL     1      -5.468  10.127  72.286  1.00  0.00    -0.300 NA 
HETATM    2  C   UNL     1      -6.109   8.875  72.736  1.00  0.00    -0.012 C  
HETATM    3  H1  UNL     1      -4.808  10.452  72.992  1.00  0.00     0.000 HD 
HETATM    4  H2  UNL     1      -6.154  10.843  72.043  1.00  0.00     0.000 HD 
ENDROOT
BRANCH   2   5
HETATM    5  C   UNL     1      -7.104   8.385  71.671  1.00  0.00    -0.089 C  
HETATM    6  O   UNL     1      -7.868   9.529  71.246  1.00  0.00    -0.312 OA 
HETATM    7  C   UNL     1      -8.686   9.238  70.115  1.00  0.00    -0.204 C  
HETATM    8  C   UNL     1      -9.787   8.225  70.543  1.00  0.00    -0.183 C  
HETATM    9  O   UNL     1      -8.670   7.709  73.404  1.00  0.00    -0.158 OA 
HETATM   10  H   UNL     1      -9.253   7.029  73.720  1.00  0.00     0.000 HD 
HETATM   11  N   UNL     1     -10.697   8.828  71.560  1.00  0.00    -0.274 NA 
HETATM   12  C   UNL     1      -9.111   6.952  71.105  1.00  0.00    -0.150 C  
HETATM   13  H2  UNL     1     -11.100   9.707  71.233  1.00  0.00     0.000 HD 
HETATM   14  O   UNL     1      -8.544   6.161  70.051  1.00  0.00    -0.132 OA 
HETATM   15  C   UNL     1      -8.052   7.280  72.184  1.00  0.00    -0.094 C  
HETATM   16  H1  UNL     1     -11.419   8.164  71.841  1.00  0.00     0.000 HD 
HETATM   17  H   UNL     1      -8.130   5.379  70.397  1.00  0.00     0.000 HD 
BRANCH   7  18
HETATM   18  O   UNL     1      -9.321  10.420  69.619  1.00  0.00    -0.174 OA 
BRANCH  18  19
HETATM   19  C   UNL     1     -10.289  10.173  68.584  1.00  0.00    -0.188 C  
HETATM   20  O   UNL     1     -12.055  10.993  70.113  1.00  0.00    -0.297 OA 
HETATM   21  C   UNL     1      -9.716  10.777  67.304  1.00  0.00    -0.161 C  
HETATM   22  C   UNL     1     -11.288  12.288  68.127  1.00  0.00    -0.295 C  
HETATM   23  H   UNL     1     -12.874  11.462  70.223  1.00  0.00     0.000 HD 
HETATM   24  O   UNL     1     -10.206  12.123  67.209  1.00  0.00    -0.201 OA 
HETATM   25  C   UNL     1     -11.600  10.922  68.760  1.00  0.00    -0.309 C  
BRANCH  21  26
HETATM   26  C   UNL     1     -10.117  10.028  66.032  1.00  0.00    -0.248 C  
HETATM   27  H   UNL     1     -10.000   8.188  65.324  1.00  0.00     0.000 HD 
HETATM   28  O   UNL     1      -9.750   8.652  66.114  1.00  0.00    -0.253 OA 
ENDBRANCH  21  26
BRANCH  22  29
HETATM   29  O   UNL     1     -12.454  12.755  67.455  1.00  0.00    -0.142 OA 
BRANCH  29  30
HETATM   30  C   UNL     1     -12.299  13.745  66.419  1.00  0.00    -0.412 C  
HETATM   31  C   UNL     1     -12.242  13.067  65.036  1.00  0.00    -0.453 C  
HETATM   32  O   UNL     1     -13.299  12.107  64.909  1.00  0.00    -0.330 OA 
HETATM   33  C   UNL     1     -12.355  14.111  63.920  1.00  0.00    -0.187 C  
HETATM   34  C   UNL     1     -11.171  15.073  64.011  1.00  0.00     0.422 C  
HETATM   35  N   UNL     1     -12.397  13.467  62.593  1.00  0.00    -0.621 NA 
HETATM   36  H   UNL     1     -13.264  11.690  64.057  1.00  0.00     0.000 HD 
HETATM   37  H1  UNL     1     -12.472  14.161  61.850  1.00  0.00     0.000 HD 
HETATM   38  H2  UNL     1     -13.143  12.773  62.536  1.00  0.00     0.000 HD 
HETATM   39  C   UNL     1     -11.081  15.748  65.391  1.00  0.00    -0.228 C  
HETATM   40  C   UNL     1     -11.127  14.746  66.606  1.00  0.00    -0.333 C  
HETATM   41  N   UNL     1      -9.862  16.583  65.426  1.00  0.00    -0.503 NA 
HETATM   42  H2  UNL     1      -9.825  17.253  64.658  1.00  0.00     0.000 HD 
HETATM   43  H1  UNL     1      -9.804  17.029  66.340  1.00  0.00     0.000 HD 
BRANCH  40  44
HETATM   44  O   UNL     1     -11.219  15.557  67.801  1.00  0.00    -0.314 OA 
BRANCH  44  45
HETATM   45  C   UNL     1     -10.010  15.677  68.564  1.00  0.00    -0.211 C  
HETATM   46  O   UNL     1      -9.170  16.711  68.065  1.00  0.00    -0.216 OA 
HETATM   47  C   UNL     1      -9.671  18.037  68.226  1.00  0.00    -0.330 C  
HETATM   48  C   UNL     1      -9.874  18.339  69.713  1.00  0.00     0.656 C  
HETATM   49  H1  UNL     1     -11.366  14.983  71.660  1.00  0.00     0.000 HD 
HETATM   50  H2  UNL     1     -10.819  13.915  70.489  1.00  0.00     0.000 HD 
HETATM   51  O   UNL     1     -10.407  19.646  69.936  1.00  0.00    -0.493 OA 
HETATM   52  C   UNL     1     -10.818  17.296  70.327  1.00  0.00     0.773 C  
HETATM   53  H   UNL     1     -10.533  19.833  70.859  1.00  0.00     0.000 HD 
HETATM   54  O   UNL     1     -10.931  17.524  71.743  1.00  0.00     0.739 OA 
HETATM   55  N   UNL     1     -11.182  14.853  70.665  1.00  0.00    -0.227 NA 
HETATM   56  C   UNL     1     -10.288  15.875  70.075  1.00  0.00    -0.238 C  
HETATM   57  H   UNL     1     -11.515  16.878  72.123  1.00  0.00     0.000 HD 
BRANCH  47  58
HETATM   58  C   UNL     1      -8.647  18.989  67.592  1.00  0.00    -0.289 C  
HETATM   59  O   UNL     1      -7.369  18.354  67.503  1.00  0.00    -0.214 OA 
HETATM   60  H   UNL     1      -6.735  18.943  67.110  1.00  0.00     0.000 HD 
ENDBRANCH  47  58
ENDBRANCH  44  45
ENDBRANCH  40  44
ENDBRANCH  29  30
ENDBRANCH  22  29
ENDBRANCH  18  19
ENDBRANCH   7  18
ENDBRANCH   2   5
TORSDOF 9
ENDMDL
MODEL      193
REMARK 921   NORMALIZED FREE ENERGY PREDICTED BY IDOCK:   -4.19 KCAL/MOL
REMARK 922        TOTAL FREE ENERGY PREDICTED BY IDOCK:   -8.43 KCAL/MOL
REMARK 923 INTER-LIGAND FREE ENERGY PREDICTED BY IDOCK:   -7.87 KCAL/MOL
REMARK 924 INTRA-LIGAND FREE ENERGY PREDICTED BY IDOCK:   -0.56 KCAL/MOL
REMARK 927      BINDING AFFINITY PREDICTED BY RF-SCORE:    0.00 PKD
ROOT
HETATM    1  N   UNL     1     -10.716  20.046  68.312  1.00  0.00    -0.267 NA 
HETATM    2  C   UNL     1      -9.401  19.425  68.567  1.00  0.00    -0.388 C  
HETATM    3  H1  UNL     1     -10.589  20.994  67.958  1.00  0.00     0.000 HD 
HETATM    4  H2  UNL     1     -11.317  20.022  69.137  1.00  0.00     0.000 HD 
ENDROOT
BRANCH   2   5
HETATM    5  C   UNL     1      -9.593  17.995  69.102  1.00  0.00    -0.049 C  
HETATM    6  O   UNL     1      -8.623  17.162  68.440  1.00  0.00    -0.230 OA 
HETATM    7  C   UNL     1      -8.570  15.852  69.002  1.00  0.00    -0.239 C  
HETATM    8  C   UNL     1      -9.914  15.126  68.703  1.00  0.00    -0.220 C  
HETATM    9  O   UNL     1     -11.363  17.598  67.483  1.00  0.00     0.099 OA 
HETATM   10  H   UNL     1     -12.238  17.258  67.337  1.00  0.00     0.000 HD 
HETATM   11  N   UNL     1     -10.098  14.933  67.234  1.00  0.00    -0.235 NA 
HETATM   12  C   UNL     1     -11.078  15.956  69.293  1.00  0.00    -0.312 C  
HETATM   13  H2  UNL     1      -9.306  14.447  66.815  1.00  0.00     0.000 HD 
HETATM   14  O   UNL     1     -11.126  15.834  70.721  1.00  0.00    -0.328 OA 
HETATM   15  C   UNL     1     -11.014  17.441  68.865  1.00  0.00     0.143 C  
HETATM   16  H1  UNL     1     -10.979  14.458  67.039  1.00  0.00     0.000 HD 
HETATM   17  H   UNL     1     -11.841  16.344  71.083  1.00  0.00     0.000 HD 
BRANCH   7  18
HETATM   18  O   UNL     1      -7.502  15.090  68.432  1.00  0.00    -0.106 OA 
BRANCH  18  19
HETATM   19  C   UNL     1      -7.591  13.677  68.689  1.00  0.00    -0.115 C  
HETATM   20  O   UNL     1      -8.271  13.342  66.333  1.00  0.00    -0.200 OA 
HETATM   21  C   UNL     1      -6.308  13.292  69.424  1.00  0.00    -0.111 C  
HETATM   22  C   UNL     1      -6.036  12.658  67.198  1.00  0.00     0.043 C  
HETATM   23  H   UNL     1      -8.243  12.799  65.554  1.00  0.00     0.000 HD 
HETATM   24  O   UNL     1      -5.354  12.881  68.433  1.00  0.00    -0.059 OA 
HETATM   25  C   UNL     1      -7.546  12.808  67.444  1.00  0.00    -0.152 C  
BRANCH  21  26
HETATM   26  C   UNL     1      -6.487  12.147  70.424  1.00  0.00     0.460 C  
HETATM   27  H   UNL     1      -5.347  11.063  71.617  1.00  0.00     0.000 HD 
HETATM   28  O   UNL     1      -5.236  11.773  70.997  1.00  0.00    -0.124 OA 
ENDBRANCH  21  26
BRANCH  22  29
HETATM   29  O   UNL     1      -5.782  11.343  66.711  1.00  0.00    -0.102 OA 
BRANCH  29  30
HETATM   30  C   UNL     1      -6.687  10.286  67.086  1.00  0.00    -0.078 C  
HETATM   31  C   UNL     1      -5.940   9.204  67.891  1.00  0.00    -0.049 C  
HETATM   32  O   UNL     1      -5.138   9.810  68.915  1.00  0.00    -0.037 OA 
HETATM   33  C   UNL     1      -6.933   8.224  68.526  1.00  0.00    -0.069 C  
HETATM   34  C   UNL     1      -7.717   7.518  67.420  1.00  0.00    -0.117 C  
HETATM   35  N   UNL     1      -6.237   7.240  69.377  1.00  0.00    -0.030 NA 
HETATM   36  H   UNL     1      -4.678   9.143  69.410  1.00  0.00     0.000 HD 
HETATM   37  H1  UNL     1      -6.897   6.588  69.799  1.00  0.00     0.000 HD 
HETATM   38  H2  UNL     1      -5.657   7.696  70.081  1.00  0.00     0.000 HD 
HETATM   39  C   UNL     1      -8.439   8.516  66.498  1.00  0.00    -0.115 C  
HETATM   40  C   UNL     1      -7.516   9.660  65.932  1.00  0.00    -0.099 C  
HETATM   41  N   UNL     1      -9.089   7.759  65.408  1.00  0.00    -0.377 NA 
HETATM   42  H2  UNL     1      -9.709   7.027  65.755  1.00  0.00     0.000 HD 
HETATM   43  H1  UNL     1      -9.567   8.421  64.797  1.00  0.00     0.000 HD 
BRANCH  40  44
HETATM   44  O   UNL     1      -8.389  10.591  65.252  1.00  0.00    -0.161 OA 
BRANCH  44  45
HETATM   45  C   UNL     1      -9.732  10.135  65.033  1.00  0.00    -0.318 C  
HETATM   46  O   UNL     1     -10.527  10.247  66.208  1.00  0.00    -0.215 OA 
HETATM   47  C   UNL     1     -10.808  11.580  66.633  1.00  0.00    -0.287 C  
HETATM   48  C   UNL     1     -11.570  12.325  65.535  1.00  0.00    -0.371 C  
HETATM   49  H1  UNL     1     -10.072  11.288  61.799  1.00  0.00     0.000 HD 
HETATM   50  H2  UNL     1      -9.402   9.849  62.337  1.00  0.00     0.000 HD 
HETATM   51  O   UNL     1     -11.852  13.680  65.891  1.00  0.00    -0.344 OA 
HETATM   52  C   UNL     1     -10.756  12.302  64.234  1.00  0.00    -0.351 C  
HETATM   53  H   UNL     1     -12.326  14.143  65.210  1.00  0.00     0.000 HD 
HETATM   54  O   UNL     1     -11.516  12.919  63.180  1.00  0.00    -0.772 OA 
HETATM   55  N   UNL     1      -9.627  10.813  62.584  1.00  0.00    -0.284 NA 
HETATM   56  C   UNL     1     -10.408  10.858  63.841  1.00  0.00    -0.329 C  
HETATM   57  H   UNL     1     -11.013  12.905  62.375  1.00  0.00     0.000 HD 
BRANCH  47  58
HETATM   58  C   UNL     1     -11.631  11.480  67.924  1.00  0.00    -0.282 C  
HETATM   59  O   UNL     1     -11.883  10.109  68.247  1.00  0.00    -0.697 OA 
HETATM   60  H   UNL     1     -12.393  10.048  69.046  1.00  0.00     0.000 HD 
ENDBRANCH  47  58
ENDBRANCH  44  45
ENDBRANCH  40  44
ENDBRANCH  29  30
ENDBRANCH  22  29
ENDBRANCH  18  19
ENDBRANCH   7  18
ENDBRANCH   2   5
TORSDOF 9
ENDMDL
MODEL      194
REMARK 921   NORMALIZED FREE ENERGY PREDICTED BY IDOCK:   -4.18 KCAL/MOL
REMARK 922        TOTAL FREE ENERGY PREDICTED BY IDOCK:   -8.42 KCAL/MOL
REMARK 923 INTER-LIGAND FREE ENERGY PREDICTED BY IDOCK:   -6.55 KCAL/MOL
REMARK 924 INTRA-LIGAND FREE ENERGY PREDICTED BY IDOCK:   -1.88 KCAL/MOL
REMARK 927      BINDING AFFINITY PREDICTED BY RF-SCORE:    0.00 PKD
ROOT
HETATM    1  N   UNL     1     -11.962  12.472  69.907  1.00  0.00    -0.340 NA 
HETATM    2  C   UNL     1     -12.112  13.820  69.323  1.00  0.00    -0.329 C  
HETATM    3  H1  UNL     1     -12.437  12.430  70.808  1.00  0.00     0.000 HD 
HETATM    4  H2  UNL     1     -10.984  12.191  69.975  1.00  0.00     0.000 HD 
ENDROOT
BRANCH   2   5
HETATM    5  C   UNL     1     -11.397  13.883  67.963  1.00  0.00    -0.288 C  
HETATM    6  O   UNL     1     -10.025  13.513  68.188  1.00  0.00    -0.227 OA 
HETATM    7  C   UNL     1      -9.308  13.339  66.967  1.00  0.00    -0.242 C  
HETATM    8  C   UNL     1      -9.184  14.721  66.262  1.00  0.00    -0.243 C  
HETATM    9  O   UNL     1     -11.026  16.271  68.238  1.00  0.00    -0.323 OA 
HETATM   10  H   UNL     1     -11.069  17.128  67.831  1.00  0.00     0.000 HD 
HETATM   11  N   UNL     1      -8.369  15.665  67.083  1.00  0.00    -0.189 NA 
HETATM   12  C   UNL     1     -10.599  15.294  66.019  1.00  0.00    -0.319 C  
HETATM   13  H2  UNL     1      -7.455  15.274  67.311  1.00  0.00     0.000 HD 
HETATM   14  O   UNL     1     -11.257  14.607  64.946  1.00  0.00    -0.360 OA 
HETATM   15  C   UNL     1     -11.465  15.277  67.302  1.00  0.00    -0.224 C  
HETATM   16  H1  UNL     1      -8.287  16.571  66.620  1.00  0.00     0.000 HD 
HETATM   17  H   UNL     1     -12.127  14.959  64.797  1.00  0.00     0.000 HD 
BRANCH   7  18
HETATM   18  O   UNL     1      -7.994  12.829  67.208  1.00  0.00    -0.173 OA 
BRANCH  18  19
HETATM   19  C   UNL     1      -7.724  11.577  66.553  1.00  0.00    -0.052 C  
HETATM   20  O   UNL     1      -6.089  11.056  68.338  1.00  0.00    -0.043 OA 
HETATM   21  C   UNL     1      -9.082  10.958  66.229  1.00  0.00    -0.176 C  
HETATM   22  C   UNL     1      -8.284   9.892  68.143  1.00  0.00    -0.109 C  
HETATM   23  H   UNL     1      -5.683  10.402  68.894  1.00  0.00     0.000 HD 
HETATM   24  O   UNL     1      -9.440  10.112  67.332  1.00  0.00    -0.150 OA 
HETATM   25  C   UNL     1      -7.073  10.531  67.443  1.00  0.00    -0.090 C  
BRANCH  21  26
HETATM   26  C   UNL     1      -9.090  10.115  64.953  1.00  0.00    -0.215 C  
HETATM   27  H   UNL     1     -10.119  10.026  63.270  1.00  0.00     0.000 HD 
HETATM   28  O   UNL     1     -10.114  10.550  64.062  1.00  0.00    -0.334 OA 
ENDBRANCH  21  26
BRANCH  22  29
HETATM   29  O   UNL     1      -8.035   8.498  68.300  1.00  0.00    -0.111 OA 
BRANCH  29  30
HETATM   30  C   UNL     1      -9.146   7.586  68.194  1.00  0.00    -0.128 C  
HETATM   31  C   UNL     1      -9.668   7.214  69.596  1.00  0.00    -0.158 C  
HETATM   32  O   UNL     1      -9.828   8.394  70.396  1.00  0.00    -0.178 OA 
HETATM   33  C   UNL     1     -11.006   6.474  69.493  1.00  0.00    -0.340 C  
HETATM   34  C   UNL     1     -10.801   5.173  68.717  1.00  0.00     0.320 C  
HETATM   35  N   UNL     1     -11.563   6.197  70.831  1.00  0.00    -0.266 NA 
HETATM   36  H   UNL     1     -10.150   8.165  71.259  1.00  0.00     0.000 HD 
HETATM   37  H1  UNL     1     -12.453   5.704  70.763  1.00  0.00     0.000 HD 
HETATM   38  H2  UNL     1     -11.646   7.047  71.387  1.00  0.00     0.000 HD 
HETATM   39  C   UNL     1     -10.199   5.422  67.323  1.00  0.00    -0.214 C  
HETATM   40  C   UNL     1      -8.905   6.320  67.327  1.00  0.00    -0.107 C  
HETATM   41  N   UNL     1      -9.947   4.115  66.682  1.00  0.00    -0.334 NA 
HETATM   42  H2  UNL     1     -10.779   3.527  66.650  1.00  0.00     0.000 HD 
HETATM   43  H1  UNL     1      -9.548   4.280  65.758  1.00  0.00     0.000 HD 
BRANCH  40  44
HETATM   44  O   UNL     1      -8.595   6.597  65.941  1.00  0.00    -0.143 OA 
BRANCH  44  45
HETATM   45  C   UNL     1      -7.201   6.744  65.636  1.00  0.00    -0.073 C  
HETATM   46  O   UNL     1      -6.387   5.935  66.477  1.00  0.00    -0.036 OA 
HETATM   47  C   UNL     1      -6.513   4.527  66.281  1.00  0.00    -0.041 C  
HETATM   48  C   UNL     1      -6.127   4.165  64.844  1.00  0.00    -0.023 C  
HETATM   49  H1  UNL     1      -7.526   7.065  62.216  1.00  0.00     0.000 HD 
HETATM   50  H2  UNL     1      -7.649   8.246  63.399  1.00  0.00     0.000 HD 
HETATM   51  O   UNL     1      -6.266   2.768  64.578  1.00  0.00    -0.021 OA 
HETATM   52  C   UNL     1      -6.998   4.958  63.860  1.00  0.00    -0.048 C  
HETATM   53  H   UNL     1      -6.026   2.544  63.687  1.00  0.00     0.000 HD 
HETATM   54  O   UNL     1      -6.569   4.689  62.514  1.00  0.00    -0.025 OA 
HETATM   55  N   UNL     1      -7.726   7.249  63.199  1.00  0.00    -0.116 NA 
HETATM   56  C   UNL     1      -6.896   6.465  64.142  1.00  0.00    -0.038 C  
HETATM   57  H   UNL     1      -7.108   5.179  61.905  1.00  0.00     0.000 HD 
BRANCH  47  58
HETATM   58  C   UNL     1      -5.594   3.843  67.302  1.00  0.00    -0.021 C  
HETATM   59  O   UNL     1      -5.947   2.464  67.441  1.00  0.00    -0.019 OA 
HETATM   60  H   UNL     1      -5.379   2.040  68.073  1.00  0.00     0.000 HD 
ENDBRANCH  47  58
ENDBRANCH  44  45
ENDBRANCH  40  44
ENDBRANCH  29  30
ENDBRANCH  22  29
ENDBRANCH  18  19
ENDBRANCH   7  18
ENDBRANCH   2   5
TORSDOF 9
ENDMDL
MODEL      195
REMARK 921   NORMALIZED FREE ENERGY PREDICTED BY IDOCK:   -4.18 KCAL/MOL
REMARK 922        TOTAL FREE ENERGY PREDICTED BY IDOCK:   -8.42 KCAL/MOL
REMARK 923 INTER-LIGAND FREE ENERGY PREDICTED BY IDOCK:   -8.59 KCAL/MOL
REMARK 924 INTRA-LIGAND FREE ENERGY PREDICTED BY IDOCK:    0.17 KCAL/MOL
REMARK 927      BINDING AFFINITY PREDICTED BY RF-SCORE:    0.00 PKD
ROOT
HETATM    1  N   UNL     1     -11.054  18.873  67.448  1.00  0.00    -0.233 NA 
HETATM    2  C   UNL     1     -10.592  19.556  66.223  1.00  0.00    -0.481 C  
HETATM    3  H1  UNL     1     -12.069  18.780  67.432  1.00  0.00     0.000 HD 
HETATM    4  H2  UNL     1     -10.725  19.340  68.294  1.00  0.00     0.000 HD 
ENDROOT
BRANCH   2   5
HETATM    5  C   UNL     1      -9.061  19.696  66.247  1.00  0.00    -0.376 C  
HETATM    6  O   UNL     1      -8.539  18.524  66.900  1.00  0.00    -0.262 OA 
HETATM    7  C   UNL     1      -7.119  18.444  66.803  1.00  0.00    -0.205 C  
HETATM    8  C   UNL     1      -6.496  19.608  67.628  1.00  0.00    -0.213 C  
HETATM    9  O   UNL     1      -9.189  21.036  68.272  1.00  0.00     0.451 OA 
HETATM   10  H   UNL     1      -8.890  21.818  68.722  1.00  0.00     0.000 HD 
HETATM   11  N   UNL     1      -6.815  19.461  69.079  1.00  0.00    -0.328 NA 
HETATM   12  C   UNL     1      -7.033  20.954  67.087  1.00  0.00    -0.364 C  
HETATM   13  H2  UNL     1      -6.530  18.549  69.437  1.00  0.00     0.000 HD 
HETATM   14  O   UNL     1      -6.425  21.285  65.831  1.00  0.00    -0.479 OA 
HETATM   15  C   UNL     1      -8.576  20.966  66.977  1.00  0.00     0.059 C  
HETATM   16  H1  UNL     1      -6.407  20.223  69.619  1.00  0.00     0.000 HD 
HETATM   17  H   UNL     1      -6.755  22.111  65.499  1.00  0.00     0.000 HD 
BRANCH   7  18
HETATM   18  O   UNL     1      -6.635  17.204  67.326  1.00  0.00    -0.140 OA 
BRANCH  18  19
HETATM   19  C   UNL     1      -7.213  16.042  66.705  1.00  0.00     0.011 C  
HETATM   20  O   UNL     1      -5.800  14.625  68.161  1.00  0.00    -0.114 OA 
HETATM   21  C   UNL     1      -8.723  16.268  66.691  1.00  0.00    -0.259 C  
HETATM   22  C   UNL     1      -8.264  14.832  68.470  1.00  0.00    -0.153 C  
HETATM   23  H   UNL     1      -5.707  13.824  68.664  1.00  0.00     0.000 HD 
HETATM   24  O   UNL     1      -9.254  15.684  67.891  1.00  0.00    -0.189 OA 
HETATM   25  C   UNL     1      -7.065  14.762  67.509  1.00  0.00    -0.184 C  
BRANCH  21  26
HETATM   26  C   UNL     1      -9.434  15.635  65.493  1.00  0.00    -0.129 C  
HETATM   27  H   UNL     1     -11.284  15.436  64.833  1.00  0.00     0.000 HD 
HETATM   28  O   UNL     1     -10.844  15.828  65.577  1.00  0.00    -0.344 OA 
ENDBRANCH  21  26
BRANCH  22  29
HETATM   29  O   UNL     1      -8.776  13.516  68.656  1.00  0.00    -0.119 OA 
BRANCH  29  30
HETATM   30  C   UNL     1     -10.186  13.357  68.903  1.00  0.00    -0.037 C  
HETATM   31  C   UNL     1     -10.564  13.973  70.265  1.00  0.00     0.896 C  
HETATM   32  O   UNL     1      -9.993  15.282  70.394  1.00  0.00    -0.461 OA 
HETATM   33  C   UNL     1     -12.087  14.057  70.414  1.00  0.00    -0.356 C  
HETATM   34  C   UNL     1     -12.673  12.646  70.367  1.00  0.00     0.017 C  
HETATM   35  N   UNL     1     -12.460  14.731  71.673  1.00  0.00    -0.319 NA 
HETATM   36  H   UNL     1     -10.225  15.661  71.233  1.00  0.00     0.000 HD 
HETATM   37  H1  UNL     1     -13.473  14.787  71.773  1.00  0.00     0.000 HD 
HETATM   38  H2  UNL     1     -12.024  15.649  71.750  1.00  0.00     0.000 HD 
HETATM   39  C   UNL     1     -12.285  11.903  69.077  1.00  0.00    -0.045 C  
HETATM   40  C   UNL     1     -10.742  11.914  68.762  1.00  0.00    -0.224 C  
HETATM   41  N   UNL     1     -12.810  10.524  69.156  1.00  0.00    -0.275 NA 
HETATM   42  H2  UNL     1     -13.813  10.496  69.338  1.00  0.00     0.000 HD 
HETATM   43  H1  UNL     1     -12.553  10.032  68.300  1.00  0.00     0.000 HD 
BRANCH  40  44
HETATM   44  O   UNL     1     -10.589  11.342  67.442  1.00  0.00    -0.200 OA 
BRANCH  44  45
HETATM   45  C   UNL     1      -9.880  12.153  66.494  1.00  0.00    -0.218 C  
HETATM   46  O   UNL     1      -8.579  11.642  66.229  1.00  0.00    -0.175 OA 
HETATM   47  C   UNL     1      -8.541  10.397  65.533  1.00  0.00    -0.169 C  
HETATM   48  C   UNL     1      -9.225  10.541  64.171  1.00  0.00    -0.249 C  
HETATM   49  H1  UNL     1     -12.578  12.973  64.506  1.00  0.00     0.000 HD 
HETATM   50  H2  UNL     1     -12.048  13.712  65.914  1.00  0.00     0.000 HD 
HETATM   51  O   UNL     1      -9.246   9.313  63.439  1.00  0.00    -0.414 OA 
HETATM   52  C   UNL     1     -10.663  11.041  64.365  1.00  0.00    -0.269 C  
HETATM   53  H   UNL     1      -9.670   9.403  62.594  1.00  0.00     0.000 HD 
HETATM   54  O   UNL     1     -11.270  11.267  63.081  1.00  0.00    -0.829 OA 
HETATM   55  N   UNL     1     -12.055  12.847  65.372  1.00  0.00    -0.429 NA 
HETATM   56  C   UNL     1     -10.675  12.345  65.178  1.00  0.00    -0.292 C  
HETATM   57  H   UNL     1     -12.161  11.576  63.201  1.00  0.00     0.000 HD 
BRANCH  47  58
HETATM   58  C   UNL     1      -7.065  10.005  65.385  1.00  0.00    -0.138 C  
HETATM   59  O   UNL     1      -6.256  11.172  65.217  1.00  0.00    -0.359 OA 
HETATM   60  H   UNL     1      -5.342  10.930  65.125  1.00  0.00     0.000 HD 
ENDBRANCH  47  58
ENDBRANCH  44  45
ENDBRANCH  40  44
ENDBRANCH  29  30
ENDBRANCH  22  29
ENDBRANCH  18  19
ENDBRANCH   7  18
ENDBRANCH   2   5
TORSDOF 9
ENDMDL
MODEL      196
REMARK 921   NORMALIZED FREE ENERGY PREDICTED BY IDOCK:   -4.17 KCAL/MOL
REMARK 922        TOTAL FREE ENERGY PREDICTED BY IDOCK:   -8.41 KCAL/MOL
REMARK 923 INTER-LIGAND FREE ENERGY PREDICTED BY IDOCK:   -8.24 KCAL/MOL
REMARK 924 INTRA-LIGAND FREE ENERGY PREDICTED BY IDOCK:   -0.17 KCAL/MOL
REMARK 927      BINDING AFFINITY PREDICTED BY RF-SCORE:    0.00 PKD
ROOT
HETATM    1  N   UNL     1     -11.187   5.241  66.019  1.00  0.00    -0.772 NA 
HETATM    2  C   UNL     1     -10.893   4.387  64.851  1.00  0.00    -0.050 C  
HETATM    3  H1  UNL     1     -12.174   5.503  66.018  1.00  0.00     0.000 HD 
HETATM    4  H2  UNL     1     -10.575   6.056  66.062  1.00  0.00     0.000 HD 
ENDROOT
BRANCH   2   5
HETATM    5  C   UNL     1      -9.406   3.993  64.854  1.00  0.00    -0.163 C  
HETATM    6  O   UNL     1      -8.707   4.983  65.630  1.00  0.00    -0.129 OA 
HETATM    7  C   UNL     1      -7.351   4.614  65.873  1.00  0.00    -0.077 C  
HETATM    8  C   UNL     1      -6.581   4.626  64.520  1.00  0.00    -0.043 C  
HETATM    9  O   UNL     1      -9.077   5.115  62.722  1.00  0.00    -0.318 OA 
HETATM   10  H   UNL     1      -8.701   5.060  61.851  1.00  0.00     0.000 HD 
HETATM   11  N   UNL     1      -6.533   6.004  63.948  1.00  0.00    -0.029 NA 
HETATM   12  C   UNL     1      -7.272   3.653  63.537  1.00  0.00    -0.050 C  
HETATM   13  H2  UNL     1      -6.142   6.674  64.610  1.00  0.00     0.000 HD 
HETATM   14  O   UNL     1      -6.999   2.288  63.883  1.00  0.00    -0.037 OA 
HETATM   15  C   UNL     1      -8.796   3.905  63.439  1.00  0.00    -0.105 C  
HETATM   16  H1  UNL     1      -6.029   6.011  63.061  1.00  0.00     0.000 HD 
HETATM   17  H   UNL     1      -7.424   1.691  63.279  1.00  0.00     0.000 HD 
BRANCH   7  18
HETATM   18  O   UNL     1      -6.718   5.534  66.766  1.00  0.00    -0.058 OA 
BRANCH  18  19
HETATM   19  C   UNL     1      -6.843   6.912  66.372  1.00  0.00    -0.064 C  
HETATM   20  O   UNL     1      -9.051   6.978  67.490  1.00  0.00    -0.123 OA 
HETATM   21  C   UNL     1      -5.520   7.585  66.732  1.00  0.00    -0.024 C  
HETATM   22  C   UNL     1      -7.046   8.142  68.404  1.00  0.00    -0.077 C  
HETATM   23  H   UNL     1      -9.687   7.474  67.992  1.00  0.00     0.000 HD 
HETATM   24  O   UNL     1      -5.661   8.126  68.054  1.00  0.00    -0.033 OA 
HETATM   25  C   UNL     1      -7.860   7.705  67.175  1.00  0.00    -0.117 C  
BRANCH  21  26
HETATM   26  C   UNL     1      -5.126   8.722  65.787  1.00  0.00    -0.030 C  
HETATM   27  H   UNL     1      -5.980   9.806  64.374  1.00  0.00     0.000 HD 
HETATM   28  O   UNL     1      -6.224   9.100  64.960  1.00  0.00    -0.064 OA 
ENDBRANCH  21  26
BRANCH  22  29
HETATM   29  O   UNL     1      -7.457   9.452  68.780  1.00  0.00    -0.074 OA 
BRANCH  29  30
HETATM   30  C   UNL     1      -8.503   9.589  69.762  1.00  0.00    -0.177 C  
HETATM   31  C   UNL     1      -8.583   8.323  70.637  1.00  0.00    -0.136 C  
HETATM   32  O   UNL     1      -7.275   7.944  71.085  1.00  0.00    -0.055 OA 
HETATM   33  C   UNL     1      -9.493   8.563  71.847  1.00  0.00    -0.280 C  
HETATM   34  C   UNL     1     -10.907   8.875  71.357  1.00  0.00    -0.378 C  
HETATM   35  N   UNL     1      -9.504   7.391  72.744  1.00  0.00    -0.150 NA 
HETATM   36  H   UNL     1      -7.324   7.164  71.625  1.00  0.00     0.000 HD 
HETATM   37  H1  UNL     1     -10.109   7.549  73.549  1.00  0.00     0.000 HD 
HETATM   38  H2  UNL     1      -8.561   7.128  73.029  1.00  0.00     0.000 HD 
HETATM   39  C   UNL     1     -10.932  10.080  70.400  1.00  0.00    -0.320 C  
HETATM   40  C   UNL     1      -9.901   9.987  69.214  1.00  0.00    -0.214 C  
HETATM   41  N   UNL     1     -12.313  10.253  69.902  1.00  0.00    -0.523 NA 
HETATM   42  H2  UNL     1     -12.994  10.337  70.657  1.00  0.00     0.000 HD 
HETATM   43  H1  UNL     1     -12.329  11.051  69.268  1.00  0.00     0.000 HD 
BRANCH  40  44
HETATM   44  O   UNL     1      -9.935  11.266  68.540  1.00  0.00    -0.190 OA 
BRANCH  44  45
HETATM   45  C   UNL     1     -11.147  11.560  67.830  1.00  0.00    -0.256 C  
HETATM   46  O   UNL     1     -11.869  12.626  68.435  1.00  0.00    -0.311 OA 
HETATM   47  C   UNL     1     -11.247  13.908  68.359  1.00  0.00    -0.264 C  
HETATM   48  C   UNL     1     -11.054  14.306  66.893  1.00  0.00    -0.312 C  
HETATM   49  H1  UNL     1      -9.946  10.990  64.646  1.00  0.00     0.000 HD 
HETATM   50  H2  UNL     1     -10.562   9.889  65.749  1.00  0.00     0.000 HD 
HETATM   51  O   UNL     1     -10.403  15.571  66.753  1.00  0.00    -0.275 OA 
HETATM   52  C   UNL     1     -10.233  13.231  66.169  1.00  0.00    -0.296 C  
HETATM   53  H   UNL     1     -10.284  15.818  65.844  1.00  0.00     0.000 HD 
HETATM   54  O   UNL     1     -10.135  13.559  64.772  1.00  0.00    -0.559 OA 
HETATM   55  N   UNL     1     -10.115  10.799  65.633  1.00  0.00    -0.255 NA 
HETATM   56  C   UNL     1     -10.890  11.851  66.330  1.00  0.00    -0.282 C  
HETATM   57  H   UNL     1      -9.626  12.894  64.324  1.00  0.00     0.000 HD 
BRANCH  47  58
HETATM   58  C   UNL     1     -12.157  14.899  69.098  1.00  0.00    -0.231 C  
HETATM   59  O   UNL     1     -11.516  16.172  69.210  1.00  0.00    -0.334 OA 
HETATM   60  H   UNL     1     -12.079  16.785  69.668  1.00  0.00     0.000 HD 
ENDBRANCH  47  58
ENDBRANCH  44  45
ENDBRANCH  40  44
ENDBRANCH  29  30
ENDBRANCH  22  29
ENDBRANCH  18  19
ENDBRANCH   7  18
ENDBRANCH   2   5
TORSDOF 9
ENDMDL
MODEL      197
REMARK 921   NORMALIZED FREE ENERGY PREDICTED BY IDOCK:   -4.16 KCAL/MOL
REMARK 922        TOTAL FREE ENERGY PREDICTED BY IDOCK:   -8.40 KCAL/MOL
REMARK 923 INTER-LIGAND FREE ENERGY PREDICTED BY IDOCK:   -7.66 KCAL/MOL
REMARK 924 INTRA-LIGAND FREE ENERGY PREDICTED BY IDOCK:   -0.73 KCAL/MOL
REMARK 927      BINDING AFFINITY PREDICTED BY RF-SCORE:    0.00 PKD
ROOT
HETATM    1  N   UNL     1     -10.274  10.271  64.221  1.00  0.00    -0.425 NA 
HETATM    2  C   UNL     1     -11.021  11.517  64.491  1.00  0.00    -0.302 C  
HETATM    3  H1  UNL     1     -10.835   9.650  63.639  1.00  0.00     0.000 HD 
HETATM    4  H2  UNL     1      -9.964   9.816  65.080  1.00  0.00     0.000 HD 
ENDROOT
BRANCH   2   5
HETATM    5  C   UNL     1     -10.174  12.454  65.368  1.00  0.00    -0.278 C  
HETATM    6  O   UNL     1      -9.187  11.640  66.028  1.00  0.00    -0.217 OA 
HETATM    7  C   UNL     1      -8.215  12.427  66.714  1.00  0.00    -0.025 C  
HETATM    8  C   UNL     1      -8.911  13.158  67.899  1.00  0.00    -0.196 C  
HETATM    9  O   UNL     1     -11.813  12.303  67.159  1.00  0.00    -0.511 OA 
HETATM   10  H   UNL     1     -12.325  12.778  67.802  1.00  0.00     0.000 HD 
HETATM   11  N   UNL     1      -9.423  12.177  68.901  1.00  0.00    -0.406 NA 
HETATM   12  C   UNL     1     -10.066  14.026  67.348  1.00  0.00    -0.244 C  
HETATM   13  H2  UNL     1      -8.687  11.549  69.225  1.00  0.00     0.000 HD 
HETATM   14  O   UNL     1      -9.563  15.197  66.690  1.00  0.00    -0.228 OA 
HETATM   15  C   UNL     1     -11.006  13.226  66.415  1.00  0.00    -0.289 C  
HETATM   16  H1  UNL     1      -9.879  12.656  69.677  1.00  0.00     0.000 HD 
HETATM   17  H   UNL     1     -10.273  15.730  66.352  1.00  0.00     0.000 HD 
BRANCH   7  18
HETATM   18  O   UNL     1      -7.164  11.609  67.235  1.00  0.00    -0.118 OA 
BRANCH  18  19
HETATM   19  C   UNL     1      -7.217  11.428  68.662  1.00  0.00    -0.100 C  
HETATM   20  O   UNL     1      -8.754   9.519  68.311  1.00  0.00    -0.120 OA 
HETATM   21  C   UNL     1      -5.773  11.470  69.156  1.00  0.00    -0.049 C  
HETATM   22  C   UNL     1      -6.395   9.226  69.057  1.00  0.00    -0.043 C  
HETATM   23  H   UNL     1      -9.049   8.659  68.587  1.00  0.00     0.000 HD 
HETATM   24  O   UNL     1      -5.286  10.120  69.172  1.00  0.00    -0.035 OA 
HETATM   25  C   UNL     1      -7.690  10.053  69.103  1.00  0.00    -0.104 C  
BRANCH  21  26
HETATM   26  C   UNL     1      -5.615  12.055  70.560  1.00  0.00    -0.165 C  
HETATM   27  H   UNL     1      -5.811  11.440  72.427  1.00  0.00     0.000 HD 
HETATM   28  O   UNL     1      -5.909  11.077  71.555  1.00  0.00    -0.338 OA 
ENDBRANCH  21  26
BRANCH  22  29
HETATM   29  O   UNL     1      -6.408   8.298  70.138  1.00  0.00    -0.035 OA 
BRANCH  29  30
HETATM   30  C   UNL     1      -7.682   7.847  70.639  1.00  0.00    -0.090 C  
HETATM   31  C   UNL     1      -7.635   7.714  72.174  1.00  0.00    -0.081 C  
HETATM   32  O   UNL     1      -7.050   8.886  72.757  1.00  0.00    -0.334 OA 
HETATM   33  C   UNL     1      -9.045   7.505  72.739  1.00  0.00    -0.152 C  
HETATM   34  C   UNL     1      -9.621   6.204  72.180  1.00  0.00    -0.162 C  
HETATM   35  N   UNL     1      -9.026   7.471  74.214  1.00  0.00    -0.387 NA 
HETATM   36  H   UNL     1      -7.022   8.804  73.703  1.00  0.00     0.000 HD 
HETATM   37  H1  UNL     1      -9.963   7.332  74.590  1.00  0.00     0.000 HD 
HETATM   38  H2  UNL     1      -8.585   8.304  74.603  1.00  0.00     0.000 HD 
HETATM   39  C   UNL     1      -9.636   6.194  70.642  1.00  0.00    -0.173 C  
HETATM   40  C   UNL     1      -8.256   6.564  69.978  1.00  0.00    -0.130 C  
HETATM   41  N   UNL     1     -10.115   4.872  70.187  1.00  0.00    -0.260 NA 
HETATM   42  H2  UNL     1     -11.019   4.623  70.590  1.00  0.00     0.000 HD 
HETATM   43  H1  UNL     1     -10.125   4.866  69.168  1.00  0.00     0.000 HD 
BRANCH  40  44
HETATM   44  O   UNL     1      -8.504   6.685  68.558  1.00  0.00    -0.121 OA 
BRANCH  44  45
HETATM   45  C   UNL     1      -7.614   5.947  67.709  1.00  0.00    -0.089 C  
HETATM   46  O   UNL     1      -7.924   4.558  67.697  1.00  0.00    -0.094 OA 
HETATM   47  C   UNL     1      -9.163   4.213  67.080  1.00  0.00    -0.157 C  
HETATM   48  C   UNL     1      -9.156   4.656  65.614  1.00  0.00    -0.142 C  
HETATM   49  H1  UNL     1      -7.264   8.339  65.246  1.00  0.00     0.000 HD 
HETATM   50  H2  UNL     1      -6.422   8.183  66.687  1.00  0.00     0.000 HD 
HETATM   51  O   UNL     1     -10.388   4.365  64.951  1.00  0.00    -0.371 OA 
HETATM   52  C   UNL     1      -8.880   6.163  65.532  1.00  0.00    -0.051 C  
HETATM   53  H   UNL     1     -10.383   4.639  64.042  1.00  0.00     0.000 HD 
HETATM   54  O   UNL     1      -8.779   6.559  64.153  1.00  0.00    -0.310 OA 
HETATM   55  N   UNL     1      -7.289   7.965  66.195  1.00  0.00    -0.073 NA 
HETATM   56  C   UNL     1      -7.577   6.514  66.267  1.00  0.00    -0.090 C  
HETATM   57  H   UNL     1      -8.608   7.493  64.103  1.00  0.00     0.000 HD 
BRANCH  47  58
HETATM   58  C   UNL     1      -9.325   2.692  67.208  1.00  0.00    -0.100 C  
HETATM   59  O   UNL     1      -8.722   2.229  68.420  1.00  0.00    -0.073 OA 
HETATM   60  H   UNL     1      -8.822   1.288  68.500  1.00  0.00     0.000 HD 
ENDBRANCH  47  58
ENDBRANCH  44  45
ENDBRANCH  40  44
ENDBRANCH  29  30
ENDBRANCH  22  29
ENDBRANCH  18  19
ENDBRANCH   7  18
ENDBRANCH   2   5
TORSDOF 9
ENDMDL
MODEL      198
REMARK 921   NORMALIZED FREE ENERGY PREDICTED BY IDOCK:   -4.16 KCAL/MOL
REMARK 922        TOTAL FREE ENERGY PREDICTED BY IDOCK:   -8.40 KCAL/MOL
REMARK 923 INTER-LIGAND FREE ENERGY PREDICTED BY IDOCK:   -7.62 KCAL/MOL
REMARK 924 INTRA-LIGAND FREE ENERGY PREDICTED BY IDOCK:   -0.78 KCAL/MOL
REMARK 927      BINDING AFFINITY PREDICTED BY RF-SCORE:    0.00 PKD
ROOT
HETATM    1  N   UNL     1     -12.157  14.226  67.304  1.00  0.00    -0.557 NA 
HETATM    2  C   UNL     1     -12.999  14.253  66.091  1.00  0.00     0.257 C  
HETATM    3  H1  UNL     1     -12.398  15.011  67.910  1.00  0.00     0.000 HD 
HETATM    4  H2  UNL     1     -11.162  14.207  67.080  1.00  0.00     0.000 HD 
ENDROOT
BRANCH   2   5
HETATM    5  C   UNL     1     -12.636  13.070  65.177  1.00  0.00    -0.469 C  
HETATM    6  O   UNL     1     -11.389  12.532  65.655  1.00  0.00    -0.308 OA 
HETATM    7  C   UNL     1     -11.052  11.306  65.011  1.00  0.00    -0.089 C  
HETATM    8  C   UNL     1     -10.753  11.596  63.511  1.00  0.00    -0.428 C  
HETATM    9  O   UNL     1     -11.618  14.587  63.572  1.00  0.00    -0.281 OA 
HETATM   10  H   UNL     1     -11.537  14.831  62.658  1.00  0.00     0.000 HD 
HETATM   11  N   UNL     1      -9.555  12.474  63.369  1.00  0.00    -0.554 NA 
HETATM   12  C   UNL     1     -11.993  12.259  62.868  1.00  0.00     0.269 C  
HETATM   13  H2  UNL     1      -8.742  12.085  63.847  1.00  0.00     0.000 HD 
HETATM   14  O   UNL     1     -13.039  11.301  62.657  1.00  0.00    -0.487 OA 
HETATM   15  C   UNL     1     -12.504  13.466  63.691  1.00  0.00    -0.242 C  
HETATM   16  H1  UNL     1      -9.359  12.664  62.386  1.00  0.00     0.000 HD 
HETATM   17  H   UNL     1     -13.801  11.709  62.262  1.00  0.00     0.000 HD 
BRANCH   7  18
HETATM   18  O   UNL     1      -9.891  10.715  65.602  1.00  0.00    -0.222 OA 
BRANCH  18  19
HETATM   19  C   UNL     1      -9.535  11.275  66.878  1.00  0.00    -0.177 C  
HETATM   20  O   UNL     1     -11.841  10.829  67.660  1.00  0.00    -0.647 OA 
HETATM   21  C   UNL     1      -8.205  10.636  67.273  1.00  0.00    -0.116 C  
HETATM   22  C   UNL     1      -9.875   9.525  68.461  1.00  0.00    -0.158 C  
HETATM   23  H   UNL     1     -12.418  10.580  68.372  1.00  0.00     0.000 HD 
HETATM   24  O   UNL     1      -8.505   9.472  68.057  1.00  0.00    -0.118 OA 
HETATM   25  C   UNL     1     -10.458  10.877  68.018  1.00  0.00    -0.191 C  
BRANCH  21  26
HETATM   26  C   UNL     1      -7.299  11.552  68.099  1.00  0.00    -0.094 C  
HETATM   27  H   UNL     1      -7.508  12.964  69.463  1.00  0.00     0.000 HD 
HETATM   28  O   UNL     1      -8.070  12.396  68.951  1.00  0.00     0.014 OA 
ENDBRANCH  21  26
BRANCH  22  29
HETATM   29  O   UNL     1      -9.988   9.422  69.877  1.00  0.00    -0.186 OA 
BRANCH  29  30
HETATM   30  C   UNL     1     -11.243   8.989  70.435  1.00  0.00    -0.241 C  
HETATM   31  C   UNL     1     -11.778  10.041  71.427  1.00  0.00    -0.334 C  
HETATM   32  O   UNL     1     -11.705  11.352  70.849  1.00  0.00    -0.356 OA 
HETATM   33  C   UNL     1     -13.228   9.728  71.814  1.00  0.00    -0.436 C  
HETATM   34  C   UNL     1     -13.278   8.369  72.512  1.00  0.00    -0.187 C  
HETATM   35  N   UNL     1     -13.783  10.779  72.688  1.00  0.00    -0.014 NA 
HETATM   36  H   UNL     1     -12.035  12.000  71.460  1.00  0.00     0.000 HD 
HETATM   37  H1  UNL     1     -14.747  10.571  72.946  1.00  0.00     0.000 HD 
HETATM   38  H2  UNL     1     -13.699  11.703  72.264  1.00  0.00     0.000 HD 
HETATM   39  C   UNL     1     -12.686   7.250  71.637  1.00  0.00    -0.375 C  
HETATM   40  C   UNL     1     -11.255   7.567  71.060  1.00  0.00    -0.263 C  
HETATM   41  N   UNL     1     -12.685   5.996  72.420  1.00  0.00    -0.400 NA 
HETATM   42  H2  UNL     1     -13.609   5.762  72.784  1.00  0.00     0.000 HD 
HETATM   43  H1  UNL     1     -12.293   5.255  71.840  1.00  0.00     0.000 HD 
BRANCH  40  44
HETATM   44  O   UNL     1     -10.945   6.505  70.129  1.00  0.00    -0.261 OA 
BRANCH  44  45
HETATM   45  C   UNL     1      -9.628   5.947  70.243  1.00  0.00    -0.163 C  
HETATM   46  O   UNL     1      -9.318   5.590  71.585  1.00  0.00    -0.145 OA 
HETATM   47  C   UNL     1     -10.071   4.502  72.118  1.00  0.00    -0.195 C  
HETATM   48  C   UNL     1      -9.831   3.243  71.281  1.00  0.00    -0.099 C  
HETATM   49  H1  UNL     1      -9.613   4.230  67.250  1.00  0.00     0.000 HD 
HETATM   50  H2  UNL     1      -9.230   5.835  67.542  1.00  0.00     0.000 HD 
HETATM   51  O   UNL     1     -10.587   2.124  71.750  1.00  0.00     0.142 OA 
HETATM   52  C   UNL     1     -10.192   3.521  69.816  1.00  0.00     0.968 C  
HETATM   53  H   UNL     1     -10.437   1.343  71.231  1.00  0.00     0.000 HD 
HETATM   54  O   UNL     1      -9.876   2.368  69.016  1.00  0.00     0.065 OA 
HETATM   55  N   UNL     1      -9.750   5.023  67.876  1.00  0.00    -0.146 NA 
HETATM   56  C   UNL     1      -9.419   4.741  69.291  1.00  0.00    -0.153 C  
HETATM   57  H   UNL     1     -10.099   2.540  68.109  1.00  0.00     0.000 HD 
BRANCH  47  58
HETATM   58  C   UNL     1      -9.619   4.308  73.573  1.00  0.00    -0.112 C  
HETATM   59  O   UNL     1     -10.175   3.104  74.108  1.00  0.00    -0.126 OA 
HETATM   60  H   UNL     1      -9.895   2.983  75.008  1.00  0.00     0.000 HD 
ENDBRANCH  47  58
ENDBRANCH  44  45
ENDBRANCH  40  44
ENDBRANCH  29  30
ENDBRANCH  22  29
ENDBRANCH  18  19
ENDBRANCH   7  18
ENDBRANCH   2   5
TORSDOF 9
ENDMDL
MODEL      199
REMARK 921   NORMALIZED FREE ENERGY PREDICTED BY IDOCK:   -4.13 KCAL/MOL
REMARK 922        TOTAL FREE ENERGY PREDICTED BY IDOCK:   -8.35 KCAL/MOL
REMARK 923 INTER-LIGAND FREE ENERGY PREDICTED BY IDOCK:   -7.70 KCAL/MOL
REMARK 924 INTRA-LIGAND FREE ENERGY PREDICTED BY IDOCK:   -0.65 KCAL/MOL
REMARK 927      BINDING AFFINITY PREDICTED BY RF-SCORE:    0.00 PKD
ROOT
HETATM    1  N   UNL     1      -7.249   9.985  68.387  1.00  0.00    -0.072 NA 
HETATM    2  C   UNL     1      -7.542   8.657  68.964  1.00  0.00    -0.090 C  
HETATM    3  H1  UNL     1      -6.240  10.125  68.334  1.00  0.00     0.000 HD 
HETATM    4  H2  UNL     1      -7.714  10.736  68.898  1.00  0.00     0.000 HD 
ENDROOT
BRANCH   2   5
HETATM    5  C   UNL     1      -9.064   8.446  69.043  1.00  0.00    -0.147 C  
HETATM    6  O   UNL     1      -9.625   9.630  69.640  1.00  0.00    -0.181 OA 
HETATM    7  C   UNL     1     -11.050   9.635  69.581  1.00  0.00    -0.193 C  
HETATM    8  C   UNL     1     -11.591   8.496  70.493  1.00  0.00    -0.132 C  
HETATM    9  O   UNL     1      -8.815   7.241  71.140  1.00  0.00    -0.138 OA 
HETATM   10  H   UNL     1      -9.061   6.474  71.645  1.00  0.00     0.000 HD 
HETATM   11  N   UNL     1     -11.240   8.747  71.922  1.00  0.00    -0.346 NA 
HETATM   12  C   UNL     1     -11.003   7.147  70.018  1.00  0.00    -0.262 C  
HETATM   13  H2  UNL     1     -11.561   9.664  72.234  1.00  0.00     0.000 HD 
HETATM   14  O   UNL     1     -11.628   6.711  68.803  1.00  0.00    -0.587 OA 
HETATM   15  C   UNL     1      -9.465   7.201  69.863  1.00  0.00    -0.153 C  
HETATM   16  H1  UNL     1     -11.595   8.000  72.520  1.00  0.00     0.000 HD 
HETATM   17  H   UNL     1     -11.267   5.882  68.512  1.00  0.00     0.000 HD 
BRANCH   7  18
HETATM   18  O   UNL     1     -11.580  10.881  70.043  1.00  0.00    -0.284 OA 
BRANCH  18  19
HETATM   19  C   UNL     1     -11.790  11.850  69.001  1.00  0.00    -0.308 C  
HETATM   20  O   UNL     1     -11.702  13.635  70.713  1.00  0.00    -0.516 OA 
HETATM   21  C   UNL     1     -10.818  11.492  67.878  1.00  0.00    -0.210 C  
HETATM   22  C   UNL     1      -9.877  13.270  69.056  1.00  0.00     0.247 C  
HETATM   23  H   UNL     1     -11.446  14.521  70.943  1.00  0.00     0.000 HD 
HETATM   24  O   UNL     1      -9.613  12.241  68.101  1.00  0.00    -0.203 OA 
HETATM   25  C   UNL     1     -11.382  13.266  69.369  1.00  0.00    -0.219 C  
BRANCH  21  26
HETATM   26  C   UNL     1     -11.338  11.824  66.479  1.00  0.00    -0.305 C  
HETATM   27  H   UNL     1     -10.671  11.756  64.621  1.00  0.00     0.000 HD 
HETATM   28  O   UNL     1     -10.348  11.551  65.489  1.00  0.00    -0.253 OA 
ENDBRANCH  21  26
BRANCH  22  29
HETATM   29  O   UNL     1      -9.524  14.547  68.532  1.00  0.00    -0.202 OA 
BRANCH  29  30
HETATM   30  C   UNL     1      -8.191  15.042  68.768  1.00  0.00    -0.168 C  
HETATM   31  C   UNL     1      -7.409  14.064  69.666  1.00  0.00     0.243 C  
HETATM   32  O   UNL     1      -7.562  12.720  69.190  1.00  0.00    -0.325 OA 
HETATM   33  C   UNL     1      -5.922  14.434  69.696  1.00  0.00    -0.111 C  
HETATM   34  C   UNL     1      -5.765  15.833  70.292  1.00  0.00    -0.149 C  
HETATM   35  N   UNL     1      -5.146  13.450  70.476  1.00  0.00    -0.099 NA 
HETATM   36  H   UNL     1      -7.080  12.117  69.743  1.00  0.00     0.000 HD 
HETATM   37  H1  UNL     1      -4.157  13.695  70.497  1.00  0.00     0.000 HD 
HETATM   38  H2  UNL     1      -5.290  12.501  70.132  1.00  0.00     0.000 HD 
HETATM   39  C   UNL     1      -6.580  16.883  69.518  1.00  0.00    -0.203 C  
HETATM   40  C   UNL     1      -8.091  16.498  69.297  1.00  0.00    -0.087 C  
HETATM   41  N   UNL     1      -6.450  18.181  70.212  1.00  0.00     0.278 NA 
HETATM   42  H2  UNL     1      -5.477  18.459  70.345  1.00  0.00     0.000 HD 
HETATM   43  H1  UNL     1      -6.989  18.877  69.698  1.00  0.00     0.000 HD 
BRANCH  40  44
HETATM   44  O   UNL     1      -8.642  17.496  68.406  1.00  0.00    -0.260 OA 
BRANCH  44  45
HETATM   45  C   UNL     1      -8.198  17.423  67.044  1.00  0.00    -0.217 C  
HETATM   46  O   UNL     1      -9.117  16.709  66.225  1.00  0.00    -0.270 OA 
HETATM   47  C   UNL     1     -10.376  17.348  66.018  1.00  0.00    -0.304 C  
HETATM   48  C   UNL     1     -10.165  18.702  65.335  1.00  0.00     0.577 C  
HETATM   49  H1  UNL     1      -6.781  20.564  66.870  1.00  0.00     0.000 HD 
HETATM   50  H2  UNL     1      -6.105  19.136  67.431  1.00  0.00     0.000 HD 
HETATM   51  O   UNL     1     -11.393  19.406  65.130  1.00  0.00    -0.064 OA 
HETATM   52  C   UNL     1      -9.221  19.566  66.182  1.00  0.00    -0.318 C  
HETATM   53  H   UNL     1     -11.262  20.246  64.707  1.00  0.00     0.000 HD 
HETATM   54  O   UNL     1      -8.949  20.799  65.493  1.00  0.00    -0.044 OA 
HETATM   55  N   UNL     1      -6.975  19.643  67.261  1.00  0.00    -0.205 NA 
HETATM   56  C   UNL     1      -7.903  18.823  66.449  1.00  0.00    -0.278 C  
HETATM   57  H   UNL     1      -8.365  21.334  66.018  1.00  0.00     0.000 HD 
BRANCH  47  58
HETATM   58  C   UNL     1     -11.225  16.406  65.153  1.00  0.00    -0.067 C  
HETATM   59  O   UNL     1     -11.315  16.906  63.816  1.00  0.00    -1.075 OA 
HETATM   60  H   UNL     1     -11.840  16.323  63.281  1.00  0.00     0.000 HD 
ENDBRANCH  47  58
ENDBRANCH  44  45
ENDBRANCH  40  44
ENDBRANCH  29  30
ENDBRANCH  22  29
ENDBRANCH  18  19
ENDBRANCH   7  18
ENDBRANCH   2   5
TORSDOF 9
ENDMDL
MODEL      200
REMARK 921   NORMALIZED FREE ENERGY PREDICTED BY IDOCK:   -4.12 KCAL/MOL
REMARK 922        TOTAL FREE ENERGY PREDICTED BY IDOCK:   -8.33 KCAL/MOL
REMARK 923 INTER-LIGAND FREE ENERGY PREDICTED BY IDOCK:   -7.09 KCAL/MOL
REMARK 924 INTRA-LIGAND FREE ENERGY PREDICTED BY IDOCK:   -1.24 KCAL/MOL
REMARK 927      BINDING AFFINITY PREDICTED BY RF-SCORE:    0.00 PKD
ROOT
HETATM    1  N   UNL     1      -9.830  13.377  64.133  1.00  0.00    -0.692 NA 
HETATM    2  C   UNL     1     -10.788  12.691  65.025  1.00  0.00    -0.290 C  
HETATM    3  H1  UNL     1     -10.254  14.223  63.754  1.00  0.00     0.000 HD 
HETATM    4  H2  UNL     1      -9.481  12.760  63.399  1.00  0.00     0.000 HD 
ENDROOT
BRANCH   2   5
HETATM    5  C   UNL     1     -10.148  11.415  65.596  1.00  0.00    -0.248 C  
HETATM    6  O   UNL     1      -8.783  11.734  65.921  1.00  0.00    -0.086 OA 
HETATM    7  C   UNL     1      -8.145  10.685  66.646  1.00  0.00    -0.136 C  
HETATM    8  C   UNL     1      -8.000   9.449  65.712  1.00  0.00    -0.110 C  
HETATM    9  O   UNL     1      -9.659  10.621  63.350  1.00  0.00    -0.276 OA 
HETATM   10  H   UNL     1      -9.686   9.886  62.749  1.00  0.00     0.000 HD 
HETATM   11  N   UNL     1      -7.100   9.756  64.561  1.00  0.00    -0.122 NA 
HETATM   12  C   UNL     1      -9.401   9.029  65.209  1.00  0.00    -0.088 C  
HETATM   13  H2  UNL     1      -6.192  10.100  64.873  1.00  0.00     0.000 HD 
HETATM   14  O   UNL     1     -10.148   8.378  66.246  1.00  0.00    -0.429 OA 
HETATM   15  C   UNL     1     -10.193  10.220  64.620  1.00  0.00    -0.134 C  
HETATM   16  H1  UNL     1      -7.005   8.945  63.948  1.00  0.00     0.000 HD 
HETATM   17  H   UNL     1     -11.008   8.120  65.937  1.00  0.00     0.000 HD 
BRANCH   7  18
HETATM   18  O   UNL     1      -6.843  11.079  67.086  1.00  0.00    -0.084 OA 
BRANCH  18  19
HETATM   19  C   UNL     1      -6.653  10.987  68.510  1.00  0.00    -0.059 C  
HETATM   20  O   UNL     1      -8.934  11.898  68.820  1.00  0.00    -0.361 OA 
HETATM   21  C   UNL     1      -6.088   9.594  68.780  1.00  0.00    -0.042 C  
HETATM   22  C   UNL     1      -8.362   9.518  69.287  1.00  0.00    -0.129 C  
HETATM   23  H   UNL     1      -9.739  11.903  69.324  1.00  0.00     0.000 HD 
HETATM   24  O   UNL     1      -7.199   8.724  69.040  1.00  0.00    -0.070 OA 
HETATM   25  C   UNL     1      -7.941  10.996  69.316  1.00  0.00    -0.027 C  
BRANCH  21  26
HETATM   26  C   UNL     1      -5.138   9.533  69.977  1.00  0.00    -0.032 C  
HETATM   27  H   UNL     1      -5.155  10.058  71.881  1.00  0.00     0.000 HD 
HETATM   28  O   UNL     1      -5.744  10.097  71.138  1.00  0.00    -0.104 OA 
ENDBRANCH  21  26
BRANCH  22  29
HETATM   29  O   UNL     1      -8.943   9.185  70.543  1.00  0.00    -0.191 OA 
BRANCH  29  30
HETATM   30  C   UNL     1     -10.246   8.569  70.556  1.00  0.00    -0.194 C  
HETATM   31  C   UNL     1     -11.339   9.633  70.775  1.00  0.00    -0.340 C  
HETATM   32  O   UNL     1     -11.124  10.754  69.906  1.00  0.00    -0.266 OA 
HETATM   33  C   UNL     1     -12.728   9.039  70.516  1.00  0.00     0.437 C  
HETATM   34  C   UNL     1     -12.982   7.906  71.510  1.00  0.00    -0.338 C  
HETATM   35  N   UNL     1     -13.776  10.072  70.630  1.00  0.00    -0.325 NA 
HETATM   36  H   UNL     1     -11.797  11.409  70.041  1.00  0.00     0.000 HD 
HETATM   37  H1  UNL     1     -14.701   9.677  70.458  1.00  0.00     0.000 HD 
HETATM   38  H2  UNL     1     -13.588  10.867  70.020  1.00  0.00     0.000 HD 
HETATM   39  C   UNL     1     -11.894   6.820  71.435  1.00  0.00    -0.338 C  
HETATM   40  C   UNL     1     -10.421   7.370  71.527  1.00  0.00    -0.201 C  
HETATM   41  N   UNL     1     -12.162   5.817  72.488  1.00  0.00    -0.446 NA 
HETATM   42  H2  UNL     1     -13.105   5.432  72.431  1.00  0.00     0.000 HD 
HETATM   43  H1  UNL     1     -11.441   5.098  72.438  1.00  0.00     0.000 HD 
BRANCH  40  44
HETATM   44  O   UNL     1      -9.548   6.249  71.256  1.00  0.00    -0.172 OA 
BRANCH  44  45
HETATM   45  C   UNL     1     -10.080   5.249  70.376  1.00  0.00    -0.254 C  
HETATM   46  O   UNL     1      -9.806   5.544  69.011  1.00  0.00    -0.140 OA 
HETATM   47  C   UNL     1      -8.432   5.470  68.633  1.00  0.00    -0.104 C  
HETATM   48  C   UNL     1      -7.902   4.054  68.873  1.00  0.00    -0.057 C  
HETATM   49  H1  UNL     1      -9.482   2.517  72.397  1.00  0.00     0.000 HD 
HETATM   50  H2  UNL     1     -10.790   3.564  72.406  1.00  0.00     0.000 HD 
HETATM   51  O   UNL     1      -6.517   3.927  68.542  1.00  0.00    -0.035 OA 
HETATM   52  C   UNL     1      -8.109   3.668  70.344  1.00  0.00    -0.053 C  
HETATM   53  H   UNL     1      -6.189   3.048  68.691  1.00  0.00     0.000 HD 
HETATM   54  O   UNL     1      -7.699   2.304  70.546  1.00  0.00    -0.042 OA 
HETATM   55  N   UNL     1      -9.807   3.453  72.157  1.00  0.00    -0.158 NA 
HETATM   56  C   UNL     1      -9.585   3.826  70.741  1.00  0.00    -0.179 C  
HETATM   57  H   UNL     1      -7.827   2.065  71.456  1.00  0.00     0.000 HD 
BRANCH  47  58
HETATM   58  C   UNL     1      -8.348   5.860  67.151  1.00  0.00    -0.105 C  
HETATM   59  O   UNL     1      -7.061   6.408  66.854  1.00  0.00    -0.069 OA 
HETATM   60  H   UNL     1      -7.009   6.649  65.937  1.00  0.00     0.000 HD 
ENDBRANCH  47  58
ENDBRANCH  44  45
ENDBRANCH  40  44
ENDBRANCH  29  30
ENDBRANCH  22  29
ENDBRANCH  18  19
ENDBRANCH   7  18
ENDBRANCH   2   5
TORSDOF 9
ENDMDL
MODEL      201
REMARK 921   NORMALIZED FREE ENERGY PREDICTED BY IDOCK:   -4.10 KCAL/MOL
REMARK 922        TOTAL FREE ENERGY PREDICTED BY IDOCK:   -8.30 KCAL/MOL
REMARK 923 INTER-LIGAND FREE ENERGY PREDICTED BY IDOCK:   -7.20 KCAL/MOL
REMARK 924 INTRA-LIGAND FREE ENERGY PREDICTED BY IDOCK:   -1.10 KCAL/MOL
REMARK 927      BINDING AFFINITY PREDICTED BY RF-SCORE:    0.00 PKD
ROOT
HETATM    1  N   UNL     1     -14.075  15.466  70.732  1.00  0.00    -0.852 NA 
HETATM    2  C   UNL     1     -12.602  15.551  70.654  1.00  0.00    -0.443 C  
HETATM    3  H1  UNL     1     -14.410  15.990  71.540  1.00  0.00     0.000 HD 
HETATM    4  H2  UNL     1     -14.403  14.500  70.739  1.00  0.00     0.000 HD 
ENDROOT
BRANCH   2   5
HETATM    5  C   UNL     1     -12.097  14.761  69.435  1.00  0.00    -0.270 C  
HETATM    6  O   UNL     1     -11.635  13.486  69.919  1.00  0.00    -0.261 OA 
HETATM    7  C   UNL     1     -11.329  12.588  68.854  1.00  0.00    -0.297 C  
HETATM    8  C   UNL     1     -10.095  13.134  68.079  1.00  0.00    -0.232 C  
HETATM    9  O   UNL     1      -9.930  15.853  69.590  1.00  0.00    -0.265 OA 
HETATM   10  H   UNL     1      -9.233  16.294  69.120  1.00  0.00     0.000 HD 
HETATM   11  N   UNL     1      -8.885  13.157  68.954  1.00  0.00    -0.359 NA 
HETATM   12  C   UNL     1     -10.415  14.554  67.557  1.00  0.00    -0.253 C  
HETATM   13  H2  UNL     1      -8.698  12.242  69.364  1.00  0.00     0.000 HD 
HETATM   14  O   UNL     1     -11.314  14.503  66.441  1.00  0.00    -0.335 OA 
HETATM   15  C   UNL     1     -10.964  15.477  68.670  1.00  0.00    -0.279 C  
HETATM   16  H1  UNL     1      -8.077  13.516  68.446  1.00  0.00     0.000 HD 
HETATM   17  H   UNL     1     -11.511  15.375  66.120  1.00  0.00     0.000 HD 
BRANCH   7  18
HETATM   18  O   UNL     1     -11.014  11.285  69.353  1.00  0.00    -0.242 OA 
BRANCH  18  19
HETATM   19  C   UNL     1     -10.135  10.529  68.501  1.00  0.00    -0.173 C  
HETATM   20  O   UNL     1      -9.211   9.430  70.518  1.00  0.00    -0.237 OA 
HETATM   21  C   UNL     1     -10.999   9.977  67.370  1.00  0.00    -0.191 C  
HETATM   22  C   UNL     1     -10.678   8.241  68.892  1.00  0.00    -0.062 C  
HETATM   23  H   UNL     1      -8.855   8.645  70.918  1.00  0.00     0.000 HD 
HETATM   24  O   UNL     1     -11.453   8.676  67.773  1.00  0.00     0.721 OA 
HETATM   25  C   UNL     1      -9.567   9.274  69.142  1.00  0.00    -0.161 C  
BRANCH  21  26
HETATM   26  C   UNL     1     -10.261   9.838  66.038  1.00  0.00    -0.193 C  
HETATM   27  H   UNL     1     -10.271  10.711  64.266  1.00  0.00     0.000 HD 
HETATM   28  O   UNL     1     -10.729  10.798  65.093  1.00  0.00    -0.215 OA 
ENDBRANCH  21  26
BRANCH  22  29
HETATM   29  O   UNL     1     -10.075   6.978  68.629  1.00  0.00    -0.155 OA 
BRANCH  29  30
HETATM   30  C   UNL     1      -8.955   6.927  67.724  1.00  0.00    -0.117 C  
HETATM   31  C   UNL     1      -9.279   6.019  66.521  1.00  0.00    -0.148 C  
HETATM   32  O   UNL     1     -10.571   6.342  65.988  1.00  0.00    -0.353 OA 
HETATM   33  C   UNL     1      -8.216   6.175  65.428  1.00  0.00    -0.145 C  
HETATM   34  C   UNL     1      -6.860   5.740  65.982  1.00  0.00    -0.058 C  
HETATM   35  N   UNL     1      -8.565   5.383  64.233  1.00  0.00    -0.282 NA 
HETATM   36  H   UNL     1     -10.771   5.783  65.248  1.00  0.00     0.000 HD 
HETATM   37  H1  UNL     1      -7.859   5.486  63.505  1.00  0.00     0.000 HD 
HETATM   38  H2  UNL     1      -9.496   5.615  63.887  1.00  0.00     0.000 HD 
HETATM   39  C   UNL     1      -6.473   6.529  67.244  1.00  0.00    -0.042 C  
HETATM   40  C   UNL     1      -7.586   6.558  68.358  1.00  0.00    -0.104 C  
HETATM   41  N   UNL     1      -5.202   5.984  67.766  1.00  0.00    -0.004 NA 
HETATM   42  H2  UNL     1      -4.461   5.977  67.065  1.00  0.00     0.000 HD 
HETATM   43  H1  UNL     1      -4.946   6.508  68.602  1.00  0.00     0.000 HD 
BRANCH  40  44
HETATM   44  O   UNL     1      -7.129   7.484  69.371  1.00  0.00    -0.069 OA 
BRANCH  44  45
HETATM   45  C   UNL     1      -5.822   8.038  69.159  1.00  0.00    -0.034 C  
HETATM   46  O   UNL     1      -5.830   9.044  68.153  1.00  0.00    -0.038 OA 
HETATM   47  C   UNL     1      -6.530  10.241  68.490  1.00  0.00    -0.052 C  
HETATM   48  C   UNL     1      -5.896  10.884  69.725  1.00  0.00    -0.067 C  
HETATM   49  H1  UNL     1      -4.764   7.949  72.442  1.00  0.00     0.000 HD 
HETATM   50  H2  UNL     1      -4.712   6.735  71.288  1.00  0.00     0.000 HD 
HETATM   51  O   UNL     1      -6.577  12.073  70.131  1.00  0.00    -0.383 OA 
HETATM   52  C   UNL     1      -5.893   9.880  70.886  1.00  0.00    -0.088 C  
HETATM   53  H   UNL     1      -6.183  12.473  70.898  1.00  0.00     0.000 HD 
HETATM   54  O   UNL     1      -5.210  10.453  72.016  1.00  0.00    -0.240 OA 
HETATM   55  N   UNL     1      -5.177   7.595  71.579  1.00  0.00    -0.031 NA 
HETATM   56  C   UNL     1      -5.195   8.576  70.470  1.00  0.00    -0.021 C  
HETATM   57  H   UNL     1      -5.208   9.832  72.734  1.00  0.00     0.000 HD 
BRANCH  47  58
HETATM   58  C   UNL     1      -6.456  11.169  67.269  1.00  0.00    -0.079 C  
HETATM   59  O   UNL     1      -5.369  12.088  67.410  1.00  0.00    -0.086 OA 
HETATM   60  H   UNL     1      -5.323  12.662  66.655  1.00  0.00     0.000 HD 
ENDBRANCH  47  58
ENDBRANCH  44  45
ENDBRANCH  40  44
ENDBRANCH  29  30
ENDBRANCH  22  29
ENDBRANCH  18  19
ENDBRANCH   7  18
ENDBRANCH   2   5
TORSDOF 9
ENDMDL
MODEL      202
REMARK 921   NORMALIZED FREE ENERGY PREDICTED BY IDOCK:   -4.10 KCAL/MOL
REMARK 922        TOTAL FREE ENERGY PREDICTED BY IDOCK:   -8.29 KCAL/MOL
REMARK 923 INTER-LIGAND FREE ENERGY PREDICTED BY IDOCK:   -8.40 KCAL/MOL
REMARK 924 INTRA-LIGAND FREE ENERGY PREDICTED BY IDOCK:    0.10 KCAL/MOL
REMARK 927      BINDING AFFINITY PREDICTED BY RF-SCORE:    0.00 PKD
ROOT
HETATM    1  N   UNL     1     -10.052   3.807  66.303  1.00  0.00    -0.396 NA 
HETATM    2  C   UNL     1     -10.026   5.076  67.058  1.00  0.00    -0.203 C  
HETATM    3  H1  UNL     1     -11.007   3.451  66.255  1.00  0.00     0.000 HD 
HETATM    4  H2  UNL     1      -9.405   3.118  66.688  1.00  0.00     0.000 HD 
ENDROOT
BRANCH   2   5
HETATM    5  C   UNL     1      -8.587   5.612  67.130  1.00  0.00    -0.109 C  
HETATM    6  O   UNL     1      -8.669   7.049  67.115  1.00  0.00    -0.119 OA 
HETATM    7  C   UNL     1      -7.408   7.661  67.380  1.00  0.00    -0.092 C  
HETATM    8  C   UNL     1      -6.446   7.356  66.196  1.00  0.00    -0.045 C  
HETATM    9  O   UNL     1      -8.352   5.383  64.720  1.00  0.00    -0.137 OA 
HETATM   10  H   UNL     1      -7.804   5.082  64.006  1.00  0.00     0.000 HD 
HETATM   11  N   UNL     1      -6.945   7.978  64.933  1.00  0.00    -0.062 NA 
HETATM   12  C   UNL     1      -6.317   5.824  66.032  1.00  0.00    -0.039 C  
HETATM   13  H2  UNL     1      -7.102   8.980  65.043  1.00  0.00     0.000 HD 
HETATM   14  O   UNL     1      -5.502   5.261  67.069  1.00  0.00    -0.011 OA 
HETATM   15  C   UNL     1      -7.695   5.123  65.968  1.00  0.00    -0.091 C  
HETATM   16  H1  UNL     1      -6.314   7.778  64.157  1.00  0.00     0.000 HD 
HETATM   17  H   UNL     1      -5.422   4.320  66.968  1.00  0.00     0.000 HD 
BRANCH   7  18
HETATM   18  O   UNL     1      -7.540   9.079  67.508  1.00  0.00    -0.088 OA 
BRANCH  18  19
HETATM   19  C   UNL     1      -8.865   9.571  67.236  1.00  0.00    -0.128 C  
HETATM   20  O   UNL     1      -9.249   9.735  69.676  1.00  0.00    -0.193 OA 
HETATM   21  C   UNL     1      -8.712  10.657  66.173  1.00  0.00    -0.170 C  
HETATM   22  C   UNL     1      -8.957  11.738  68.224  1.00  0.00    -0.180 C  
HETATM   23  H   UNL     1      -9.651  10.199  70.400  1.00  0.00     0.000 HD 
HETATM   24  O   UNL     1      -8.570  11.910  66.859  1.00  0.00    -0.176 OA 
HETATM   25  C   UNL     1      -9.509  10.314  68.395  1.00  0.00    -0.146 C  
BRANCH  21  26
HETATM   26  C   UNL     1      -9.903  10.762  65.220  1.00  0.00    -0.272 C  
HETATM   27  H   UNL     1     -10.267  11.472  63.413  1.00  0.00     0.000 HD 
HETATM   28  O   UNL     1      -9.528  11.407  64.005  1.00  0.00    -0.208 OA 
ENDBRANCH  21  26
BRANCH  22  29
HETATM   29  O   UNL     1      -9.976  12.667  68.580  1.00  0.00    -0.219 OA 
BRANCH  29  30
HETATM   30  C   UNL     1     -10.599  13.437  67.534  1.00  0.00    -0.250 C  
HETATM   31  C   UNL     1     -11.480  12.529  66.653  1.00  0.00    -0.359 C  
HETATM   32  O   UNL     1     -12.310  11.695  67.474  1.00  0.00    -0.256 OA 
HETATM   33  C   UNL     1     -12.356  13.371  65.719  1.00  0.00    -0.460 C  
HETATM   34  C   UNL     1     -11.458  14.185  64.788  1.00  0.00    -0.384 C  
HETATM   35  N   UNL     1     -13.272  12.517  64.938  1.00  0.00    -0.652 NA 
HETATM   36  H   UNL     1     -12.853  11.136  66.931  1.00  0.00     0.000 HD 
HETATM   37  H1  UNL     1     -13.855  13.076  64.316  1.00  0.00     0.000 HD 
HETATM   38  H2  UNL     1     -13.834  11.918  65.543  1.00  0.00     0.000 HD 
HETATM   39  C   UNL     1     -10.472  15.071  65.568  1.00  0.00    -0.365 C  
HETATM   40  C   UNL     1      -9.646  14.308  66.671  1.00  0.00    -0.289 C  
HETATM   41  N   UNL     1      -9.584  15.747  64.600  1.00  0.00     0.399 NA 
HETATM   42  H2  UNL     1     -10.100  16.266  63.890  1.00  0.00     0.000 HD 
HETATM   43  H1  UNL     1      -8.931  16.335  65.117  1.00  0.00     0.000 HD 
BRANCH  40  44
HETATM   44  O   UNL     1      -8.924  15.317  67.414  1.00  0.00    -0.173 OA 
BRANCH  44  45
HETATM   45  C   UNL     1      -7.663  15.714  66.855  1.00  0.00    -0.203 C  
HETATM   46  O   UNL     1      -7.717  17.025  66.304  1.00  0.00    -0.284 OA 
HETATM   47  C   UNL     1      -7.887  18.080  67.249  1.00  0.00    -0.214 C  
HETATM   48  C   UNL     1      -6.718  18.085  68.238  1.00  0.00    -0.207 C  
HETATM   49  H1  UNL     1      -5.640  14.187  69.196  1.00  0.00     0.000 HD 
HETATM   50  H2  UNL     1      -6.330  13.532  67.817  1.00  0.00     0.000 HD 
HETATM   51  O   UNL     1      -6.850  19.104  69.232  1.00  0.00    -0.309 OA 
HETATM   52  C   UNL     1      -6.616  16.717  68.925  1.00  0.00    -0.178 C  
HETATM   53  H   UNL     1      -6.124  19.107  69.845  1.00  0.00     0.000 HD 
HETATM   54  O   UNL     1      -5.460  16.693  69.781  1.00  0.00    -0.151 OA 
HETATM   55  N   UNL     1      -6.401  14.266  68.522  1.00  0.00    -0.086 NA 
HETATM   56  C   UNL     1      -6.506  15.595  67.879  1.00  0.00    -0.149 C  
HETATM   57  H   UNL     1      -5.397  15.846  70.206  1.00  0.00     0.000 HD 
BRANCH  47  58
HETATM   58  C   UNL     1      -7.962  19.392  66.456  1.00  0.00    -0.298 C  
HETATM   59  O   UNL     1      -7.082  19.341  65.329  1.00  0.00    -0.446 OA 
HETATM   60  H   UNL     1      -7.129  20.153  64.838  1.00  0.00     0.000 HD 
ENDBRANCH  47  58
ENDBRANCH  44  45
ENDBRANCH  40  44
ENDBRANCH  29  30
ENDBRANCH  22  29
ENDBRANCH  18  19
ENDBRANCH   7  18
ENDBRANCH   2   5
TORSDOF 9
ENDMDL
MODEL      203
REMARK 921   NORMALIZED FREE ENERGY PREDICTED BY IDOCK:   -4.10 KCAL/MOL
REMARK 922        TOTAL FREE ENERGY PREDICTED BY IDOCK:   -8.29 KCAL/MOL
REMARK 923 INTER-LIGAND FREE ENERGY PREDICTED BY IDOCK:   -7.28 KCAL/MOL
REMARK 924 INTRA-LIGAND FREE ENERGY PREDICTED BY IDOCK:   -1.01 KCAL/MOL
REMARK 927      BINDING AFFINITY PREDICTED BY RF-SCORE:    0.00 PKD
ROOT
HETATM    1  N   UNL     1     -10.159  12.907  64.265  1.00  0.00    -0.609 NA 
HETATM    2  C   UNL     1     -10.863  12.299  65.413  1.00  0.00    -0.286 C  
HETATM    3  H1  UNL     1     -10.673  13.725  63.937  1.00  0.00     0.000 HD 
HETATM    4  H2  UNL     1      -9.992  12.233  63.518  1.00  0.00     0.000 HD 
ENDROOT
BRANCH   2   5
HETATM    5  C   UNL     1     -10.088  11.067  65.909  1.00  0.00    -0.249 C  
HETATM    6  O   UNL     1      -8.757  11.507  66.236  1.00  0.00    -0.185 OA 
HETATM    7  C   UNL     1      -8.005  10.492  66.897  1.00  0.00    -0.121 C  
HETATM    8  C   UNL     1      -7.749   9.328  65.896  1.00  0.00    -0.098 C  
HETATM    9  O   UNL     1      -9.555  10.447  63.618  1.00  0.00    -0.284 OA 
HETATM   10  H   UNL     1      -9.517   9.746  62.979  1.00  0.00     0.000 HD 
HETATM   11  N   UNL     1      -6.903   9.786  64.755  1.00  0.00    -0.115 NA 
HETATM   12  C   UNL     1      -9.108   8.794  65.385  1.00  0.00    -0.134 C  
HETATM   13  H2  UNL     1      -6.030  10.205  65.076  1.00  0.00     0.000 HD 
HETATM   14  O   UNL     1      -9.768   8.016  66.393  1.00  0.00    -0.295 OA 
HETATM   15  C   UNL     1     -10.026   9.927  64.869  1.00  0.00    -0.120 C  
HETATM   16  H1  UNL     1      -6.736   9.023  64.098  1.00  0.00     0.000 HD 
HETATM   17  H   UNL     1     -10.603   7.688  66.080  1.00  0.00     0.000 HD 
BRANCH   7  18
HETATM   18  O   UNL     1      -6.743  10.994  67.345  1.00  0.00    -0.072 OA 
BRANCH  18  19
HETATM   19  C   UNL     1      -6.557  10.921  68.770  1.00  0.00    -0.059 C  
HETATM   20  O   UNL     1      -8.775  11.979  69.062  1.00  0.00    -0.360 OA 
HETATM   21  C   UNL     1      -6.078   9.502  69.070  1.00  0.00    -0.042 C  
HETATM   22  C   UNL     1      -8.352   9.579  69.580  1.00  0.00    -0.152 C  
HETATM   23  H   UNL     1      -9.577  12.046  69.567  1.00  0.00     0.000 HD 
HETATM   24  O   UNL     1      -7.242   8.709  69.351  1.00  0.00    -0.056 OA 
HETATM   25  C   UNL     1      -7.840  11.029  69.577  1.00  0.00     0.096 C  
BRANCH  21  26
HETATM   26  C   UNL     1      -5.131   9.408  70.268  1.00  0.00    -0.027 C  
HETATM   27  H   UNL     1      -4.704  10.470  71.877  1.00  0.00     0.000 HD 
HETATM   28  O   UNL     1      -5.292  10.529  71.133  1.00  0.00    -0.092 OA 
ENDBRANCH  21  26
BRANCH  22  29
HETATM   29  O   UNL     1      -8.950   9.311  70.845  1.00  0.00    -0.235 OA 
BRANCH  29  30
HETATM   30  C   UNL     1     -10.264   8.719  70.871  1.00  0.00    -0.226 C  
HETATM   31  C   UNL     1     -11.324   9.787  71.205  1.00  0.00    -0.375 C  
HETATM   32  O   UNL     1     -11.120  10.959  70.404  1.00  0.00    -0.464 OA 
HETATM   33  C   UNL     1     -12.735   9.238  70.966  1.00  0.00    -0.165 C  
HETATM   34  C   UNL     1     -12.972   8.046  71.893  1.00  0.00    -0.335 C  
HETATM   35  N   UNL     1     -13.755  10.280  71.192  1.00  0.00    -0.015 NA 
HETATM   36  H   UNL     1     -11.773  11.616  70.610  1.00  0.00     0.000 HD 
HETATM   37  H1  UNL     1     -14.694   9.915  71.033  1.00  0.00     0.000 HD 
HETATM   38  H2  UNL     1     -13.575  11.110  70.628  1.00  0.00     0.000 HD 
HETATM   39  C   UNL     1     -11.912   6.947  71.702  1.00  0.00    -0.339 C  
HETATM   40  C   UNL     1     -10.425   7.462  71.768  1.00  0.00    -0.196 C  
HETATM   41  N   UNL     1     -12.159   5.882  72.696  1.00  0.00    -0.531 NA 
HETATM   42  H2  UNL     1     -13.111   5.519  72.654  1.00  0.00     0.000 HD 
HETATM   43  H1  UNL     1     -11.456   5.154  72.569  1.00  0.00     0.000 HD 
BRANCH  40  44
HETATM   44  O   UNL     1      -9.588   6.346  71.387  1.00  0.00    -0.162 OA 
BRANCH  44  45
HETATM   45  C   UNL     1      -8.943   5.658  72.469  1.00  0.00    -0.133 C  
HETATM   46  O   UNL     1      -9.624   4.458  72.814  1.00  0.00    -0.130 OA 
HETATM   47  C   UNL     1      -9.580   3.424  71.831  1.00  0.00    -0.150 C  
HETATM   48  C   UNL     1      -8.127   3.023  71.563  1.00  0.00    -0.060 C  
HETATM   49  H1  UNL     1      -5.689   6.389  71.583  1.00  0.00     0.000 HD 
HETATM   50  H2  UNL     1      -6.767   7.309  72.478  1.00  0.00     0.000 HD 
HETATM   51  O   UNL     1      -8.017   2.011  70.560  1.00  0.00    -0.042 OA 
HETATM   52  C   UNL     1      -7.322   4.256  71.130  1.00  0.00    -0.044 C  
HETATM   53  H   UNL     1      -7.116   1.762  70.395  1.00  0.00     0.000 HD 
HETATM   54  O   UNL     1      -5.939   3.896  70.972  1.00  0.00    -0.013 OA 
HETATM   55  N   UNL     1      -6.673   6.574  71.777  1.00  0.00    -0.061 NA 
HETATM   56  C   UNL     1      -7.448   5.377  72.174  1.00  0.00    -0.095 C  
HETATM   57  H   UNL     1      -5.441   4.659  70.704  1.00  0.00     0.000 HD 
BRANCH  47  58
HETATM   58  C   UNL     1     -10.400   2.246  72.374  1.00  0.00    -0.127 C  
HETATM   59  O   UNL     1     -11.418   2.718  73.262  1.00  0.00    -0.126 OA 
HETATM   60  H   UNL     1     -11.926   1.989  73.598  1.00  0.00     0.000 HD 
ENDBRANCH  47  58
ENDBRANCH  44  45
ENDBRANCH  40  44
ENDBRANCH  29  30
ENDBRANCH  22  29
ENDBRANCH  18  19
ENDBRANCH   7  18
ENDBRANCH   2   5
TORSDOF 9
ENDMDL
MODEL      204
REMARK 921   NORMALIZED FREE ENERGY PREDICTED BY IDOCK:   -4.09 KCAL/MOL
REMARK 922        TOTAL FREE ENERGY PREDICTED BY IDOCK:   -8.29 KCAL/MOL
REMARK 923 INTER-LIGAND FREE ENERGY PREDICTED BY IDOCK:   -9.48 KCAL/MOL
REMARK 924 INTRA-LIGAND FREE ENERGY PREDICTED BY IDOCK:    1.19 KCAL/MOL
REMARK 927      BINDING AFFINITY PREDICTED BY RF-SCORE:    0.00 PKD
ROOT
HETATM    1  N   UNL     1     -10.651  19.921  68.088  1.00  0.00    -0.342 NA 
HETATM    2  C   UNL     1     -10.455  19.909  66.624  1.00  0.00    -0.460 C  
HETATM    3  H1  UNL     1     -11.478  20.471  68.322  1.00  0.00     0.000 HD 
HETATM    4  H2  UNL     1      -9.821  20.247  68.583  1.00  0.00     0.000 HD 
ENDROOT
BRANCH   2   5
HETATM    5  C   UNL     1      -9.208  19.079  66.271  1.00  0.00    -0.292 C  
HETATM    6  O   UNL     1      -9.157  17.977  67.196  1.00  0.00    -0.248 OA 
HETATM    7  C   UNL     1      -8.156  17.026  66.841  1.00  0.00    -0.219 C  
HETATM    8  C   UNL     1      -6.757  17.687  67.009  1.00  0.00    -0.171 C  
HETATM    9  O   UNL     1      -7.814  20.554  67.611  1.00  0.00    -0.299 OA 
HETATM   10  H   UNL     1      -7.007  21.053  67.655  1.00  0.00     0.000 HD 
HETATM   11  N   UNL     1      -6.502  18.033  68.439  1.00  0.00    -0.198 NA 
HETATM   12  C   UNL     1      -6.686  18.951  66.122  1.00  0.00    -0.227 C  
HETATM   13  H2  UNL     1      -6.612  17.223  69.049  1.00  0.00     0.000 HD 
HETATM   14  O   UNL     1      -6.550  18.604  64.738  1.00  0.00    -0.472 OA 
HETATM   15  C   UNL     1      -7.897  19.890  66.343  1.00  0.00    -0.316 C  
HETATM   16  H1  UNL     1      -5.585  18.467  68.549  1.00  0.00     0.000 HD 
HETATM   17  H   UNL     1      -6.506  19.381  64.193  1.00  0.00     0.000 HD 
BRANCH   7  18
HETATM   18  O   UNL     1      -8.220  15.871  67.683  1.00  0.00    -0.143 OA 
BRANCH  18  19
HETATM   19  C   UNL     1      -8.040  14.627  66.983  1.00  0.00    -0.120 C  
HETATM   20  O   UNL     1      -5.886  14.332  68.168  1.00  0.00    -0.109 OA 
HETATM   21  C   UNL     1      -9.360  13.869  67.106  1.00  0.00    -0.243 C  
HETATM   22  C   UNL     1      -7.901  12.957  68.678  1.00  0.00    -0.044 C  
HETATM   23  H   UNL     1      -5.262  13.742  68.573  1.00  0.00     0.000 HD 
HETATM   24  O   UNL     1      -9.268  13.034  68.270  1.00  0.00    -0.207 OA 
HETATM   25  C   UNL     1      -7.041  13.682  67.631  1.00  0.00    -0.170 C  
BRANCH  21  26
HETATM   26  C   UNL     1      -9.678  12.981  65.901  1.00  0.00    -0.178 C  
HETATM   27  H   UNL     1     -10.648  13.140  64.188  1.00  0.00     0.000 HD 
HETATM   28  O   UNL     1     -10.451  13.691  64.936  1.00  0.00    -0.368 OA 
ENDBRANCH  21  26
BRANCH  22  29
HETATM   29  O   UNL     1      -7.473  11.600  68.757  1.00  0.00    -0.112 OA 
BRANCH  29  30
HETATM   30  C   UNL     1      -7.452  10.815  67.549  1.00  0.00    -0.093 C  
HETATM   31  C   UNL     1      -6.456  11.417  66.538  1.00  0.00    -0.081 C  
HETATM   32  O   UNL     1      -5.209  11.710  67.183  1.00  0.00    -0.071 OA 
HETATM   33  C   UNL     1      -6.221  10.448  65.374  1.00  0.00    -0.127 C  
HETATM   34  C   UNL     1      -7.541  10.218  64.639  1.00  0.00    -0.103 C  
HETATM   35  N   UNL     1      -5.198  10.971  64.448  1.00  0.00    -0.484 NA 
HETATM   36  H   UNL     1      -4.595  12.080  66.560  1.00  0.00     0.000 HD 
HETATM   37  H1  UNL     1      -5.041  10.328  63.673  1.00  0.00     0.000 HD 
HETATM   38  H2  UNL     1      -4.329  11.192  64.934  1.00  0.00     0.000 HD 
HETATM   39  C   UNL     1      -8.640   9.693  65.580  1.00  0.00    -0.147 C  
HETATM   40  C   UNL     1      -8.832  10.545  66.890  1.00  0.00    -0.137 C  
HETATM   41  N   UNL     1      -9.900   9.589  64.814  1.00  0.00    -0.361 NA 
HETATM   42  H2  UNL     1      -9.801   9.022  63.972  1.00  0.00     0.000 HD 
HETATM   43  H1  UNL     1     -10.628   9.241  65.438  1.00  0.00     0.000 HD 
BRANCH  40  44
HETATM   44  O   UNL     1      -9.758   9.810  67.724  1.00  0.00    -0.138 OA 
BRANCH  44  45
HETATM   45  C   UNL     1      -9.281   9.480  69.037  1.00  0.00    -0.155 C  
HETATM   46  O   UNL     1      -9.978  10.197  70.049  1.00  0.00    -0.240 OA 
HETATM   47  C   UNL     1     -11.351   9.845  70.213  1.00  0.00    -0.291 C  
HETATM   48  C   UNL     1     -11.468   8.365  70.587  1.00  0.00    -0.219 C  
HETATM   49  H1  UNL     1      -8.680   6.131  68.463  1.00  0.00     0.000 HD 
HETATM   50  H2  UNL     1      -7.685   7.445  68.157  1.00  0.00     0.000 HD 
HETATM   51  O   UNL     1     -12.826   7.946  70.733  1.00  0.00    -0.512 OA 
HETATM   52  C   UNL     1     -10.784   7.506  69.515  1.00  0.00    -0.217 C  
HETATM   53  H   UNL     1     -12.898   7.028  70.966  1.00  0.00     0.000 HD 
HETATM   54  O   UNL     1     -10.811   6.125  69.916  1.00  0.00    -0.282 OA 
HETATM   55  N   UNL     1      -8.649   7.135  68.283  1.00  0.00    -0.123 NA 
HETATM   56  C   UNL     1      -9.328   7.956  69.311  1.00  0.00    -0.148 C  
HETATM   57  H   UNL     1     -10.387   5.593  69.253  1.00  0.00     0.000 HD 
BRANCH  47  58
HETATM   58  C   UNL     1     -11.923  10.752  71.311  1.00  0.00    -0.186 C  
HETATM   59  O   UNL     1     -11.942  12.113  70.871  1.00  0.00    -0.429 OA 
HETATM   60  H   UNL     1     -12.296  12.674  71.550  1.00  0.00     0.000 HD 
ENDBRANCH  47  58
ENDBRANCH  44  45
ENDBRANCH  40  44
ENDBRANCH  29  30
ENDBRANCH  22  29
ENDBRANCH  18  19
ENDBRANCH   7  18
ENDBRANCH   2   5
TORSDOF 9
ENDMDL
MODEL      205
REMARK 921   NORMALIZED FREE ENERGY PREDICTED BY IDOCK:   -4.04 KCAL/MOL
REMARK 922        TOTAL FREE ENERGY PREDICTED BY IDOCK:   -8.21 KCAL/MOL
REMARK 923 INTER-LIGAND FREE ENERGY PREDICTED BY IDOCK:   -6.73 KCAL/MOL
REMARK 924 INTRA-LIGAND FREE ENERGY PREDICTED BY IDOCK:   -1.48 KCAL/MOL
REMARK 927      BINDING AFFINITY PREDICTED BY RF-SCORE:    0.00 PKD
ROOT
HETATM    1  N   UNL     1     -12.405  14.696  68.403  1.00  0.00    -0.606 NA 
HETATM    2  C   UNL     1     -11.051  14.566  68.980  1.00  0.00    -0.262 C  
HETATM    3  H1  UNL     1     -12.924  15.422  68.898  1.00  0.00     0.000 HD 
HETATM    4  H2  UNL     1     -12.904  13.806  68.394  1.00  0.00     0.000 HD 
ENDROOT
BRANCH   2   5
HETATM    5  C   UNL     1     -10.269  13.472  68.235  1.00  0.00    -0.250 C  
HETATM    6  O   UNL     1     -10.473  12.241  68.952  1.00  0.00    -0.195 OA 
HETATM    7  C   UNL     1      -9.961  11.115  68.243  1.00  0.00    -0.187 C  
HETATM    8  C   UNL     1      -8.410  11.228  68.182  1.00  0.00    -0.143 C  
HETATM    9  O   UNL     1      -8.235  14.081  69.421  1.00  0.00    -0.329 OA 
HETATM   10  H   UNL     1      -7.306  14.266  69.351  1.00  0.00     0.000 HD 
HETATM   11  N   UNL     1      -7.817  11.153  69.550  1.00  0.00    -0.375 NA 
HETATM   12  C   UNL     1      -8.027  12.560  67.496  1.00  0.00    -0.175 C  
HETATM   13  H2  UNL     1      -8.115  10.312  70.045  1.00  0.00     0.000 HD 
HETATM   14  O   UNL     1      -8.254  12.497  66.082  1.00  0.00    -0.232 OA 
HETATM   15  C   UNL     1      -8.759  13.772  68.122  1.00  0.00    -0.183 C  
HETATM   16  H1  UNL     1      -6.801  11.227  69.510  1.00  0.00     0.000 HD 
HETATM   17  H   UNL     1      -8.019  13.315  65.661  1.00  0.00     0.000 HD 
BRANCH   7  18
HETATM   18  O   UNL     1     -10.304   9.892  68.900  1.00  0.00    -0.187 OA 
BRANCH  18  19
HETATM   19  C   UNL     1      -9.558   8.751  68.438  1.00  0.00    -0.147 C  
HETATM   20  O   UNL     1     -10.046   7.627  70.588  1.00  0.00    -0.187 OA 
HETATM   21  C   UNL     1     -10.051   8.458  67.022  1.00  0.00    -0.284 C  
HETATM   22  C   UNL     1     -11.103   6.936  68.440  1.00  0.00    -0.068 C  
HETATM   23  H   UNL     1     -10.236   6.820  71.052  1.00  0.00     0.000 HD 
HETATM   24  O   UNL     1     -11.120   7.506  67.130  1.00  0.00    -0.216 OA 
HETATM   25  C   UNL     1      -9.862   7.461  69.180  1.00  0.00    -0.168 C  
BRANCH  21  26
HETATM   26  C   UNL     1      -8.978   7.876  66.100  1.00  0.00    -0.175 C  
HETATM   27  H   UNL     1      -7.978   8.435  64.492  1.00  0.00     0.000 HD 
HETATM   28  O   UNL     1      -8.644   8.796  65.064  1.00  0.00    -0.175 OA 
ENDBRANCH  21  26
BRANCH  22  29
HETATM   29  O   UNL     1     -11.025   5.515  68.372  1.00  0.00    -0.102 OA 
BRANCH  29  30
HETATM   30  C   UNL     1      -9.858   4.919  67.774  1.00  0.00    -0.147 C  
HETATM   31  C   UNL     1     -10.226   4.244  66.439  1.00  0.00    -0.065 C  
HETATM   32  O   UNL     1     -11.025   5.126  65.639  1.00  0.00    -0.699 OA 
HETATM   33  C   UNL     1      -8.961   3.852  65.667  1.00  0.00    -0.133 C  
HETATM   34  C   UNL     1      -8.164   2.840  66.491  1.00  0.00    -0.085 C  
HETATM   35  N   UNL     1      -9.298   3.291  64.344  1.00  0.00    -0.133 NA 
HETATM   36  H   UNL     1     -11.252   4.710  64.816  1.00  0.00     0.000 HD 
HETATM   37  H1  UNL     1      -8.457   3.030  63.831  1.00  0.00     0.000 HD 
HETATM   38  H2  UNL     1      -9.885   3.927  63.805  1.00  0.00     0.000 HD 
HETATM   39  C   UNL     1      -7.814   3.383  67.887  1.00  0.00    -0.072 C  
HETATM   40  C   UNL     1      -9.042   3.961  68.685  1.00  0.00    -0.138 C  
HETATM   41  N   UNL     1      -7.132   2.314  68.647  1.00  0.00    -0.043 NA 
HETATM   42  H2  UNL     1      -6.320   1.941  68.156  1.00  0.00     0.000 HD 
HETATM   43  H1  UNL     1      -6.900   2.674  69.572  1.00  0.00     0.000 HD 
BRANCH  40  44
HETATM   44  O   UNL     1      -8.502   4.585  69.873  1.00  0.00    -0.066 OA 
BRANCH  44  45
HETATM   45  C   UNL     1      -7.073   4.542  70.001  1.00  0.00    -0.049 C  
HETATM   46  O   UNL     1      -6.430   5.363  69.032  1.00  0.00    -0.039 OA 
HETATM   47  C   UNL     1      -6.629   6.767  69.192  1.00  0.00    -0.048 C  
HETATM   48  C   UNL     1      -6.089   7.217  70.552  1.00  0.00    -0.031 C  
HETATM   49  H1  UNL     1      -6.939   4.355  73.443  1.00  0.00     0.000 HD 
HETATM   50  H2  UNL     1      -7.129   3.116  72.330  1.00  0.00     0.000 HD 
HETATM   51  O   UNL     1      -6.290   8.613  70.782  1.00  0.00    -0.036 OA 
HETATM   52  C   UNL     1      -6.771   6.416  71.669  1.00  0.00    -0.063 C  
HETATM   53  H   UNL     1      -5.955   8.892  71.626  1.00  0.00     0.000 HD 
HETATM   54  O   UNL     1      -6.195   6.772  72.937  1.00  0.00    -0.056 OA 
HETATM   55  N   UNL     1      -7.249   4.115  72.502  1.00  0.00    -0.064 NA 
HETATM   56  C   UNL     1      -6.602   4.907  71.431  1.00  0.00    -0.038 C  
HETATM   57  H   UNL     1      -6.617   6.276  73.629  1.00  0.00     0.000 HD 
BRANCH  47  58
HETATM   58  C   UNL     1      -5.896   7.462  68.035  1.00  0.00    -0.031 C  
HETATM   59  O   UNL     1      -6.127   8.873  68.079  1.00  0.00    -0.049 OA 
HETATM   60  H   UNL     1      -5.674   9.303  67.364  1.00  0.00     0.000 HD 
ENDBRANCH  47  58
ENDBRANCH  44  45
ENDBRANCH  40  44
ENDBRANCH  29  30
ENDBRANCH  22  29
ENDBRANCH  18  19
ENDBRANCH   7  18
ENDBRANCH   2   5
TORSDOF 9
ENDMDL
MODEL      206
REMARK 921   NORMALIZED FREE ENERGY PREDICTED BY IDOCK:   -3.99 KCAL/MOL
REMARK 922        TOTAL FREE ENERGY PREDICTED BY IDOCK:   -8.14 KCAL/MOL
REMARK 923 INTER-LIGAND FREE ENERGY PREDICTED BY IDOCK:   -8.08 KCAL/MOL
REMARK 924 INTRA-LIGAND FREE ENERGY PREDICTED BY IDOCK:   -0.05 KCAL/MOL
REMARK 927      BINDING AFFINITY PREDICTED BY RF-SCORE:    0.00 PKD
ROOT
HETATM    1  N   UNL     1      -8.758   8.021  71.151  1.00  0.00    -0.127 NA 
HETATM    2  C   UNL     1      -9.795   6.981  71.312  1.00  0.00    -0.175 C  
HETATM    3  H1  UNL     1      -7.847   7.645  71.413  1.00  0.00     0.000 HD 
HETATM    4  H2  UNL     1      -8.986   8.871  71.668  1.00  0.00     0.000 HD 
ENDROOT
BRANCH   2   5
HETATM    5  C   UNL     1     -11.169   7.547  70.916  1.00  0.00    -0.269 C  
HETATM    6  O   UNL     1     -10.992   8.954  70.666  1.00  0.00    -0.224 OA 
HETATM    7  C   UNL     1     -12.156   9.548  70.096  1.00  0.00     0.174 C  
HETATM    8  C   UNL     1     -13.297   9.525  71.155  1.00  0.00    -0.247 C  
HETATM    9  O   UNL     1     -11.762   7.816  73.259  1.00  0.00    -0.659 OA 
HETATM   10  H   UNL     1     -12.427   7.686  73.925  1.00  0.00     0.000 HD 
HETATM   11  N   UNL     1     -12.943  10.368  72.335  1.00  0.00    -0.395 NA 
HETATM   12  C   UNL     1     -13.553   8.063  71.589  1.00  0.00    -0.344 C  
HETATM   13  H2  UNL     1     -12.704  11.321  72.059  1.00  0.00     0.000 HD 
HETATM   14  O   UNL     1     -14.247   7.335  70.567  1.00  0.00    -0.019 OA 
HETATM   15  C   UNL     1     -12.249   7.337  71.998  1.00  0.00    -0.277 C  
HETATM   16  H1  UNL     1     -13.691  10.353  73.028  1.00  0.00     0.000 HD 
HETATM   17  H   UNL     1     -14.405   6.437  70.834  1.00  0.00     0.000 HD 
BRANCH   7  18
HETATM   18  O   UNL     1     -11.910  10.905  69.719  1.00  0.00    -0.288 OA 
BRANCH  18  19
HETATM   19  C   UNL     1     -11.706  11.092  68.307  1.00  0.00    -0.252 C  
HETATM   20  O   UNL     1     -12.130  13.511  68.618  1.00  0.00    -0.352 OA 
HETATM   21  C   UNL     1     -10.425  10.339  67.954  1.00  0.00    -0.212 C  
HETATM   22  C   UNL     1      -9.866  12.596  68.122  1.00  0.00    -0.226 C  
HETATM   23  H   UNL     1     -11.930  14.405  68.365  1.00  0.00     0.000 HD 
HETATM   24  O   UNL     1      -9.337  11.270  68.064  1.00  0.00    -0.156 OA 
HETATM   25  C   UNL     1     -11.386  12.522  67.903  1.00  0.00    -0.291 C  
BRANCH  21  26
HETATM   26  C   UNL     1     -10.418   9.757  66.539  1.00  0.00    -0.142 C  
HETATM   27  H   UNL     1     -10.145  10.409  64.695  1.00  0.00     0.000 HD 
HETATM   28  O   UNL     1     -10.149  10.770  65.573  1.00  0.00    -0.248 OA 
ENDBRANCH  21  26
BRANCH  22  29
HETATM   29  O   UNL     1      -9.298  13.411  67.102  1.00  0.00    -0.222 OA 
BRANCH  29  30
HETATM   30  C   UNL     1      -8.141  14.208  67.423  1.00  0.00    -0.189 C  
HETATM   31  C   UNL     1      -7.324  13.536  68.544  1.00  0.00    -0.114 C  
HETATM   32  O   UNL     1      -7.134  12.143  68.256  1.00  0.00    -0.072 OA 
HETATM   33  C   UNL     1      -5.962  14.220  68.702  1.00  0.00    -0.085 C  
HETATM   34  C   UNL     1      -6.178  15.680  69.100  1.00  0.00    -0.119 C  
HETATM   35  N   UNL     1      -5.132  13.527  69.706  1.00  0.00    -0.085 NA 
HETATM   36  H   UNL     1      -6.631  11.730  68.946  1.00  0.00     0.000 HD 
HETATM   37  H1  UNL     1      -4.226  13.982  69.812  1.00  0.00     0.000 HD 
HETATM   38  H2  UNL     1      -5.032  12.535  69.491  1.00  0.00     0.000 HD 
HETATM   39  C   UNL     1      -7.058  16.430  68.086  1.00  0.00    -0.140 C  
HETATM   40  C   UNL     1      -8.413  15.703  67.741  1.00  0.00    -0.151 C  
HETATM   41  N   UNL     1      -7.294  17.798  68.593  1.00  0.00    -0.262 NA 
HETATM   42  H2  UNL     1      -6.427  18.294  68.801  1.00  0.00     0.000 HD 
HETATM   43  H1  UNL     1      -7.878  18.295  67.920  1.00  0.00     0.000 HD 
BRANCH  40  44
HETATM   44  O   UNL     1      -9.010  16.445  66.653  1.00  0.00    -0.217 OA 
BRANCH  44  45
HETATM   45  C   UNL     1     -10.405  16.748  66.802  1.00  0.00    -0.293 C  
HETATM   46  O   UNL     1     -10.904  16.336  68.069  1.00  0.00    -0.321 OA 
HETATM   47  C   UNL     1     -10.396  17.057  69.191  1.00  0.00    -0.313 C  
HETATM   48  C   UNL     1     -10.750  18.540  69.059  1.00  0.00     0.616 C  
HETATM   49  H1  UNL     1     -10.392  19.749  65.099  1.00  0.00     0.000 HD 
HETATM   50  H2  UNL     1     -10.537  18.195  64.488  1.00  0.00     0.000 HD 
HETATM   51  O   UNL     1     -10.237  19.321  70.141  1.00  0.00    -0.094 OA 
HETATM   52  C   UNL     1     -10.201  19.087  67.735  1.00  0.00    -0.402 C  
HETATM   53  H   UNL     1     -10.458  20.241  70.060  1.00  0.00     0.000 HD 
HETATM   54  O   UNL     1     -10.616  20.454  67.570  1.00  0.00    -0.181 OA 
HETATM   55  N   UNL     1     -10.193  18.762  65.263  1.00  0.00     0.038 NA 
HETATM   56  C   UNL     1     -10.708  18.247  66.552  1.00  0.00    -0.170 C  
HETATM   57  H   UNL     1     -10.276  20.793  66.750  1.00  0.00     0.000 HD 
BRANCH  47  58
HETATM   58  C   UNL     1     -11.019  16.437  70.449  1.00  0.00    -0.207 C  
HETATM   59  O   UNL     1     -12.256  15.795  70.124  1.00  0.00    -0.374 OA 
HETATM   60  H   UNL     1     -12.642  15.411  70.902  1.00  0.00     0.000 HD 
ENDBRANCH  47  58
ENDBRANCH  44  45
ENDBRANCH  40  44
ENDBRANCH  29  30
ENDBRANCH  22  29
ENDBRANCH  18  19
ENDBRANCH   7  18
ENDBRANCH   2   5
TORSDOF 9
ENDMDL
MODEL      207
REMARK 921   NORMALIZED FREE ENERGY PREDICTED BY IDOCK:   -3.96 KCAL/MOL
REMARK 922        TOTAL FREE ENERGY PREDICTED BY IDOCK:   -8.09 KCAL/MOL
REMARK 923 INTER-LIGAND FREE ENERGY PREDICTED BY IDOCK:   -6.34 KCAL/MOL
REMARK 924 INTRA-LIGAND FREE ENERGY PREDICTED BY IDOCK:   -1.76 KCAL/MOL
REMARK 927      BINDING AFFINITY PREDICTED BY RF-SCORE:    0.00 PKD
ROOT
HETATM    1  N   UNL     1      -6.278  13.752  70.400  1.00  0.00    -0.348 NA 
HETATM    2  C   UNL     1      -6.387  13.289  69.002  1.00  0.00    -0.098 C  
HETATM    3  H1  UNL     1      -5.297  13.876  70.649  1.00  0.00     0.000 HD 
HETATM    4  H2  UNL     1      -6.763  13.130  71.048  1.00  0.00     0.000 HD 
ENDROOT
BRANCH   2   5
HETATM    5  C   UNL     1      -7.867  13.102  68.627  1.00  0.00    -0.056 C  
HETATM    6  O   UNL     1      -7.900  12.410  67.365  1.00  0.00    -0.155 OA 
HETATM    7  C   UNL     1      -9.220  12.001  67.012  1.00  0.00    -0.195 C  
HETATM    8  C   UNL     1     -10.077  13.270  66.735  1.00  0.00    -0.258 C  
HETATM    9  O   UNL     1      -7.930  15.330  67.655  1.00  0.00    -0.136 OA 
HETATM   10  H   UNL     1      -8.406  16.149  67.588  1.00  0.00     0.000 HD 
HETATM   11  N   UNL     1      -9.553  14.018  65.555  1.00  0.00    -0.536 NA 
HETATM   12  C   UNL     1     -10.073  14.168  67.994  1.00  0.00    -0.233 C  
HETATM   13  H2  UNL     1      -9.484  13.422  64.730  1.00  0.00     0.000 HD 
HETATM   14  O   UNL     1     -10.903  13.616  69.025  1.00  0.00    -0.277 OA 
HETATM   15  C   UNL     1      -8.641  14.433  68.518  1.00  0.00    -0.175 C  
HETATM   16  H1  UNL     1     -10.115  14.850  65.373  1.00  0.00     0.000 HD 
HETATM   17  H   UNL     1     -10.900  14.168  69.798  1.00  0.00     0.000 HD 
BRANCH   7  18
HETATM   18  O   UNL     1      -9.211  11.189  65.835  1.00  0.00    -0.195 OA 
BRANCH  18  19
HETATM   19  C   UNL     1      -7.915  10.663  65.497  1.00  0.00    -0.116 C  
HETATM   20  O   UNL     1      -7.913   9.432  67.645  1.00  0.00    -0.099 OA 
HETATM   21  C   UNL     1      -8.016  10.162  64.058  1.00  0.00    -0.154 C  
HETATM   22  C   UNL     1      -8.183   8.295  65.444  1.00  0.00    -0.145 C  
HETATM   23  H   UNL     1      -7.668   8.651  68.127  1.00  0.00     0.000 HD 
HETATM   24  O   UNL     1      -8.380   8.774  64.112  1.00  0.00    -0.170 OA 
HETATM   25  C   UNL     1      -7.525   9.413  66.269  1.00  0.00    -0.096 C  
BRANCH  21  26
HETATM   26  C   UNL     1      -6.713  10.287  63.266  1.00  0.00    -0.105 C  
HETATM   27  H   UNL     1      -5.386   9.079  62.442  1.00  0.00     0.000 HD 
HETATM   28  O   UNL     1      -6.194   9.001  62.934  1.00  0.00    -0.090 OA 
ENDBRANCH  21  26
BRANCH  22  29
HETATM   29  O   UNL     1      -7.324   7.159  65.450  1.00  0.00    -0.073 OA 
BRANCH  29  30
HETATM   30  C   UNL     1      -7.919   5.848  65.407  1.00  0.00    -0.120 C  
HETATM   31  C   UNL     1      -8.891   5.740  64.216  1.00  0.00     0.285 C  
HETATM   32  O   UNL     1      -8.276   6.249  63.024  1.00  0.00    -0.228 OA 
HETATM   33  C   UNL     1      -9.314   4.283  63.997  1.00  0.00    -0.141 C  
HETATM   34  C   UNL     1     -10.051   3.783  65.240  1.00  0.00    -0.059 C  
HETATM   35  N   UNL     1     -10.170   4.154  62.801  1.00  0.00    -0.319 NA 
HETATM   36  H   UNL     1      -8.874   6.182  62.290  1.00  0.00     0.000 HD 
HETATM   37  H1  UNL     1     -10.452   3.185  62.655  1.00  0.00     0.000 HD 
HETATM   38  H2  UNL     1      -9.719   4.543  61.973  1.00  0.00     0.000 HD 
HETATM   39  C   UNL     1      -9.196   3.924  66.511  1.00  0.00    -0.166 C  
HETATM   40  C   UNL     1      -8.582   5.359  66.724  1.00  0.00    -0.110 C  
HETATM   41  N   UNL     1     -10.013   3.510  67.671  1.00  0.00    -0.099 NA 
HETATM   42  H2  UNL     1     -10.402   2.573  67.562  1.00  0.00     0.000 HD 
HETATM   43  H1  UNL     1      -9.446   3.604  68.514  1.00  0.00     0.000 HD 
BRANCH  40  44
HETATM   44  O   UNL     1      -7.675   5.254  67.845  1.00  0.00    -0.086 OA 
BRANCH  44  45
HETATM   45  C   UNL     1      -7.604   6.409  68.694  1.00  0.00    -0.093 C  
HETATM   46  O   UNL     1      -8.893   6.944  68.970  1.00  0.00    -0.131 OA 
HETATM   47  C   UNL     1      -9.736   6.122  69.777  1.00  0.00    -0.157 C  
HETATM   48  C   UNL     1      -9.080   5.881  71.138  1.00  0.00    -0.143 C  
HETATM   49  H1  UNL     1      -4.984   5.344  70.672  1.00  0.00     0.000 HD 
HETATM   50  H2  UNL     1      -4.932   6.121  69.188  1.00  0.00     0.000 HD 
HETATM   51  O   UNL     1      -9.866   5.034  71.980  1.00  0.00    -0.162 OA 
HETATM   52  C   UNL     1      -7.694   5.251  70.939  1.00  0.00    -0.093 C  
HETATM   53  H   UNL     1      -9.458   4.885  72.825  1.00  0.00     0.000 HD 
HETATM   54  O   UNL     1      -7.041   5.113  72.212  1.00  0.00    -0.078 OA 
HETATM   55  N   UNL     1      -5.491   5.533  69.808  1.00  0.00    -0.004 NA 
HETATM   56  C   UNL     1      -6.835   6.121  70.009  1.00  0.00    -0.057 C  
HETATM   57  H   UNL     1      -6.183   4.723  72.089  1.00  0.00     0.000 HD 
BRANCH  47  58
HETATM   58  C   UNL     1     -11.079   6.853  69.919  1.00  0.00    -0.288 C  
HETATM   59  O   UNL     1     -10.922   8.242  69.617  1.00  0.00    -0.379 OA 
HETATM   60  H   UNL     1     -11.752   8.695  69.705  1.00  0.00     0.000 HD 
ENDBRANCH  47  58
ENDBRANCH  44  45
ENDBRANCH  40  44
ENDBRANCH  29  30
ENDBRANCH  22  29
ENDBRANCH  18  19
ENDBRANCH   7  18
ENDBRANCH   2   5
TORSDOF 9
ENDMDL
MODEL      208
REMARK 921   NORMALIZED FREE ENERGY PREDICTED BY IDOCK:   -3.92 KCAL/MOL
REMARK 922        TOTAL FREE ENERGY PREDICTED BY IDOCK:   -8.03 KCAL/MOL
REMARK 923 INTER-LIGAND FREE ENERGY PREDICTED BY IDOCK:   -7.15 KCAL/MOL
REMARK 924 INTRA-LIGAND FREE ENERGY PREDICTED BY IDOCK:   -0.88 KCAL/MOL
REMARK 927      BINDING AFFINITY PREDICTED BY RF-SCORE:    0.00 PKD
ROOT
HETATM    1  N   UNL     1     -12.071  11.284  62.814  1.00  0.00    -0.454 NA 
HETATM    2  C   UNL     1     -12.530  11.759  64.135  1.00  0.00    -0.149 C  
HETATM    3  H1  UNL     1     -12.859  10.904  62.290  1.00  0.00     0.000 HD 
HETATM    4  H2  UNL     1     -11.305  10.615  62.893  1.00  0.00     0.000 HD 
ENDROOT
BRANCH   2   5
HETATM    5  C   UNL     1     -11.341  12.332  64.926  1.00  0.00    -0.325 C  
HETATM    6  O   UNL     1     -10.838  11.273  65.761  1.00  0.00    -0.261 OA 
HETATM    7  C   UNL     1      -9.609  11.626  66.392  1.00  0.00    -0.217 C  
HETATM    8  C   UNL     1      -9.882  12.771  67.410  1.00  0.00    -0.210 C  
HETATM    9  O   UNL     1     -12.855  13.231  66.603  1.00  0.00    -0.021 OA 
HETATM   10  H   UNL     1     -13.086  13.983  67.136  1.00  0.00     0.000 HD 
HETATM   11  N   UNL     1     -10.785  12.304  68.505  1.00  0.00    -0.231 NA 
HETATM   12  C   UNL     1     -10.509  13.971  66.664  1.00  0.00    -0.272 C  
HETATM   13  H2  UNL     1     -10.420  11.470  68.964  1.00  0.00     0.000 HD 
HETATM   14  O   UNL     1      -9.525  14.663  65.882  1.00  0.00    -0.436 OA 
HETATM   15  C   UNL     1     -11.717  13.553  65.792  1.00  0.00    -0.345 C  
HETATM   16  H1  UNL     1     -10.964  13.055  69.172  1.00  0.00     0.000 HD 
HETATM   17  H   UNL     1      -9.910  15.400  65.423  1.00  0.00     0.000 HD 
BRANCH   7  18
HETATM   18  O   UNL     1      -9.052  10.512  67.096  1.00  0.00    -0.143 OA 
BRANCH  18  19
HETATM   19  C   UNL     1      -8.102   9.751  66.329  1.00  0.00    -0.113 C  
HETATM   20  O   UNL     1      -6.519   9.914  68.225  1.00  0.00    -0.054 OA 
HETATM   21  C   UNL     1      -8.864   8.555  65.763  1.00  0.00    -0.190 C  
HETATM   22  C   UNL     1      -7.669   7.790  67.613  1.00  0.00    -0.121 C  
HETATM   23  H   UNL     1      -5.834   9.507  68.742  1.00  0.00     0.000 HD 
HETATM   24  O   UNL     1      -8.721   7.475  66.698  1.00  0.00    -0.126 OA 
HETATM   25  C   UNL     1      -7.006   9.100  67.156  1.00  0.00    -0.081 C  
BRANCH  21  26
HETATM   26  C   UNL     1      -8.353   8.083  64.401  1.00  0.00    -0.017 C  
HETATM   27  H   UNL     1      -7.532   6.459  63.634  1.00  0.00     0.000 HD 
HETATM   28  O   UNL     1      -7.849   6.752  64.479  1.00  0.00    -0.108 OA 
ENDBRANCH  21  26
BRANCH  22  29
HETATM   29  O   UNL     1      -6.685   6.761  67.625  1.00  0.00    -0.065 OA 
BRANCH  29  30
HETATM   30  C   UNL     1      -7.047   5.470  68.152  1.00  0.00    -0.067 C  
HETATM   31  C   UNL     1      -7.386   4.499  67.004  1.00  0.00    -0.080 C  
HETATM   32  O   UNL     1      -6.377   4.561  65.986  1.00  0.00    -0.034 OA 
HETATM   33  C   UNL     1      -7.502   3.064  67.529  1.00  0.00    -0.061 C  
HETATM   34  C   UNL     1      -8.642   2.993  68.545  1.00  0.00    -0.118 C  
HETATM   35  N   UNL     1      -7.733   2.112  66.425  1.00  0.00    -0.070 NA 
HETATM   36  H   UNL     1      -6.586   3.963  65.279  1.00  0.00     0.000 HD 
HETATM   37  H1  UNL     1      -7.810   1.157  66.774  1.00  0.00     0.000 HD 
HETATM   38  H2  UNL     1      -7.015   2.191  65.705  1.00  0.00     0.000 HD 
HETATM   39  C   UNL     1      -8.447   3.990  69.701  1.00  0.00    -0.060 C  
HETATM   40  C   UNL     1      -8.155   5.467  69.240  1.00  0.00    -0.095 C  
HETATM   41  N   UNL     1      -9.633   3.923  70.581  1.00  0.00    -0.178 NA 
HETATM   42  H2  UNL     1      -9.825   2.977  70.908  1.00  0.00     0.000 HD 
HETATM   43  H1  UNL     1      -9.503   4.584  71.346  1.00  0.00     0.000 HD 
BRANCH  40  44
HETATM   44  O   UNL     1      -7.820   6.210  70.435  1.00  0.00    -0.101 OA 
BRANCH  44  45
HETATM   45  C   UNL     1      -8.623   7.372  70.688  1.00  0.00    -0.141 C  
HETATM   46  O   UNL     1     -10.013   7.088  70.582  1.00  0.00    -0.186 OA 
HETATM   47  C   UNL     1     -10.540   6.227  71.590  1.00  0.00    -0.227 C  
HETATM   48  C   UNL     1     -10.341   6.859  72.971  1.00  0.00    -0.244 C  
HETATM   49  H1  UNL     1      -6.645   8.750  73.157  1.00  0.00     0.000 HD 
HETATM   50  H2  UNL     1      -6.505   8.899  71.493  1.00  0.00     0.000 HD 
HETATM   51  O   UNL     1     -10.822   6.024  74.026  1.00  0.00    -0.385 OA 
HETATM   52  C   UNL     1      -8.852   7.152  73.195  1.00  0.00    -0.130 C  
HETATM   53  H   UNL     1     -10.699   6.416  74.883  1.00  0.00     0.000 HD 
HETATM   54  O   UNL     1      -8.679   7.833  74.450  1.00  0.00    -0.376 OA 
HETATM   55  N   UNL     1      -6.860   8.322  72.256  1.00  0.00    -0.083 NA 
HETATM   56  C   UNL     1      -8.296   8.022  72.056  1.00  0.00    -0.139 C  
HETATM   57  H   UNL     1      -7.757   8.014  74.589  1.00  0.00     0.000 HD 
BRANCH  47  58
HETATM   58  C   UNL     1     -12.027   6.016  71.275  1.00  0.00     0.181 C  
HETATM   59  O   UNL     1     -12.410   6.802  70.143  1.00  0.00    -0.614 OA 
HETATM   60  H   UNL     1     -13.330   6.672  69.947  1.00  0.00     0.000 HD 
ENDBRANCH  47  58
ENDBRANCH  44  45
ENDBRANCH  40  44
ENDBRANCH  29  30
ENDBRANCH  22  29
ENDBRANCH  18  19
ENDBRANCH   7  18
ENDBRANCH   2   5
TORSDOF 9
ENDMDL
MODEL      209
REMARK 921   NORMALIZED FREE ENERGY PREDICTED BY IDOCK:   -3.87 KCAL/MOL
REMARK 922        TOTAL FREE ENERGY PREDICTED BY IDOCK:   -7.96 KCAL/MOL
REMARK 923 INTER-LIGAND FREE ENERGY PREDICTED BY IDOCK:   -6.39 KCAL/MOL
REMARK 924 INTRA-LIGAND FREE ENERGY PREDICTED BY IDOCK:   -1.56 KCAL/MOL
REMARK 927      BINDING AFFINITY PREDICTED BY RF-SCORE:    0.00 PKD
ROOT
HETATM    1  N   UNL     1      -8.498   3.335  71.481  1.00  0.00    -0.064 NA 
HETATM    2  C   UNL     1      -8.697   4.194  72.665  1.00  0.00    -0.104 C  
HETATM    3  H1  UNL     1      -7.942   2.518  71.735  1.00  0.00     0.000 HD 
HETATM    4  H2  UNL     1      -8.090   3.848  70.699  1.00  0.00     0.000 HD 
ENDROOT
BRANCH   2   5
HETATM    5  C   UNL     1      -9.536   5.425  72.282  1.00  0.00    -0.155 C  
HETATM    6  O   UNL     1      -8.684   6.298  71.518  1.00  0.00    -0.134 OA 
HETATM    7  C   UNL     1      -9.408   7.379  70.936  1.00  0.00    -0.155 C  
HETATM    8  C   UNL     1      -9.922   8.306  72.075  1.00  0.00    -0.257 C  
HETATM    9  O   UNL     1      -9.044   6.462  74.426  1.00  0.00    -0.150 OA 
HETATM   10  H   UNL     1      -9.394   6.926  75.178  1.00  0.00     0.000 HD 
HETATM   11  N   UNL     1      -8.781   8.928  72.810  1.00  0.00    -0.244 NA 
HETATM   12  C   UNL     1     -10.804   7.480  73.040  1.00  0.00    -0.392 C  
HETATM   13  H2  UNL     1      -8.149   9.421  72.179  1.00  0.00     0.000 HD 
HETATM   14  O   UNL     1     -12.082   7.195  72.454  1.00  0.00    -0.457 OA 
HETATM   15  C   UNL     1     -10.104   6.180  73.503  1.00  0.00    -0.210 C  
HETATM   16  H1  UNL     1      -9.118   9.535  73.557  1.00  0.00     0.000 HD 
HETATM   17  H   UNL     1     -12.624   6.687  73.047  1.00  0.00     0.000 HD 
BRANCH   7  18
HETATM   18  O   UNL     1      -8.575   8.148  70.063  1.00  0.00    -0.126 OA 
BRANCH  18  19
HETATM   19  C   UNL     1      -9.201   8.501  68.817  1.00  0.00    -0.142 C  
HETATM   20  O   UNL     1     -10.270  10.420  69.959  1.00  0.00    -0.407 OA 
HETATM   21  C   UNL     1      -8.105   8.454  67.755  1.00  0.00    -0.122 C  
HETATM   22  C   UNL     1      -8.422  10.696  68.311  1.00  0.00    -0.127 C  
HETATM   23  H   UNL     1     -10.574  11.319  69.914  1.00  0.00     0.000 HD 
HETATM   24  O   UNL     1      -7.549   9.774  67.656  1.00  0.00    -0.090 OA 
HETATM   25  C   UNL     1      -9.687   9.939  68.745  1.00  0.00    -0.160 C  
BRANCH  21  26
HETATM   26  C   UNL     1      -8.602   8.037  66.370  1.00  0.00    -0.145 C  
HETATM   27  H   UNL     1      -7.852   7.817  64.556  1.00  0.00     0.000 HD 
HETATM   28  O   UNL     1      -7.543   8.076  65.416  1.00  0.00    -0.076 OA 
ENDBRANCH  21  26
BRANCH  22  29
HETATM   29  O   UNL     1      -8.800  11.747  67.428  1.00  0.00    -0.154 OA 
BRANCH  29  30
HETATM   30  C   UNL     1      -9.967  11.564  66.603  1.00  0.00    -0.207 C  
HETATM   31  C   UNL     1      -9.575  11.563  65.113  1.00  0.00    -0.210 C  
HETATM   32  O   UNL     1      -8.446  10.705  64.896  1.00  0.00    -0.219 OA 
HETATM   33  C   UNL     1     -10.750  11.097  64.246  1.00  0.00    -0.333 C  
HETATM   34  C   UNL     1     -11.915  12.073  64.416  1.00  0.00    -0.385 C  
HETATM   35  N   UNL     1     -10.358  11.001  62.827  1.00  0.00    -0.771 NA 
HETATM   36  H   UNL     1      -8.204  10.704  63.978  1.00  0.00     0.000 HD 
HETATM   37  H1  UNL     1     -11.140  10.692  62.250  1.00  0.00     0.000 HD 
HETATM   38  H2  UNL     1      -9.541  10.404  62.703  1.00  0.00     0.000 HD 
HETATM   39  C   UNL     1     -12.336  12.217  65.888  1.00  0.00     0.208 C  
HETATM   40  C   UNL     1     -11.150  12.533  66.875  1.00  0.00    -0.278 C  
HETATM   41  N   UNL     1     -13.396  13.244  65.973  1.00  0.00     0.231 NA 
HETATM   42  H2  UNL     1     -14.185  13.045  65.356  1.00  0.00     0.000 HD 
HETATM   43  H1  UNL     1     -13.676  13.338  66.949  1.00  0.00     0.000 HD 
BRANCH  40  44
HETATM   44  O   UNL     1     -11.696  12.449  68.212  1.00  0.00    -0.313 OA 
BRANCH  44  45
HETATM   45  C   UNL     1     -11.089  13.311  69.184  1.00  0.00    -0.209 C  
HETATM   46  O   UNL     1     -10.366  14.374  68.572  1.00  0.00    -0.235 OA 
HETATM   47  C   UNL     1     -11.162  15.336  67.881  1.00  0.00    -0.331 C  
HETATM   48  C   UNL     1     -12.140  15.998  68.855  1.00  0.00     0.031 C  
HETATM   49  H1  UNL     1     -13.614  13.180  71.532  1.00  0.00     0.000 HD 
HETATM   50  H2  UNL     1     -12.335  12.121  71.304  1.00  0.00     0.000 HD 
HETATM   51  O   UNL     1     -12.988  16.951  68.212  1.00  0.00     1.788 OA 
HETATM   52  C   UNL     1     -13.005  14.923  69.528  1.00  0.00     0.484 C  
HETATM   53  H   UNL     1     -13.595  17.362  68.817  1.00  0.00     0.000 HD 
HETATM   54  O   UNL     1     -13.856  15.536  70.512  1.00  0.00    -0.827 OA 
HETATM   55  N   UNL     1     -12.935  12.818  70.862  1.00  0.00    -0.083 NA 
HETATM   56  C   UNL     1     -12.119  13.862  70.202  1.00  0.00    -0.349 C  
HETATM   57  H   UNL     1     -14.391  14.871  70.928  1.00  0.00     0.000 HD 
BRANCH  47  58
HETATM   58  C   UNL     1     -10.199  16.361  67.265  1.00  0.00    -0.278 C  
HETATM   59  O   UNL     1      -9.398  16.964  68.285  1.00  0.00    -0.233 OA 
HETATM   60  H   UNL     1      -8.802  17.598  67.904  1.00  0.00     0.000 HD 
ENDBRANCH  47  58
ENDBRANCH  44  45
ENDBRANCH  40  44
ENDBRANCH  29  30
ENDBRANCH  22  29
ENDBRANCH  18  19
ENDBRANCH   7  18
ENDBRANCH   2   5
TORSDOF 9
ENDMDL
MODEL      210
REMARK 921   NORMALIZED FREE ENERGY PREDICTED BY IDOCK:   -3.86 KCAL/MOL
REMARK 922        TOTAL FREE ENERGY PREDICTED BY IDOCK:   -7.94 KCAL/MOL
REMARK 923 INTER-LIGAND FREE ENERGY PREDICTED BY IDOCK:   -8.66 KCAL/MOL
REMARK 924 INTRA-LIGAND FREE ENERGY PREDICTED BY IDOCK:    0.72 KCAL/MOL
REMARK 927      BINDING AFFINITY PREDICTED BY RF-SCORE:    0.00 PKD
ROOT
HETATM    1  N   UNL     1     -10.968  19.277  67.306  1.00  0.00    -0.445 NA 
HETATM    2  C   UNL     1     -10.591  19.491  65.894  1.00  0.00    -0.476 C  
HETATM    3  H1  UNL     1     -11.983  19.212  67.388  1.00  0.00     0.000 HD 
HETATM    4  H2  UNL     1     -10.579  19.994  67.919  1.00  0.00     0.000 HD 
ENDROOT
BRANCH   2   5
HETATM    5  C   UNL     1      -9.061  19.588  65.771  1.00  0.00     0.143 C  
HETATM    6  O   UNL     1      -8.504  18.522  66.561  1.00  0.00    -0.268 OA 
HETATM    7  C   UNL     1      -7.098  18.387  66.363  1.00  0.00    -0.239 C  
HETATM    8  C   UNL     1      -6.390  19.649  66.935  1.00  0.00    -0.183 C  
HETATM    9  O   UNL     1      -8.996  21.239  67.556  1.00  0.00    -0.321 OA 
HETATM   10  H   UNL     1      -8.648  22.074  67.846  1.00  0.00     0.000 HD 
HETATM   11  N   UNL     1      -6.587  19.746  68.412  1.00  0.00    -0.264 NA 
HETATM   12  C   UNL     1      -6.950  20.906  66.229  1.00  0.00    -0.077 C  
HETATM   13  H2  UNL     1      -6.286  18.896  68.889  1.00  0.00     0.000 HD 
HETATM   14  O   UNL     1      -6.446  21.013  64.890  1.00  0.00    -0.458 OA 
HETATM   15  C   UNL     1      -8.497  20.945  66.244  1.00  0.00     0.691 C  
HETATM   16  H1  UNL     1      -6.123  20.573  68.786  1.00  0.00     0.000 HD 
HETATM   17  H   UNL     1      -6.790  21.785  64.457  1.00  0.00     0.000 HD 
BRANCH   7  18
HETATM   18  O   UNL     1      -6.591  17.233  67.040  1.00  0.00    -0.145 OA 
BRANCH  18  19
HETATM   19  C   UNL     1      -7.287  16.015  66.721  1.00  0.00    -0.151 C  
HETATM   20  O   UNL     1      -5.717  14.793  68.194  1.00  0.00    -0.112 OA 
HETATM   21  C   UNL     1      -8.776  16.316  66.878  1.00  0.00    -0.208 C  
HETATM   22  C   UNL     1      -8.102  15.184  68.801  1.00  0.00    -0.166 C  
HETATM   23  H   UNL     1      -5.575  14.086  68.813  1.00  0.00     0.000 HD 
HETATM   24  O   UNL     1      -9.142  15.976  68.224  1.00  0.00    -0.185 OA 
HETATM   25  C   UNL     1      -7.060  14.885  67.711  1.00  0.00    -0.174 C  
BRANCH  21  26
HETATM   26  C   UNL     1      -9.672  15.527  65.922  1.00  0.00    -0.357 C  
HETATM   27  H   UNL     1     -11.488  14.750  65.931  1.00  0.00     0.000 HD 
HETATM   28  O   UNL     1     -10.932  15.240  66.525  1.00  0.00    -0.315 OA 
ENDBRANCH  21  26
BRANCH  22  29
HETATM   29  O   UNL     1      -8.620  13.949  69.287  1.00  0.00     0.247 OA 
BRANCH  29  30
HETATM   30  C   UNL     1     -10.014  13.656  69.073  1.00  0.00     0.103 C  
HETATM   31  C   UNL     1     -10.850  14.125  70.280  1.00  0.00     0.422 C  
HETATM   32  O   UNL     1     -10.483  15.461  70.651  1.00  0.00    -0.445 OA 
HETATM   33  C   UNL     1     -12.347  14.074  69.950  1.00  0.00    -0.310 C  
HETATM   34  C   UNL     1     -12.743  12.629  69.648  1.00  0.00     0.554 C  
HETATM   35  N   UNL     1     -13.154  14.610  71.064  1.00  0.00    -0.355 NA 
HETATM   36  H   UNL     1     -10.999  15.750  71.394  1.00  0.00     0.000 HD 
HETATM   37  H1  UNL     1     -14.149  14.575  70.845  1.00  0.00     0.000 HD 
HETATM   38  H2  UNL     1     -12.858  15.551  71.323  1.00  0.00     0.000 HD 
HETATM   39  C   UNL     1     -11.906  12.029  68.505  1.00  0.00    -0.311 C  
HETATM   40  C   UNL     1     -10.350  12.190  68.689  1.00  0.00    -0.195 C  
HETATM   41  N   UNL     1     -12.286  10.610  68.343  1.00  0.00    -0.762 NA 
HETATM   42  H2  UNL     1     -13.288  10.486  68.201  1.00  0.00     0.000 HD 
HETATM   43  H1  UNL     1     -11.730  10.212  67.586  1.00  0.00     0.000 HD 
BRANCH  40  44
HETATM   44  O   UNL     1      -9.743  11.743  67.454  1.00  0.00    -0.177 OA 
BRANCH  44  45
HETATM   45  C   UNL     1     -10.498  10.779  66.707  1.00  0.00    -0.251 C  
HETATM   46  O   UNL     1     -11.336  11.398  65.737  1.00  0.00    -0.173 OA 
HETATM   47  C   UNL     1     -10.654  12.036  64.658  1.00  0.00    -0.307 C  
HETATM   48  C   UNL     1      -9.813  11.011  63.895  1.00  0.00    -0.317 C  
HETATM   49  H1  UNL     1      -8.069   8.334  66.554  1.00  0.00     0.000 HD 
HETATM   50  H2  UNL     1      -9.181   8.635  67.770  1.00  0.00     0.000 HD 
HETATM   51  O   UNL     1      -9.079  11.600  62.819  1.00  0.00    -0.571 OA 
HETATM   52  C   UNL     1      -8.835  10.325  64.859  1.00  0.00    -0.192 C  
HETATM   53  H   UNL     1      -8.557  10.963  62.345  1.00  0.00     0.000 HD 
HETATM   54  O   UNL     1      -8.113   9.296  64.161  1.00  0.00    -0.128 OA 
HETATM   55  N   UNL     1      -8.666   9.037  66.987  1.00  0.00    -0.116 NA 
HETATM   56  C   UNL     1      -9.591   9.709  66.047  1.00  0.00    -0.242 C  
HETATM   57  H   UNL     1      -7.508   8.871  64.758  1.00  0.00     0.000 HD 
BRANCH  47  58
HETATM   58  C   UNL     1     -11.724  12.670  63.758  1.00  0.00    -0.491 C  
HETATM   59  O   UNL     1     -12.481  11.654  63.095  1.00  0.00    -0.937 OA 
HETATM   60  H   UNL     1     -13.143  12.046  62.538  1.00  0.00     0.000 HD 
ENDBRANCH  47  58
ENDBRANCH  44  45
ENDBRANCH  40  44
ENDBRANCH  29  30
ENDBRANCH  22  29
ENDBRANCH  18  19
ENDBRANCH   7  18
ENDBRANCH   2   5
TORSDOF 9
ENDMDL
MODEL      211
REMARK 921   NORMALIZED FREE ENERGY PREDICTED BY IDOCK:   -3.85 KCAL/MOL
REMARK 922        TOTAL FREE ENERGY PREDICTED BY IDOCK:   -7.92 KCAL/MOL
REMARK 923 INTER-LIGAND FREE ENERGY PREDICTED BY IDOCK:   -8.21 KCAL/MOL
REMARK 924 INTRA-LIGAND FREE ENERGY PREDICTED BY IDOCK:    0.29 KCAL/MOL
REMARK 927      BINDING AFFINITY PREDICTED BY RF-SCORE:    0.00 PKD
ROOT
HETATM    1  N   UNL     1      -6.689  18.583  64.646  1.00  0.00     0.122 NA 
HETATM    2  C   UNL     1      -6.628  18.935  66.079  1.00  0.00    -0.232 C  
HETATM    3  H1  UNL     1      -5.893  18.988  64.155  1.00  0.00     0.000 HD 
HETATM    4  H2  UNL     1      -7.578  18.852  64.223  1.00  0.00     0.000 HD 
ENDROOT
BRANCH   2   5
HETATM    5  C   UNL     1      -7.829  18.323  66.819  1.00  0.00    -0.235 C  
HETATM    6  O   UNL     1      -8.298  17.217  66.026  1.00  0.00    -0.490 OA 
HETATM    7  C   UNL     1      -9.283  16.446  66.710  1.00  0.00    -0.237 C  
HETATM    8  C   UNL     1     -10.563  17.315  66.885  1.00  0.00    -0.213 C  
HETATM    9  O   UNL     1      -9.319  19.961  65.811  1.00  0.00    -0.400 OA 
HETATM   10  H   UNL     1     -10.025  20.579  65.955  1.00  0.00     0.000 HD 
HETATM   11  N   UNL     1     -11.159  17.655  65.560  1.00  0.00    -0.047 NA 
HETATM   12  C   UNL     1     -10.198  18.600  67.664  1.00  0.00    -0.384 C  
HETATM   13  H2  UNL     1     -11.343  16.821  65.003  1.00  0.00     0.000 HD 
HETATM   14  O   UNL     1      -9.986  18.318  69.054  1.00  0.00    -0.357 OA 
HETATM   15  C   UNL     1      -8.978  19.328  67.053  1.00  0.00    -0.292 C  
HETATM   16  H1  UNL     1     -11.997  18.225  65.675  1.00  0.00     0.000 HD 
HETATM   17  H   UNL     1      -9.762  19.108  69.532  1.00  0.00     0.000 HD 
BRANCH   7  18
HETATM   18  O   UNL     1      -9.626  15.272  65.969  1.00  0.00    -0.293 OA 
BRANCH  18  19
HETATM   19  C   UNL     1     -10.577  14.420  66.630  1.00  0.00    -0.282 C  
HETATM   20  O   UNL     1     -10.001  12.621  65.030  1.00  0.00    -0.406 OA 
HETATM   21  C   UNL     1     -10.305  14.551  68.127  1.00  0.00    -0.232 C  
HETATM   22  C   UNL     1      -9.320  12.558  67.426  1.00  0.00    -0.187 C  
HETATM   23  H   UNL     1      -9.874  11.693  64.870  1.00  0.00     0.000 HD 
HETATM   24  O   UNL     1      -9.379  13.514  68.486  1.00  0.00    -0.185 OA 
HETATM   25  C   UNL     1     -10.375  12.936  66.374  1.00  0.00    -0.268 C  
BRANCH  21  26
HETATM   26  C   UNL     1     -11.553  14.404  68.999  1.00  0.00    -0.296 C  
HETATM   27  H   UNL     1     -13.123  15.496  69.495  1.00  0.00     0.000 HD 
HETATM   28  O   UNL     1     -12.348  15.587  68.954  1.00  0.00    -0.156 OA 
ENDBRANCH  21  26
BRANCH  22  29
HETATM   29  O   UNL     1      -9.608  11.249  67.910  1.00  0.00    -0.169 OA 
BRANCH  29  30
HETATM   30  C   UNL     1      -8.507  10.358  68.175  1.00  0.00    -0.121 C  
HETATM   31  C   UNL     1      -7.486  10.411  67.022  1.00  0.00    -0.097 C  
HETATM   32  O   UNL     1      -7.192  11.772  66.679  1.00  0.00    -0.320 OA 
HETATM   33  C   UNL     1      -6.193   9.687  67.414  1.00  0.00    -0.064 C  
HETATM   34  C   UNL     1      -6.505   8.216  67.686  1.00  0.00    -0.057 C  
HETATM   35  N   UNL     1      -5.172   9.813  66.355  1.00  0.00    -0.042 NA 
HETATM   36  H   UNL     1      -6.563  11.805  65.969  1.00  0.00     0.000 HD 
HETATM   37  H1  UNL     1      -4.312   9.331  66.616  1.00  0.00     0.000 HD 
HETATM   38  H2  UNL     1      -4.999  10.788  66.115  1.00  0.00     0.000 HD 
HETATM   39  C   UNL     1      -7.583   8.047  68.771  1.00  0.00    -0.103 C  
HETATM   40  C   UNL     1      -8.888   8.893  68.525  1.00  0.00    -0.134 C  
HETATM   41  N   UNL     1      -7.891   6.607  68.903  1.00  0.00    -0.109 NA 
HETATM   42  H2  UNL     1      -7.060   6.044  69.085  1.00  0.00     0.000 HD 
HETATM   43  H1  UNL     1      -8.606   6.496  69.622  1.00  0.00     0.000 HD 
BRANCH  40  44
HETATM   44  O   UNL     1      -9.696   8.756  69.717  1.00  0.00    -0.172 OA 
BRANCH  44  45
HETATM   45  C   UNL     1     -11.074   8.425  69.497  1.00  0.00     0.053 C  
HETATM   46  O   UNL     1     -11.441   7.218  70.156  1.00  0.00    -0.248 OA 
HETATM   47  C   UNL     1     -11.449   7.278  71.582  1.00  0.00    -0.265 C  
HETATM   48  C   UNL     1     -12.449   8.337  72.052  1.00  0.00    -0.351 C  
HETATM   49  H1  UNL     1     -12.317  11.643  69.537  1.00  0.00     0.000 HD 
HETATM   50  H2  UNL     1     -11.647  10.791  68.258  1.00  0.00     0.000 HD 
HETATM   51  O   UNL     1     -12.477   8.466  73.476  1.00  0.00     0.092 OA 
HETATM   52  C   UNL     1     -12.097   9.694  71.428  1.00  0.00    -0.388 C  
HETATM   53  H   UNL     1     -13.098   9.123  73.767  1.00  0.00     0.000 HD 
HETATM   54  O   UNL     1     -13.092  10.665  71.794  1.00  0.00    -0.444 OA 
HETATM   55  N   UNL     1     -11.692  10.882  69.274  1.00  0.00    -0.306 NA 
HETATM   56  C   UNL     1     -12.025   9.581  69.896  1.00  0.00     0.278 C  
HETATM   57  H   UNL     1     -12.874  11.505  71.407  1.00  0.00     0.000 HD 
BRANCH  47  58
HETATM   58  C   UNL     1     -11.825   5.880  72.092  1.00  0.00    -0.186 C  
HETATM   59  O   UNL     1     -10.990   4.890  71.486  1.00  0.00     0.018 OA 
HETATM   60  H   UNL     1     -11.222   4.025  71.802  1.00  0.00     0.000 HD 
ENDBRANCH  47  58
ENDBRANCH  44  45
ENDBRANCH  40  44
ENDBRANCH  29  30
ENDBRANCH  22  29
ENDBRANCH  18  19
ENDBRANCH   7  18
ENDBRANCH   2   5
TORSDOF 9
ENDMDL
MODEL      212
REMARK 921   NORMALIZED FREE ENERGY PREDICTED BY IDOCK:   -3.82 KCAL/MOL
REMARK 922        TOTAL FREE ENERGY PREDICTED BY IDOCK:   -7.88 KCAL/MOL
REMARK 923 INTER-LIGAND FREE ENERGY PREDICTED BY IDOCK:   -9.21 KCAL/MOL
REMARK 924 INTRA-LIGAND FREE ENERGY PREDICTED BY IDOCK:    1.34 KCAL/MOL
REMARK 927      BINDING AFFINITY PREDICTED BY RF-SCORE:    0.00 PKD
ROOT
HETATM    1  N   UNL     1      -5.141   8.144  65.661  1.00  0.00    -0.024 NA 
HETATM    2  C   UNL     1      -6.121   9.096  66.221  1.00  0.00    -0.060 C  
HETATM    3  H1  UNL     1      -4.756   7.564  66.406  1.00  0.00     0.000 HD 
HETATM    4  H2  UNL     1      -4.411   8.616  65.125  1.00  0.00     0.000 HD 
ENDROOT
BRANCH   2   5
HETATM    5  C   UNL     1      -6.702   9.970  65.097  1.00  0.00    -0.126 C  
HETATM    6  O   UNL     1      -8.096  10.171  65.395  1.00  0.00    -0.137 OA 
HETATM    7  C   UNL     1      -8.696  11.133  64.530  1.00  0.00     0.162 C  
HETATM    8  C   UNL     1      -8.728  10.554  63.085  1.00  0.00    -0.200 C  
HETATM    9  O   UNL     1      -7.055   8.003  63.713  1.00  0.00    -0.073 OA 
HETATM   10  H   UNL     1      -6.959   7.617  62.850  1.00  0.00     0.000 HD 
HETATM   11  N   UNL     1      -9.601   9.344  63.018  1.00  0.00    -0.374 NA 
HETATM   12  C   UNL     1      -7.286  10.209  62.647  1.00  0.00    -0.137 C  
HETATM   13  H2  UNL     1     -10.539   9.536  63.368  1.00  0.00     0.000 HD 
HETATM   14  O   UNL     1      -6.541  11.397  62.344  1.00  0.00    -0.341 OA 
HETATM   15  C   UNL     1      -6.547   9.344  63.695  1.00  0.00    -0.095 C  
HETATM   16  H1  UNL     1      -9.621   8.965  62.071  1.00  0.00     0.000 HD 
HETATM   17  H   UNL     1      -5.655  11.185  62.074  1.00  0.00     0.000 HD 
BRANCH   7  18
HETATM   18  O   UNL     1     -10.036  11.426  64.934  1.00  0.00    -0.244 OA 
BRANCH  18  19
HETATM   19  C   UNL     1     -10.150  11.887  66.293  1.00  0.00    -0.220 C  
HETATM   20  O   UNL     1      -9.050  13.998  65.613  1.00  0.00    -0.340 OA 
HETATM   21  C   UNL     1     -11.586  11.603  66.726  1.00  0.00    -0.141 C  
HETATM   22  C   UNL     1     -11.472  13.867  66.186  1.00  0.00    -0.345 C  
HETATM   23  H   UNL     1      -8.978  14.940  65.715  1.00  0.00     0.000 HD 
HETATM   24  O   UNL     1     -12.360  12.777  66.440  1.00  0.00    -0.500 OA 
HETATM   25  C   UNL     1     -10.034  13.393  66.455  1.00  0.00    -0.286 C  
BRANCH  21  26
HETATM   26  C   UNL     1     -11.733  11.281  68.214  1.00  0.00    -0.274 C  
HETATM   27  H   UNL     1     -10.552  11.067  69.783  1.00  0.00     0.000 HD 
HETATM   28  O   UNL     1     -10.461  11.267  68.859  1.00  0.00    -0.201 OA 
ENDBRANCH  21  26
BRANCH  22  29
HETATM   29  O   UNL     1     -11.759  14.964  67.048  1.00  0.00    -0.348 OA 
BRANCH  29  30
HETATM   30  C   UNL     1     -10.657  15.665  67.658  1.00  0.00    -0.294 C  
HETATM   31  C   UNL     1      -9.770  16.310  66.576  1.00  0.00    -0.263 C  
HETATM   32  O   UNL     1     -10.579  17.012  65.622  1.00  0.00    -0.468 OA 
HETATM   33  C   UNL     1      -8.765  17.279  67.211  1.00  0.00    -0.211 C  
HETATM   34  C   UNL     1      -7.849  16.501  68.156  1.00  0.00    -0.168 C  
HETATM   35  N   UNL     1      -7.973  17.974  66.178  1.00  0.00    -0.468 NA 
HETATM   36  H   UNL     1     -10.032  17.410  64.955  1.00  0.00     0.000 HD 
HETATM   37  H1  UNL     1      -7.304  18.618  66.600  1.00  0.00     0.000 HD 
HETATM   38  H2  UNL     1      -8.571  18.445  65.500  1.00  0.00     0.000 HD 
HETATM   39  C   UNL     1      -8.643  15.743  69.234  1.00  0.00    -0.259 C  
HETATM   40  C   UNL     1      -9.809  14.848  68.671  1.00  0.00    -0.225 C  
HETATM   41  N   UNL     1      -7.694  14.948  70.041  1.00  0.00    -0.332 NA 
HETATM   42  H2  UNL     1      -6.942  15.514  70.433  1.00  0.00     0.000 HD 
HETATM   43  H1  UNL     1      -8.220  14.445  70.755  1.00  0.00     0.000 HD 
BRANCH  40  44
HETATM   44  O   UNL     1     -10.549  14.369  69.818  1.00  0.00    -0.085 OA 
BRANCH  44  45
HETATM   45  C   UNL     1     -11.884  14.879  69.951  1.00  0.00    -0.311 C  
HETATM   46  O   UNL     1     -12.803  13.862  70.332  1.00  0.00    -0.269 OA 
HETATM   47  C   UNL     1     -12.629  13.340  71.648  1.00  0.00    -0.154 C  
HETATM   48  C   UNL     1     -12.790  14.462  72.678  1.00  0.00    -0.395 C  
HETATM   49  H1  UNL     1     -11.053  17.962  71.260  1.00  0.00     0.000 HD 
HETATM   50  H2  UNL     1     -11.125  17.487  69.655  1.00  0.00     0.000 HD 
HETATM   51  O   UNL     1     -12.593  14.004  74.017  1.00  0.00     0.222 OA 
HETATM   52  C   UNL     1     -11.792  15.588  72.375  1.00  0.00    -0.471 C  
HETATM   53  H   UNL     1     -12.693  14.700  74.656  1.00  0.00     0.000 HD 
HETATM   54  O   UNL     1     -12.010  16.681  73.284  1.00  0.00    -0.475 OA 
HETATM   55  N   UNL     1     -11.005  17.171  70.617  1.00  0.00     0.533 NA 
HETATM   56  C   UNL     1     -11.956  16.080  70.928  1.00  0.00    -0.339 C  
HETATM   57  H   UNL     1     -11.393  17.378  73.097  1.00  0.00     0.000 HD 
BRANCH  47  58
HETATM   58  C   UNL     1     -13.681  12.240  71.843  1.00  0.00     0.067 C  
HETATM   59  O   UNL     1     -13.055  11.024  72.265  1.00  0.00    -0.546 OA 
HETATM   60  H   UNL     1     -13.706  10.344  72.386  1.00  0.00     0.000 HD 
ENDBRANCH  47  58
ENDBRANCH  44  45
ENDBRANCH  40  44
ENDBRANCH  29  30
ENDBRANCH  22  29
ENDBRANCH  18  19
ENDBRANCH   7  18
ENDBRANCH   2   5
TORSDOF 9
ENDMDL
MODEL      213
REMARK 921   NORMALIZED FREE ENERGY PREDICTED BY IDOCK:   -3.79 KCAL/MOL
REMARK 922        TOTAL FREE ENERGY PREDICTED BY IDOCK:   -7.83 KCAL/MOL
REMARK 923 INTER-LIGAND FREE ENERGY PREDICTED BY IDOCK:   -7.98 KCAL/MOL
REMARK 924 INTRA-LIGAND FREE ENERGY PREDICTED BY IDOCK:    0.15 KCAL/MOL
REMARK 927      BINDING AFFINITY PREDICTED BY RF-SCORE:    0.00 PKD
ROOT
HETATM    1  N   UNL     1     -12.441  15.611  70.013  1.00  0.00    -0.518 NA 
HETATM    2  C   UNL     1     -11.336  16.339  69.357  1.00  0.00    -0.284 C  
HETATM    3  H1  UNL     1     -12.485  15.864  71.000  1.00  0.00     0.000 HD 
HETATM    4  H2  UNL     1     -12.367  14.602  69.880  1.00  0.00     0.000 HD 
ENDROOT
BRANCH   2   5
HETATM    5  C   UNL     1     -11.269  15.957  67.869  1.00  0.00    -0.297 C  
HETATM    6  O   UNL     1     -10.693  14.640  67.795  1.00  0.00    -0.258 OA 
HETATM    7  C   UNL     1     -10.765  14.096  66.479  1.00  0.00    -0.289 C  
HETATM    8  C   UNL     1      -9.844  14.932  65.543  1.00  0.00    -0.313 C  
HETATM    9  O   UNL     1      -9.155  17.135  67.634  1.00  0.00    -0.223 OA 
HETATM   10  H   UNL     1      -8.644  17.743  67.113  1.00  0.00     0.000 HD 
HETATM   11  N   UNL     1      -8.415  14.810  65.957  1.00  0.00     0.001 NA 
HETATM   12  C   UNL     1     -10.297  16.410  65.578  1.00  0.00    -0.313 C  
HETATM   13  H2  UNL     1      -8.118  13.836  66.006  1.00  0.00     0.000 HD 
HETATM   14  O   UNL     1     -11.512  16.595  64.840  1.00  0.00    -0.173 OA 
HETATM   15  C   UNL     1     -10.438  16.945  67.023  1.00  0.00    -0.281 C  
HETATM   16  H1  UNL     1      -7.812  15.358  65.343  1.00  0.00     0.000 HD 
HETATM   17  H   UNL     1     -11.790  17.504  64.861  1.00  0.00     0.000 HD 
BRANCH   7  18
HETATM   18  O   UNL     1     -10.324  12.736  66.458  1.00  0.00    -0.245 OA 
BRANCH  18  19
HETATM   19  C   UNL     1      -9.342  12.424  67.463  1.00  0.00    -0.181 C  
HETATM   20  O   UNL     1     -11.135  12.508  69.167  1.00  0.00    -0.311 OA 
HETATM   21  C   UNL     1      -8.531  11.248  66.923  1.00  0.00    -0.152 C  
HETATM   22  C   UNL     1     -10.065  10.377  68.447  1.00  0.00    -0.163 C  
HETATM   23  H   UNL     1     -11.497  12.166  69.976  1.00  0.00     0.000 HD 
HETATM   24  O   UNL     1      -9.154  10.045  67.397  1.00  0.00    -0.134 OA 
HETATM   25  C   UNL     1      -9.921  11.876  68.757  1.00  0.00    -0.092 C  
BRANCH  21  26
HETATM   26  C   UNL     1      -7.070  11.243  67.375  1.00  0.00    -0.109 C  
HETATM   27  H   UNL     1      -5.985  12.054  68.812  1.00  0.00     0.000 HD 
HETATM   28  O   UNL     1      -6.892  12.057  68.532  1.00  0.00    -0.066 OA 
ENDBRANCH  21  26
BRANCH  22  29
HETATM   29  O   UNL     1      -9.766   9.637  69.627  1.00  0.00    -0.186 OA 
BRANCH  29  30
HETATM   30  C   UNL     1     -10.714   8.650  70.077  1.00  0.00    -0.228 C  
HETATM   31  C   UNL     1     -11.656   9.255  71.136  1.00  0.00    -0.327 C  
HETATM   32  O   UNL     1     -12.154  10.525  70.692  1.00  0.00    -0.296 OA 
HETATM   33  C   UNL     1     -12.829   8.310  71.417  1.00  0.00    -0.247 C  
HETATM   34  C   UNL     1     -12.290   6.994  71.977  1.00  0.00    -0.302 C  
HETATM   35  N   UNL     1     -13.788   8.919  72.359  1.00  0.00    -0.549 NA 
HETATM   36  H   UNL     1     -12.734  10.898  71.345  1.00  0.00     0.000 HD 
HETATM   37  H1  UNL     1     -14.569   8.291  72.546  1.00  0.00     0.000 HD 
HETATM   38  H2  UNL     1     -14.109   9.830  72.031  1.00  0.00     0.000 HD 
HETATM   39  C   UNL     1     -11.269   6.340  71.030  1.00  0.00    -0.312 C  
HETATM   40  C   UNL     1     -10.113   7.302  70.560  1.00  0.00    -0.191 C  
HETATM   41  N   UNL     1     -10.730   5.131  71.687  1.00  0.00    -0.162 NA 
HETATM   42  H2  UNL     1     -11.463   4.484  71.979  1.00  0.00     0.000 HD 
HETATM   43  H1  UNL     1     -10.053   4.698  71.059  1.00  0.00     0.000 HD 
BRANCH  40  44
HETATM   44  O   UNL     1      -9.370   6.583  69.547  1.00  0.00    -0.147 OA 
BRANCH  44  45
HETATM   45  C   UNL     1      -8.069   6.126  69.943  1.00  0.00    -0.119 C  
HETATM   46  O   UNL     1      -7.508   5.233  68.986  1.00  0.00    -0.068 OA 
HETATM   47  C   UNL     1      -7.170   5.817  67.729  1.00  0.00    -0.076 C  
HETATM   48  C   UNL     1      -6.132   6.924  67.932  1.00  0.00    -0.033 C  
HETATM   49  H1  UNL     1      -6.985   9.064  71.392  1.00  0.00     0.000 HD 
HETATM   50  H2  UNL     1      -7.900   7.833  72.068  1.00  0.00     0.000 HD 
HETATM   51  O   UNL     1      -5.778   7.569  66.707  1.00  0.00    -0.026 OA 
HETATM   52  C   UNL     1      -6.677   7.968  68.916  1.00  0.00    -0.053 C  
HETATM   53  H   UNL     1      -5.133   8.256  66.833  1.00  0.00     0.000 HD 
HETATM   54  O   UNL     1      -5.664   8.955  69.179  1.00  0.00    -0.035 OA 
HETATM   55  N   UNL     1      -7.623   8.291  71.200  1.00  0.00    -0.074 NA 
HETATM   56  C   UNL     1      -7.099   7.299  70.234  1.00  0.00    -0.065 C  
HETATM   57  H   UNL     1      -6.001   9.602  69.788  1.00  0.00     0.000 HD 
BRANCH  47  58
HETATM   58  C   UNL     1      -6.628   4.691  66.838  1.00  0.00    -0.050 C  
HETATM   59  O   UNL     1      -6.565   3.464  67.571  1.00  0.00    -0.037 OA 
HETATM   60  H   UNL     1      -6.230   2.768  67.020  1.00  0.00     0.000 HD 
ENDBRANCH  47  58
ENDBRANCH  44  45
ENDBRANCH  40  44
ENDBRANCH  29  30
ENDBRANCH  22  29
ENDBRANCH  18  19
ENDBRANCH   7  18
ENDBRANCH   2   5
TORSDOF 9
ENDMDL
MODEL      214
REMARK 921   NORMALIZED FREE ENERGY PREDICTED BY IDOCK:   -3.76 KCAL/MOL
REMARK 922        TOTAL FREE ENERGY PREDICTED BY IDOCK:   -7.78 KCAL/MOL
REMARK 923 INTER-LIGAND FREE ENERGY PREDICTED BY IDOCK:   -8.06 KCAL/MOL
REMARK 924 INTRA-LIGAND FREE ENERGY PREDICTED BY IDOCK:    0.28 KCAL/MOL
REMARK 927      BINDING AFFINITY PREDICTED BY RF-SCORE:    0.00 PKD
ROOT
HETATM    1  N   UNL     1     -12.586   6.074  72.562  1.00  0.00    -0.485 NA 
HETATM    2  C   UNL     1     -11.632   5.114  73.154  1.00  0.00    -0.203 C  
HETATM    3  H1  UNL     1     -13.444   6.093  73.113  1.00  0.00     0.000 HD 
HETATM    4  H2  UNL     1     -12.766   5.877  71.577  1.00  0.00     0.000 HD 
ENDROOT
BRANCH   2   5
HETATM    5  C   UNL     1     -10.337   5.085  72.324  1.00  0.00    -0.209 C  
HETATM    6  O   UNL     1     -10.697   5.403  70.966  1.00  0.00    -0.233 OA 
HETATM    7  C   UNL     1      -9.552   5.604  70.141  1.00  0.00    -0.167 C  
HETATM    8  C   UNL     1      -8.799   4.250  69.993  1.00  0.00    -0.077 C  
HETATM    9  O   UNL     1     -10.538   2.678  72.045  1.00  0.00     0.063 OA 
HETATM   10  H   UNL     1     -10.092   1.840  72.075  1.00  0.00     0.000 HD 
HETATM   11  N   UNL     1      -9.645   3.248  69.280  1.00  0.00    -0.119 NA 
HETATM   12  C   UNL     1      -8.410   3.732  71.397  1.00  0.00    -0.072 C  
HETATM   13  H2  UNL     1      -9.969   3.600  68.379  1.00  0.00     0.000 HD 
HETATM   14  O   UNL     1      -7.315   4.483  71.939  1.00  0.00    -0.068 OA 
HETATM   15  C   UNL     1      -9.612   3.723  72.372  1.00  0.00    -0.139 C  
HETATM   16  H1  UNL     1      -9.152   2.360  69.183  1.00  0.00     0.000 HD 
HETATM   17  H   UNL     1      -7.076   4.165  72.802  1.00  0.00     0.000 HD 
BRANCH   7  18
HETATM   18  O   UNL     1      -9.927   6.062  68.840  1.00  0.00    -0.139 OA 
BRANCH  18  19
HETATM   19  C   UNL     1      -8.842   6.099  67.896  1.00  0.00    -0.111 C  
HETATM   20  O   UNL     1     -10.277   7.422  66.374  1.00  0.00    -0.469 OA 
HETATM   21  C   UNL     1      -7.596   6.490  68.688  1.00  0.00    -0.097 C  
HETATM   22  C   UNL     1      -8.339   8.408  67.591  1.00  0.00    -0.130 C  
HETATM   23  H   UNL     1     -10.344   8.112  65.725  1.00  0.00     0.000 HD 
HETATM   24  O   UNL     1      -7.479   7.920  68.622  1.00  0.00    -0.094 OA 
HETATM   25  C   UNL     1      -8.949   7.203  66.858  1.00  0.00    -0.134 C  
BRANCH  21  26
HETATM   26  C   UNL     1      -6.302   5.877  68.150  1.00  0.00    -0.044 C  
HETATM   27  H   UNL     1      -4.656   6.498  67.251  1.00  0.00     0.000 HD 
HETATM   28  O   UNL     1      -5.460   6.879  67.585  1.00  0.00    -0.014 OA 
ENDBRANCH  21  26
BRANCH  22  29
HETATM   29  O   UNL     1      -7.607   9.189  66.651  1.00  0.00    -0.089 OA 
BRANCH  29  30
HETATM   30  C   UNL     1      -7.277  10.549  66.997  1.00  0.00    -0.098 C  
HETATM   31  C   UNL     1      -6.533  10.592  68.346  1.00  0.00    -0.054 C  
HETATM   32  O   UNL     1      -5.487   9.610  68.369  1.00  0.00    -0.036 OA 
HETATM   33  C   UNL     1      -5.939  11.984  68.588  1.00  0.00    -0.054 C  
HETATM   34  C   UNL     1      -7.072  13.008  68.654  1.00  0.00    -0.103 C  
HETATM   35  N   UNL     1      -5.143  12.013  69.831  1.00  0.00    -0.072 NA 
HETATM   36  H   UNL     1      -5.028   9.637  69.199  1.00  0.00     0.000 HD 
HETATM   37  H1  UNL     1      -4.748  12.938  69.993  1.00  0.00     0.000 HD 
HETATM   38  H2  UNL     1      -4.422  11.291  69.832  1.00  0.00     0.000 HD 
HETATM   39  C   UNL     1      -7.938  12.991  67.383  1.00  0.00    -0.172 C  
HETATM   40  C   UNL     1      -8.454  11.561  66.969  1.00  0.00    -0.164 C  
HETATM   41  N   UNL     1      -9.059  13.936  67.568  1.00  0.00    -0.191 NA 
HETATM   42  H2  UNL     1      -8.744  14.874  67.815  1.00  0.00     0.000 HD 
HETATM   43  H1  UNL     1      -9.633  13.924  66.725  1.00  0.00     0.000 HD 
BRANCH  40  44
HETATM   44  O   UNL     1      -9.081  11.711  65.673  1.00  0.00    -0.182 OA 
BRANCH  44  45
HETATM   45  C   UNL     1     -10.434  11.242  65.582  1.00  0.00    -0.261 C  
HETATM   46  O   UNL     1     -11.098  11.293  66.839  1.00  0.00    -0.289 OA 
HETATM   47  C   UNL     1     -11.347  12.602  67.347  1.00  0.00    -0.313 C  
HETATM   48  C   UNL     1     -12.233  13.379  66.371  1.00  0.00    -0.376 C  
HETATM   49  H1  UNL     1     -11.136  12.521  62.455  1.00  0.00     0.000 HD 
HETATM   50  H2  UNL     1     -10.395  11.072  62.855  1.00  0.00     0.000 HD 
HETATM   51  O   UNL     1     -12.491  14.714  66.812  1.00  0.00    -0.444 OA 
HETATM   52  C   UNL     1     -11.565  13.423  64.990  1.00  0.00    -0.317 C  
HETATM   53  H   UNL     1     -13.041  15.196  66.206  1.00  0.00     0.000 HD 
HETATM   54  O   UNL     1     -12.442  14.069  64.051  1.00  0.00    -0.682 OA 
HETATM   55  N   UNL     1     -10.603  12.021  63.166  1.00  0.00    -0.328 NA 
HETATM   56  C   UNL     1     -11.244  12.001  64.501  1.00  0.00    -0.332 C  
HETATM   57  H   UNL     1     -12.029  14.096  63.196  1.00  0.00     0.000 HD 
BRANCH  47  58
HETATM   58  C   UNL     1     -12.025  12.436  68.715  1.00  0.00    -0.229 C  
HETATM   59  O   UNL     1     -11.941  11.076  69.148  1.00  0.00    -0.329 OA 
HETATM   60  H   UNL     1     -12.361  10.973  69.994  1.00  0.00     0.000 HD 
ENDBRANCH  47  58
ENDBRANCH  44  45
ENDBRANCH  40  44
ENDBRANCH  29  30
ENDBRANCH  22  29
ENDBRANCH  18  19
ENDBRANCH   7  18
ENDBRANCH   2   5
TORSDOF 9
ENDMDL
MODEL      215
REMARK 921   NORMALIZED FREE ENERGY PREDICTED BY IDOCK:   -3.75 KCAL/MOL
REMARK 922        TOTAL FREE ENERGY PREDICTED BY IDOCK:   -7.77 KCAL/MOL
REMARK 923 INTER-LIGAND FREE ENERGY PREDICTED BY IDOCK:   -8.70 KCAL/MOL
REMARK 924 INTRA-LIGAND FREE ENERGY PREDICTED BY IDOCK:    0.93 KCAL/MOL
REMARK 927      BINDING AFFINITY PREDICTED BY RF-SCORE:    0.00 PKD
ROOT
HETATM    1  N   UNL     1     -12.737  10.708  69.339  1.00  0.00    -0.628 NA 
HETATM    2  C   UNL     1     -13.153  11.308  70.623  1.00  0.00     0.128 C  
HETATM    3  H1  UNL     1     -12.767   9.690  69.406  1.00  0.00     0.000 HD 
HETATM    4  H2  UNL     1     -11.823  11.046  69.036  1.00  0.00     0.000 HD 
ENDROOT
BRANCH   2   5
HETATM    5  C   UNL     1     -13.108  12.842  70.522  1.00  0.00     0.435 C  
HETATM    6  O   UNL     1     -11.724  13.218  70.396  1.00  0.00    -0.228 OA 
HETATM    7  C   UNL     1     -11.571  14.603  70.093  1.00  0.00    -0.282 C  
HETATM    8  C   UNL     1     -12.049  15.438  71.316  1.00  0.00    -0.366 C  
HETATM    9  O   UNL     1     -13.167  13.031  72.945  1.00  0.00    -0.417 OA 
HETATM   10  H   UNL     1     -13.557  13.467  73.694  1.00  0.00     0.000 HD 
HETATM   11  N   UNL     1     -11.183  15.182  72.505  1.00  0.00    -0.321 NA 
HETATM   12  C   UNL     1     -13.520  15.080  71.628  1.00  0.00    -0.414 C  
HETATM   13  H2  UNL     1     -10.198  15.348  72.297  1.00  0.00     0.000 HD 
HETATM   14  O   UNL     1     -14.409  15.658  70.662  1.00  0.00    -0.688 OA 
HETATM   15  C   UNL     1     -13.740  13.552  71.738  1.00  0.00    -0.297 C  
HETATM   16  H1  UNL     1     -11.496  15.730  73.306  1.00  0.00     0.000 HD 
HETATM   17  H   UNL     1     -15.312  15.438  70.854  1.00  0.00     0.000 HD 
BRANCH   7  18
HETATM   18  O   UNL     1     -10.203  14.924  69.827  1.00  0.00    -0.154 OA 
BRANCH  18  19
HETATM   19  C   UNL     1      -9.761  14.557  68.507  1.00  0.00    -0.224 C  
HETATM   20  O   UNL     1      -7.433  14.534  69.349  1.00  0.00    -0.246 OA 
HETATM   21  C   UNL     1     -10.670  13.419  68.050  1.00  0.00    -0.248 C  
HETATM   22  C   UNL     1      -8.671  12.453  68.761  1.00  0.00     0.154 C  
HETATM   23  H   UNL     1      -6.568  14.143  69.319  1.00  0.00     0.000 HD 
HETATM   24  O   UNL     1     -10.034  12.187  68.422  1.00  0.00    -0.208 OA 
HETATM   25  C   UNL     1      -8.377  13.932  68.460  1.00  0.00    -0.132 C  
BRANCH  21  26
HETATM   26  C   UNL     1     -10.920  13.394  66.541  1.00  0.00    -0.290 C  
HETATM   27  H   UNL     1     -12.122  12.467  65.277  1.00  0.00     0.000 HD 
HETATM   28  O   UNL     1     -11.967  12.482  66.214  1.00  0.00    -0.508 OA 
ENDBRANCH  21  26
BRANCH  22  29
HETATM   29  O   UNL     1      -7.791  11.647  67.984  1.00  0.00    -0.114 OA 
BRANCH  29  30
HETATM   30  C   UNL     1      -8.291  10.407  67.445  1.00  0.00    -0.121 C  
HETATM   31  C   UNL     1      -8.675  10.584  65.963  1.00  0.00    -0.164 C  
HETATM   32  O   UNL     1      -7.627  11.261  65.255  1.00  0.00    -0.251 OA 
HETATM   33  C   UNL     1      -8.943   9.224  65.310  1.00  0.00    -0.213 C  
HETATM   34  C   UNL     1     -10.123   8.554  66.014  1.00  0.00     0.098 C  
HETATM   35  N   UNL     1      -9.218   9.372  63.868  1.00  0.00    -0.415 NA 
HETATM   36  H   UNL     1      -7.863  11.370  64.342  1.00  0.00     0.000 HD 
HETATM   37  H1  UNL     1      -9.397   8.468  63.433  1.00  0.00     0.000 HD 
HETATM   38  H2  UNL     1      -8.470   9.876  63.392  1.00  0.00     0.000 HD 
HETATM   39  C   UNL     1      -9.880   8.403  67.526  1.00  0.00    -0.181 C  
HETATM   40  C   UNL     1      -9.436   9.731  68.247  1.00  0.00    -0.139 C  
HETATM   41  N   UNL     1     -11.100   7.837  68.141  1.00  0.00    -0.392 NA 
HETATM   42  H2  UNL     1     -11.392   6.965  67.701  1.00  0.00     0.000 HD 
HETATM   43  H1  UNL     1     -10.939   7.737  69.143  1.00  0.00     0.000 HD 
BRANCH  40  44
HETATM   44  O   UNL     1      -9.079   9.362  69.600  1.00  0.00    -0.156 OA 
BRANCH  44  45
HETATM   45  C   UNL     1      -9.229   7.972  69.923  1.00  0.00    -0.152 C  
HETATM   46  O   UNL     1      -8.000   7.390  70.341  1.00  0.00    -0.100 OA 
HETATM   47  C   UNL     1      -7.494   7.859  71.590  1.00  0.00    -0.072 C  
HETATM   48  C   UNL     1      -8.502   7.562  72.704  1.00  0.00    -0.117 C  
HETATM   49  H1  UNL     1     -12.374   8.181  71.327  1.00  0.00     0.000 HD 
HETATM   50  H2  UNL     1     -11.952   8.018  69.713  1.00  0.00     0.000 HD 
HETATM   51  O   UNL     1      -8.063   8.040  73.978  1.00  0.00    -0.205 OA 
HETATM   52  C   UNL     1      -9.854   8.203  72.361  1.00  0.00    -0.276 C  
HETATM   53  H   UNL     1      -8.688   7.856  74.668  1.00  0.00     0.000 HD 
HETATM   54  O   UNL     1     -10.824   7.843  73.360  1.00  0.00    -0.271 OA 
HETATM   55  N   UNL     1     -11.644   8.337  70.632  1.00  0.00    -0.240 NA 
HETATM   56  C   UNL     1     -10.338   7.734  70.980  1.00  0.00    -0.202 C  
HETATM   57  H   UNL     1     -11.660   8.239  73.148  1.00  0.00     0.000 HD 
BRANCH  47  58
HETATM   58  C   UNL     1      -6.157   7.146  71.835  1.00  0.00    -0.037 C  
HETATM   59  O   UNL     1      -5.523   7.668  73.006  1.00  0.00    -0.043 OA 
HETATM   60  H   UNL     1      -4.695   7.227  73.157  1.00  0.00     0.000 HD 
ENDBRANCH  47  58
ENDBRANCH  44  45
ENDBRANCH  40  44
ENDBRANCH  29  30
ENDBRANCH  22  29
ENDBRANCH  18  19
ENDBRANCH   7  18
ENDBRANCH   2   5
TORSDOF 9
ENDMDL
MODEL      216
REMARK 921   NORMALIZED FREE ENERGY PREDICTED BY IDOCK:   -3.71 KCAL/MOL
REMARK 922        TOTAL FREE ENERGY PREDICTED BY IDOCK:   -7.71 KCAL/MOL
REMARK 923 INTER-LIGAND FREE ENERGY PREDICTED BY IDOCK:   -8.08 KCAL/MOL
REMARK 924 INTRA-LIGAND FREE ENERGY PREDICTED BY IDOCK:    0.37 KCAL/MOL
REMARK 927      BINDING AFFINITY PREDICTED BY RF-SCORE:    0.00 PKD
ROOT
HETATM    1  N   UNL     1     -13.257  12.724  71.909  1.00  0.00    -0.445 NA 
HETATM    2  C   UNL     1     -12.300  12.270  70.879  1.00  0.00    -0.267 C  
HETATM    3  H1  UNL     1     -13.422  11.976  72.582  1.00  0.00     0.000 HD 
HETATM    4  H2  UNL     1     -14.125  13.070  71.500  1.00  0.00     0.000 HD 
ENDROOT
BRANCH   2   5
HETATM    5  C   UNL     1     -12.051  13.399  69.864  1.00  0.00    -0.322 C  
HETATM    6  O   UNL     1     -10.803  13.110  69.207  1.00  0.00    -0.144 OA 
HETATM    7  C   UNL     1     -10.565  13.979  68.103  1.00  0.00    -0.248 C  
HETATM    8  C   UNL     1     -10.348  15.423  68.642  1.00  0.00    -0.234 C  
HETATM    9  O   UNL     1     -11.067  14.783  71.604  1.00  0.00    -0.500 OA 
HETATM   10  H   UNL     1     -11.032  15.645  72.002  1.00  0.00     0.000 HD 
HETATM   11  N   UNL     1      -9.121  15.494  69.489  1.00  0.00    -0.285 NA 
HETATM   12  C   UNL     1     -11.594  15.853  69.451  1.00  0.00    -0.349 C  
HETATM   13  H2  UNL     1      -8.299  15.149  68.993  1.00  0.00     0.000 HD 
HETATM   14  O   UNL     1     -12.695  16.153  68.583  1.00  0.00     0.196 OA 
HETATM   15  C   UNL     1     -11.995  14.799  70.511  1.00  0.00    -0.312 C  
HETATM   16  H1  UNL     1      -8.979  16.441  69.843  1.00  0.00     0.000 HD 
HETATM   17  H   UNL     1     -13.460  16.417  69.080  1.00  0.00     0.000 HD 
BRANCH   7  18
HETATM   18  O   UNL     1      -9.399  13.583  67.376  1.00  0.00    -0.211 OA 
BRANCH  18  19
HETATM   19  C   UNL     1      -9.672  12.724  66.254  1.00  0.00    -0.262 C  
HETATM   20  O   UNL     1      -7.441  11.697  66.563  1.00  0.00    -0.318 OA 
HETATM   21  C   UNL     1     -11.073  12.158  66.477  1.00  0.00    -0.307 C  
HETATM   22  C   UNL     1      -9.559  10.502  67.109  1.00  0.00    -0.168 C  
HETATM   23  H   UNL     1      -6.899  10.918  66.524  1.00  0.00     0.000 HD 
HETATM   24  O   UNL     1     -10.925  10.914  67.178  1.00  0.00    -0.274 OA 
HETATM   25  C   UNL     1      -8.804  11.478  66.192  1.00  0.00    -0.167 C  
BRANCH  21  26
HETATM   26  C   UNL     1     -11.846  11.892  65.184  1.00  0.00    -0.121 C  
HETATM   27  H   UNL     1     -13.485  12.553  64.303  1.00  0.00     0.000 HD 
HETATM   28  O   UNL     1     -13.006  12.718  65.105  1.00  0.00    -0.768 OA 
ENDBRANCH  21  26
BRANCH  22  29
HETATM   29  O   UNL     1      -9.453   9.191  66.563  1.00  0.00    -0.174 OA 
BRANCH  29  30
HETATM   30  C   UNL     1      -8.600   8.237  67.227  1.00  0.00    -0.124 C  
HETATM   31  C   UNL     1      -8.154   8.782  68.597  1.00  0.00    -0.116 C  
HETATM   32  O   UNL     1      -9.280   9.305  69.316  1.00  0.00    -0.144 OA 
HETATM   33  C   UNL     1      -7.482   7.678  69.422  1.00  0.00    -0.089 C  
HETATM   34  C   UNL     1      -6.231   7.195  68.688  1.00  0.00    -0.031 C  
HETATM   35  N   UNL     1      -7.135   8.162  70.773  1.00  0.00    -0.047 NA 
HETATM   36  H   UNL     1      -9.005   9.640  70.161  1.00  0.00     0.000 HD 
HETATM   37  H1  UNL     1      -6.688   7.428  71.322  1.00  0.00     0.000 HD 
HETATM   38  H2  UNL     1      -7.947   8.549  71.253  1.00  0.00     0.000 HD 
HETATM   39  C   UNL     1      -6.552   6.704  67.266  1.00  0.00    -0.054 C  
HETATM   40  C   UNL     1      -7.390   7.720  66.403  1.00  0.00    -0.079 C  
HETATM   41  N   UNL     1      -5.283   6.347  66.598  1.00  0.00    -0.012 NA 
HETATM   42  H2  UNL     1      -4.735   5.672  67.132  1.00  0.00     0.000 HD 
HETATM   43  H1  UNL     1      -5.496   6.021  65.655  1.00  0.00     0.000 HD 
BRANCH  40  44
HETATM   44  O   UNL     1      -7.750   7.025  65.186  1.00  0.00    -0.098 OA 
BRANCH  44  45
HETATM   45  C   UNL     1      -7.570   5.602  65.210  1.00  0.00    -0.084 C  
HETATM   46  O   UNL     1      -8.280   4.996  66.285  1.00  0.00    -0.107 OA 
HETATM   47  C   UNL     1      -9.703   5.043  66.182  1.00  0.00    -0.183 C  
HETATM   48  C   UNL     1     -10.156   4.315  64.914  1.00  0.00    -0.169 C  
HETATM   49  H1  UNL     1      -7.521   5.102  61.797  1.00  0.00     0.000 HD 
HETATM   50  H2  UNL     1      -6.260   5.531  62.814  1.00  0.00     0.000 HD 
HETATM   51  O   UNL     1     -11.574   4.357  64.739  1.00  0.00    -1.000 OA 
HETATM   52  C   UNL     1      -9.476   4.940  63.688  1.00  0.00     0.279 C  
HETATM   53  H   UNL     1     -11.855   3.905  63.952  1.00  0.00     0.000 HD 
HETATM   54  O   UNL     1      -9.828   4.195  62.510  1.00  0.00    -0.141 OA 
HETATM   55  N   UNL     1      -7.273   5.536  62.685  1.00  0.00    -0.044 NA 
HETATM   56  C   UNL     1      -7.949   4.941  63.861  1.00  0.00    -0.098 C  
HETATM   57  H   UNL     1      -9.407   4.582  61.751  1.00  0.00     0.000 HD 
BRANCH  47  58
HETATM   58  C   UNL     1     -10.271   4.382  67.446  1.00  0.00     0.077 C  
HETATM   59  O   UNL     1      -9.618   4.896  68.610  1.00  0.00    -0.136 OA 
HETATM   60  H   UNL     1      -9.969   4.487  69.392  1.00  0.00     0.000 HD 
ENDBRANCH  47  58
ENDBRANCH  44  45
ENDBRANCH  40  44
ENDBRANCH  29  30
ENDBRANCH  22  29
ENDBRANCH  18  19
ENDBRANCH   7  18
ENDBRANCH   2   5
TORSDOF 9
ENDMDL
MODEL      217
REMARK 921   NORMALIZED FREE ENERGY PREDICTED BY IDOCK:   -3.68 KCAL/MOL
REMARK 922        TOTAL FREE ENERGY PREDICTED BY IDOCK:   -7.67 KCAL/MOL
REMARK 923 INTER-LIGAND FREE ENERGY PREDICTED BY IDOCK:   -6.25 KCAL/MOL
REMARK 924 INTRA-LIGAND FREE ENERGY PREDICTED BY IDOCK:   -1.42 KCAL/MOL
REMARK 927      BINDING AFFINITY PREDICTED BY RF-SCORE:    0.00 PKD
ROOT
HETATM    1  N   UNL     1     -11.273  11.086  70.658  1.00  0.00    -0.319 NA 
HETATM    2  C   UNL     1     -12.688  11.497  70.553  1.00  0.00    -0.110 C  
HETATM    3  H1  UNL     1     -11.205  10.069  70.632  1.00  0.00     0.000 HD 
HETATM    4  H2  UNL     1     -10.821  11.480  71.483  1.00  0.00     0.000 HD 
ENDROOT
BRANCH   2   5
HETATM    5  C   UNL     1     -12.791  13.031  70.591  1.00  0.00    -0.008 C  
HETATM    6  O   UNL     1     -11.469  13.538  70.849  1.00  0.00     0.257 OA 
HETATM    7  C   UNL     1     -11.402  14.955  70.708  1.00  0.00    -0.224 C  
HETATM    8  C   UNL     1     -12.251  15.610  71.835  1.00  0.00    -0.427 C  
HETATM    9  O   UNL     1     -13.456  12.954  72.929  1.00  0.00    -0.626 OA 
HETATM   10  H   UNL     1     -14.060  13.273  73.589  1.00  0.00     0.000 HD 
HETATM   11  N   UNL     1     -11.675  15.306  73.179  1.00  0.00    -0.393 NA 
HETATM   12  C   UNL     1     -13.705  15.093  71.737  1.00  0.00    -0.480 C  
HETATM   13  H2  UNL     1     -10.694  15.579  73.239  1.00  0.00     0.000 HD 
HETATM   14  O   UNL     1     -14.392  15.692  70.630  1.00  0.00    -0.688 OA 
HETATM   15  C   UNL     1     -13.773  13.549  71.664  1.00  0.00    -0.199 C  
HETATM   16  H1  UNL     1     -12.232  15.736  73.918  1.00  0.00     0.000 HD 
HETATM   17  H   UNL     1     -15.286  15.374  70.570  1.00  0.00     0.000 HD 
BRANCH   7  18
HETATM   18  O   UNL     1     -10.054  15.422  70.821  1.00  0.00     0.091 OA 
BRANCH  18  19
HETATM   19  C   UNL     1      -9.584  16.138  69.666  1.00  0.00    -0.060 C  
HETATM   20  O   UNL     1      -7.700  14.541  69.506  1.00  0.00    -0.343 OA 
HETATM   21  C   UNL     1     -10.798  16.345  68.763  1.00  0.00    -0.338 C  
HETATM   22  C   UNL     1      -9.592  14.554  67.885  1.00  0.00    -0.217 C  
HETATM   23  H   UNL     1      -7.104  14.048  68.954  1.00  0.00     0.000 HD 
HETATM   24  O   UNL     1     -10.846  15.239  67.849  1.00  0.00    -0.271 OA 
HETATM   25  C   UNL     1      -8.631  15.350  68.783  1.00  0.00    -0.190 C  
BRANCH  21  26
HETATM   26  C   UNL     1     -10.752  17.640  67.949  1.00  0.00    -0.337 C  
HETATM   27  H   UNL     1      -9.389  18.932  67.341  1.00  0.00     0.000 HD 
HETATM   28  O   UNL     1      -9.417  18.129  67.846  1.00  0.00    -0.270 OA 
ENDBRANCH  21  26
BRANCH  22  29
HETATM   29  O   UNL     1      -9.028  14.465  66.580  1.00  0.00    -0.252 OA 
BRANCH  29  30
HETATM   30  C   UNL     1      -9.813  13.865  65.532  1.00  0.00    -0.185 C  
HETATM   31  C   UNL     1     -10.900  14.845  65.050  1.00  0.00    -0.423 C  
HETATM   32  O   UNL     1     -10.333  16.143  64.819  1.00  0.00    -0.574 OA 
HETATM   33  C   UNL     1     -11.555  14.332  63.763  1.00  0.00     0.266 C  
HETATM   34  C   UNL     1     -12.235  12.993  64.046  1.00  0.00    -0.489 C  
HETATM   35  N   UNL     1     -12.531  15.307  63.239  1.00  0.00    -0.031 NA 
HETATM   36  H   UNL     1     -11.003  16.747  64.522  1.00  0.00     0.000 HD 
HETATM   37  H1  UNL     1     -12.968  14.966  62.383  1.00  0.00     0.000 HD 
HETATM   38  H2  UNL     1     -12.110  16.226  63.105  1.00  0.00     0.000 HD 
HETATM   39  C   UNL     1     -11.251  11.956  64.616  1.00  0.00    -0.305 C  
HETATM   40  C   UNL     1     -10.412  12.468  65.847  1.00  0.00    -0.265 C  
HETATM   41  N   UNL     1     -12.005  10.730  64.949  1.00  0.00     1.340 NA 
HETATM   42  H2  UNL     1     -12.538  10.370  64.157  1.00  0.00     0.000 HD 
HETATM   43  H1  UNL     1     -11.352  10.043  65.326  1.00  0.00     0.000 HD 
BRANCH  40  44
HETATM   44  O   UNL     1      -9.427  11.445  66.125  1.00  0.00    -0.203 OA 
BRANCH  44  45
HETATM   45  C   UNL     1      -8.212  11.534  65.367  1.00  0.00     0.514 C  
HETATM   46  O   UNL     1      -7.172  12.163  66.106  1.00  0.00     0.570 OA 
HETATM   47  C   UNL     1      -6.685  11.425  67.226  1.00  0.00    -0.111 C  
HETATM   48  C   UNL     1      -6.118  10.082  66.759  1.00  0.00    -0.060 C  
HETATM   49  H1  UNL     1      -8.489   8.509  63.729  1.00  0.00     0.000 HD 
HETATM   50  H2  UNL     1      -9.151   9.993  63.315  1.00  0.00     0.000 HD 
HETATM   51  O   UNL     1      -5.644   9.283  67.845  1.00  0.00    -0.038 OA 
HETATM   52  C   UNL     1      -7.197   9.306  65.992  1.00  0.00    -0.091 C  
HETATM   53  H   UNL     1      -5.292   8.450  67.555  1.00  0.00     0.000 HD 
HETATM   54  O   UNL     1      -6.635   8.088  65.472  1.00  0.00    -0.045 OA 
HETATM   55  N   UNL     1      -8.792   9.418  64.078  1.00  0.00    -0.206 NA 
HETATM   56  C   UNL     1      -7.752  10.153  64.835  1.00  0.00    -0.143 C  
HETATM   57  H   UNL     1      -7.303   7.607  64.997  1.00  0.00     0.000 HD 
BRANCH  47  58
HETATM   58  C   UNL     1      -5.610  12.287  67.903  1.00  0.00    -0.075 C  
HETATM   59  O   UNL     1      -5.420  13.505  67.178  1.00  0.00    -0.289 OA 
HETATM   60  H   UNL     1      -4.755  14.038  67.596  1.00  0.00     0.000 HD 
ENDBRANCH  47  58
ENDBRANCH  44  45
ENDBRANCH  40  44
ENDBRANCH  29  30
ENDBRANCH  22  29
ENDBRANCH  18  19
ENDBRANCH   7  18
ENDBRANCH   2   5
TORSDOF 9
ENDMDL
MODEL      218
REMARK 921   NORMALIZED FREE ENERGY PREDICTED BY IDOCK:   -3.68 KCAL/MOL
REMARK 922        TOTAL FREE ENERGY PREDICTED BY IDOCK:   -7.66 KCAL/MOL
REMARK 923 INTER-LIGAND FREE ENERGY PREDICTED BY IDOCK:   -7.90 KCAL/MOL
REMARK 924 INTRA-LIGAND FREE ENERGY PREDICTED BY IDOCK:    0.24 KCAL/MOL
REMARK 927      BINDING AFFINITY PREDICTED BY RF-SCORE:    0.00 PKD
ROOT
HETATM    1  N   UNL     1     -10.219  19.676  69.383  1.00  0.00    -0.607 NA 
HETATM    2  C   UNL     1     -10.050  19.905  67.934  1.00  0.00    -0.436 C  
HETATM    3  H1  UNL     1     -10.943  20.294  69.750  1.00  0.00     0.000 HD 
HETATM    4  H2  UNL     1      -9.340  19.772  69.892  1.00  0.00     0.000 HD 
ENDROOT
BRANCH   2   5
HETATM    5  C   UNL     1      -8.959  18.973  67.382  1.00  0.00    -0.291 C  
HETATM    6  O   UNL     1      -9.085  17.717  68.073  1.00  0.00    -0.254 OA 
HETATM    7  C   UNL     1      -8.256  16.706  67.503  1.00  0.00    -0.164 C  
HETATM    8  C   UNL     1      -6.766  17.088  67.745  1.00  0.00    -0.148 C  
HETATM    9  O   UNL     1      -7.335  19.912  68.930  1.00  0.00    -0.310 OA 
HETATM   10  H   UNL     1      -6.457  20.256  69.041  1.00  0.00     0.000 HD 
HETATM   11  N   UNL     1      -6.452  17.100  69.205  1.00  0.00    -0.212 NA 
HETATM   12  C   UNL     1      -6.492  18.475  67.119  1.00  0.00    -0.183 C  
HETATM   13  H2  UNL     1      -6.691  16.213  69.650  1.00  0.00     0.000 HD 
HETATM   14  O   UNL     1      -6.421  18.390  65.689  1.00  0.00    -0.239 OA 
HETATM   15  C   UNL     1      -7.531  19.532  67.561  1.00  0.00    -0.244 C  
HETATM   16  H1  UNL     1      -5.476  17.350  69.364  1.00  0.00     0.000 HD 
HETATM   17  H   UNL     1      -6.253  19.242  65.304  1.00  0.00     0.000 HD 
BRANCH   7  18
HETATM   18  O   UNL     1      -8.505  15.434  68.107  1.00  0.00    -0.144 OA 
BRANCH  18  19
HETATM   19  C   UNL     1      -8.300  14.317  67.223  1.00  0.00    -0.204 C  
HETATM   20  O   UNL     1      -5.957  14.189  68.011  1.00  0.00    -0.120 OA 
HETATM   21  C   UNL     1      -9.481  13.373  67.440  1.00  0.00    -0.222 C  
HETATM   22  C   UNL     1      -7.678  12.496  68.629  1.00  0.00    -0.063 C  
HETATM   23  H   UNL     1      -5.207  13.648  68.230  1.00  0.00     0.000 HD 
HETATM   24  O   UNL     1      -9.094  12.429  68.450  1.00  0.00    -0.195 OA 
HETATM   25  C   UNL     1      -7.101  13.452  67.572  1.00  0.00    -0.144 C  
BRANCH  21  26
HETATM   26  C   UNL     1      -9.892  12.597  66.188  1.00  0.00    -0.259 C  
HETATM   27  H   UNL     1     -10.721  12.985  64.438  1.00  0.00     0.000 HD 
HETATM   28  O   UNL     1     -10.466  13.466  65.215  1.00  0.00    -0.300 OA 
ENDBRANCH  21  26
BRANCH  22  29
HETATM   29  O   UNL     1      -7.086  11.212  68.454  1.00  0.00    -0.068 OA 
BRANCH  29  30
HETATM   30  C   UNL     1      -7.763  10.252  67.620  1.00  0.00    -0.090 C  
HETATM   31  C   UNL     1      -7.712  10.693  66.144  1.00  0.00    -0.145 C  
HETATM   32  O   UNL     1      -6.379  11.084  65.788  1.00  0.00    -0.321 OA 
HETATM   33  C   UNL     1      -8.180   9.558  65.226  1.00  0.00    -0.130 C  
HETATM   34  C   UNL     1      -9.633   9.215  65.555  1.00  0.00    -0.239 C  
HETATM   35  N   UNL     1      -8.045   9.935  63.806  1.00  0.00    -0.142 NA 
HETATM   36  H   UNL     1      -6.347  11.356  64.879  1.00  0.00     0.000 HD 
HETATM   37  H1  UNL     1      -8.357   9.181  63.195  1.00  0.00     0.000 HD 
HETATM   38  H2  UNL     1      -7.095  10.230  63.584  1.00  0.00     0.000 HD 
HETATM   39  C   UNL     1      -9.815   8.838  67.035  1.00  0.00    -0.216 C  
HETATM   40  C   UNL     1      -9.209   9.881  68.049  1.00  0.00    -0.124 C  
HETATM   41  N   UNL     1     -11.254   8.615  67.287  1.00  0.00    -0.104 NA 
HETATM   42  H2  UNL     1     -11.661   7.926  66.654  1.00  0.00     0.000 HD 
HETATM   43  H1  UNL     1     -11.375   8.366  68.268  1.00  0.00     0.000 HD 
BRANCH  40  44
HETATM   44  O   UNL     1      -9.306   9.280  69.361  1.00  0.00    -0.153 OA 
BRANCH  44  45
HETATM   45  C   UNL     1      -8.587   8.051  69.534  1.00  0.00    -0.136 C  
HETATM   46  O   UNL     1      -7.347   8.253  70.202  1.00  0.00    -0.054 OA 
HETATM   47  C   UNL     1      -7.446   8.651  71.569  1.00  0.00    -0.101 C  
HETATM   48  C   UNL     1      -8.187   7.578  72.371  1.00  0.00    -0.104 C  
HETATM   49  H1  UNL     1     -11.314   6.019  70.120  1.00  0.00     0.000 HD 
HETATM   50  H2  UNL     1     -10.651   6.492  68.655  1.00  0.00     0.000 HD 
HETATM   51  O   UNL     1      -8.346   7.938  73.745  1.00  0.00    -0.188 OA 
HETATM   52  C   UNL     1      -9.568   7.331  71.749  1.00  0.00    -0.150 C  
HETATM   53  H   UNL     1      -8.806   7.272  74.243  1.00  0.00     0.000 HD 
HETATM   54  O   UNL     1     -10.224   6.257  72.445  1.00  0.00    -0.184 OA 
HETATM   55  N   UNL     1     -10.756   6.727  69.642  1.00  0.00    -0.235 NA 
HETATM   56  C   UNL     1      -9.434   6.975  70.260  1.00  0.00    -0.165 C  
HETATM   57  H   UNL     1     -11.079   6.104  72.060  1.00  0.00     0.000 HD 
BRANCH  47  58
HETATM   58  C   UNL     1      -6.015   8.854  72.086  1.00  0.00    -0.072 C  
HETATM   59  O   UNL     1      -5.187   7.753  71.703  1.00  0.00    -0.034 OA 
HETATM   60  H   UNL     1      -4.302   7.878  72.023  1.00  0.00     0.000 HD 
ENDBRANCH  47  58
ENDBRANCH  44  45
ENDBRANCH  40  44
ENDBRANCH  29  30
ENDBRANCH  22  29
ENDBRANCH  18  19
ENDBRANCH   7  18
ENDBRANCH   2   5
TORSDOF 9
ENDMDL
MODEL      219
REMARK 921   NORMALIZED FREE ENERGY PREDICTED BY IDOCK:   -3.66 KCAL/MOL
REMARK 922        TOTAL FREE ENERGY PREDICTED BY IDOCK:   -7.62 KCAL/MOL
REMARK 923 INTER-LIGAND FREE ENERGY PREDICTED BY IDOCK:   -6.30 KCAL/MOL
REMARK 924 INTRA-LIGAND FREE ENERGY PREDICTED BY IDOCK:   -1.33 KCAL/MOL
REMARK 927      BINDING AFFINITY PREDICTED BY RF-SCORE:    0.00 PKD
ROOT
HETATM    1  N   UNL     1      -9.869   2.108  69.848  1.00  0.00     0.143 NA 
HETATM    2  C   UNL     1      -9.140   2.596  71.036  1.00  0.00    -0.110 C  
HETATM    3  H1  UNL     1      -9.383   1.305  69.448  1.00  0.00     0.000 HD 
HETATM    4  H2  UNL     1     -10.020   2.847  69.160  1.00  0.00     0.000 HD 
ENDROOT
BRANCH   2   5
HETATM    5  C   UNL     1      -9.873   3.805  71.639  1.00  0.00    -0.170 C  
HETATM    6  O   UNL     1      -8.920   4.881  71.720  1.00  0.00    -0.132 OA 
HETATM    7  C   UNL     1      -9.536   6.117  72.077  1.00  0.00    -0.152 C  
HETATM    8  C   UNL     1     -10.063   6.008  73.538  1.00  0.00    -0.201 C  
HETATM    9  O   UNL     1      -9.454   2.973  73.885  1.00  0.00    -0.087 OA 
HETATM   10  H   UNL     1      -9.822   2.799  74.744  1.00  0.00     0.000 HD 
HETATM   11  N   UNL     1      -8.934   5.823  74.497  1.00  0.00    -0.125 NA 
HETATM   12  C   UNL     1     -11.055   4.826  73.630  1.00  0.00    -0.304 C  
HETATM   13  H2  UNL     1      -8.233   6.558  74.402  1.00  0.00     0.000 HD 
HETATM   14  O   UNL     1     -12.308   5.154  73.016  1.00  0.00    -0.444 OA 
HETATM   15  C   UNL     1     -10.470   3.523  73.035  1.00  0.00    -0.166 C  
HETATM   16  H1  UNL     1      -9.279   5.751  75.454  1.00  0.00     0.000 HD 
HETATM   17  H   UNL     1     -12.917   4.428  73.073  1.00  0.00     0.000 HD 
BRANCH   7  18
HETATM   18  O   UNL     1      -8.602   7.198  72.008  1.00  0.00    -0.112 OA 
BRANCH  18  19
HETATM   19  C   UNL     1      -8.821   8.090  70.900  1.00  0.00    -0.139 C  
HETATM   20  O   UNL     1      -6.400   8.605  70.903  1.00  0.00    -0.037 OA 
HETATM   21  C   UNL     1      -9.679   7.325  69.894  1.00  0.00    -0.174 C  
HETATM   22  C   UNL     1      -7.481   7.240  69.122  1.00  0.00    -0.093 C  
HETATM   23  H   UNL     1      -5.618   8.812  70.405  1.00  0.00     0.000 HD 
HETATM   24  O   UNL     1      -8.786   6.675  68.977  1.00  0.00    -0.129 OA 
HETATM   25  C   UNL     1      -7.570   8.419  70.103  1.00  0.00    -0.070 C  
BRANCH  21  26
HETATM   26  C   UNL     1     -10.631   8.212  69.091  1.00  0.00    -0.166 C  
HETATM   27  H   UNL     1     -11.653   9.880  69.367  1.00  0.00     0.000 HD 
HETATM   28  O   UNL     1     -11.063   9.329  69.866  1.00  0.00    -0.236 OA 
ENDBRANCH  21  26
BRANCH  22  29
HETATM   29  O   UNL     1      -6.999   7.723  67.872  1.00  0.00    -0.072 OA 
BRANCH  29  30
HETATM   30  C   UNL     1      -7.507   7.127  66.662  1.00  0.00    -0.088 C  
HETATM   31  C   UNL     1      -6.632   5.928  66.247  1.00  0.00    -0.055 C  
HETATM   32  O   UNL     1      -6.386   5.077  67.375  1.00  0.00    -0.037 OA 
HETATM   33  C   UNL     1      -7.312   5.125  65.133  1.00  0.00    -0.068 C  
HETATM   34  C   UNL     1      -7.484   6.018  63.905  1.00  0.00    -0.080 C  
HETATM   35  N   UNL     1      -6.529   3.921  64.792  1.00  0.00    -0.040 NA 
HETATM   36  H   UNL     1      -5.847   4.339  67.119  1.00  0.00     0.000 HD 
HETATM   37  H1  UNL     1      -6.981   3.387  64.051  1.00  0.00     0.000 HD 
HETATM   38  H2  UNL     1      -6.348   3.346  65.614  1.00  0.00     0.000 HD 
HETATM   39  C   UNL     1      -8.278   7.296  64.228  1.00  0.00     0.028 C  
HETATM   40  C   UNL     1      -7.738   8.097  65.472  1.00  0.00    -0.095 C  
HETATM   41  N   UNL     1      -8.315   8.142  63.017  1.00  0.00    -0.377 NA 
HETATM   42  H2  UNL     1      -8.683   7.646  62.204  1.00  0.00     0.000 HD 
HETATM   43  H1  UNL     1      -8.842   8.988  63.231  1.00  0.00     0.000 HD 
BRANCH  40  44
HETATM   44  O   UNL     1      -8.702   9.143  65.734  1.00  0.00    -0.145 OA 
BRANCH  44  45
HETATM   45  C   UNL     1      -8.344  10.448  65.257  1.00  0.00    -0.166 C  
HETATM   46  O   UNL     1      -9.476  11.167  64.781  1.00  0.00    -0.220 OA 
HETATM   47  C   UNL     1     -10.425  11.544  65.777  1.00  0.00    -0.259 C  
HETATM   48  C   UNL     1      -9.758  12.448  66.817  1.00  0.00    -0.223 C  
HETATM   49  H1  UNL     1      -5.897  11.120  67.596  1.00  0.00     0.000 HD 
HETATM   50  H2  UNL     1      -5.768  10.281  66.151  1.00  0.00     0.000 HD 
HETATM   51  O   UNL     1     -10.654  12.832  67.861  1.00  0.00    -0.212 OA 
HETATM   52  C   UNL     1      -8.548  11.728  67.427  1.00  0.00    -0.160 C  
HETATM   53  H   UNL     1     -10.240  13.394  68.506  1.00  0.00     0.000 HD 
HETATM   54  O   UNL     1      -7.866  12.614  68.332  1.00  0.00    -0.136 OA 
HETATM   55  N   UNL     1      -6.401  10.578  66.893  1.00  0.00    -0.070 NA 
HETATM   56  C   UNL     1      -7.579  11.271  66.324  1.00  0.00    -0.032 C  
HETATM   57  H   UNL     1      -7.117  12.168  68.710  1.00  0.00     0.000 HD 
BRANCH  47  58
HETATM   58  C   UNL     1     -11.575  12.263  65.059  1.00  0.00    -0.343 C  
HETATM   59  O   UNL     1     -12.513  12.773  66.010  1.00  0.00    -0.540 OA 
HETATM   60  H   UNL     1     -13.225  13.218  65.566  1.00  0.00     0.000 HD 
ENDBRANCH  47  58
ENDBRANCH  44  45
ENDBRANCH  40  44
ENDBRANCH  29  30
ENDBRANCH  22  29
ENDBRANCH  18  19
ENDBRANCH   7  18
ENDBRANCH   2   5
TORSDOF 9
ENDMDL
MODEL      220
REMARK 921   NORMALIZED FREE ENERGY PREDICTED BY IDOCK:   -3.61 KCAL/MOL
REMARK 922        TOTAL FREE ENERGY PREDICTED BY IDOCK:   -7.56 KCAL/MOL
REMARK 923 INTER-LIGAND FREE ENERGY PREDICTED BY IDOCK:   -6.07 KCAL/MOL
REMARK 924 INTRA-LIGAND FREE ENERGY PREDICTED BY IDOCK:   -1.49 KCAL/MOL
REMARK 927      BINDING AFFINITY PREDICTED BY RF-SCORE:    0.00 PKD
ROOT
HETATM    1  N   UNL     1     -10.019  13.184  65.699  1.00  0.00    -0.391 NA 
HETATM    2  C   UNL     1      -9.096  13.409  66.830  1.00  0.00    -0.231 C  
HETATM    3  H1  UNL     1      -9.559  13.429  64.822  1.00  0.00     0.000 HD 
HETATM    4  H2  UNL     1     -10.902  13.679  65.821  1.00  0.00     0.000 HD 
ENDROOT
BRANCH   2   5
HETATM    5  C   UNL     1      -9.789  13.038  68.152  1.00  0.00    -0.228 C  
HETATM    6  O   UNL     1     -10.019  11.618  68.126  1.00  0.00    -0.182 OA 
HETATM    7  C   UNL     1     -10.475  11.125  69.384  1.00  0.00    -0.095 C  
HETATM    8  C   UNL     1     -11.894  11.702  69.661  1.00  0.00    -0.352 C  
HETATM    9  O   UNL     1     -11.954  13.627  67.213  1.00  0.00    -0.376 OA 
HETATM   10  H   UNL     1     -12.774  14.087  67.348  1.00  0.00     0.000 HD 
HETATM   11  N   UNL     1     -12.875  11.208  68.650  1.00  0.00     0.423 NA 
HETATM   12  C   UNL     1     -11.824  13.247  69.641  1.00  0.00    -0.327 C  
HETATM   13  H2  UNL     1     -12.885  10.189  68.600  1.00  0.00     0.000 HD 
HETATM   14  O   UNL     1     -11.195  13.750  70.828  1.00  0.00    -0.265 OA 
HETATM   15  C   UNL     1     -11.122  13.784  68.371  1.00  0.00    -0.263 C  
HETATM   16  H1  UNL     1     -13.805  11.587  68.831  1.00  0.00     0.000 HD 
HETATM   17  H   UNL     1     -11.152  14.699  70.816  1.00  0.00     0.000 HD 
BRANCH   7  18
HETATM   18  O   UNL     1     -10.556   9.697  69.381  1.00  0.00    -0.209 OA 
BRANCH  18  19
HETATM   19  C   UNL     1      -9.537   9.052  70.167  1.00  0.00    -0.193 C  
HETATM   20  O   UNL     1     -10.509   6.865  69.536  1.00  0.00    -0.205 OA 
HETATM   21  C   UNL     1      -8.214   9.708  69.779  1.00  0.00    -0.161 C  
HETATM   22  C   UNL     1      -8.329   7.676  68.641  1.00  0.00    -0.129 C  
HETATM   23  H   UNL     1     -10.367   5.951  69.321  1.00  0.00     0.000 HD 
HETATM   24  O   UNL     1      -7.647   8.930  68.714  1.00  0.00    -0.088 OA 
HETATM   25  C   UNL     1      -9.310   7.590  69.822  1.00  0.00    -0.150 C  
BRANCH  21  26
HETATM   26  C   UNL     1      -7.197   9.773  70.920  1.00  0.00     0.098 C  
HETATM   27  H   UNL     1      -7.048   9.128  72.780  1.00  0.00     0.000 HD 
HETATM   28  O   UNL     1      -7.680   9.087  72.072  1.00  0.00    -0.348 OA 
ENDBRANCH  21  26
BRANCH  22  29
HETATM   29  O   UNL     1      -7.408   6.594  68.735  1.00  0.00    -0.085 OA 
BRANCH  29  30
HETATM   30  C   UNL     1      -7.677   5.395  67.982  1.00  0.00    -0.091 C  
HETATM   31  C   UNL     1      -7.311   4.149  68.811  1.00  0.00    -0.055 C  
HETATM   32  O   UNL     1      -7.850   4.256  70.136  1.00  0.00    -0.052 OA 
HETATM   33  C   UNL     1      -7.845   2.879  68.138  1.00  0.00    -0.055 C  
HETATM   34  C   UNL     1      -7.192   2.728  66.765  1.00  0.00    -0.061 C  
HETATM   35  N   UNL     1      -7.584   1.688  68.970  1.00  0.00    -0.043 NA 
HETATM   36  H   UNL     1      -7.625   3.488  70.647  1.00  0.00     0.000 HD 
HETATM   37  H1  UNL     1      -7.938   0.843  68.523  1.00  0.00     0.000 HD 
HETATM   38  H2  UNL     1      -7.957   1.799  69.912  1.00  0.00     0.000 HD 
HETATM   39  C   UNL     1      -7.424   3.963  65.877  1.00  0.00    -0.081 C  
HETATM   40  C   UNL     1      -7.054   5.332  66.561  1.00  0.00    -0.069 C  
HETATM   41  N   UNL     1      -6.685   3.774  64.611  1.00  0.00    -0.043 NA 
HETATM   42  H2  UNL     1      -6.927   2.902  64.141  1.00  0.00     0.000 HD 
HETATM   43  H1  UNL     1      -6.839   4.593  64.023  1.00  0.00     0.000 HD 
BRANCH  40  44
HETATM   44  O   UNL     1      -7.506   6.373  65.664  1.00  0.00    -0.077 OA 
BRANCH  44  45
HETATM   45  C   UNL     1      -6.485   6.995  64.872  1.00  0.00    -0.043 C  
HETATM   46  O   UNL     1      -7.006   7.527  63.659  1.00  0.00    -0.056 OA 
HETATM   47  C   UNL     1      -7.885   8.641  63.808  1.00  0.00    -0.148 C  
HETATM   48  C   UNL     1      -7.150   9.795  64.494  1.00  0.00    -0.128 C  
HETATM   49  H1  UNL     1      -4.652   8.327  67.474  1.00  0.00     0.000 HD 
HETATM   50  H2  UNL     1      -4.577   6.787  66.817  1.00  0.00     0.000 HD 
HETATM   51  O   UNL     1      -7.993  10.931  64.700  1.00  0.00    -0.362 OA 
HETATM   52  C   UNL     1      -6.596   9.324  65.846  1.00  0.00    -0.076 C  
HETATM   53  H   UNL     1      -7.537  11.648  65.126  1.00  0.00     0.000 HD 
HETATM   54  O   UNL     1      -5.826  10.381  66.445  1.00  0.00    -0.060 OA 
HETATM   55  N   UNL     1      -5.161   7.613  66.954  1.00  0.00    -0.023 NA 
HETATM   56  C   UNL     1      -5.711   8.081  65.661  1.00  0.00    -0.037 C  
HETATM   57  H   UNL     1      -5.482  10.089  67.281  1.00  0.00     0.000 HD 
BRANCH  47  58
HETATM   58  C   UNL     1      -8.363   9.032  62.402  1.00  0.00    -0.189 C  
HETATM   59  O   UNL     1      -9.642   9.668  62.472  1.00  0.00    -0.561 OA 
HETATM   60  H   UNL     1      -9.937   9.910  61.603  1.00  0.00     0.000 HD 
ENDBRANCH  47  58
ENDBRANCH  44  45
ENDBRANCH  40  44
ENDBRANCH  29  30
ENDBRANCH  22  29
ENDBRANCH  18  19
ENDBRANCH   7  18
ENDBRANCH   2   5
TORSDOF 9
ENDMDL
MODEL      221
REMARK 921   NORMALIZED FREE ENERGY PREDICTED BY IDOCK:   -3.60 KCAL/MOL
REMARK 922        TOTAL FREE ENERGY PREDICTED BY IDOCK:   -7.55 KCAL/MOL
REMARK 923 INTER-LIGAND FREE ENERGY PREDICTED BY IDOCK:   -6.48 KCAL/MOL
REMARK 924 INTRA-LIGAND FREE ENERGY PREDICTED BY IDOCK:   -1.07 KCAL/MOL
REMARK 927      BINDING AFFINITY PREDICTED BY RF-SCORE:    0.00 PKD
ROOT
HETATM    1  N   UNL     1      -9.072   8.971  71.112  1.00  0.00    -0.245 NA 
HETATM    2  C   UNL     1     -10.346   8.517  71.705  1.00  0.00    -0.263 C  
HETATM    3  H1  UNL     1      -8.295   8.450  71.520  1.00  0.00     0.000 HD 
HETATM    4  H2  UNL     1      -8.946   9.979  71.199  1.00  0.00     0.000 HD 
ENDROOT
BRANCH   2   5
HETATM    5  C   UNL     1     -11.517   9.302  71.089  1.00  0.00    -0.333 C  
HETATM    6  O   UNL     1     -11.196  10.700  71.202  1.00  0.00     0.019 OA 
HETATM    7  C   UNL     1     -12.115  11.521  70.484  1.00  0.00    -0.378 C  
HETATM    8  C   UNL     1     -13.509  11.428  71.170  1.00  0.00     0.476 C  
HETATM    9  O   UNL     1     -12.735   9.187  73.191  1.00  0.00    -0.324 OA 
HETATM   10  H   UNL     1     -13.568   9.010  73.612  1.00  0.00     0.000 HD 
HETATM   11  N   UNL     1     -13.458  11.986  72.554  1.00  0.00    -0.509 NA 
HETATM   12  C   UNL     1     -13.961   9.949  71.198  1.00  0.00     0.223 C  
HETATM   13  H2  UNL     1     -13.096  12.940  72.563  1.00  0.00     0.000 HD 
HETATM   14  O   UNL     1     -14.377   9.513  69.896  1.00  0.00     0.684 OA 
HETATM   15  C   UNL     1     -12.871   9.014  71.774  1.00  0.00    -0.374 C  
HETATM   16  H1  UNL     1     -14.371  11.925  73.004  1.00  0.00     0.000 HD 
HETATM   17  H   UNL     1     -14.654   8.604  69.913  1.00  0.00     0.000 HD 
BRANCH   7  18
HETATM   18  O   UNL     1     -11.696  12.888  70.485  1.00  0.00    -0.165 OA 
BRANCH  18  19
HETATM   19  C   UNL     1     -11.639  13.484  69.176  1.00  0.00    -0.310 C  
HETATM   20  O   UNL     1      -9.535  14.608  69.836  1.00  0.00    -0.319 OA 
HETATM   21  C   UNL     1     -11.901  12.357  68.179  1.00  0.00    -0.315 C  
HETATM   22  C   UNL     1      -9.598  12.717  68.214  1.00  0.00    -0.211 C  
HETATM   23  H   UNL     1      -8.675  14.922  69.585  1.00  0.00     0.000 HD 
HETATM   24  O   UNL     1     -10.626  11.814  67.803  1.00  0.00    -0.191 OA 
HETATM   25  C   UNL     1     -10.263  13.985  68.774  1.00  0.00    -0.197 C  
BRANCH  21  26
HETATM   26  C   UNL     1     -12.624  12.810  66.909  1.00  0.00     0.853 C  
HETATM   27  H   UNL     1     -12.960  14.501  65.946  1.00  0.00     0.000 HD 
HETATM   28  O   UNL     1     -12.511  14.220  66.734  1.00  0.00    -0.376 OA 
ENDBRANCH  21  26
BRANCH  22  29
HETATM   29  O   UNL     1      -8.776  13.084  67.110  1.00  0.00    -0.196 OA 
BRANCH  29  30
HETATM   30  C   UNL     1      -8.835  12.282  65.915  1.00  0.00     0.248 C  
HETATM   31  C   UNL     1     -10.064  12.670  65.070  1.00  0.00    -0.231 C  
HETATM   32  O   UNL     1     -10.149  14.095  64.939  1.00  0.00    -0.541 OA 
HETATM   33  C   UNL     1      -9.987  12.027  63.681  1.00  0.00    -0.363 C  
HETATM   34  C   UNL     1      -9.992  10.506  63.831  1.00  0.00    -0.348 C  
HETATM   35  N   UNL     1     -11.110  12.467  62.830  1.00  0.00    -0.526 NA 
HETATM   36  H   UNL     1     -10.906  14.334  64.419  1.00  0.00     0.000 HD 
HETATM   37  H1  UNL     1     -11.060  12.039  61.906  1.00  0.00     0.000 HD 
HETATM   38  H2  UNL     1     -11.162  13.483  62.772  1.00  0.00     0.000 HD 
HETATM   39  C   UNL     1      -8.846  10.013  64.732  1.00  0.00    -0.195 C  
HETATM   40  C   UNL     1      -8.754  10.745  66.123  1.00  0.00    -0.180 C  
HETATM   41  N   UNL     1      -8.981   8.550  64.900  1.00  0.00    -0.416 NA 
HETATM   42  H2  UNL     1      -9.020   8.055  64.009  1.00  0.00     0.000 HD 
HETATM   43  H1  UNL     1      -8.221   8.224  65.497  1.00  0.00     0.000 HD 
BRANCH  40  44
HETATM   44  O   UNL     1      -7.529  10.291  66.744  1.00  0.00    -0.101 OA 
BRANCH  44  45
HETATM   45  C   UNL     1      -7.657   9.821  68.094  1.00  0.00    -0.082 C  
HETATM   46  O   UNL     1      -8.821   9.022  68.269  1.00  0.00    -0.133 OA 
HETATM   47  C   UNL     1      -8.808   7.765  67.594  1.00  0.00    -0.128 C  
HETATM   48  C   UNL     1      -7.635   6.918  68.095  1.00  0.00    -0.108 C  
HETATM   49  H1  UNL     1      -4.299   9.320  68.709  1.00  0.00     0.000 HD 
HETATM   50  H2  UNL     1      -5.193  10.730  68.848  1.00  0.00     0.000 HD 
HETATM   51  O   UNL     1      -7.551   5.657  67.428  1.00  0.00    -0.087 OA 
HETATM   52  C   UNL     1      -6.321   7.686  67.894  1.00  0.00    -0.050 C  
HETATM   53  H   UNL     1      -6.823   5.131  67.739  1.00  0.00     0.000 HD 
HETATM   54  O   UNL     1      -5.232   6.929  68.452  1.00  0.00    -0.014 OA 
HETATM   55  N   UNL     1      -5.131   9.818  68.395  1.00  0.00    -0.033 NA 
HETATM   56  C   UNL     1      -6.392   9.063  68.572  1.00  0.00    -0.054 C  
HETATM   57  H   UNL     1      -4.419   7.404  68.328  1.00  0.00     0.000 HD 
BRANCH  47  58
HETATM   58  C   UNL     1     -10.155   7.086  67.875  1.00  0.00    -0.169 C  
HETATM   59  O   UNL     1     -10.912   6.967  66.667  1.00  0.00    -0.513 OA 
HETATM   60  H   UNL     1     -11.746   6.547  66.840  1.00  0.00     0.000 HD 
ENDBRANCH  47  58
ENDBRANCH  44  45
ENDBRANCH  40  44
ENDBRANCH  29  30
ENDBRANCH  22  29
ENDBRANCH  18  19
ENDBRANCH   7  18
ENDBRANCH   2   5
TORSDOF 9
ENDMDL
MODEL      222
REMARK 921   NORMALIZED FREE ENERGY PREDICTED BY IDOCK:   -3.56 KCAL/MOL
REMARK 922        TOTAL FREE ENERGY PREDICTED BY IDOCK:   -7.48 KCAL/MOL
REMARK 923 INTER-LIGAND FREE ENERGY PREDICTED BY IDOCK:   -8.24 KCAL/MOL
REMARK 924 INTRA-LIGAND FREE ENERGY PREDICTED BY IDOCK:    0.76 KCAL/MOL
REMARK 927      BINDING AFFINITY PREDICTED BY RF-SCORE:    0.00 PKD
ROOT
HETATM    1  N   UNL     1     -11.037  14.724  70.814  1.00  0.00    -0.512 NA 
HETATM    2  C   UNL     1     -12.139  14.722  69.831  1.00  0.00    -0.332 C  
HETATM    3  H1  UNL     1     -11.284  15.311  71.611  1.00  0.00     0.000 HD 
HETATM    4  H2  UNL     1     -10.150  15.001  70.394  1.00  0.00     0.000 HD 
ENDROOT
BRANCH   2   5
HETATM    5  C   UNL     1     -11.767  13.837  68.630  1.00  0.00    -0.356 C  
HETATM    6  O   UNL     1     -10.347  13.609  68.695  1.00  0.00    -0.238 OA 
HETATM    7  C   UNL     1      -9.916  12.635  67.747  1.00  0.00    -0.218 C  
HETATM    8  C   UNL     1     -10.110  13.213  66.315  1.00  0.00    -0.285 C  
HETATM    9  O   UNL     1     -11.607  15.797  67.200  1.00  0.00    -0.024 OA 
HETATM   10  H   UNL     1     -11.835  16.185  66.363  1.00  0.00     0.000 HD 
HETATM   11  N   UNL     1      -9.236  14.405  66.102  1.00  0.00    -0.510 NA 
HETATM   12  C   UNL     1     -11.597  13.587  66.118  1.00  0.00    -0.343 C  
HETATM   13  H2  UNL     1      -8.257  14.195  66.295  1.00  0.00     0.000 HD 
HETATM   14  O   UNL     1     -12.405  12.414  65.944  1.00  0.00    -0.638 OA 
HETATM   15  C   UNL     1     -12.138  14.467  67.270  1.00  0.00    -0.323 C  
HETATM   16  H1  UNL     1      -9.363  14.784  65.163  1.00  0.00     0.000 HD 
HETATM   17  H   UNL     1     -13.319  12.644  65.822  1.00  0.00     0.000 HD 
BRANCH   7  18
HETATM   18  O   UNL     1      -8.534  12.315  67.928  1.00  0.00    -0.146 OA 
BRANCH  18  19
HETATM   19  C   UNL     1      -8.087  11.193  67.146  1.00  0.00    -0.138 C  
HETATM   20  O   UNL     1      -5.858  11.414  68.201  1.00  0.00    -0.046 OA 
HETATM   21  C   UNL     1      -9.158  10.114  67.289  1.00  0.00    -0.138 C  
HETATM   22  C   UNL     1      -7.415   9.541  68.728  1.00  0.00    -0.075 C  
HETATM   23  H   UNL     1      -5.078  10.987  68.537  1.00  0.00     0.000 HD 
HETATM   24  O   UNL     1      -8.780   9.280  68.395  1.00  0.00    -0.127 OA 
HETATM   25  C   UNL     1      -6.839  10.511  67.684  1.00  0.00    -0.074 C  
BRANCH  21  26
HETATM   26  C   UNL     1      -9.315   9.229  66.051  1.00  0.00    -0.223 C  
HETATM   27  H   UNL     1     -10.009   9.406  64.211  1.00  0.00     0.000 HD 
HETATM   28  O   UNL     1      -9.912   9.955  64.979  1.00  0.00    -0.316 OA 
ENDBRANCH  21  26
BRANCH  22  29
HETATM   29  O   UNL     1      -6.651   8.339  68.704  1.00  0.00    -0.052 OA 
BRANCH  29  30
HETATM   30  C   UNL     1      -7.248   7.157  68.137  1.00  0.00    -0.095 C  
HETATM   31  C   UNL     1      -7.151   7.192  66.600  1.00  0.00    -0.078 C  
HETATM   32  O   UNL     1      -5.821   7.545  66.193  1.00  0.00    -0.035 OA 
HETATM   33  C   UNL     1      -7.527   5.830  66.005  1.00  0.00    -0.082 C  
HETATM   34  C   UNL     1      -8.977   5.509  66.368  1.00  0.00    -0.131 C  
HETATM   35  N   UNL     1      -7.347   5.823  64.540  1.00  0.00    -0.065 NA 
HETATM   36  H   UNL     1      -5.761   7.567  65.246  1.00  0.00     0.000 HD 
HETATM   37  H1  UNL     1      -7.598   4.917  64.144  1.00  0.00     0.000 HD 
HETATM   38  H2  UNL     1      -6.401   6.099  64.277  1.00  0.00     0.000 HD 
HETATM   39  C   UNL     1      -9.208   5.530  67.889  1.00  0.00    -0.108 C  
HETATM   40  C   UNL     1      -8.694   6.836  68.605  1.00  0.00    -0.125 C  
HETATM   41  N   UNL     1     -10.646   5.305  68.147  1.00  0.00    -0.073 NA 
HETATM   42  H2  UNL     1     -10.994   4.452  67.709  1.00  0.00     0.000 HD 
HETATM   43  H1  UNL     1     -10.799   5.320  69.155  1.00  0.00     0.000 HD 
BRANCH  40  44
HETATM   44  O   UNL     1      -8.823   6.601  70.026  1.00  0.00    -0.139 OA 
BRANCH  44  45
HETATM   45  C   UNL     1     -10.068   6.028  70.449  1.00  0.00    -0.194 C  
HETATM   46  O   UNL     1      -9.905   4.694  70.917  1.00  0.00    -0.177 OA 
HETATM   47  C   UNL     1      -9.170   4.558  72.133  1.00  0.00    -0.130 C  
HETATM   48  C   UNL     1      -9.880   5.316  73.257  1.00  0.00    -0.161 C  
HETATM   49  H1  UNL     1     -11.436   8.888  71.810  1.00  0.00     0.000 HD 
HETATM   50  H2  UNL     1     -11.451   8.373  70.216  1.00  0.00     0.000 HD 
HETATM   51  O   UNL     1      -9.170   5.243  74.496  1.00  0.00    -0.113 OA 
HETATM   52  C   UNL     1     -10.052   6.788  72.859  1.00  0.00    -0.181 C  
HETATM   53  H   UNL     1      -9.611   5.713  75.194  1.00  0.00     0.000 HD 
HETATM   54  O   UNL     1     -10.803   7.477  73.874  1.00  0.00    -0.534 OA 
HETATM   55  N   UNL     1     -10.965   8.314  71.111  1.00  0.00    -0.239 NA 
HETATM   56  C   UNL     1     -10.783   6.900  71.511  1.00  0.00    -0.223 C  
HETATM   57  H   UNL     1     -10.910   8.388  73.627  1.00  0.00     0.000 HD 
BRANCH  47  58
HETATM   58  C   UNL     1      -9.073   3.056  72.438  1.00  0.00    -0.095 C  
HETATM   59  O   UNL     1     -10.333   2.420  72.204  1.00  0.00    -0.145 OA 
HETATM   60  H   UNL     1     -10.273   1.492  72.392  1.00  0.00     0.000 HD 
ENDBRANCH  47  58
ENDBRANCH  44  45
ENDBRANCH  40  44
ENDBRANCH  29  30
ENDBRANCH  22  29
ENDBRANCH  18  19
ENDBRANCH   7  18
ENDBRANCH   2   5
TORSDOF 9
ENDMDL
MODEL      223
REMARK 921   NORMALIZED FREE ENERGY PREDICTED BY IDOCK:   -3.53 KCAL/MOL
REMARK 922        TOTAL FREE ENERGY PREDICTED BY IDOCK:   -7.43 KCAL/MOL
REMARK 923 INTER-LIGAND FREE ENERGY PREDICTED BY IDOCK:   -8.87 KCAL/MOL
REMARK 924 INTRA-LIGAND FREE ENERGY PREDICTED BY IDOCK:    1.44 KCAL/MOL
REMARK 927      BINDING AFFINITY PREDICTED BY RF-SCORE:    0.00 PKD
ROOT
HETATM    1  N   UNL     1     -10.597   4.225  65.711  1.00  0.00    -0.482 NA 
HETATM    2  C   UNL     1     -10.174   5.458  66.406  1.00  0.00    -0.226 C  
HETATM    3  H1  UNL     1     -11.601   4.090  65.826  1.00  0.00     0.000 HD 
HETATM    4  H2  UNL     1     -10.062   3.411  66.016  1.00  0.00     0.000 HD 
ENDROOT
BRANCH   2   5
HETATM    5  C   UNL     1      -8.660   5.663  66.232  1.00  0.00    -0.127 C  
HETATM    6  O   UNL     1      -8.412   7.079  66.309  1.00  0.00    -0.122 OA 
HETATM    7  C   UNL     1      -7.019   7.378  66.363  1.00  0.00    -0.069 C  
HETATM    8  C   UNL     1      -6.372   6.985  65.003  1.00  0.00    -0.037 C  
HETATM    9  O   UNL     1      -8.903   5.615  63.813  1.00  0.00    -0.345 OA 
HETATM   10  H   UNL     1      -8.570   5.271  62.993  1.00  0.00     0.000 HD 
HETATM   11  N   UNL     1      -6.925   7.815  63.893  1.00  0.00    -0.061 NA 
HETATM   12  C   UNL     1      -6.626   5.483  64.738  1.00  0.00    -0.043 C  
HETATM   13  H2  UNL     1      -6.827   8.813  64.083  1.00  0.00     0.000 HD 
HETATM   14  O   UNL     1      -5.795   4.663  65.571  1.00  0.00    -0.021 OA 
HETATM   15  C   UNL     1      -8.118   5.105  64.899  1.00  0.00    -0.119 C  
HETATM   16  H1  UNL     1      -6.500   7.558  63.001  1.00  0.00     0.000 HD 
HETATM   17  H   UNL     1      -5.952   3.741  65.408  1.00  0.00     0.000 HD 
BRANCH   7  18
HETATM   18  O   UNL     1      -6.799   8.773  66.588  1.00  0.00    -0.070 OA 
BRANCH  18  19
HETATM   19  C   UNL     1      -8.008   9.544  66.705  1.00  0.00    -0.108 C  
HETATM   20  O   UNL     1      -7.719   9.527  69.163  1.00  0.00    -0.075 OA 
HETATM   21  C   UNL     1      -7.892  10.682  65.693  1.00  0.00    -0.123 C  
HETATM   22  C   UNL     1      -7.368  11.572  67.783  1.00  0.00    -0.096 C  
HETATM   23  H   UNL     1      -7.814   9.985  69.990  1.00  0.00     0.000 HD 
HETATM   24  O   UNL     1      -7.310  11.803  66.374  1.00  0.00     0.023 OA 
HETATM   25  C   UNL     1      -8.159  10.276  68.028  1.00  0.00    -0.106 C  
BRANCH  21  26
HETATM   26  C   UNL     1      -9.232  11.122  65.100  1.00  0.00    -0.189 C  
HETATM   27  H   UNL     1     -10.915  10.274  64.509  1.00  0.00     0.000 HD 
HETATM   28  O   UNL     1     -10.083  10.001  64.877  1.00  0.00    -0.316 OA 
ENDBRANCH  21  26
BRANCH  22  29
HETATM   29  O   UNL     1      -8.035  12.644  68.443  1.00  0.00    -0.142 OA 
BRANCH  29  30
HETATM   30  C   UNL     1      -9.431  12.861  68.163  1.00  0.00    -0.218 C  
HETATM   31  C   UNL     1     -10.246  11.594  68.492  1.00  0.00    -0.210 C  
HETATM   32  O   UNL     1      -9.881  11.089  69.784  1.00  0.00    -0.382 OA 
HETATM   33  C   UNL     1     -11.748  11.898  68.462  1.00  0.00    -0.330 C  
HETATM   34  C   UNL     1     -12.141  12.347  67.055  1.00  0.00    -0.081 C  
HETATM   35  N   UNL     1     -12.536  10.718  68.868  1.00  0.00    -0.731 NA 
HETATM   36  H   UNL     1     -10.383  10.310  69.986  1.00  0.00     0.000 HD 
HETATM   37  H1  UNL     1     -13.535  10.919  68.848  1.00  0.00     0.000 HD 
HETATM   38  H2  UNL     1     -12.242  10.365  69.779  1.00  0.00     0.000 HD 
HETATM   39  C   UNL     1     -11.323  13.563  66.588  1.00  0.00    -0.322 C  
HETATM   40  C   UNL     1      -9.764  13.394  66.743  1.00  0.00    -0.262 C  
HETATM   41  N   UNL     1     -11.696  13.870  65.192  1.00  0.00    -0.336 NA 
HETATM   42  H2  UNL     1     -12.700  14.005  65.075  1.00  0.00     0.000 HD 
HETATM   43  H1  UNL     1     -11.153  14.676  64.883  1.00  0.00     0.000 HD 
BRANCH  40  44
HETATM   44  O   UNL     1      -9.180  14.681  66.437  1.00  0.00    -0.274 OA 
BRANCH  44  45
HETATM   45  C   UNL     1      -8.731  15.442  67.567  1.00  0.00    -0.175 C  
HETATM   46  O   UNL     1      -7.418  15.955  67.372  1.00  0.00    -0.150 OA 
HETATM   47  C   UNL     1      -7.297  16.957  66.363  1.00  0.00    -0.267 C  
HETATM   48  C   UNL     1      -8.172  18.162  66.718  1.00  0.00    -0.252 C  
HETATM   49  H1  UNL     1     -11.764  16.878  68.370  1.00  0.00     0.000 HD 
HETATM   50  H2  UNL     1     -11.159  15.381  68.819  1.00  0.00     0.000 HD 
HETATM   51  O   UNL     1      -8.117  19.187  65.725  1.00  0.00    -0.452 OA 
HETATM   52  C   UNL     1      -9.627  17.707  66.896  1.00  0.00    -0.286 C  
HETATM   53  H   UNL     1      -8.660  19.935  65.945  1.00  0.00     0.000 HD 
HETATM   54  O   UNL     1     -10.431  18.822  67.323  1.00  0.00    -0.388 OA 
HETATM   55  N   UNL     1     -11.115  16.130  68.127  1.00  0.00    -0.342 NA 
HETATM   56  C   UNL     1      -9.717  16.579  67.936  1.00  0.00    -0.236 C  
HETATM   57  H   UNL     1     -11.331  18.540  67.433  1.00  0.00     0.000 HD 
BRANCH  47  58
HETATM   58  C   UNL     1      -5.813  17.342  66.284  1.00  0.00    -0.189 C  
HETATM   59  O   UNL     1      -5.438  18.114  67.428  1.00  0.00    -0.135 OA 
HETATM   60  H   UNL     1      -4.520  18.352  67.379  1.00  0.00     0.000 HD 
ENDBRANCH  47  58
ENDBRANCH  44  45
ENDBRANCH  40  44
ENDBRANCH  29  30
ENDBRANCH  22  29
ENDBRANCH  18  19
ENDBRANCH   7  18
ENDBRANCH   2   5
TORSDOF 9
ENDMDL
MODEL      224
REMARK 921   NORMALIZED FREE ENERGY PREDICTED BY IDOCK:   -3.46 KCAL/MOL
REMARK 922        TOTAL FREE ENERGY PREDICTED BY IDOCK:   -7.32 KCAL/MOL
REMARK 923 INTER-LIGAND FREE ENERGY PREDICTED BY IDOCK:   -6.07 KCAL/MOL
REMARK 924 INTRA-LIGAND FREE ENERGY PREDICTED BY IDOCK:   -1.25 KCAL/MOL
REMARK 927      BINDING AFFINITY PREDICTED BY RF-SCORE:    0.00 PKD
ROOT
HETATM    1  N   UNL     1     -10.850   4.860  65.598  1.00  0.00    -0.723 NA 
HETATM    2  C   UNL     1     -10.254   3.927  64.620  1.00  0.00    -0.207 C  
HETATM    3  H1  UNL     1     -11.769   5.162  65.273  1.00  0.00     0.000 HD 
HETATM    4  H2  UNL     1     -10.236   5.649  65.799  1.00  0.00     0.000 HD 
ENDROOT
BRANCH   2   5
HETATM    5  C   UNL     1      -8.869   3.472  65.111  1.00  0.00    -0.122 C  
HETATM    6  O   UNL     1      -8.307   4.561  65.866  1.00  0.00    -0.112 OA 
HETATM    7  C   UNL     1      -7.109   4.184  66.541  1.00  0.00    -0.064 C  
HETATM    8  C   UNL     1      -6.009   3.893  65.480  1.00  0.00    -0.023 C  
HETATM    9  O   UNL     1      -7.871   4.135  62.995  1.00  0.00    -0.067 OA 
HETATM   10  H   UNL     1      -7.284   3.892  62.288  1.00  0.00     0.000 HD 
HETATM   11  N   UNL     1      -5.673   5.127  64.710  1.00  0.00    -0.017 NA 
HETATM   12  C   UNL     1      -6.506   2.779  64.529  1.00  0.00    -0.027 C  
HETATM   13  H2  UNL     1      -5.408   5.896  65.327  1.00  0.00     0.000 HD 
HETATM   14  O   UNL     1      -6.473   1.498  65.173  1.00  0.00    -0.021 OA 
HETATM   15  C   UNL     1      -7.915   3.078  63.963  1.00  0.00    -0.082 C  
HETATM   16  H1  UNL     1      -4.952   4.936  64.015  1.00  0.00     0.000 HD 
HETATM   17  H   UNL     1      -6.778   0.814  64.589  1.00  0.00     0.000 HD 
BRANCH   7  18
HETATM   18  O   UNL     1      -6.650   5.231  67.399  1.00  0.00    -0.050 OA 
BRANCH  18  19
HETATM   19  C   UNL     1      -7.022   6.551  66.964  1.00  0.00    -0.068 C  
HETATM   20  O   UNL     1      -9.218   6.238  68.063  1.00  0.00    -0.119 OA 
HETATM   21  C   UNL     1      -5.851   7.467  67.313  1.00  0.00    -0.031 C  
HETATM   22  C   UNL     1      -7.474   7.778  68.957  1.00  0.00    -0.095 C  
HETATM   23  H   UNL     1      -9.941   6.622  68.546  1.00  0.00     0.000 HD 
HETATM   24  O   UNL     1      -6.105   8.008  68.618  1.00  0.00    -0.041 OA 
HETATM   25  C   UNL     1      -8.178   7.164  67.736  1.00  0.00    -0.115 C  
BRANCH  21  26
HETATM   26  C   UNL     1      -5.662   8.630  66.338  1.00  0.00    -0.047 C  
HETATM   27  H   UNL     1      -6.114  10.551  66.253  1.00  0.00     0.000 HD 
HETATM   28  O   UNL     1      -6.232   9.829  66.858  1.00  0.00    -0.062 OA 
ENDBRANCH  21  26
BRANCH  22  29
HETATM   29  O   UNL     1      -8.125   9.000  69.291  1.00  0.00    -0.100 OA 
BRANCH  29  30
HETATM   30  C   UNL     1      -8.970   9.031  70.458  1.00  0.00    -0.213 C  
HETATM   31  C   UNL     1      -8.595   7.888  71.421  1.00  0.00    -0.123 C  
HETATM   32  O   UNL     1      -7.174   7.842  71.610  1.00  0.00    -0.062 OA 
HETATM   33  C   UNL     1      -9.290   8.074  72.774  1.00  0.00    -0.263 C  
HETATM   34  C   UNL     1     -10.804   8.028  72.570  1.00  0.00    -0.415 C  
HETATM   35  N   UNL     1      -8.865   7.038  73.736  1.00  0.00    -0.153 NA 
HETATM   36  H   UNL     1      -6.943   7.138  72.203  1.00  0.00     0.000 HD 
HETATM   37  H1  UNL     1      -9.328   7.162  74.636  1.00  0.00     0.000 HD 
HETATM   38  H2  UNL     1      -7.851   7.012  73.835  1.00  0.00     0.000 HD 
HETATM   39  C   UNL     1     -11.281   9.080  71.555  1.00  0.00    -0.348 C  
HETATM   40  C   UNL     1     -10.499   9.064  70.188  1.00  0.00    -0.214 C  
HETATM   41  N   UNL     1     -12.734   8.905  71.347  1.00  0.00    -0.382 NA 
HETATM   42  H2  UNL     1     -13.261   8.934  72.219  1.00  0.00     0.000 HD 
HETATM   43  H1  UNL     1     -13.050   9.603  70.673  1.00  0.00     0.000 HD 
BRANCH  40  44
HETATM   44  O   UNL     1     -10.948  10.221  69.445  1.00  0.00    -0.219 OA 
BRANCH  44  45
HETATM   45  C   UNL     1     -10.309  11.461  69.782  1.00  0.00     0.487 C  
HETATM   46  O   UNL     1      -9.444  11.910  68.745  1.00  0.00    -0.120 OA 
HETATM   47  C   UNL     1     -10.092  12.311  67.539  1.00  0.00    -0.201 C  
HETATM   48  C   UNL     1     -11.048  13.472  67.823  1.00  0.00    -0.268 C  
HETATM   49  H1  UNL     1     -12.964  12.885  71.465  1.00  0.00     0.000 HD 
HETATM   50  H2  UNL     1     -11.794  11.834  72.045  1.00  0.00     0.000 HD 
HETATM   51  O   UNL     1     -11.752  13.896  66.654  1.00  0.00    -0.354 OA 
HETATM   52  C   UNL     1     -12.059  13.056  68.900  1.00  0.00    -0.168 C  
HETATM   53  H   UNL     1     -12.346  14.617  66.830  1.00  0.00     0.000 HD 
HETATM   54  O   UNL     1     -12.895  14.178  69.234  1.00  0.00    -0.327 OA 
HETATM   55  N   UNL     1     -12.291  12.160  71.215  1.00  0.00    -0.182 NA 
HETATM   56  C   UNL     1     -11.332  12.562  70.161  1.00  0.00     0.253 C  
HETATM   57  H   UNL     1     -13.521  13.921  69.901  1.00  0.00     0.000 HD 
BRANCH  47  58
HETATM   58  C   UNL     1      -8.992  12.715  66.547  1.00  0.00    -0.112 C  
HETATM   59  O   UNL     1      -9.266  14.009  66.004  1.00  0.00    -0.494 OA 
HETATM   60  H   UNL     1      -8.586  14.260  65.390  1.00  0.00     0.000 HD 
ENDBRANCH  47  58
ENDBRANCH  44  45
ENDBRANCH  40  44
ENDBRANCH  29  30
ENDBRANCH  22  29
ENDBRANCH  18  19
ENDBRANCH   7  18
ENDBRANCH   2   5
TORSDOF 9
ENDMDL
MODEL      225
REMARK 921   NORMALIZED FREE ENERGY PREDICTED BY IDOCK:   -3.45 KCAL/MOL
REMARK 922        TOTAL FREE ENERGY PREDICTED BY IDOCK:   -7.31 KCAL/MOL
REMARK 923 INTER-LIGAND FREE ENERGY PREDICTED BY IDOCK:   -8.25 KCAL/MOL
REMARK 924 INTRA-LIGAND FREE ENERGY PREDICTED BY IDOCK:    0.94 KCAL/MOL
REMARK 927      BINDING AFFINITY PREDICTED BY RF-SCORE:    0.00 PKD
ROOT
HETATM    1  N   UNL     1      -8.799  18.281  66.109  1.00  0.00    -0.494 NA 
HETATM    2  C   UNL     1      -7.695  17.317  65.934  1.00  0.00    -0.028 C  
HETATM    3  H1  UNL     1      -8.812  18.939  65.329  1.00  0.00     0.000 HD 
HETATM    4  H2  UNL     1      -8.754  18.757  67.010  1.00  0.00     0.000 HD 
ENDROOT
BRANCH   2   5
HETATM    5  C   UNL     1      -7.676  16.325  67.109  1.00  0.00    -0.188 C  
HETATM    6  O   UNL     1      -8.831  15.478  66.967  1.00  0.00    -0.199 OA 
HETATM    7  C   UNL     1      -8.813  14.388  67.887  1.00  0.00    -0.179 C  
HETATM    8  C   UNL     1      -8.969  14.950  69.330  1.00  0.00    -0.099 C  
HETATM    9  O   UNL     1      -8.775  17.957  68.539  1.00  0.00    -0.292 OA 
HETATM   10  H   UNL     1      -8.785  18.382  69.388  1.00  0.00     0.000 HD 
HETATM   11  N   UNL     1     -10.298  15.608  69.503  1.00  0.00    -0.257 NA 
HETATM   12  C   UNL     1      -7.825  15.953  69.607  1.00  0.00     0.019 C  
HETATM   13  H2  UNL     1     -11.064  14.982  69.258  1.00  0.00     0.000 HD 
HETATM   14  O   UNL     1      -6.581  15.272  69.817  1.00  0.00    -0.159 OA 
HETATM   15  C   UNL     1      -7.694  17.015  68.490  1.00  0.00    -0.238 C  
HETATM   16  H1  UNL     1     -10.400  15.977  70.449  1.00  0.00     0.000 HD 
HETATM   17  H   UNL     1      -5.879  15.888  69.988  1.00  0.00     0.000 HD 
BRANCH   7  18
HETATM   18  O   UNL     1      -9.889  13.481  67.632  1.00  0.00    -0.219 OA 
BRANCH  18  19
HETATM   19  C   UNL     1      -9.476  12.238  67.035  1.00  0.00    -0.204 C  
HETATM   20  O   UNL     1      -8.500  11.576  69.211  1.00  0.00    -0.366 OA 
HETATM   21  C   UNL     1     -10.689  11.700  66.278  1.00  0.00    -0.272 C  
HETATM   22  C   UNL     1     -10.568  10.533  68.292  1.00  0.00    -0.206 C  
HETATM   23  H   UNL     1      -8.313  10.885  69.835  1.00  0.00     0.000 HD 
HETATM   24  O   UNL     1     -11.405  10.838  67.175  1.00  0.00    -0.372 OA 
HETATM   25  C   UNL     1      -9.176  11.132  68.032  1.00  0.00    -0.159 C  
BRANCH  21  26
HETATM   26  C   UNL     1     -10.331  10.900  65.024  1.00  0.00    -0.288 C  
HETATM   27  H   UNL     1      -9.606   9.115  64.590  1.00  0.00     0.000 HD 
HETATM   28  O   UNL     1      -9.828   9.612  65.368  1.00  0.00    -0.315 OA 
ENDBRANCH  21  26
BRANCH  22  29
HETATM   29  O   UNL     1     -10.434   9.124  68.453  1.00  0.00    -0.205 OA 
BRANCH  29  30
HETATM   30  C   UNL     1     -11.261   8.463  69.431  1.00  0.00     0.227 C  
HETATM   31  C   UNL     1     -11.521   9.396  70.630  1.00  0.00    -0.284 C  
HETATM   32  O   UNL     1     -11.916  10.697  70.171  1.00  0.00    -0.283 OA 
HETATM   33  C   UNL     1     -12.613   8.816  71.537  1.00  0.00    -0.326 C  
HETATM   34  C   UNL     1     -12.140   7.473  72.092  1.00  0.00    -0.305 C  
HETATM   35  N   UNL     1     -12.938   9.745  72.636  1.00  0.00    -0.364 NA 
HETATM   36  H   UNL     1     -12.077  11.272  70.909  1.00  0.00     0.000 HD 
HETATM   37  H1  UNL     1     -13.664   9.359  73.240  1.00  0.00     0.000 HD 
HETATM   38  H2  UNL     1     -13.193  10.668  72.285  1.00  0.00     0.000 HD 
HETATM   39  C   UNL     1     -11.769   6.485  70.973  1.00  0.00    -0.343 C  
HETATM   40  C   UNL     1     -10.773   7.065  69.899  1.00  0.00    -0.240 C  
HETATM   41  N   UNL     1     -11.236   5.254  71.593  1.00  0.00     0.007 NA 
HETATM   42  H2  UNL     1     -11.877   4.850  72.276  1.00  0.00     0.000 HD 
HETATM   43  H1  UNL     1     -10.990   4.599  70.851  1.00  0.00     0.000 HD 
BRANCH  40  44
HETATM   44  O   UNL     1     -10.688   6.079  68.844  1.00  0.00    -0.255 OA 
BRANCH  44  45
HETATM   45  C   UNL     1      -9.462   5.337  68.788  1.00  0.00    -0.128 C  
HETATM   46  O   UNL     1      -9.475   4.371  67.742  1.00  0.00    -0.144 OA 
HETATM   47  C   UNL     1      -9.478   4.903  66.418  1.00  0.00    -0.155 C  
HETATM   48  C   UNL     1      -8.222   5.750  66.195  1.00  0.00    -0.111 C  
HETATM   49  H1  UNL     1      -7.338   7.924  69.625  1.00  0.00     0.000 HD 
HETATM   50  H2  UNL     1      -8.201   6.904  70.637  1.00  0.00     0.000 HD 
HETATM   51  O   UNL     1      -8.186   6.337  64.893  1.00  0.00    -0.140 OA 
HETATM   52  C   UNL     1      -8.153   6.859  67.253  1.00  0.00    -0.118 C  
HETATM   53  H   UNL     1      -7.407   6.862  64.754  1.00  0.00     0.000 HD 
HETATM   54  O   UNL     1      -6.925   7.593  67.101  1.00  0.00    -0.075 OA 
HETATM   55  N   UNL     1      -8.152   7.315  69.704  1.00  0.00    -0.127 NA 
HETATM   56  C   UNL     1      -8.224   6.261  68.667  1.00  0.00    -0.112 C  
HETATM   57  H   UNL     1      -6.882   8.279  67.756  1.00  0.00     0.000 HD 
BRANCH  47  58
HETATM   58  C   UNL     1      -9.534   3.712  65.452  1.00  0.00    -0.160 C  
HETATM   59  O   UNL     1      -8.226   3.410  64.959  1.00  0.00    -0.093 OA 
HETATM   60  H   UNL     1      -8.261   2.673  64.361  1.00  0.00     0.000 HD 
ENDBRANCH  47  58
ENDBRANCH  44  45
ENDBRANCH  40  44
ENDBRANCH  29  30
ENDBRANCH  22  29
ENDBRANCH  18  19
ENDBRANCH   7  18
ENDBRANCH   2   5
TORSDOF 9
ENDMDL
MODEL      226
REMARK 921   NORMALIZED FREE ENERGY PREDICTED BY IDOCK:   -3.45 KCAL/MOL
REMARK 922        TOTAL FREE ENERGY PREDICTED BY IDOCK:   -7.30 KCAL/MOL
REMARK 923 INTER-LIGAND FREE ENERGY PREDICTED BY IDOCK:   -6.24 KCAL/MOL
REMARK 924 INTRA-LIGAND FREE ENERGY PREDICTED BY IDOCK:   -1.06 KCAL/MOL
REMARK 927      BINDING AFFINITY PREDICTED BY RF-SCORE:    0.00 PKD
ROOT
HETATM    1  N   UNL     1     -10.760  11.080  63.969  1.00  0.00    -0.479 NA 
HETATM    2  C   UNL     1     -10.286  10.364  65.170  1.00  0.00    -0.256 C  
HETATM    3  H1  UNL     1     -11.498  10.542  63.514  1.00  0.00     0.000 HD 
HETATM    4  H2  UNL     1      -9.997  11.303  63.330  1.00  0.00     0.000 HD 
ENDROOT
BRANCH   2   5
HETATM    5  C   UNL     1      -9.174  11.175  65.857  1.00  0.00    -0.206 C  
HETATM    6  O   UNL     1      -8.347  10.239  66.573  1.00  0.00    -0.123 OA 
HETATM    7  C   UNL     1      -7.166  10.851  67.086  1.00  0.00    -0.104 C  
HETATM    8  C   UNL     1      -7.570  11.871  68.189  1.00  0.00    -0.121 C  
HETATM    9  O   UNL     1     -10.644  11.649  67.736  1.00  0.00    -0.184 OA 
HETATM   10  H   UNL     1     -10.976  12.311  68.331  1.00  0.00     0.000 HD 
HETATM   11  N   UNL     1      -8.206  11.177  69.348  1.00  0.00    -0.380 NA 
HETATM   12  C   UNL     1      -8.538  12.914  67.582  1.00  0.00    -0.182 C  
HETATM   13  H2  UNL     1      -7.609  10.438  69.719  1.00  0.00     0.000 HD 
HETATM   14  O   UNL     1      -7.838  13.837  66.737  1.00  0.00    -0.327 OA 
HETATM   15  C   UNL     1      -9.713  12.250  66.825  1.00  0.00    -0.213 C  
HETATM   16  H1  UNL     1      -8.472  11.846  70.070  1.00  0.00     0.000 HD 
HETATM   17  H   UNL     1      -8.433  14.477  66.364  1.00  0.00     0.000 HD 
BRANCH   7  18
HETATM   18  O   UNL     1      -6.290   9.878  67.663  1.00  0.00    -0.058 OA 
BRANCH  18  19
HETATM   19  C   UNL     1      -5.437   9.220  66.709  1.00  0.00    -0.039 C  
HETATM   20  O   UNL     1      -5.306   7.281  68.242  1.00  0.00    -0.019 OA 
HETATM   21  C   UNL     1      -6.112   9.375  65.348  1.00  0.00    -0.064 C  
HETATM   22  C   UNL     1      -6.581   7.220  66.102  1.00  0.00    -0.052 C  
HETATM   23  H   UNL     1      -5.252   6.338  68.348  1.00  0.00     0.000 HD 
HETATM   24  O   UNL     1      -6.942   8.221  65.149  1.00  0.00    -0.071 OA 
HETATM   25  C   UNL     1      -5.350   7.713  66.880  1.00  0.00    -0.027 C  
BRANCH  21  26
HETATM   26  C   UNL     1      -5.132   9.471  64.178  1.00  0.00    -0.059 C  
HETATM   27  H   UNL     1      -5.153  10.100  62.306  1.00  0.00     0.000 HD 
HETATM   28  O   UNL     1      -5.761  10.040  63.032  1.00  0.00    -0.097 OA 
ENDBRANCH  21  26
BRANCH  22  29
HETATM   29  O   UNL     1      -6.249   5.998  65.450  1.00  0.00    -0.035 OA 
BRANCH  29  30
HETATM   30  C   UNL     1      -7.274   4.996  65.304  1.00  0.00    -0.067 C  
HETATM   31  C   UNL     1      -7.187   4.341  63.911  1.00  0.00    -0.050 C  
HETATM   32  O   UNL     1      -5.831   3.977  63.616  1.00  0.00    -0.013 OA 
HETATM   33  C   UNL     1      -8.082   3.098  63.844  1.00  0.00    -0.082 C  
HETATM   34  C   UNL     1      -9.535   3.515  64.068  1.00  0.00    -0.138 C  
HETATM   35  N   UNL     1      -7.935   2.408  62.548  1.00  0.00    -0.065 NA 
HETATM   36  H   UNL     1      -5.778   3.573  62.759  1.00  0.00     0.000 HD 
HETATM   37  H1  UNL     1      -8.530   1.581  62.503  1.00  0.00     0.000 HD 
HETATM   38  H2  UNL     1      -6.960   2.180  62.352  1.00  0.00     0.000 HD 
HETATM   39  C   UNL     1      -9.723   4.259  65.402  1.00  0.00    -0.200 C  
HETATM   40  C   UNL     1      -8.723   5.456  65.622  1.00  0.00    -0.152 C  
HETATM   41  N   UNL     1     -11.128   4.706  65.494  1.00  0.00    -0.942 NA 
HETATM   42  H2  UNL     1     -11.792   3.941  65.375  1.00  0.00     0.000 HD 
HETATM   43  H1  UNL     1     -11.252   5.199  66.378  1.00  0.00     0.000 HD 
BRANCH  40  44
HETATM   44  O   UNL     1      -8.919   5.908  66.982  1.00  0.00    -0.115 OA 
BRANCH  44  45
HETATM   45  C   UNL     1      -9.311   4.896  67.921  1.00  0.00    -0.128 C  
HETATM   46  O   UNL     1      -8.187   4.196  68.443  1.00  0.00    -0.083 OA 
HETATM   47  C   UNL     1      -7.325   4.962  69.283  1.00  0.00    -0.056 C  
HETATM   48  C   UNL     1      -8.103   5.476  70.497  1.00  0.00    -0.104 C  
HETATM   49  H1  UNL     1     -11.935   6.614  69.358  1.00  0.00     0.000 HD 
HETATM   50  H2  UNL     1     -11.928   5.677  67.968  1.00  0.00     0.000 HD 
HETATM   51  O   UNL     1      -7.297   6.280  71.361  1.00  0.00    -0.081 OA 
HETATM   52  C   UNL     1      -9.313   6.295  70.026  1.00  0.00    -0.155 C  
HETATM   53  H   UNL     1      -7.780   6.599  72.114  1.00  0.00     0.000 HD 
HETATM   54  O   UNL     1     -10.096   6.696  71.164  1.00  0.00    -0.183 OA 
HETATM   55  N   UNL     1     -11.360   6.238  68.604  1.00  0.00    -0.248 NA 
HETATM   56  C   UNL     1     -10.184   5.468  69.067  1.00  0.00    -0.228 C  
HETATM   57  H   UNL     1     -10.844   7.202  70.872  1.00  0.00     0.000 HD 
BRANCH  47  58
HETATM   58  C   UNL     1      -6.168   4.045  69.702  1.00  0.00    -0.028 C  
HETATM   59  O   UNL     1      -6.507   3.332  70.895  1.00  0.00    -0.025 OA 
HETATM   60  H   UNL     1      -5.791   2.764  71.154  1.00  0.00     0.000 HD 
ENDBRANCH  47  58
ENDBRANCH  44  45
ENDBRANCH  40  44
ENDBRANCH  29  30
ENDBRANCH  22  29
ENDBRANCH  18  19
ENDBRANCH   7  18
ENDBRANCH   2   5
TORSDOF 9
ENDMDL
MODEL      227
REMARK 921   NORMALIZED FREE ENERGY PREDICTED BY IDOCK:   -3.43 KCAL/MOL
REMARK 922        TOTAL FREE ENERGY PREDICTED BY IDOCK:   -7.27 KCAL/MOL
REMARK 923 INTER-LIGAND FREE ENERGY PREDICTED BY IDOCK:   -9.26 KCAL/MOL
REMARK 924 INTRA-LIGAND FREE ENERGY PREDICTED BY IDOCK:    1.99 KCAL/MOL
REMARK 927      BINDING AFFINITY PREDICTED BY RF-SCORE:    0.00 PKD
ROOT
HETATM    1  N   UNL     1     -11.241   4.001  63.707  1.00  0.00    -0.388 NA 
HETATM    2  C   UNL     1     -11.035   4.517  65.075  1.00  0.00     0.031 C  
HETATM    3  H1  UNL     1     -12.203   4.171  63.414  1.00  0.00     0.000 HD 
HETATM    4  H2  UNL     1     -10.984   3.017  63.625  1.00  0.00     0.000 HD 
ENDROOT
BRANCH   2   5
HETATM    5  C   UNL     1      -9.584   4.261  65.517  1.00  0.00    -0.188 C  
HETATM    6  O   UNL     1      -9.190   5.373  66.342  1.00  0.00    -0.137 OA 
HETATM    7  C   UNL     1      -7.932   5.151  66.976  1.00  0.00    -0.100 C  
HETATM    8  C   UNL     1      -6.823   5.117  65.885  1.00  0.00    -0.061 C  
HETATM    9  O   UNL     1      -8.754   5.223  63.443  1.00  0.00    -0.277 OA 
HETATM   10  H   UNL     1      -8.152   5.129  62.715  1.00  0.00     0.000 HD 
HETATM   11  N   UNL     1      -6.708   6.440  65.202  1.00  0.00    -0.045 NA 
HETATM   12  C   UNL     1      -7.153   4.005  64.862  1.00  0.00    -0.066 C  
HETATM   13  H2  UNL     1      -6.558   7.197  65.870  1.00  0.00     0.000 HD 
HETATM   14  O   UNL     1      -6.898   2.706  65.412  1.00  0.00    -0.042 OA 
HETATM   15  C   UNL     1      -8.604   4.109  64.334  1.00  0.00    -0.115 C  
HETATM   16  H1  UNL     1      -5.981   6.418  64.487  1.00  0.00     0.000 HD 
HETATM   17  H   UNL     1      -7.102   2.023  64.784  1.00  0.00     0.000 HD 
BRANCH   7  18
HETATM   18  O   UNL     1      -7.629   6.198  67.902  1.00  0.00    -0.097 OA 
BRANCH  18  19
HETATM   19  C   UNL     1      -8.610   6.359  68.943  1.00  0.00    -0.123 C  
HETATM   20  O   UNL     1      -6.768   6.454  70.593  1.00  0.00    -0.054 OA 
HETATM   21  C   UNL     1      -9.576   7.439  68.460  1.00  0.00    -0.146 C  
HETATM   22  C   UNL     1      -8.115   8.454  69.966  1.00  0.00    -0.115 C  
HETATM   23  H   UNL     1      -6.427   6.818  71.402  1.00  0.00     0.000 HD 
HETATM   24  O   UNL     1      -9.092   8.698  68.952  1.00  0.00    -0.144 OA 
HETATM   25  C   UNL     1      -8.064   6.941  70.235  1.00  0.00    -0.120 C  
BRANCH  21  26
HETATM   26  C   UNL     1     -11.012   7.251  68.952  1.00  0.00    -0.018 C  
HETATM   27  H   UNL     1     -12.151   5.772  69.597  1.00  0.00     0.000 HD 
HETATM   28  O   UNL     1     -11.259   5.888  69.291  1.00  0.00    -0.363 OA 
ENDBRANCH  21  26
BRANCH  22  29
HETATM   29  O   UNL     1      -8.466   9.120  71.175  1.00  0.00    -0.239 OA 
BRANCH  29  30
HETATM   30  C   UNL     1      -9.734   8.812  71.786  1.00  0.00    -0.310 C  
HETATM   31  C   UNL     1      -9.784   7.328  72.197  1.00  0.00    -0.152 C  
HETATM   32  O   UNL     1      -8.585   6.964  72.895  1.00  0.00    -0.116 OA 
HETATM   33  C   UNL     1     -11.002   7.055  73.086  1.00  0.00    -0.281 C  
HETATM   34  C   UNL     1     -12.276   7.359  72.297  1.00  0.00    -0.206 C  
HETATM   35  N   UNL     1     -11.009   5.659  73.564  1.00  0.00    -0.418 NA 
HETATM   36  H   UNL     1      -8.615   6.050  73.148  1.00  0.00     0.000 HD 
HETATM   37  H1  UNL     1     -11.819   5.477  74.155  1.00  0.00     0.000 HD 
HETATM   38  H2  UNL     1     -10.138   5.420  74.036  1.00  0.00     0.000 HD 
HETATM   39  C   UNL     1     -12.293   8.801  71.763  1.00  0.00    -0.351 C  
HETATM   40  C   UNL     1     -10.995   9.216  70.974  1.00  0.00    -0.305 C  
HETATM   41  N   UNL     1     -13.506   8.980  70.938  1.00  0.00    -0.533 NA 
HETATM   42  H2  UNL     1     -14.360   8.737  71.439  1.00  0.00     0.000 HD 
HETATM   43  H1  UNL     1     -13.517   9.936  70.584  1.00  0.00     0.000 HD 
BRANCH  40  44
HETATM   44  O   UNL     1     -11.108  10.635  70.716  1.00  0.00    -0.176 OA 
BRANCH  44  45
HETATM   45  C   UNL     1     -12.337  11.057  70.107  1.00  0.00    -0.311 C  
HETATM   46  O   UNL     1     -13.023  12.014  70.907  1.00  0.00    -0.167 OA 
HETATM   47  C   UNL     1     -12.382  13.283  71.027  1.00  0.00    -0.291 C  
HETATM   48  C   UNL     1     -12.230  13.921  69.644  1.00  0.00    -0.321 C  
HETATM   49  H1  UNL     1     -11.247  11.021  66.834  1.00  0.00     0.000 HD 
HETATM   50  H2  UNL     1     -11.846   9.756  67.756  1.00  0.00     0.000 HD 
HETATM   51  O   UNL     1     -11.564  15.185  69.698  1.00  0.00    -0.272 OA 
HETATM   52  C   UNL     1     -11.449  12.975  68.722  1.00  0.00    -0.298 C  
HETATM   53  H   UNL     1     -11.469  15.581  68.839  1.00  0.00     0.000 HD 
HETATM   54  O   UNL     1     -11.390  13.534  67.398  1.00  0.00    -0.287 OA 
HETATM   55  N   UNL     1     -11.388  10.668  67.780  1.00  0.00    -0.440 NA 
HETATM   56  C   UNL     1     -12.123  11.595  68.670  1.00  0.00    -0.119 C  
HETATM   57  H   UNL     1     -10.907  12.948  66.827  1.00  0.00     0.000 HD 
BRANCH  47  58
HETATM   58  C   UNL     1     -13.253  14.144  71.953  1.00  0.00    -0.387 C  
HETATM   59  O   UNL     1     -14.141  13.317  72.710  1.00  0.00    -0.716 OA 
HETATM   60  H   UNL     1     -14.679  13.849  73.283  1.00  0.00     0.000 HD 
ENDBRANCH  47  58
ENDBRANCH  44  45
ENDBRANCH  40  44
ENDBRANCH  29  30
ENDBRANCH  22  29
ENDBRANCH  18  19
ENDBRANCH   7  18
ENDBRANCH   2   5
TORSDOF 9
ENDMDL
MODEL      228
REMARK 921   NORMALIZED FREE ENERGY PREDICTED BY IDOCK:   -3.42 KCAL/MOL
REMARK 922        TOTAL FREE ENERGY PREDICTED BY IDOCK:   -7.26 KCAL/MOL
REMARK 923 INTER-LIGAND FREE ENERGY PREDICTED BY IDOCK:   -8.48 KCAL/MOL
REMARK 924 INTRA-LIGAND FREE ENERGY PREDICTED BY IDOCK:    1.22 KCAL/MOL
REMARK 927      BINDING AFFINITY PREDICTED BY RF-SCORE:    0.00 PKD
ROOT
HETATM    1  N   UNL     1     -12.477  11.348  62.655  1.00  0.00    -0.500 NA 
HETATM    2  C   UNL     1     -12.895  11.988  63.919  1.00  0.00    -0.284 C  
HETATM    3  H1  UNL     1     -13.181  10.672  62.359  1.00  0.00     0.000 HD 
HETATM    4  H2  UNL     1     -11.549  10.929  62.727  1.00  0.00     0.000 HD 
ENDROOT
BRANCH   2   5
HETATM    5  C   UNL     1     -11.834  13.007  64.366  1.00  0.00    -0.386 C  
HETATM    6  O   UNL     1     -11.127  12.424  65.476  1.00  0.00    -0.282 OA 
HETATM    7  C   UNL     1      -9.985  13.192  65.847  1.00  0.00    -0.269 C  
HETATM    8  C   UNL     1     -10.466  14.557  66.420  1.00  0.00    -0.295 C  
HETATM    9  O   UNL     1     -13.479  14.161  65.735  1.00  0.00    -0.670 OA 
HETATM   10  H   UNL     1     -13.847  14.999  65.989  1.00  0.00     0.000 HD 
HETATM   11  N   UNL     1     -11.251  14.359  67.674  1.00  0.00    -0.300 NA 
HETATM   12  C   UNL     1     -11.320  15.280  65.352  1.00  0.00    -0.253 C  
HETATM   13  H2  UNL     1     -10.727  13.824  68.367  1.00  0.00     0.000 HD 
HETATM   14  O   UNL     1     -10.497  15.809  64.304  1.00  0.00    -0.503 OA 
HETATM   15  C   UNL     1     -12.432  14.369  64.778  1.00  0.00    -0.357 C  
HETATM   16  H1  UNL     1     -11.566  15.254  68.050  1.00  0.00     0.000 HD 
HETATM   17  H   UNL     1     -11.022  16.253  63.649  1.00  0.00     0.000 HD 
BRANCH   7  18
HETATM   18  O   UNL     1      -9.216  12.522  66.850  1.00  0.00    -0.200 OA 
BRANCH  18  19
HETATM   19  C   UNL     1      -8.622  11.289  66.405  1.00  0.00    -0.174 C  
HETATM   20  O   UNL     1      -6.395  12.352  66.599  1.00  0.00    -0.475 OA 
HETATM   21  C   UNL     1      -9.273  10.177  67.223  1.00  0.00    -0.138 C  
HETATM   22  C   UNL     1      -7.188  10.595  68.178  1.00  0.00    -0.086 C  
HETATM   23  H   UNL     1      -5.473  12.262  66.810  1.00  0.00     0.000 HD 
HETATM   24  O   UNL     1      -8.452   9.959  68.380  1.00  0.00    -0.109 OA 
HETATM   25  C   UNL     1      -7.148  11.145  66.743  1.00  0.00    -0.139 C  
BRANCH  21  26
HETATM   26  C   UNL     1      -9.406   8.851  66.472  1.00  0.00    -0.195 C  
HETATM   27  H   UNL     1     -10.844   7.585  65.991  1.00  0.00     0.000 HD 
HETATM   28  O   UNL     1     -10.761   8.407  66.457  1.00  0.00    -0.097 OA 
ENDBRANCH  21  26
BRANCH  22  29
HETATM   29  O   UNL     1      -6.123   9.663  68.338  1.00  0.00    -0.043 OA 
BRANCH  29  30
HETATM   30  C   UNL     1      -6.291   8.331  67.815  1.00  0.00    -0.053 C  
HETATM   31  C   UNL     1      -6.425   8.373  66.280  1.00  0.00    -0.054 C  
HETATM   32  O   UNL     1      -5.403   9.204  65.713  1.00  0.00    -0.039 OA 
HETATM   33  C   UNL     1      -6.326   6.961  65.692  1.00  0.00    -0.043 C  
HETATM   34  C   UNL     1      -7.477   6.112  66.233  1.00  0.00    -0.086 C  
HETATM   35  N   UNL     1      -6.358   6.996  64.217  1.00  0.00    -0.036 NA 
HETATM   36  H   UNL     1      -5.485   9.230  64.768  1.00  0.00     0.000 HD 
HETATM   37  H1  UNL     1      -6.293   6.057  63.826  1.00  0.00     0.000 HD 
HETATM   38  H2  UNL     1      -5.637   7.611  63.841  1.00  0.00     0.000 HD 
HETATM   39  C   UNL     1      -7.489   6.070  67.771  1.00  0.00    -0.085 C  
HETATM   40  C   UNL     1      -7.424   7.486  68.458  1.00  0.00    -0.108 C  
HETATM   41  N   UNL     1      -8.680   5.313  68.209  1.00  0.00    -0.102 NA 
HETATM   42  H2  UNL     1      -8.728   4.383  67.791  1.00  0.00     0.000 HD 
HETATM   43  H1  UNL     1      -8.687   5.285  69.228  1.00  0.00     0.000 HD 
BRANCH  40  44
HETATM   44  O   UNL     1      -7.257   7.246  69.875  1.00  0.00    -0.077 OA 
BRANCH  44  45
HETATM   45  C   UNL     1      -8.123   7.999  70.736  1.00  0.00    -0.101 C  
HETATM   46  O   UNL     1      -9.482   7.924  70.318  1.00  0.00    -0.163 OA 
HETATM   47  C   UNL     1     -10.092   6.642  70.450  1.00  0.00    -0.183 C  
HETATM   48  C   UNL     1     -10.078   6.207  71.918  1.00  0.00    -0.189 C  
HETATM   49  H1  UNL     1      -6.495   7.325  73.702  1.00  0.00     0.000 HD 
HETATM   50  H2  UNL     1      -6.167   8.518  72.571  1.00  0.00     0.000 HD 
HETATM   51  O   UNL     1     -10.649   4.910  72.107  1.00  0.00    -0.208 OA 
HETATM   52  C   UNL     1      -8.635   6.206  72.442  1.00  0.00    -0.119 C  
HETATM   53  H   UNL     1     -10.640   4.641  73.018  1.00  0.00     0.000 HD 
HETATM   54  O   UNL     1      -8.633   5.890  73.845  1.00  0.00    -0.117 OA 
HETATM   55  N   UNL     1      -6.589   7.602  72.725  1.00  0.00    -0.061 NA 
HETATM   56  C   UNL     1      -7.981   7.579  72.221  1.00  0.00    -0.102 C  
HETATM   57  H   UNL     1      -7.740   5.890  74.169  1.00  0.00     0.000 HD 
BRANCH  47  58
HETATM   58  C   UNL     1     -11.525   6.764  69.912  1.00  0.00    -0.300 C  
HETATM   59  O   UNL     1     -11.566   6.414  68.526  1.00  0.00    -0.499 OA 
HETATM   60  H   UNL     1     -12.452   6.490  68.193  1.00  0.00     0.000 HD 
ENDBRANCH  47  58
ENDBRANCH  44  45
ENDBRANCH  40  44
ENDBRANCH  29  30
ENDBRANCH  22  29
ENDBRANCH  18  19
ENDBRANCH   7  18
ENDBRANCH   2   5
TORSDOF 9
ENDMDL
MODEL      229
REMARK 921   NORMALIZED FREE ENERGY PREDICTED BY IDOCK:   -3.40 KCAL/MOL
REMARK 922        TOTAL FREE ENERGY PREDICTED BY IDOCK:   -7.23 KCAL/MOL
REMARK 923 INTER-LIGAND FREE ENERGY PREDICTED BY IDOCK:   -7.72 KCAL/MOL
REMARK 924 INTRA-LIGAND FREE ENERGY PREDICTED BY IDOCK:    0.49 KCAL/MOL
REMARK 927      BINDING AFFINITY PREDICTED BY RF-SCORE:    0.00 PKD
ROOT
HETATM    1  N   UNL     1     -10.758   3.850  65.208  1.00  0.00    -0.458 NA 
HETATM    2  C   UNL     1      -9.981   4.848  65.971  1.00  0.00    -0.223 C  
HETATM    3  H1  UNL     1     -11.698   3.773  65.595  1.00  0.00     0.000 HD 
HETATM    4  H2  UNL     1     -10.285   2.947  65.166  1.00  0.00     0.000 HD 
ENDROOT
BRANCH   2   5
HETATM    5  C   UNL     1      -8.563   4.964  65.386  1.00  0.00    -0.138 C  
HETATM    6  O   UNL     1      -8.188   6.352  65.457  1.00  0.00    -0.130 OA 
HETATM    7  C   UNL     1      -6.815   6.554  65.129  1.00  0.00    -0.047 C  
HETATM    8  C   UNL     1      -6.606   6.214  63.625  1.00  0.00    -0.033 C  
HETATM    9  O   UNL     1      -9.473   5.099  63.135  1.00  0.00    -0.340 OA 
HETATM   10  H   UNL     1      -9.411   4.791  62.239  1.00  0.00     0.000 HD 
HETATM   11  N   UNL     1      -7.376   7.154  62.757  1.00  0.00    -0.075 NA 
HETATM   12  C   UNL     1      -7.048   4.754  63.371  1.00  0.00    -0.048 C  
HETATM   13  H2  UNL     1      -7.147   8.127  62.959  1.00  0.00     0.000 HD 
HETATM   14  O   UNL     1      -6.088   3.826  63.895  1.00  0.00    -0.014 OA 
HETATM   15  C   UNL     1      -8.461   4.464  63.929  1.00  0.00    -0.117 C  
HETATM   16  H1  UNL     1      -7.239   6.931  61.771  1.00  0.00     0.000 HD 
HETATM   17  H   UNL     1      -6.359   2.929  63.739  1.00  0.00     0.000 HD 
BRANCH   7  18
HETATM   18  O   UNL     1      -6.426   7.912  65.349  1.00  0.00    -0.041 OA 
BRANCH  18  19
HETATM   19  C   UNL     1      -7.495   8.760  65.807  1.00  0.00    -0.085 C  
HETATM   20  O   UNL     1      -6.813   8.275  68.136  1.00  0.00    -0.066 OA 
HETATM   21  C   UNL     1      -7.407  10.045  64.986  1.00  0.00    -0.140 C  
HETATM   22  C   UNL     1      -6.444  10.492  67.061  1.00  0.00    -0.076 C  
HETATM   23  H   UNL     1      -6.714   8.583  69.029  1.00  0.00     0.000 HD 
HETATM   24  O   UNL     1      -6.588  10.966  65.721  1.00  0.00    -0.099 OA 
HETATM   25  C   UNL     1      -7.337   9.253  67.235  1.00  0.00    -0.091 C  
BRANCH  21  26
HETATM   26  C   UNL     1      -8.761  10.707  64.726  1.00  0.00    -0.160 C  
HETATM   27  H   UNL     1     -10.648  10.151  64.552  1.00  0.00     0.000 HD 
HETATM   28  O   UNL     1      -9.808   9.739  64.713  1.00  0.00    -0.258 OA 
ENDBRANCH  21  26
BRANCH  22  29
HETATM   29  O   UNL     1      -6.856  11.485  67.995  1.00  0.00    -0.060 OA 
BRANCH  29  30
HETATM   30  C   UNL     1      -8.176  11.387  68.564  1.00  0.00    -0.153 C  
HETATM   31  C   UNL     1      -8.289  10.121  69.436  1.00  0.00    -0.168 C  
HETATM   32  O   UNL     1      -7.160  10.019  70.314  1.00  0.00    -0.137 OA 
HETATM   33  C   UNL     1      -9.582  10.150  70.260  1.00  0.00     0.126 C  
HETATM   34  C   UNL     1     -10.780  10.165  69.311  1.00  0.00    -0.259 C  
HETATM   35  N   UNL     1      -9.657   8.990  71.169  1.00  0.00    -0.269 NA 
HETATM   36  H   UNL     1      -7.230   9.239  70.851  1.00  0.00     0.000 HD 
HETATM   37  H1  UNL     1     -10.516   9.008  71.717  1.00  0.00     0.000 HD 
HETATM   38  H2  UNL     1      -8.832   8.927  71.766  1.00  0.00     0.000 HD 
HETATM   39  C   UNL     1     -10.724  11.350  68.332  1.00  0.00    -0.203 C  
HETATM   40  C   UNL     1      -9.357  11.490  67.562  1.00  0.00    -0.166 C  
HETATM   41  N   UNL     1     -11.861  11.237  67.395  1.00  0.00    -0.560 NA 
HETATM   42  H2  UNL     1     -12.759  11.167  67.875  1.00  0.00     0.000 HD 
HETATM   43  H1  UNL     1     -11.824  12.022  66.746  1.00  0.00     0.000 HD 
BRANCH  40  44
HETATM   44  O   UNL     1      -9.420  12.743  66.841  1.00  0.00    -0.221 OA 
BRANCH  44  45
HETATM   45  C   UNL     1      -9.876  13.872  67.600  1.00  0.00    -0.236 C  
HETATM   46  O   UNL     1      -8.800  14.553  68.235  1.00  0.00    -0.166 OA 
HETATM   47  C   UNL     1      -7.895  15.221  67.358  1.00  0.00    -0.194 C  
HETATM   48  C   UNL     1      -8.645  16.282  66.547  1.00  0.00    -0.297 C  
HETATM   49  H1  UNL     1     -12.395  14.858  65.458  1.00  0.00     0.000 HD 
HETATM   50  H2  UNL     1     -12.440  13.705  66.673  1.00  0.00     0.000 HD 
HETATM   51  O   UNL     1      -7.794  16.964  65.624  1.00  0.00    -0.187 OA 
HETATM   52  C   UNL     1      -9.800  15.624  65.780  1.00  0.00    -0.351 C  
HETATM   53  H   UNL     1      -8.259  17.622  65.121  1.00  0.00     0.000 HD 
HETATM   54  O   UNL     1     -10.561  16.635  65.095  1.00  0.00    -0.645 OA 
HETATM   55  N   UNL     1     -11.842  14.213  66.022  1.00  0.00    -0.383 NA 
HETATM   56  C   UNL     1     -10.716  14.852  66.742  1.00  0.00    -0.312 C  
HETATM   57  H   UNL     1     -11.276  16.227  64.621  1.00  0.00     0.000 HD 
BRANCH  47  58
HETATM   58  C   UNL     1      -6.798  15.849  68.229  1.00  0.00    -0.117 C  
HETATM   59  O   UNL     1      -5.557  15.166  68.032  1.00  0.00    -0.122 OA 
HETATM   60  H   UNL     1      -4.878  15.554  68.571  1.00  0.00     0.000 HD 
ENDBRANCH  47  58
ENDBRANCH  44  45
ENDBRANCH  40  44
ENDBRANCH  29  30
ENDBRANCH  22  29
ENDBRANCH  18  19
ENDBRANCH   7  18
ENDBRANCH   2   5
TORSDOF 9
ENDMDL
MODEL      230
REMARK 921   NORMALIZED FREE ENERGY PREDICTED BY IDOCK:   -3.38 KCAL/MOL
REMARK 922        TOTAL FREE ENERGY PREDICTED BY IDOCK:   -7.20 KCAL/MOL
REMARK 923 INTER-LIGAND FREE ENERGY PREDICTED BY IDOCK:   -6.03 KCAL/MOL
REMARK 924 INTRA-LIGAND FREE ENERGY PREDICTED BY IDOCK:   -1.17 KCAL/MOL
REMARK 927      BINDING AFFINITY PREDICTED BY RF-SCORE:    0.00 PKD
ROOT
HETATM    1  N   UNL     1     -10.764  10.019  71.128  1.00  0.00    -0.248 NA 
HETATM    2  C   UNL     1     -10.667   8.657  71.689  1.00  0.00    -0.303 C  
HETATM    3  H1  UNL     1     -11.732  10.223  70.877  1.00  0.00     0.000 HD 
HETATM    4  H2  UNL     1     -10.127  10.157  70.343  1.00  0.00     0.000 HD 
ENDROOT
BRANCH   2   5
HETATM    5  C   UNL     1      -9.209   8.350  72.068  1.00  0.00    -0.234 C  
HETATM    6  O   UNL     1      -8.833   7.148  71.370  1.00  0.00    -0.131 OA 
HETATM    7  C   UNL     1      -7.439   6.875  71.485  1.00  0.00    -0.086 C  
HETATM    8  C   UNL     1      -7.118   6.530  72.968  1.00  0.00    -0.081 C  
HETATM    9  O   UNL     1      -9.944   7.210  74.086  1.00  0.00    -0.384 OA 
HETATM   10  H   UNL     1      -9.816   7.097  75.021  1.00  0.00     0.000 HD 
HETATM   11  N   UNL     1      -7.815   5.277  73.385  1.00  0.00    -0.103 NA 
HETATM   12  C   UNL     1      -7.546   7.715  73.866  1.00  0.00    -0.132 C  
HETATM   13  H2  UNL     1      -7.597   4.500  72.762  1.00  0.00     0.000 HD 
HETATM   14  O   UNL     1      -6.633   8.814  73.740  1.00  0.00    -0.274 OA 
HETATM   15  C   UNL     1      -8.999   8.166  73.586  1.00  0.00    -0.205 C  
HETATM   16  H1  UNL     1      -7.604   5.052  74.358  1.00  0.00     0.000 HD 
HETATM   17  H   UNL     1      -6.896   9.541  74.291  1.00  0.00     0.000 HD 
BRANCH   7  18
HETATM   18  O   UNL     1      -7.061   5.764  70.666  1.00  0.00    -0.068 OA 
BRANCH  18  19
HETATM   19  C   UNL     1      -8.150   5.190  69.922  1.00  0.00    -0.082 C  
HETATM   20  O   UNL     1      -8.303   7.292  68.623  1.00  0.00    -0.124 OA 
HETATM   21  C   UNL     1      -7.699   3.791  69.509  1.00  0.00    -0.052 C  
HETATM   22  C   UNL     1      -7.430   5.171  67.650  1.00  0.00    -0.083 C  
HETATM   23  H   UNL     1      -8.475   7.716  67.790  1.00  0.00     0.000 HD 
HETATM   24  O   UNL     1      -7.092   3.901  68.213  1.00  0.00    -0.050 OA 
HETATM   25  C   UNL     1      -8.426   5.868  68.590  1.00  0.00    -0.111 C  
BRANCH  21  26
HETATM   26  C   UNL     1      -8.838   2.773  69.421  1.00  0.00    -0.095 C  
HETATM   27  H   UNL     1      -9.696   1.439  70.599  1.00  0.00     0.000 HD 
HETATM   28  O   UNL     1      -8.989   2.071  70.653  1.00  0.00    -0.065 OA 
ENDBRANCH  21  26
BRANCH  22  29
HETATM   29  O   UNL     1      -8.043   5.010  66.374  1.00  0.00    -0.107 OA 
BRANCH  29  30
HETATM   30  C   UNL     1      -7.415   5.620  65.229  1.00  0.00    -0.074 C  
HETATM   31  C   UNL     1      -6.505   4.604  64.513  1.00  0.00    -0.039 C  
HETATM   32  O   UNL     1      -7.196   3.360  64.330  1.00  0.00    -0.056 OA 
HETATM   33  C   UNL     1      -6.054   5.149  63.153  1.00  0.00    -0.021 C  
HETATM   34  C   UNL     1      -5.240   6.424  63.370  1.00  0.00    -0.018 C  
HETATM   35  N   UNL     1      -5.260   4.147  62.417  1.00  0.00    -0.005 NA 
HETATM   36  H   UNL     1      -6.635   2.734  63.888  1.00  0.00     0.000 HD 
HETATM   37  H1  UNL     1      -4.959   4.509  61.512  1.00  0.00     0.000 HD 
HETATM   38  H2  UNL     1      -5.764   3.266  62.320  1.00  0.00     0.000 HD 
HETATM   39  C   UNL     1      -6.029   7.485  64.156  1.00  0.00    -0.048 C  
HETATM   40  C   UNL     1      -6.670   6.957  65.495  1.00  0.00    -0.051 C  
HETATM   41  N   UNL     1      -5.142   8.641  64.403  1.00  0.00    -0.042 NA 
HETATM   42  H2  UNL     1      -4.734   9.012  63.545  1.00  0.00     0.000 HD 
HETATM   43  H1  UNL     1      -5.666   9.344  64.924  1.00  0.00     0.000 HD 
BRANCH  40  44
HETATM   44  O   UNL     1      -7.514   8.021  65.993  1.00  0.00    -0.075 OA 
BRANCH  44  45
HETATM   45  C   UNL     1      -8.825   8.093  65.416  1.00  0.00    -0.044 C  
HETATM   46  O   UNL     1      -9.835   8.229  66.410  1.00  0.00    -0.243 OA 
HETATM   47  C   UNL     1      -9.832   9.467  67.120  1.00  0.00    -0.187 C  
HETATM   48  C   UNL     1     -10.043  10.627  66.144  1.00  0.00    -0.249 C  
HETATM   49  H1  UNL     1      -7.977   9.912  62.609  1.00  0.00     0.000 HD 
HETATM   50  H2  UNL     1      -7.900   8.255  62.851  1.00  0.00     0.000 HD 
HETATM   51  O   UNL     1     -10.017  11.899  66.795  1.00  0.00    -0.193 OA 
HETATM   52  C   UNL     1      -8.959  10.591  65.058  1.00  0.00    -0.201 C  
HETATM   53  H   UNL     1     -10.148  12.618  66.189  1.00  0.00     0.000 HD 
HETATM   54  O   UNL     1      -9.215  11.623  64.089  1.00  0.00    -0.422 OA 
HETATM   55  N   UNL     1      -7.902   9.169  63.304  1.00  0.00    -0.124 NA 
HETATM   56  C   UNL     1      -8.939   9.222  64.360  1.00  0.00    -0.116 C  
HETATM   57  H   UNL     1      -8.544  11.601  63.417  1.00  0.00     0.000 HD 
BRANCH  47  58
HETATM   58  C   UNL     1     -10.957   9.394  68.162  1.00  0.00    -0.045 C  
HETATM   59  O   UNL     1     -11.844  10.506  68.013  1.00  0.00    -0.765 OA 
HETATM   60  H   UNL     1     -12.539  10.461  68.658  1.00  0.00     0.000 HD 
ENDBRANCH  47  58
ENDBRANCH  44  45
ENDBRANCH  40  44
ENDBRANCH  29  30
ENDBRANCH  22  29
ENDBRANCH  18  19
ENDBRANCH   7  18
ENDBRANCH   2   5
TORSDOF 9
ENDMDL
MODEL      231
REMARK 921   NORMALIZED FREE ENERGY PREDICTED BY IDOCK:   -3.36 KCAL/MOL
REMARK 922        TOTAL FREE ENERGY PREDICTED BY IDOCK:   -7.18 KCAL/MOL
REMARK 923 INTER-LIGAND FREE ENERGY PREDICTED BY IDOCK:   -6.80 KCAL/MOL
REMARK 924 INTRA-LIGAND FREE ENERGY PREDICTED BY IDOCK:   -0.37 KCAL/MOL
REMARK 927      BINDING AFFINITY PREDICTED BY RF-SCORE:    0.00 PKD
ROOT
HETATM    1  N   UNL     1     -11.037  19.078  65.196  1.00  0.00    -0.207 NA 
HETATM    2  C   UNL     1     -10.093  20.000  65.859  1.00  0.00    -0.393 C  
HETATM    3  H1  UNL     1     -11.888  19.578  64.940  1.00  0.00     0.000 HD 
HETATM    4  H2  UNL     1     -11.233  18.255  65.766  1.00  0.00     0.000 HD 
ENDROOT
BRANCH   2   5
HETATM    5  C   UNL     1      -8.810  19.246  66.245  1.00  0.00    -0.326 C  
HETATM    6  O   UNL     1      -8.912  18.923  67.644  1.00  0.00    -0.283 OA 
HETATM    7  C   UNL     1      -7.871  18.047  68.070  1.00  0.00    -0.256 C  
HETATM    8  C   UNL     1      -6.515  18.806  67.987  1.00  0.00    -0.218 C  
HETATM    9  O   UNL     1      -7.644  21.352  66.592  1.00  0.00    -0.537 OA 
HETATM   10  H   UNL     1      -6.852  21.852  66.432  1.00  0.00     0.000 HD 
HETATM   11  N   UNL     1      -6.493  19.958  68.937  1.00  0.00    -0.298 NA 
HETATM   12  C   UNL     1      -6.297  19.293  66.536  1.00  0.00    -0.186 C  
HETATM   13  H2  UNL     1      -6.703  19.665  69.891  1.00  0.00     0.000 HD 
HETATM   14  O   UNL     1      -5.941  18.203  65.674  1.00  0.00    -0.200 OA 
HETATM   15  C   UNL     1      -7.523  20.058  65.985  1.00  0.00    -0.309 C  
HETATM   16  H1  UNL     1      -5.604  20.456  68.882  1.00  0.00     0.000 HD 
HETATM   17  H   UNL     1      -5.806  18.503  64.783  1.00  0.00     0.000 HD 
BRANCH   7  18
HETATM   18  O   UNL     1      -8.075  17.621  69.420  1.00  0.00     0.107 OA 
BRANCH  18  19
HETATM   19  C   UNL     1      -8.041  16.194  69.595  1.00  0.00     0.204 C  
HETATM   20  O   UNL     1     -10.250  16.057  68.487  1.00  0.00    -0.225 OA 
HETATM   21  C   UNL     1      -6.660  15.735  69.132  1.00  0.00    -0.148 C  
HETATM   22  C   UNL     1      -8.148  15.279  67.397  1.00  0.00    -0.182 C  
HETATM   23  H   UNL     1     -10.838  15.577  67.915  1.00  0.00     0.000 HD 
HETATM   24  O   UNL     1      -6.766  15.394  67.741  1.00  0.00    -0.135 OA 
HETATM   25  C   UNL     1      -8.981  15.427  68.681  1.00  0.00    -0.191 C  
BRANCH  21  26
HETATM   26  C   UNL     1      -6.125  14.517  69.887  1.00  0.00    -0.141 C  
HETATM   27  H   UNL     1      -5.194  14.149  71.589  1.00  0.00     0.000 HD 
HETATM   28  O   UNL     1      -5.525  14.906  71.120  1.00  0.00    -0.135 OA 
ENDBRANCH  21  26
BRANCH  22  29
HETATM   29  O   UNL     1      -8.421  14.004  66.822  1.00  0.00    -0.141 OA 
BRANCH  29  30
HETATM   30  C   UNL     1      -9.628  13.842  66.052  1.00  0.00    -0.187 C  
HETATM   31  C   UNL     1     -10.055  15.189  65.437  1.00  0.00    -0.350 C  
HETATM   32  O   UNL     1      -8.932  15.832  64.817  1.00  0.00     1.140 OA 
HETATM   33  C   UNL     1     -11.167  14.981  64.403  1.00  0.00    -0.161 C  
HETATM   34  C   UNL     1     -12.390  14.381  65.096  1.00  0.00    -0.383 C  
HETATM   35  N   UNL     1     -11.518  16.251  63.738  1.00  0.00    -1.429 NA 
HETATM   36  H   UNL     1      -9.196  16.662  64.438  1.00  0.00     0.000 HD 
HETATM   37  H1  UNL     1     -12.258  16.112  63.050  1.00  0.00     0.000 HD 
HETATM   38  H2  UNL     1     -10.700  16.698  63.326  1.00  0.00     0.000 HD 
HETATM   39  C   UNL     1     -12.055  13.066  65.819  1.00  0.00    -0.454 C  
HETATM   40  C   UNL     1     -10.812  13.154  66.783  1.00  0.00    -0.276 C  
HETATM   41  N   UNL     1     -13.263  12.606  66.537  1.00  0.00     1.962 NA 
HETATM   42  H2  UNL     1     -14.074  12.522  65.925  1.00  0.00     0.000 HD 
HETATM   43  H1  UNL     1     -13.040  11.734  67.017  1.00  0.00     0.000 HD 
BRANCH  40  44
HETATM   44  O   UNL     1     -10.538  11.803  67.223  1.00  0.00    -0.211 OA 
BRANCH  44  45
HETATM   45  C   UNL     1      -9.968  11.682  68.534  1.00  0.00    -0.194 C  
HETATM   46  O   UNL     1     -10.441  12.697  69.413  1.00  0.00     0.134 OA 
HETATM   47  C   UNL     1     -11.823  12.611  69.758  1.00  0.00    -0.309 C  
HETATM   48  C   UNL     1     -12.102  11.280  70.461  1.00  0.00    -0.387 C  
HETATM   49  H1  UNL     1      -9.908   8.235  68.675  1.00  0.00     0.000 HD 
HETATM   50  H2  UNL     1      -8.780   9.279  68.007  1.00  0.00     0.000 HD 
HETATM   51  O   UNL     1     -13.481  11.124  70.803  1.00  0.00     0.208 OA 
HETATM   52  C   UNL     1     -11.669  10.118  69.557  1.00  0.00    -0.061 C  
HETATM   53  H   UNL     1     -13.654  10.298  71.240  1.00  0.00     0.000 HD 
HETATM   54  O   UNL     1     -11.843   8.874  70.257  1.00  0.00    -0.470 OA 
HETATM   55  N   UNL     1      -9.758   9.161  68.275  1.00  0.00    -0.151 NA 
HETATM   56  C   UNL     1     -10.197  10.276  69.143  1.00  0.00    -0.218 C  
HETATM   57  H   UNL     1     -11.575   8.154  69.698  1.00  0.00     0.000 HD 
BRANCH  47  58
HETATM   58  C   UNL     1     -12.137  13.807  70.668  1.00  0.00    -0.333 C  
HETATM   59  O   UNL     1     -12.501  14.946  69.883  1.00  0.00    -0.474 OA 
HETATM   60  H   UNL     1     -12.696  15.686  70.445  1.00  0.00     0.000 HD 
ENDBRANCH  47  58
ENDBRANCH  44  45
ENDBRANCH  40  44
ENDBRANCH  29  30
ENDBRANCH  22  29
ENDBRANCH  18  19
ENDBRANCH   7  18
ENDBRANCH   2   5
TORSDOF 9
ENDMDL
MODEL      232
REMARK 921   NORMALIZED FREE ENERGY PREDICTED BY IDOCK:   -3.31 KCAL/MOL
REMARK 922        TOTAL FREE ENERGY PREDICTED BY IDOCK:   -7.09 KCAL/MOL
REMARK 923 INTER-LIGAND FREE ENERGY PREDICTED BY IDOCK:   -8.39 KCAL/MOL
REMARK 924 INTRA-LIGAND FREE ENERGY PREDICTED BY IDOCK:    1.30 KCAL/MOL
REMARK 927      BINDING AFFINITY PREDICTED BY RF-SCORE:    0.00 PKD
ROOT
HETATM    1  N   UNL     1      -7.441   5.044  67.407  1.00  0.00    -0.082 NA 
HETATM    2  C   UNL     1      -8.396   3.928  67.259  1.00  0.00    -0.099 C  
HETATM    3  H1  UNL     1      -7.019   5.262  66.504  1.00  0.00     0.000 HD 
HETATM    4  H2  UNL     1      -6.738   4.855  68.122  1.00  0.00     0.000 HD 
ENDROOT
BRANCH   2   5
HETATM    5  C   UNL     1      -9.032   3.600  68.620  1.00  0.00    -0.127 C  
HETATM    6  O   UNL     1      -9.308   4.853  69.272  1.00  0.00    -0.109 OA 
HETATM    7  C   UNL     1     -10.082   4.683  70.457  1.00  0.00    -0.192 C  
HETATM    8  C   UNL     1      -9.223   3.925  71.510  1.00  0.00    -0.125 C  
HETATM    9  O   UNL     1      -6.830   3.318  69.611  1.00  0.00    -0.034 OA 
HETATM   10  H   UNL     1      -6.276   2.779  70.164  1.00  0.00     0.000 HD 
HETATM   11  N   UNL     1      -8.037   4.737  71.912  1.00  0.00    -0.107 NA 
HETATM   12  C   UNL     1      -8.777   2.568  70.916  1.00  0.00    -0.064 C  
HETATM   13  H2  UNL     1      -8.308   5.663  72.242  1.00  0.00     0.000 HD 
HETATM   14  O   UNL     1      -9.868   1.638  70.877  1.00  0.00    -0.109 OA 
HETATM   15  C   UNL     1      -8.132   2.725  69.518  1.00  0.00    -0.040 C  
HETATM   16  H1  UNL     1      -7.474   4.240  72.602  1.00  0.00     0.000 HD 
HETATM   17  H   UNL     1      -9.594   0.805  70.513  1.00  0.00     0.000 HD 
BRANCH   7  18
HETATM   18  O   UNL     1     -10.470   5.945  71.006  1.00  0.00    -0.216 OA 
BRANCH  18  19
HETATM   19  C   UNL     1     -11.122   6.817  70.066  1.00  0.00    -0.315 C  
HETATM   20  O   UNL     1     -11.399   8.480  71.878  1.00  0.00    -0.284 OA 
HETATM   21  C   UNL     1     -10.244   6.837  68.816  1.00  0.00    -0.175 C  
HETATM   22  C   UNL     1      -9.792   8.794  70.000  1.00  0.00    -0.178 C  
HETATM   23  H   UNL     1     -11.421   9.393  72.140  1.00  0.00     0.000 HD 
HETATM   24  O   UNL     1      -9.334   7.939  68.951  1.00  0.00    -0.150 OA 
HETATM   25  C   UNL     1     -11.157   8.277  70.484  1.00  0.00    -0.249 C  
BRANCH  21  26
HETATM   26  C   UNL     1     -11.025   7.015  67.513  1.00  0.00    -0.229 C  
HETATM   27  H   UNL     1     -11.121   8.323  66.037  1.00  0.00     0.000 HD 
HETATM   28  O   UNL     1     -10.636   8.214  66.846  1.00  0.00    -0.329 OA 
ENDBRANCH  21  26
BRANCH  22  29
HETATM   29  O   UNL     1      -9.951  10.129  69.531  1.00  0.00    -0.214 OA 
BRANCH  29  30
HETATM   30  C   UNL     1      -8.862  10.737  68.809  1.00  0.00    -0.163 C  
HETATM   31  C   UNL     1      -7.605  10.810  69.698  1.00  0.00    -0.042 C  
HETATM   32  O   UNL     1      -7.376   9.548  70.340  1.00  0.00    -0.109 OA 
HETATM   33  C   UNL     1      -6.378  11.195  68.864  1.00  0.00    -0.050 C  
HETATM   34  C   UNL     1      -6.597  12.582  68.261  1.00  0.00    -0.073 C  
HETATM   35  N   UNL     1      -5.152  11.175  69.685  1.00  0.00    -0.041 NA 
HETATM   36  H   UNL     1      -6.602   9.592  70.887  1.00  0.00     0.000 HD 
HETATM   37  H1  UNL     1      -4.335  11.432  69.131  1.00  0.00     0.000 HD 
HETATM   38  H2  UNL     1      -5.024  10.276  70.148  1.00  0.00     0.000 HD 
HETATM   39  C   UNL     1      -7.881  12.647  67.416  1.00  0.00    -0.175 C  
HETATM   40  C   UNL     1      -9.167  12.110  68.149  1.00  0.00    -0.197 C  
HETATM   41  N   UNL     1      -8.066  14.038  66.953  1.00  0.00    -0.387 NA 
HETATM   42  H2  UNL     1      -7.251  14.397  66.456  1.00  0.00     0.000 HD 
HETATM   43  H1  UNL     1      -8.917  14.081  66.392  1.00  0.00     0.000 HD 
BRANCH  40  44
HETATM   44  O   UNL     1     -10.219  12.074  67.157  1.00  0.00    -0.201 OA 
BRANCH  44  45
HETATM   45  C   UNL     1     -10.042  12.950  66.034  1.00  0.00    -0.285 C  
HETATM   46  O   UNL     1      -9.923  12.228  64.813  1.00  0.00    -0.259 OA 
HETATM   47  C   UNL     1     -11.104  11.550  64.386  1.00  0.00    -0.291 C  
HETATM   48  C   UNL     1     -12.235  12.560  64.172  1.00  0.00    -0.467 C  
HETATM   49  H1  UNL     1     -12.113  15.487  67.120  1.00  0.00     0.000 HD 
HETATM   50  H2  UNL     1     -10.499  15.219  67.485  1.00  0.00     0.000 HD 
HETATM   51  O   UNL     1     -13.456  11.933  63.774  1.00  0.00    -0.527 OA 
HETATM   52  C   UNL     1     -12.471  13.353  65.465  1.00  0.00    -0.483 C  
HETATM   53  H   UNL     1     -14.158  12.559  63.640  1.00  0.00     0.000 HD 
HETATM   54  O   UNL     1     -13.467  14.364  65.233  1.00  0.00    -0.483 OA 
HETATM   55  N   UNL     1     -11.373  14.788  67.183  1.00  0.00    -0.347 NA 
HETATM   56  C   UNL     1     -11.166  14.012  65.938  1.00  0.00    -0.308 C  
HETATM   57  H   UNL     1     -13.613  14.855  66.033  1.00  0.00     0.000 HD 
BRANCH  47  58
HETATM   58  C   UNL     1     -10.756  10.809  63.088  1.00  0.00     0.433 C  
HETATM   59  O   UNL     1      -9.691   9.881  63.316  1.00  0.00    -0.514 OA 
HETATM   60  H   UNL     1      -9.476   9.423  62.513  1.00  0.00     0.000 HD 
ENDBRANCH  47  58
ENDBRANCH  44  45
ENDBRANCH  40  44
ENDBRANCH  29  30
ENDBRANCH  22  29
ENDBRANCH  18  19
ENDBRANCH   7  18
ENDBRANCH   2   5
TORSDOF 9
ENDMDL
MODEL      233
REMARK 921   NORMALIZED FREE ENERGY PREDICTED BY IDOCK:   -3.29 KCAL/MOL
REMARK 922        TOTAL FREE ENERGY PREDICTED BY IDOCK:   -7.06 KCAL/MOL
REMARK 923 INTER-LIGAND FREE ENERGY PREDICTED BY IDOCK:   -7.72 KCAL/MOL
REMARK 924 INTRA-LIGAND FREE ENERGY PREDICTED BY IDOCK:    0.65 KCAL/MOL
REMARK 927      BINDING AFFINITY PREDICTED BY RF-SCORE:    0.00 PKD
ROOT
HETATM    1  N   UNL     1      -8.798  11.370  62.617  1.00  0.00    -0.545 NA 
HETATM    2  C   UNL     1      -7.579  10.590  62.910  1.00  0.00    -0.074 C  
HETATM    3  H1  UNL     1      -8.644  11.958  61.798  1.00  0.00     0.000 HD 
HETATM    4  H2  UNL     1      -9.110  11.911  63.424  1.00  0.00     0.000 HD 
ENDROOT
BRANCH   2   5
HETATM    5  C   UNL     1      -7.811   9.703  64.145  1.00  0.00    -0.130 C  
HETATM    6  O   UNL     1      -6.886  10.137  65.159  1.00  0.00    -0.124 OA 
HETATM    7  C   UNL     1      -7.143   9.522  66.419  1.00  0.00    -0.088 C  
HETATM    8  C   UNL     1      -6.841   8.000  66.302  1.00  0.00    -0.058 C  
HETATM    9  O   UNL     1      -6.343   7.995  63.228  1.00  0.00    -0.070 OA 
HETATM   10  H   UNL     1      -6.222   7.069  63.053  1.00  0.00     0.000 HD 
HETATM   11  N   UNL     1      -5.394   7.765  66.022  1.00  0.00    -0.028 NA 
HETATM   12  C   UNL     1      -7.717   7.396  65.180  1.00  0.00    -0.112 C  
HETATM   13  H2  UNL     1      -4.797   8.216  66.716  1.00  0.00     0.000 HD 
HETATM   14  O   UNL     1      -9.082   7.272  65.601  1.00  0.00    -0.375 OA 
HETATM   15  C   UNL     1      -7.614   8.198  63.861  1.00  0.00    -0.127 C  
HETATM   16  H1  UNL     1      -5.196   6.767  65.946  1.00  0.00     0.000 HD 
HETATM   17  H   UNL     1      -9.620   6.901  64.911  1.00  0.00     0.000 HD 
BRANCH   7  18
HETATM   18  O   UNL     1      -6.312  10.075  67.443  1.00  0.00    -0.065 OA 
BRANCH  18  19
HETATM   19  C   UNL     1      -7.037  10.550  68.592  1.00  0.00    -0.077 C  
HETATM   20  O   UNL     1      -5.156  12.083  69.080  1.00  0.00    -0.055 OA 
HETATM   21  C   UNL     1      -8.460  10.834  68.116  1.00  0.00    -0.125 C  
HETATM   22  C   UNL     1      -7.355  12.884  68.225  1.00  0.00    -0.118 C  
HETATM   23  H   UNL     1      -4.866  12.928  69.405  1.00  0.00     0.000 HD 
HETATM   24  O   UNL     1      -8.513  12.213  67.722  1.00  0.00    -0.142 OA 
HETATM   25  C   UNL     1      -6.573  11.901  69.112  1.00  0.00    -0.103 C  
BRANCH  21  26
HETATM   26  C   UNL     1      -9.529  10.598  69.185  1.00  0.00    -0.170 C  
HETATM   27  H   UNL     1      -9.748   9.498  70.811  1.00  0.00     0.000 HD 
HETATM   28  O   UNL     1      -9.085   9.644  70.147  1.00  0.00    -0.222 OA 
ENDBRANCH  21  26
BRANCH  22  29
HETATM   29  O   UNL     1      -7.727  14.010  69.013  1.00  0.00    -0.103 OA 
BRANCH  29  30
HETATM   30  C   UNL     1      -8.420  15.099  68.371  1.00  0.00    -0.157 C  
HETATM   31  C   UNL     1      -7.439  15.930  67.521  1.00  0.00    -0.168 C  
HETATM   32  O   UNL     1      -6.627  15.067  66.712  1.00  0.00    -0.139 OA 
HETATM   33  C   UNL     1      -8.201  16.911  66.624  1.00  0.00    -0.257 C  
HETATM   34  C   UNL     1      -8.990  17.883  67.502  1.00  0.00    -0.248 C  
HETATM   35  N   UNL     1      -7.279  17.646  65.737  1.00  0.00    -0.461 NA 
HETATM   36  H   UNL     1      -6.023  15.579  66.189  1.00  0.00     0.000 HD 
HETATM   37  H1  UNL     1      -7.786  18.299  65.140  1.00  0.00     0.000 HD 
HETATM   38  H2  UNL     1      -6.698  17.011  65.190  1.00  0.00     0.000 HD 
HETATM   39  C   UNL     1      -9.947  17.151  68.458  1.00  0.00    -0.309 C  
HETATM   40  C   UNL     1      -9.270  16.006  69.302  1.00  0.00    -0.243 C  
HETATM   41  N   UNL     1     -10.595  18.153  69.330  1.00  0.00    -0.269 NA 
HETATM   42  H2  UNL     1     -11.058  18.891  68.801  1.00  0.00     0.000 HD 
HETATM   43  H1  UNL     1     -11.229  17.666  69.963  1.00  0.00     0.000 HD 
BRANCH  40  44
HETATM   44  O   UNL     1     -10.339  15.318  69.991  1.00  0.00    -0.273 OA 
BRANCH  44  45
HETATM   45  C   UNL     1     -11.633  15.414  69.378  1.00  0.00    -0.340 C  
HETATM   46  O   UNL     1     -11.546  15.439  67.958  1.00  0.00    -0.344 OA 
HETATM   47  C   UNL     1     -11.098  14.228  67.351  1.00  0.00    -0.304 C  
HETATM   48  C   UNL     1     -12.059  13.087  67.695  1.00  0.00    -0.209 C  
HETATM   49  H1  UNL     1     -13.340  13.437  71.633  1.00  0.00     0.000 HD 
HETATM   50  H2  UNL     1     -12.985  15.072  71.727  1.00  0.00     0.000 HD 
HETATM   51  O   UNL     1     -11.642  11.837  67.139  1.00  0.00    -0.478 OA 
HETATM   52  C   UNL     1     -12.174  12.950  69.219  1.00  0.00    -0.065 C  
HETATM   53  H   UNL     1     -12.239  11.130  67.352  1.00  0.00     0.000 HD 
HETATM   54  O   UNL     1     -13.149  11.943  69.539  1.00  0.00     0.795 OA 
HETATM   55  N   UNL     1     -12.711  14.177  71.322  1.00  0.00    -0.341 NA 
HETATM   56  C   UNL     1     -12.589  14.289  69.851  1.00  0.00    -0.165 C  
HETATM   57  H   UNL     1     -13.221  11.858  70.483  1.00  0.00     0.000 HD 
BRANCH  47  58
HETATM   58  C   UNL     1     -11.034  14.476  65.837  1.00  0.00    -0.320 C  
HETATM   59  O   UNL     1      -9.674  14.500  65.395  1.00  0.00    -0.509 OA 
HETATM   60  H   UNL     1      -9.635  14.653  64.459  1.00  0.00     0.000 HD 
ENDBRANCH  47  58
ENDBRANCH  44  45
ENDBRANCH  40  44
ENDBRANCH  29  30
ENDBRANCH  22  29
ENDBRANCH  18  19
ENDBRANCH   7  18
ENDBRANCH   2   5
TORSDOF 9
ENDMDL
MODEL      234
REMARK 921   NORMALIZED FREE ENERGY PREDICTED BY IDOCK:   -3.28 KCAL/MOL
REMARK 922        TOTAL FREE ENERGY PREDICTED BY IDOCK:   -7.04 KCAL/MOL
REMARK 923 INTER-LIGAND FREE ENERGY PREDICTED BY IDOCK:   -9.74 KCAL/MOL
REMARK 924 INTRA-LIGAND FREE ENERGY PREDICTED BY IDOCK:    2.69 KCAL/MOL
REMARK 927      BINDING AFFINITY PREDICTED BY RF-SCORE:    0.00 PKD
ROOT
HETATM    1  N   UNL     1     -10.994  17.689  65.057  1.00  0.00    -0.733 NA 
HETATM    2  C   UNL     1     -10.340  18.795  65.785  1.00  0.00    -0.213 C  
HETATM    3  H1  UNL     1     -11.931  17.969  64.769  1.00  0.00     0.000 HD 
HETATM    4  H2  UNL     1     -11.001  16.825  65.600  1.00  0.00     0.000 HD 
ENDROOT
BRANCH   2   5
HETATM    5  C   UNL     1      -8.926  18.372  66.218  1.00  0.00    -0.191 C  
HETATM    6  O   UNL     1      -8.996  18.027  67.613  1.00  0.00    -0.248 OA 
HETATM    7  C   UNL     1      -7.789  17.427  68.078  1.00  0.00    -0.207 C  
HETATM    8  C   UNL     1      -6.655  18.492  68.040  1.00  0.00    -0.215 C  
HETATM    9  O   UNL     1      -8.317  20.696  66.597  1.00  0.00    -0.536 OA 
HETATM   10  H   UNL     1      -7.665  21.373  66.462  1.00  0.00     0.000 HD 
HETATM   11  N   UNL     1      -6.945  19.611  68.985  1.00  0.00    -0.347 NA 
HETATM   12  C   UNL     1      -6.510  19.025  66.595  1.00  0.00    -0.188 C  
HETATM   13  H2  UNL     1      -7.111  19.271  69.933  1.00  0.00     0.000 HD 
HETATM   14  O   UNL     1      -5.872  18.058  65.750  1.00  0.00    -0.185 OA 
HETATM   15  C   UNL     1      -7.866  19.473  65.999  1.00  0.00    -0.308 C  
HETATM   16  H1  UNL     1      -6.201  20.309  68.960  1.00  0.00     0.000 HD 
HETATM   17  H   UNL     1      -5.783  18.385  64.863  1.00  0.00     0.000 HD 
BRANCH   7  18
HETATM   18  O   UNL     1      -7.930  16.958  69.422  1.00  0.00    -0.075 OA 
BRANCH  18  19
HETATM   19  C   UNL     1      -7.826  15.529  69.557  1.00  0.00    -0.194 C  
HETATM   20  O   UNL     1     -10.265  15.445  69.976  1.00  0.00    -0.355 OA 
HETATM   21  C   UNL     1      -6.999  15.043  68.370  1.00  0.00    -0.109 C  
HETATM   22  C   UNL     1      -9.234  14.625  67.860  1.00  0.00    -0.197 C  
HETATM   23  H   UNL     1     -11.086  14.980  69.868  1.00  0.00     0.000 HD 
HETATM   24  O   UNL     1      -7.915  14.709  67.317  1.00  0.00    -0.189 OA 
HETATM   25  C   UNL     1      -9.141  14.786  69.386  1.00  0.00     0.046 C  
BRANCH  21  26
HETATM   26  C   UNL     1      -6.144  13.811  68.673  1.00  0.00    -0.088 C  
HETATM   27  H   UNL     1      -5.360  12.298  67.675  1.00  0.00     0.000 HD 
HETATM   28  O   UNL     1      -5.891  13.062  67.487  1.00  0.00    -0.203 OA 
ENDBRANCH  21  26
BRANCH  22  29
HETATM   29  O   UNL     1      -9.820  13.359  67.572  1.00  0.00    -0.219 OA 
BRANCH  29  30
HETATM   30  C   UNL     1      -9.944  12.958  66.193  1.00  0.00    -0.272 C  
HETATM   31  C   UNL     1     -11.340  13.325  65.653  1.00  0.00    -0.304 C  
HETATM   32  O   UNL     1     -11.668  14.677  66.002  1.00  0.00    -0.359 OA 
HETATM   33  C   UNL     1     -11.389  13.159  64.130  1.00  0.00    -0.398 C  
HETATM   34  C   UNL     1     -11.129  11.695  63.777  1.00  0.00    -0.499 C  
HETATM   35  N   UNL     1     -12.690  13.598  63.590  1.00  0.00    -0.613 NA 
HETATM   36  H   UNL     1     -12.528  14.904  65.669  1.00  0.00     0.000 HD 
HETATM   37  H1  UNL     1     -12.723  13.488  62.577  1.00  0.00     0.000 HD 
HETATM   38  H2  UNL     1     -12.910  14.554  63.870  1.00  0.00     0.000 HD 
HETATM   39  C   UNL     1      -9.789  11.194  64.345  1.00  0.00    -0.284 C  
HETATM   40  C   UNL     1      -9.589  11.478  65.881  1.00  0.00    -0.230 C  
HETATM   41  N   UNL     1      -9.662   9.754  64.042  1.00  0.00    -0.449 NA 
HETATM   42  H2  UNL     1      -9.766   9.552  63.047  1.00  0.00     0.000 HD 
HETATM   43  H1  UNL     1      -8.773   9.423  64.418  1.00  0.00     0.000 HD 
BRANCH  40  44
HETATM   44  O   UNL     1      -8.224  11.115  66.191  1.00  0.00    -0.169 OA 
BRANCH  44  45
HETATM   45  C   UNL     1      -8.054   9.854  66.854  1.00  0.00    -0.113 C  
HETATM   46  O   UNL     1      -7.353   9.993  68.085  1.00  0.00    -0.081 OA 
HETATM   47  C   UNL     1      -8.054  10.695  69.111  1.00  0.00    -0.141 C  
HETATM   48  C   UNL     1      -9.356   9.963  69.446  1.00  0.00    -0.214 C  
HETATM   49  H1  UNL     1     -11.093   8.477  65.975  1.00  0.00     0.000 HD 
HETATM   50  H2  UNL     1      -9.659   8.499  65.108  1.00  0.00     0.000 HD 
HETATM   51  O   UNL     1     -10.118  10.640  70.448  1.00  0.00    -0.263 OA 
HETATM   52  C   UNL     1     -10.206   9.814  68.177  1.00  0.00    -0.186 C  
HETATM   53  H   UNL     1     -10.926  10.185  70.657  1.00  0.00     0.000 HD 
HETATM   54  O   UNL     1     -11.383   9.043  68.475  1.00  0.00    -0.328 OA 
HETATM   55  N   UNL     1     -10.206   8.960  65.835  1.00  0.00     0.067 NA 
HETATM   56  C   UNL     1      -9.401   9.119  67.067  1.00  0.00    -0.148 C  
HETATM   57  H   UNL     1     -11.909   8.951  67.689  1.00  0.00     0.000 HD 
BRANCH  47  58
HETATM   58  C   UNL     1      -7.119  10.771  70.326  1.00  0.00     0.246 C  
HETATM   59  O   UNL     1      -5.972   9.941  70.123  1.00  0.00    -0.046 OA 
HETATM   60  H   UNL     1      -5.394   9.988  70.875  1.00  0.00     0.000 HD 
ENDBRANCH  47  58
ENDBRANCH  44  45
ENDBRANCH  40  44
ENDBRANCH  29  30
ENDBRANCH  22  29
ENDBRANCH  18  19
ENDBRANCH   7  18
ENDBRANCH   2   5
TORSDOF 9
ENDMDL
MODEL      235
REMARK 921   NORMALIZED FREE ENERGY PREDICTED BY IDOCK:   -3.27 KCAL/MOL
REMARK 922        TOTAL FREE ENERGY PREDICTED BY IDOCK:   -7.04 KCAL/MOL
REMARK 923 INTER-LIGAND FREE ENERGY PREDICTED BY IDOCK:   -7.24 KCAL/MOL
REMARK 924 INTRA-LIGAND FREE ENERGY PREDICTED BY IDOCK:    0.20 KCAL/MOL
REMARK 927      BINDING AFFINITY PREDICTED BY RF-SCORE:    0.00 PKD
ROOT
HETATM    1  N   UNL     1     -10.001   5.023  71.618  1.00  0.00    -0.180 NA 
HETATM    2  C   UNL     1     -10.086   6.487  71.792  1.00  0.00    -0.184 C  
HETATM    3  H1  UNL     1     -10.906   4.597  71.821  1.00  0.00     0.000 HD 
HETATM    4  H2  UNL     1      -9.251   4.614  72.176  1.00  0.00     0.000 HD 
ENDROOT
BRANCH   2   5
HETATM    5  C   UNL     1      -8.723   7.130  71.486  1.00  0.00    -0.119 C  
HETATM    6  O   UNL     1      -8.771   7.601  70.127  1.00  0.00    -0.139 OA 
HETATM    7  C   UNL     1      -7.635   8.395  69.794  1.00  0.00    -0.087 C  
HETATM    8  C   UNL     1      -6.371   7.486  69.802  1.00  0.00    -0.031 C  
HETATM    9  O   UNL     1      -7.791   4.953  70.930  1.00  0.00    -0.079 OA 
HETATM   10  H   UNL     1      -7.062   4.355  71.041  1.00  0.00     0.000 HD 
HETATM   11  N   UNL     1      -6.464   6.439  68.741  1.00  0.00    -0.044 NA 
HETATM   12  C   UNL     1      -6.227   6.835  71.197  1.00  0.00    -0.040 C  
HETATM   13  H2  UNL     1      -6.628   6.848  67.821  1.00  0.00     0.000 HD 
HETATM   14  O   UNL     1      -5.764   7.786  72.165  1.00  0.00    -0.036 OA 
HETATM   15  C   UNL     1      -7.537   6.158  71.666  1.00  0.00    -0.096 C  
HETATM   16  H1  UNL     1      -5.636   5.843  68.747  1.00  0.00     0.000 HD 
HETATM   17  H   UNL     1      -5.675   7.386  73.022  1.00  0.00     0.000 HD 
BRANCH   7  18
HETATM   18  O   UNL     1      -7.773   8.973  68.493  1.00  0.00    -0.095 OA 
BRANCH  18  19
HETATM   19  C   UNL     1      -9.097   9.460  68.207  1.00  0.00    -0.128 C  
HETATM   20  O   UNL     1      -9.177  10.427  70.484  1.00  0.00    -0.130 OA 
HETATM   21  C   UNL     1      -9.022  10.131  66.837  1.00  0.00    -0.132 C  
HETATM   22  C   UNL     1      -8.968  11.829  68.434  1.00  0.00    -0.168 C  
HETATM   23  H   UNL     1      -9.468  11.131  71.052  1.00  0.00     0.000 HD 
HETATM   24  O   UNL     1      -8.740  11.522  67.057  1.00  0.00    -0.157 OA 
HETATM   25  C   UNL     1      -9.561  10.585  69.116  1.00  0.00    -0.199 C  
BRANCH  21  26
HETATM   26  C   UNL     1     -10.313  10.025  66.024  1.00  0.00    -0.152 C  
HETATM   27  H   UNL     1     -10.839   9.983  64.120  1.00  0.00     0.000 HD 
HETATM   28  O   UNL     1     -10.037  10.050  64.625  1.00  0.00    -0.271 OA 
ENDBRANCH  21  26
BRANCH  22  29
HETATM   29  O   UNL     1      -9.893  12.904  68.565  1.00  0.00    -0.214 OA 
BRANCH  29  30
HETATM   30  C   UNL     1      -9.519  14.197  68.050  1.00  0.00    -0.213 C  
HETATM   31  C   UNL     1     -10.139  14.418  66.656  1.00  0.00    -0.274 C  
HETATM   32  O   UNL     1     -11.529  14.065  66.668  1.00  0.00    -0.335 OA 
HETATM   33  C   UNL     1      -9.981  15.879  66.222  1.00  0.00    -0.298 C  
HETATM   34  C   UNL     1      -8.493  16.215  66.124  1.00  0.00    -0.288 C  
HETATM   35  N   UNL     1     -10.653  16.125  64.931  1.00  0.00    -0.669 NA 
HETATM   36  H   UNL     1     -11.911  14.201  65.809  1.00  0.00     0.000 HD 
HETATM   37  H1  UNL     1     -10.549  17.097  64.642  1.00  0.00     0.000 HD 
HETATM   38  H2  UNL     1     -11.633  15.845  64.959  1.00  0.00     0.000 HD 
HETATM   39  C   UNL     1      -7.754  15.949  67.447  1.00  0.00    -0.175 C  
HETATM   40  C   UNL     1      -7.999  14.515  68.049  1.00  0.00    -0.135 C  
HETATM   41  N   UNL     1      -6.314  16.208  67.238  1.00  0.00    -0.202 NA 
HETATM   42  H2  UNL     1      -6.133  17.141  66.868  1.00  0.00     0.000 HD 
HETATM   43  H1  UNL     1      -5.825  16.031  68.115  1.00  0.00     0.000 HD 
BRANCH  40  44
HETATM   44  O   UNL     1      -7.389  14.512  69.361  1.00  0.00    -0.145 OA 
BRANCH  44  45
HETATM   45  C   UNL     1      -5.958  14.411  69.378  1.00  0.00    -0.102 C  
HETATM   46  O   UNL     1      -5.435  14.508  70.698  1.00  0.00    -0.121 OA 
HETATM   47  C   UNL     1      -5.749  13.417  71.562  1.00  0.00     0.002 C  
HETATM   48  C   UNL     1      -5.188  12.116  70.981  1.00  0.00    -0.141 C  
HETATM   49  H1  UNL     1      -5.647  12.084  66.850  1.00  0.00     0.000 HD 
HETATM   50  H2  UNL     1      -5.779  13.750  66.733  1.00  0.00     0.000 HD 
HETATM   51  O   UNL     1      -5.500  10.979  71.789  1.00  0.00    -0.333 OA 
HETATM   52  C   UNL     1      -5.744  11.900  69.566  1.00  0.00    -0.080 C  
HETATM   53  H   UNL     1      -5.151  10.172  71.428  1.00  0.00     0.000 HD 
HETATM   54  O   UNL     1      -5.142  10.730  68.986  1.00  0.00    -0.042 OA 
HETATM   55  N   UNL     1      -5.978  12.932  67.309  1.00  0.00    -0.324 NA 
HETATM   56  C   UNL     1      -5.454  13.122  68.680  1.00  0.00    -0.075 C  
HETATM   57  H   UNL     1      -5.486  10.596  68.111  1.00  0.00     0.000 HD 
BRANCH  47  58
HETATM   58  C   UNL     1      -5.135  13.733  72.933  1.00  0.00    -0.179 C  
HETATM   59  O   UNL     1      -6.149  13.731  73.942  1.00  0.00    -0.430 OA 
HETATM   60  H   UNL     1      -5.769  13.927  74.790  1.00  0.00     0.000 HD 
ENDBRANCH  47  58
ENDBRANCH  44  45
ENDBRANCH  40  44
ENDBRANCH  29  30
ENDBRANCH  22  29
ENDBRANCH  18  19
ENDBRANCH   7  18
ENDBRANCH   2   5
TORSDOF 9
ENDMDL
MODEL      236
REMARK 921   NORMALIZED FREE ENERGY PREDICTED BY IDOCK:   -3.27 KCAL/MOL
REMARK 922        TOTAL FREE ENERGY PREDICTED BY IDOCK:   -7.04 KCAL/MOL
REMARK 923 INTER-LIGAND FREE ENERGY PREDICTED BY IDOCK:   -6.71 KCAL/MOL
REMARK 924 INTRA-LIGAND FREE ENERGY PREDICTED BY IDOCK:   -0.33 KCAL/MOL
REMARK 927      BINDING AFFINITY PREDICTED BY RF-SCORE:    0.00 PKD
ROOT
HETATM    1  N   UNL     1     -11.666  13.976  70.802  1.00  0.00    -0.514 NA 
HETATM    2  C   UNL     1     -12.684  13.845  69.741  1.00  0.00     0.104 C  
HETATM    3  H1  UNL     1     -12.116  14.209  71.688  1.00  0.00     0.000 HD 
HETATM    4  H2  UNL     1     -10.937  14.645  70.554  1.00  0.00     0.000 HD 
ENDROOT
BRANCH   2   5
HETATM    5  C   UNL     1     -12.006  13.492  68.406  1.00  0.00    -0.343 C  
HETATM    6  O   UNL     1     -10.781  12.806  68.722  1.00  0.00    -0.243 OA 
HETATM    7  C   UNL     1     -10.163  12.251  67.563  1.00  0.00    -0.204 C  
HETATM    8  C   UNL     1      -9.683  13.415  66.648  1.00  0.00    -0.275 C  
HETATM    9  O   UNL     1     -10.998  15.703  68.303  1.00  0.00    -0.286 OA 
HETATM   10  H   UNL     1     -10.815  16.463  67.763  1.00  0.00     0.000 HD 
HETATM   11  N   UNL     1      -8.627  14.224  67.326  1.00  0.00    -0.205 NA 
HETATM   12  C   UNL     1     -10.896  14.302  66.282  1.00  0.00    -0.310 C  
HETATM   13  H2  UNL     1      -7.848  13.643  67.637  1.00  0.00     0.000 HD 
HETATM   14  O   UNL     1     -11.736  13.655  65.317  1.00  0.00    -0.317 OA 
HETATM   15  C   UNL     1     -11.708  14.727  67.529  1.00  0.00    -0.348 C  
HETATM   16  H1  UNL     1      -8.313  14.987  66.726  1.00  0.00     0.000 HD 
HETATM   17  H   UNL     1     -12.481  14.200  65.092  1.00  0.00     0.000 HD 
BRANCH   7  18
HETATM   18  O   UNL     1      -9.031  11.451  67.915  1.00  0.00    -0.143 OA 
BRANCH  18  19
HETATM   19  C   UNL     1      -8.349  10.874  66.787  1.00  0.00    -0.138 C  
HETATM   20  O   UNL     1      -6.304  10.712  68.172  1.00  0.00    -0.057 OA 
HETATM   21  C   UNL     1      -9.271   9.789  66.235  1.00  0.00    -0.164 C  
HETATM   22  C   UNL     1      -7.639   8.715  67.507  1.00  0.00    -0.094 C  
HETATM   23  H   UNL     1      -5.515  10.230  68.394  1.00  0.00     0.000 HD 
HETATM   24  O   UNL     1      -8.909   8.555  66.872  1.00  0.00    -0.131 OA 
HETATM   25  C   UNL     1      -7.088  10.104  67.143  1.00  0.00    -0.089 C  
BRANCH  21  26
HETATM   26  C   UNL     1      -9.167   9.598  64.721  1.00  0.00    -0.238 C  
HETATM   27  H   UNL     1      -9.925  10.417  63.092  1.00  0.00     0.000 HD 
HETATM   28  O   UNL     1      -9.990  10.535  64.032  1.00  0.00    -0.320 OA 
ENDBRANCH  21  26
BRANCH  22  29
HETATM   29  O   UNL     1      -6.719   7.727  67.053  1.00  0.00    -0.064 OA 
BRANCH  29  30
HETATM   30  C   UNL     1      -7.238   6.460  66.605  1.00  0.00    -0.077 C  
HETATM   31  C   UNL     1      -7.570   6.520  65.100  1.00  0.00    -0.090 C  
HETATM   32  O   UNL     1      -6.480   7.105  64.374  1.00  0.00    -0.039 OA 
HETATM   33  C   UNL     1      -7.857   5.116  64.557  1.00  0.00    -0.096 C  
HETATM   34  C   UNL     1      -9.078   4.540  65.276  1.00  0.00    -0.149 C  
HETATM   35  N   UNL     1      -8.083   5.147  63.099  1.00  0.00    -0.095 NA 
HETATM   36  H   UNL     1      -6.684   7.141  63.447  1.00  0.00     0.000 HD 
HETATM   37  H1  UNL     1      -8.274   4.214  62.737  1.00  0.00     0.000 HD 
HETATM   38  H2  UNL     1      -7.305   5.588  62.608  1.00  0.00     0.000 HD 
HETATM   39  C   UNL     1      -8.887   4.513  66.802  1.00  0.00    -0.112 C  
HETATM   40  C   UNL     1      -8.427   5.886  67.422  1.00  0.00    -0.103 C  
HETATM   41  N   UNL     1     -10.142   4.035  67.421  1.00  0.00    -0.117 NA 
HETATM   42  H2  UNL     1     -10.445   3.136  67.047  1.00  0.00     0.000 HD 
HETATM   43  H1  UNL     1     -10.015   4.017  68.433  1.00  0.00     0.000 HD 
BRANCH  40  44
HETATM   44  O   UNL     1      -8.123   5.625  68.813  1.00  0.00    -0.098 OA 
BRANCH  44  45
HETATM   45  C   UNL     1      -7.700   6.763  69.578  1.00  0.00    -0.104 C  
HETATM   46  O   UNL     1      -8.797   7.414  70.209  1.00  0.00    -0.145 OA 
HETATM   47  C   UNL     1      -9.437   6.670  71.245  1.00  0.00    -0.162 C  
HETATM   48  C   UNL     1      -8.433   6.360  72.358  1.00  0.00    -0.120 C  
HETATM   49  H1  UNL     1      -4.723   5.446  70.721  1.00  0.00     0.000 HD 
HETATM   50  H2  UNL     1      -5.040   6.224  69.271  1.00  0.00     0.000 HD 
HETATM   51  O   UNL     1      -9.009   5.586  73.412  1.00  0.00    -0.130 OA 
HETATM   52  C   UNL     1      -7.231   5.605  71.774  1.00  0.00    -0.090 C  
HETATM   53  H   UNL     1      -8.386   5.394  74.103  1.00  0.00     0.000 HD 
HETATM   54  O   UNL     1      -6.246   5.399  72.802  1.00  0.00    -0.043 OA 
HETATM   55  N   UNL     1      -5.442   5.687  70.040  1.00  0.00    -0.004 NA 
HETATM   56  C   UNL     1      -6.608   6.397  70.614  1.00  0.00    -0.052 C  
HETATM   57  H   UNL     1      -5.502   4.931  72.441  1.00  0.00     0.000 HD 
BRANCH  47  58
HETATM   58  C   UNL     1     -10.605   7.522  71.760  1.00  0.00    -0.206 C  
HETATM   59  O   UNL     1     -11.821   6.769  71.726  1.00  0.00    -0.296 OA 
HETATM   60  H   UNL     1     -12.543   7.296  72.045  1.00  0.00     0.000 HD 
ENDBRANCH  47  58
ENDBRANCH  44  45
ENDBRANCH  40  44
ENDBRANCH  29  30
ENDBRANCH  22  29
ENDBRANCH  18  19
ENDBRANCH   7  18
ENDBRANCH   2   5
TORSDOF 9
ENDMDL
MODEL      237
REMARK 921   NORMALIZED FREE ENERGY PREDICTED BY IDOCK:   -3.21 KCAL/MOL
REMARK 922        TOTAL FREE ENERGY PREDICTED BY IDOCK:   -6.95 KCAL/MOL
REMARK 923 INTER-LIGAND FREE ENERGY PREDICTED BY IDOCK:   -7.84 KCAL/MOL
REMARK 924 INTRA-LIGAND FREE ENERGY PREDICTED BY IDOCK:    0.89 KCAL/MOL
REMARK 927      BINDING AFFINITY PREDICTED BY RF-SCORE:    0.00 PKD
ROOT
HETATM    1  N   UNL     1     -12.157  14.142  67.892  1.00  0.00    -0.545 NA 
HETATM    2  C   UNL     1     -12.515  14.458  66.495  1.00  0.00    -0.118 C  
HETATM    3  H1  UNL     1     -12.315  14.958  68.484  1.00  0.00     0.000 HD 
HETATM    4  H2  UNL     1     -11.203  13.789  67.973  1.00  0.00     0.000 HD 
ENDROOT
BRANCH   2   5
HETATM    5  C   UNL     1     -12.277  13.228  65.603  1.00  0.00    -0.462 C  
HETATM    6  O   UNL     1     -10.914  12.813  65.808  1.00  0.00    -0.270 OA 
HETATM    7  C   UNL     1     -10.636  11.560  65.187  1.00  0.00    -0.293 C  
HETATM    8  C   UNL     1     -10.716  11.740  63.643  1.00  0.00    -0.440 C  
HETATM    9  O   UNL     1     -11.785  14.665  63.704  1.00  0.00    -0.572 OA 
HETATM   10  H   UNL     1     -11.938  14.835  62.782  1.00  0.00     0.000 HD 
HETATM   11  N   UNL     1      -9.659  12.678  63.162  1.00  0.00    -0.225 NA 
HETATM   12  C   UNL     1     -12.121  12.266  63.268  1.00  0.00    -0.418 C  
HETATM   13  H2  UNL     1      -8.728  12.383  63.460  1.00  0.00     0.000 HD 
HETATM   14  O   UNL     1     -13.106  11.229  63.376  1.00  0.00    -0.245 OA 
HETATM   15  C   UNL     1     -12.525  13.503  64.105  1.00  0.00    -0.239 C  
HETATM   16  H1  UNL     1      -9.711  12.796  62.150  1.00  0.00     0.000 HD 
HETATM   17  H   UNL     1     -13.969  11.553  63.145  1.00  0.00     0.000 HD 
BRANCH   7  18
HETATM   18  O   UNL     1      -9.326  11.096  65.525  1.00  0.00    -0.213 OA 
BRANCH  18  19
HETATM   19  C   UNL     1      -9.141   9.681  65.341  1.00  0.00    -0.215 C  
HETATM   20  O   UNL     1      -6.888  10.148  64.426  1.00  0.00    -0.127 OA 
HETATM   21  C   UNL     1      -9.571   9.017  66.647  1.00  0.00    -0.213 C  
HETATM   22  C   UNL     1      -7.242   9.109  66.663  1.00  0.00    -0.085 C  
HETATM   23  H   UNL     1      -5.982   9.879  64.337  1.00  0.00     0.000 HD 
HETATM   24  O   UNL     1      -8.401   8.892  67.470  1.00  0.00    -0.109 OA 
HETATM   25  C   UNL     1      -7.690   9.252  65.200  1.00  0.00    -0.108 C  
BRANCH  21  26
HETATM   26  C   UNL     1     -10.180   7.626  66.463  1.00  0.00    -0.108 C  
HETATM   27  H   UNL     1     -11.554   6.508  67.336  1.00  0.00     0.000 HD 
HETATM   28  O   UNL     1     -11.176   7.371  67.451  1.00  0.00    -0.093 OA 
ENDBRANCH  21  26
BRANCH  22  29
HETATM   29  O   UNL     1      -6.347   8.005  66.760  1.00  0.00    -0.052 OA 
BRANCH  29  30
HETATM   30  C   UNL     1      -6.841   6.690  66.441  1.00  0.00    -0.061 C  
HETATM   31  C   UNL     1      -7.277   6.626  64.964  1.00  0.00    -0.074 C  
HETATM   32  O   UNL     1      -6.265   7.196  64.122  1.00  0.00    -0.039 OA 
HETATM   33  C   UNL     1      -7.541   5.175  64.543  1.00  0.00    -0.079 C  
HETATM   34  C   UNL     1      -8.684   4.610  65.386  1.00  0.00    -0.134 C  
HETATM   35  N   UNL     1      -7.867   5.091  63.106  1.00  0.00    -0.073 NA 
HETATM   36  H   UNL     1      -6.534   7.156  63.212  1.00  0.00     0.000 HD 
HETATM   37  H1  UNL     1      -8.044   4.126  62.826  1.00  0.00     0.000 HD 
HETATM   38  H2  UNL     1      -7.144   5.522  62.532  1.00  0.00     0.000 HD 
HETATM   39  C   UNL     1      -8.389   4.703  66.893  1.00  0.00    -0.106 C  
HETATM   40  C   UNL     1      -7.946   6.134  67.380  1.00  0.00    -0.105 C  
HETATM   41  N   UNL     1      -9.577   4.226  67.632  1.00  0.00    -0.173 NA 
HETATM   42  H2  UNL     1      -9.867   3.291  67.346  1.00  0.00     0.000 HD 
HETATM   43  H1  UNL     1      -9.381   4.287  68.631  1.00  0.00     0.000 HD 
BRANCH  40  44
HETATM   44  O   UNL     1      -7.537   5.988  68.760  1.00  0.00    -0.088 OA 
BRANCH  44  45
HETATM   45  C   UNL     1      -7.927   7.055  69.637  1.00  0.00    -0.124 C  
HETATM   46  O   UNL     1      -9.291   6.949  70.027  1.00  0.00    -0.158 OA 
HETATM   47  C   UNL     1      -9.603   5.839  70.869  1.00  0.00    -0.168 C  
HETATM   48  C   UNL     1      -8.799   5.931  72.168  1.00  0.00    -0.136 C  
HETATM   49  H1  UNL     1      -4.957   7.307  71.376  1.00  0.00     0.000 HD 
HETATM   50  H2  UNL     1      -5.384   8.013  69.918  1.00  0.00     0.000 HD 
HETATM   51  O   UNL     1      -9.045   4.826  73.040  1.00  0.00    -0.120 OA 
HETATM   52  C   UNL     1      -7.300   5.996  71.844  1.00  0.00    -0.094 C  
HETATM   53  H   UNL     1      -8.547   4.883  73.847  1.00  0.00     0.000 HD 
HETATM   54  O   UNL     1      -6.553   6.178  73.060  1.00  0.00    -0.063 OA 
HETATM   55  N   UNL     1      -5.563   7.240  70.559  1.00  0.00    -0.024 NA 
HETATM   56  C   UNL     1      -7.006   7.156  70.880  1.00  0.00    -0.057 C  
HETATM   57  H   UNL     1      -5.625   6.219  72.859  1.00  0.00     0.000 HD 
BRANCH  47  58
HETATM   58  C   UNL     1     -11.114   5.883  71.136  1.00  0.00    -0.236 C  
HETATM   59  O   UNL     1     -11.786   6.560  70.070  1.00  0.00    -0.574 OA 
HETATM   60  H   UNL     1     -12.721   6.587  70.235  1.00  0.00     0.000 HD 
ENDBRANCH  47  58
ENDBRANCH  44  45
ENDBRANCH  40  44
ENDBRANCH  29  30
ENDBRANCH  22  29
ENDBRANCH  18  19
ENDBRANCH   7  18
ENDBRANCH   2   5
TORSDOF 9
ENDMDL
MODEL      238
REMARK 921   NORMALIZED FREE ENERGY PREDICTED BY IDOCK:   -3.09 KCAL/MOL
REMARK 922        TOTAL FREE ENERGY PREDICTED BY IDOCK:   -6.77 KCAL/MOL
REMARK 923 INTER-LIGAND FREE ENERGY PREDICTED BY IDOCK:   -5.47 KCAL/MOL
REMARK 924 INTRA-LIGAND FREE ENERGY PREDICTED BY IDOCK:   -1.30 KCAL/MOL
REMARK 927      BINDING AFFINITY PREDICTED BY RF-SCORE:    0.00 PKD
ROOT
HETATM    1  N   UNL     1      -6.951   5.699  68.509  1.00  0.00    -0.063 NA 
HETATM    2  C   UNL     1      -7.037   5.747  67.035  1.00  0.00    -0.070 C  
HETATM    3  H1  UNL     1      -5.991   5.503  68.793  1.00  0.00     0.000 HD 
HETATM    4  H2  UNL     1      -7.614   5.035  68.910  1.00  0.00     0.000 HD 
ENDROOT
BRANCH   2   5
HETATM    5  C   UNL     1      -8.484   6.044  66.606  1.00  0.00    -0.112 C  
HETATM    6  O   UNL     1      -8.753   7.416  66.945  1.00  0.00    -0.119 OA 
HETATM    7  C   UNL     1      -9.997   7.866  66.412  1.00  0.00    -0.122 C  
HETATM    8  C   UNL     1     -11.151   7.100  67.123  1.00  0.00    -0.150 C  
HETATM    9  O   UNL     1      -9.321   5.133  68.700  1.00  0.00    -0.115 OA 
HETATM   10  H   UNL     1      -9.959   4.565  69.114  1.00  0.00     0.000 HD 
HETATM   11  N   UNL     1     -11.188   7.428  68.579  1.00  0.00    -0.382 NA 
HETATM   12  C   UNL     1     -10.953   5.581  66.912  1.00  0.00     0.016 C  
HETATM   13  H2  UNL     1     -11.249   8.434  68.738  1.00  0.00     0.000 HD 
HETATM   14  O   UNL     1     -11.287   5.197  65.572  1.00  0.00    -0.798 OA 
HETATM   15  C   UNL     1      -9.522   5.121  67.280  1.00  0.00    -0.131 C  
HETATM   16  H1  UNL     1     -11.944   6.925  69.045  1.00  0.00     0.000 HD 
HETATM   17  H   UNL     1     -11.166   4.264  65.443  1.00  0.00     0.000 HD 
BRANCH   7  18
HETATM   18  O   UNL     1     -10.177   9.268  66.632  1.00  0.00    -0.256 OA 
BRANCH  18  19
HETATM   19  C   UNL     1     -10.286  10.041  65.424  1.00  0.00    -0.041 C  
HETATM   20  O   UNL     1     -11.826  11.576  66.606  1.00  0.00    -0.470 OA 
HETATM   21  C   UNL     1      -8.861  10.250  64.915  1.00  0.00    -0.192 C  
HETATM   22  C   UNL     1      -9.500  12.219  65.986  1.00  0.00    -0.189 C  
HETATM   23  H   UNL     1     -12.139  12.464  66.735  1.00  0.00     0.000 HD 
HETATM   24  O   UNL     1      -8.388  11.488  65.465  1.00  0.00     0.120 OA 
HETATM   25  C   UNL     1     -10.788  11.460  65.630  1.00  0.00    -0.218 C  
BRANCH  21  26
HETATM   26  C   UNL     1      -8.752  10.327  63.391  1.00  0.00    -0.206 C  
HETATM   27  H   UNL     1      -9.975  10.474  61.847  1.00  0.00     0.000 HD 
HETATM   28  O   UNL     1     -10.043  10.426  62.793  1.00  0.00    -0.102 OA 
ENDBRANCH  21  26
BRANCH  22  29
HETATM   29  O   UNL     1      -9.563  13.520  65.409  1.00  0.00    -0.068 OA 
BRANCH  29  30
HETATM   30  C   UNL     1      -9.378  14.662  66.268  1.00  0.00    -0.262 C  
HETATM   31  C   UNL     1     -10.018  15.914  65.638  1.00  0.00    -0.334 C  
HETATM   32  O   UNL     1     -11.344  15.617  65.177  1.00  0.00    -0.290 OA 
HETATM   33  C   UNL     1     -10.070  17.061  66.655  1.00  0.00    -0.306 C  
HETATM   34  C   UNL     1      -8.646  17.430  67.067  1.00  0.00    -0.250 C  
HETATM   35  N   UNL     1     -10.767  18.235  66.095  1.00  0.00    -0.263 NA 
HETATM   36  H   UNL     1     -11.738  16.389  64.790  1.00  0.00     0.000 HD 
HETATM   37  H1  UNL     1     -10.802  18.998  66.770  1.00  0.00     0.000 HD 
HETATM   38  H2  UNL     1     -11.697  17.992  65.754  1.00  0.00     0.000 HD 
HETATM   39  C   UNL     1      -7.880  16.222  67.635  1.00  0.00    -0.145 C  
HETATM   40  C   UNL     1      -7.918  14.941  66.720  1.00  0.00     0.101 C  
HETATM   41  N   UNL     1      -6.491  16.641  67.919  1.00  0.00    -0.130 NA 
HETATM   42  H2  UNL     1      -6.444  17.457  68.528  1.00  0.00     0.000 HD 
HETATM   43  H1  UNL     1      -5.983  15.841  68.295  1.00  0.00     0.000 HD 
BRANCH  40  44
HETATM   44  O   UNL     1      -7.317  13.872  67.487  1.00  0.00    -0.167 OA 
BRANCH  44  45
HETATM   45  C   UNL     1      -7.617  13.872  68.891  1.00  0.00    -0.060 C  
HETATM   46  O   UNL     1      -8.856  13.228  69.168  1.00  0.00     0.361 OA 
HETATM   47  C   UNL     1      -8.881  11.821  68.932  1.00  0.00     0.133 C  
HETATM   48  C   UNL     1      -7.838  11.128  69.813  1.00  0.00     0.503 C  
HETATM   49  H1  UNL     1      -4.391  13.438  70.034  1.00  0.00     0.000 HD 
HETATM   50  H2  UNL     1      -5.173  14.858  69.610  1.00  0.00     0.000 HD 
HETATM   51  O   UNL     1      -7.794   9.716  69.595  1.00  0.00    -0.099 OA 
HETATM   52  C   UNL     1      -6.452  11.726  69.540  1.00  0.00    -0.120 C  
HETATM   53  H   UNL     1      -7.148   9.286  70.143  1.00  0.00     0.000 HD 
HETATM   54  O   UNL     1      -5.491  11.140  70.436  1.00  0.00    -0.086 OA 
HETATM   55  N   UNL     1      -5.143  13.847  69.480  1.00  0.00    -0.083 NA 
HETATM   56  C   UNL     1      -6.474  13.251  69.733  1.00  0.00    -0.020 C  
HETATM   57  H   UNL     1      -4.632  11.511  70.268  1.00  0.00     0.000 HD 
BRANCH  47  58
HETATM   58  C   UNL     1     -10.301  11.334  69.248  1.00  0.00    -0.070 C  
HETATM   59  O   UNL     1     -10.274   9.971  69.679  1.00  0.00    -0.211 OA 
HETATM   60  H   UNL     1     -11.153   9.669  69.875  1.00  0.00     0.000 HD 
ENDBRANCH  47  58
ENDBRANCH  44  45
ENDBRANCH  40  44
ENDBRANCH  29  30
ENDBRANCH  22  29
ENDBRANCH  18  19
ENDBRANCH   7  18
ENDBRANCH   2   5
TORSDOF 9
ENDMDL
MODEL      239
REMARK 921   NORMALIZED FREE ENERGY PREDICTED BY IDOCK:   -3.08 KCAL/MOL
REMARK 922        TOTAL FREE ENERGY PREDICTED BY IDOCK:   -6.74 KCAL/MOL
REMARK 923 INTER-LIGAND FREE ENERGY PREDICTED BY IDOCK:   -6.18 KCAL/MOL
REMARK 924 INTRA-LIGAND FREE ENERGY PREDICTED BY IDOCK:   -0.56 KCAL/MOL
REMARK 927      BINDING AFFINITY PREDICTED BY RF-SCORE:    0.00 PKD
ROOT
HETATM    1  N   UNL     1      -9.962   9.942  64.805  1.00  0.00    -0.397 NA 
HETATM    2  C   UNL     1     -11.071  10.912  64.713  1.00  0.00     0.171 C  
HETATM    3  H1  UNL     1     -10.220   9.074  64.336  1.00  0.00     0.000 HD 
HETATM    4  H2  UNL     1      -9.670   9.784  65.770  1.00  0.00     0.000 HD 
ENDROOT
BRANCH   2   5
HETATM    5  C   UNL     1     -10.682  12.221  65.420  1.00  0.00    -0.284 C  
HETATM    6  O   UNL     1      -9.417  11.991  66.069  1.00  0.00    -0.234 OA 
HETATM    7  C   UNL     1      -8.856  13.194  66.590  1.00  0.00    -0.064 C  
HETATM    8  C   UNL     1      -9.757  13.701  67.754  1.00  0.00    -0.225 C  
HETATM    9  O   UNL     1     -12.030  11.611  67.350  1.00  0.00    -0.621 OA 
HETATM   10  H   UNL     1     -12.674  11.899  67.986  1.00  0.00     0.000 HD 
HETATM   11  N   UNL     1      -9.760  12.728  68.886  1.00  0.00    -0.405 NA 
HETATM   12  C   UNL     1     -11.192  13.922  67.223  1.00  0.00    -0.312 C  
HETATM   13  H2  UNL     1      -8.814  12.518  69.205  1.00  0.00     0.000 HD 
HETATM   14  O   UNL     1     -11.268  15.104  66.414  1.00  0.00    -0.339 OA 
HETATM   15  C   UNL     1     -11.727  12.689  66.454  1.00  0.00    -0.405 C  
HETATM   16  H1  UNL     1     -10.351  13.061  69.648  1.00  0.00     0.000 HD 
HETATM   17  H   UNL     1     -12.150  15.239  66.088  1.00  0.00     0.000 HD 
BRANCH   7  18
HETATM   18  O   UNL     1      -7.538  12.971  67.097  1.00  0.00    -0.122 OA 
BRANCH  18  19
HETATM   19  C   UNL     1      -7.497  12.643  68.498  1.00  0.00    -0.121 C  
HETATM   20  O   UNL     1      -8.232  10.349  67.928  1.00  0.00    -0.106 OA 
HETATM   21  C   UNL     1      -6.161  13.163  69.024  1.00  0.00    -0.094 C  
HETATM   22  C   UNL     1      -5.918  10.869  68.691  1.00  0.00    -0.043 C  
HETATM   23  H   UNL     1      -8.187   9.418  68.111  1.00  0.00     0.000 HD 
HETATM   24  O   UNL     1      -5.213  12.091  68.917  1.00  0.00    -0.051 OA 
HETATM   25  C   UNL     1      -7.425  11.154  68.791  1.00  0.00    -0.118 C  
BRANCH  21  26
HETATM   26  C   UNL     1      -6.206  13.622  70.482  1.00  0.00    -0.028 C  
HETATM   27  H   UNL     1      -5.901  15.289  71.497  1.00  0.00     0.000 HD 
HETATM   28  O   UNL     1      -5.872  15.004  70.591  1.00  0.00    -0.143 OA 
ENDBRANCH  21  26
BRANCH  22  29
HETATM   29  O   UNL     1      -5.572   9.898  69.675  1.00  0.00    -0.037 OA 
BRANCH  29  30
HETATM   30  C   UNL     1      -6.453   8.775  69.871  1.00  0.00    -0.038 C  
HETATM   31  C   UNL     1      -6.288   8.207  71.294  1.00  0.00    -0.036 C  
HETATM   32  O   UNL     1      -6.311   9.268  72.259  1.00  0.00    -0.283 OA 
HETATM   33  C   UNL     1      -7.402   7.202  71.605  1.00  0.00    -0.085 C  
HETATM   34  C   UNL     1      -7.308   6.031  70.627  1.00  0.00    -0.085 C  
HETATM   35  N   UNL     1      -7.310   6.722  72.997  1.00  0.00    -0.079 NA 
HETATM   36  H   UNL     1      -6.209   8.917  73.135  1.00  0.00     0.000 HD 
HETATM   37  H1  UNL     1      -8.051   6.053  73.205  1.00  0.00     0.000 HD 
HETATM   38  H2  UNL     1      -7.306   7.495  73.662  1.00  0.00     0.000 HD 
HETATM   39  C   UNL     1      -7.378   6.496  69.162  1.00  0.00    -0.093 C  
HETATM   40  C   UNL     1      -6.371   7.652  68.801  1.00  0.00    -0.040 C  
HETATM   41  N   UNL     1      -7.185   5.320  68.288  1.00  0.00    -0.066 NA 
HETATM   42  H2  UNL     1      -7.843   4.568  68.492  1.00  0.00     0.000 HD 
HETATM   43  H1  UNL     1      -7.232   5.629  67.317  1.00  0.00     0.000 HD 
BRANCH  40  44
HETATM   44  O   UNL     1      -6.704   8.081  67.460  1.00  0.00    -0.065 OA 
BRANCH  44  45
HETATM   45  C   UNL     1      -5.816   7.629  66.427  1.00  0.00    -0.037 C  
HETATM   46  O   UNL     1      -6.264   6.415  65.837  1.00  0.00    -0.035 OA 
HETATM   47  C   UNL     1      -7.466   6.512  65.074  1.00  0.00    -0.085 C  
HETATM   48  C   UNL     1      -7.270   7.496  63.918  1.00  0.00    -0.082 C  
HETATM   49  H1  UNL     1      -4.983  10.733  65.170  1.00  0.00     0.000 HD 
HETATM   50  H2  UNL     1      -4.306   9.906  66.462  1.00  0.00     0.000 HD 
HETATM   51  O   UNL     1      -8.454   7.660  63.135  1.00  0.00    -0.376 OA 
HETATM   52  C   UNL     1      -6.834   8.860  64.469  1.00  0.00    -0.081 C  
HETATM   53  H   UNL     1      -8.332   8.270  62.418  1.00  0.00     0.000 HD 
HETATM   54  O   UNL     1      -6.558   9.755  63.377  1.00  0.00    -0.105 OA 
HETATM   55  N   UNL     1      -5.138  10.020  65.882  1.00  0.00    -0.038 NA 
HETATM   56  C   UNL     1      -5.579   8.712  65.345  1.00  0.00    -0.046 C  
HETATM   57  H   UNL     1      -6.288  10.599  63.718  1.00  0.00     0.000 HD 
BRANCH  47  58
HETATM   58  C   UNL     1      -7.795   5.102  64.565  1.00  0.00    -0.096 C  
HETATM   59  O   UNL     1      -9.052   5.102  63.882  1.00  0.00    -0.347 OA 
HETATM   60  H   UNL     1      -9.255   4.229  63.567  1.00  0.00     0.000 HD 
ENDBRANCH  47  58
ENDBRANCH  44  45
ENDBRANCH  40  44
ENDBRANCH  29  30
ENDBRANCH  22  29
ENDBRANCH  18  19
ENDBRANCH   7  18
ENDBRANCH   2   5
TORSDOF 9
ENDMDL
MODEL      240
REMARK 921   NORMALIZED FREE ENERGY PREDICTED BY IDOCK:   -3.06 KCAL/MOL
REMARK 922        TOTAL FREE ENERGY PREDICTED BY IDOCK:   -6.71 KCAL/MOL
REMARK 923 INTER-LIGAND FREE ENERGY PREDICTED BY IDOCK:   -7.02 KCAL/MOL
REMARK 924 INTRA-LIGAND FREE ENERGY PREDICTED BY IDOCK:    0.31 KCAL/MOL
REMARK 927      BINDING AFFINITY PREDICTED BY RF-SCORE:    0.00 PKD
ROOT
HETATM    1  N   UNL     1      -6.650   8.603  71.464  1.00  0.00    -0.070 NA 
HETATM    2  C   UNL     1      -5.886   7.349  71.628  1.00  0.00    -0.036 C  
HETATM    3  H1  UNL     1      -6.028   9.348  71.151  1.00  0.00     0.000 HD 
HETATM    4  H2  UNL     1      -7.156   8.857  72.313  1.00  0.00     0.000 HD 
ENDROOT
BRANCH   2   5
HETATM    5  C   UNL     1      -6.824   6.225  72.100  1.00  0.00    -0.073 C  
HETATM    6  O   UNL     1      -8.172   6.708  71.955  1.00  0.00    -0.106 OA 
HETATM    7  C   UNL     1      -9.136   5.680  72.172  1.00  0.00    -0.140 C  
HETATM    8  C   UNL     1      -9.080   5.250  73.667  1.00  0.00    -0.123 C  
HETATM    9  O   UNL     1      -6.578   6.952  74.408  1.00  0.00    -0.082 OA 
HETATM   10  H   UNL     1      -6.423   6.687  75.307  1.00  0.00     0.000 HD 
HETATM   11  N   UNL     1      -9.478   6.379  74.559  1.00  0.00    -0.225 NA 
HETATM   12  C   UNL     1      -7.648   4.773  74.002  1.00  0.00    -0.090 C  
HETATM   13  H2  UNL     1     -10.394   6.753  74.308  1.00  0.00     0.000 HD 
HETATM   14  O   UNL     1      -7.390   3.480  73.437  1.00  0.00    -0.053 OA 
HETATM   15  C   UNL     1      -6.572   5.794  73.561  1.00  0.00    -0.074 C  
HETATM   16  H1  UNL     1      -9.441   6.097  75.539  1.00  0.00     0.000 HD 
HETATM   17  H   UNL     1      -6.510   3.186  73.643  1.00  0.00     0.000 HD 
BRANCH   7  18
HETATM   18  O   UNL     1     -10.457   6.142  71.879  1.00  0.00    -0.204 OA 
BRANCH  18  19
HETATM   19  C   UNL     1     -10.867   5.919  70.518  1.00  0.00    -0.296 C  
HETATM   20  O   UNL     1     -12.499   7.764  70.761  1.00  0.00    -0.518 OA 
HETATM   21  C   UNL     1      -9.585   5.820  69.693  1.00  0.00    -0.152 C  
HETATM   22  C   UNL     1     -10.436   7.968  69.378  1.00  0.00    -0.220 C  
HETATM   23  H   UNL     1     -12.954   8.497  70.363  1.00  0.00     0.000 HD 
HETATM   24  O   UNL     1      -9.284   7.138  69.210  1.00  0.00    -0.141 OA 
HETATM   25  C   UNL     1     -11.594   7.091  69.881  1.00  0.00    -0.130 C  
BRANCH  21  26
HETATM   26  C   UNL     1      -9.692   4.880  68.491  1.00  0.00    -0.155 C  
HETATM   27  H   UNL     1      -8.470   4.007  67.209  1.00  0.00     0.000 HD 
HETATM   28  O   UNL     1      -8.404   4.591  67.954  1.00  0.00    -0.098 OA 
ENDBRANCH  21  26
BRANCH  22  29
HETATM   29  O   UNL     1     -10.817   8.560  68.140  1.00  0.00    -0.089 OA 
BRANCH  29  30
HETATM   30  C   UNL     1      -9.984   9.599  67.591  1.00  0.00    -0.174 C  
HETATM   31  C   UNL     1     -10.293  10.947  68.270  1.00  0.00    -0.173 C  
HETATM   32  O   UNL     1     -10.334  10.789  69.695  1.00  0.00    -0.381 OA 
HETATM   33  C   UNL     1      -9.236  11.993  67.898  1.00  0.00    -0.190 C  
HETATM   34  C   UNL     1      -9.268  12.221  66.387  1.00  0.00    -0.203 C  
HETATM   35  N   UNL     1      -9.468  13.261  68.617  1.00  0.00    -0.394 NA 
HETATM   36  H   UNL     1     -10.525  11.619  70.114  1.00  0.00     0.000 HD 
HETATM   37  H1  UNL     1      -8.765  13.957  68.369  1.00  0.00     0.000 HD 
HETATM   38  H2  UNL     1      -9.515  13.118  69.625  1.00  0.00     0.000 HD 
HETATM   39  C   UNL     1      -9.052  10.914  65.603  1.00  0.00    -0.204 C  
HETATM   40  C   UNL     1      -9.994   9.731  66.043  1.00  0.00    -0.272 C  
HETATM   41  N   UNL     1      -9.191  11.206  64.161  1.00  0.00    -0.360 NA 
HETATM   42  H2  UNL     1      -8.573  11.956  63.851  1.00  0.00     0.000 HD 
HETATM   43  H1  UNL     1      -9.048  10.340  63.642  1.00  0.00     0.000 HD 
BRANCH  40  44
HETATM   44  O   UNL     1      -9.529   8.555  65.342  1.00  0.00    -0.014 OA 
BRANCH  44  45
HETATM   45  C   UNL     1      -8.741   7.641  66.118  1.00  0.00    -0.156 C  
HETATM   46  O   UNL     1      -9.331   6.347  66.173  1.00  0.00    -0.153 OA 
HETATM   47  C   UNL     1      -9.354   5.632  64.938  1.00  0.00     0.420 C  
HETATM   48  C   UNL     1      -7.924   5.423  64.432  1.00  0.00    -0.117 C  
HETATM   49  H1  UNL     1      -5.638   8.815  65.171  1.00  0.00     0.000 HD 
HETATM   50  H2  UNL     1      -6.646   9.373  66.388  1.00  0.00     0.000 HD 
HETATM   51  O   UNL     1      -7.885   4.739  63.178  1.00  0.00    -0.065 OA 
HETATM   52  C   UNL     1      -7.223   6.781  64.291  1.00  0.00    -0.070 C  
HETATM   53  H   UNL     1      -6.998   4.609  62.864  1.00  0.00     0.000 HD 
HETATM   54  O   UNL     1      -5.852   6.576  63.907  1.00  0.00    -0.029 OA 
HETATM   55  N   UNL     1      -6.601   8.869  65.502  1.00  0.00    -0.067 NA 
HETATM   56  C   UNL     1      -7.278   7.557  65.616  1.00  0.00    -0.066 C  
HETATM   57  H   UNL     1      -5.418   7.417  63.819  1.00  0.00     0.000 HD 
BRANCH  47  58
HETATM   58  C   UNL     1     -10.061   4.296  65.202  1.00  0.00    -0.207 C  
HETATM   59  O   UNL     1     -11.458   4.409  64.919  1.00  0.00    -1.070 OA 
HETATM   60  H   UNL     1     -11.895   3.582  65.082  1.00  0.00     0.000 HD 
ENDBRANCH  47  58
ENDBRANCH  44  45
ENDBRANCH  40  44
ENDBRANCH  29  30
ENDBRANCH  22  29
ENDBRANCH  18  19
ENDBRANCH   7  18
ENDBRANCH   2   5
TORSDOF 9
ENDMDL
MODEL      241
REMARK 921   NORMALIZED FREE ENERGY PREDICTED BY IDOCK:   -2.96 KCAL/MOL
REMARK 922        TOTAL FREE ENERGY PREDICTED BY IDOCK:   -6.56 KCAL/MOL
REMARK 923 INTER-LIGAND FREE ENERGY PREDICTED BY IDOCK:   -5.90 KCAL/MOL
REMARK 924 INTRA-LIGAND FREE ENERGY PREDICTED BY IDOCK:   -0.66 KCAL/MOL
REMARK 927      BINDING AFFINITY PREDICTED BY RF-SCORE:    0.00 PKD
ROOT
HETATM    1  N   UNL     1     -11.263   6.624  73.495  1.00  0.00    -0.439 NA 
HETATM    2  C   UNL     1     -11.505   5.761  72.321  1.00  0.00    -0.262 C  
HETATM    3  H1  UNL     1     -12.041   6.544  74.150  1.00  0.00     0.000 HD 
HETATM    4  H2  UNL     1     -11.084   7.592  73.229  1.00  0.00     0.000 HD 
ENDROOT
BRANCH   2   5
HETATM    5  C   UNL     1     -10.331   5.882  71.334  1.00  0.00    -0.218 C  
HETATM    6  O   UNL     1     -10.277   4.653  70.587  1.00  0.00    -0.217 OA 
HETATM    7  C   UNL     1      -9.355   4.724  69.502  1.00  0.00    -0.133 C  
HETATM    8  C   UNL     1      -7.915   4.844  70.078  1.00  0.00    -0.073 C  
HETATM    9  O   UNL     1      -8.773   5.160  73.056  1.00  0.00    -0.114 OA 
HETATM   10  H   UNL     1      -7.939   5.318  73.482  1.00  0.00     0.000 HD 
HETATM   11  N   UNL     1      -7.546   3.618  70.846  1.00  0.00    -0.040 NA 
HETATM   12  C   UNL     1      -7.835   6.096  70.982  1.00  0.00    -0.114 C  
HETATM   13  H2  UNL     1      -7.659   2.773  70.286  1.00  0.00     0.000 HD 
HETATM   14  O   UNL     1      -7.811   7.298  70.199  1.00  0.00    -0.097 OA 
HETATM   15  C   UNL     1      -8.976   6.138  72.026  1.00  0.00    -0.139 C  
HETATM   16  H1  UNL     1      -6.602   3.697  71.224  1.00  0.00     0.000 HD 
HETATM   17  H   UNL     1      -7.762   8.067  70.754  1.00  0.00     0.000 HD 
BRANCH   7  18
HETATM   18  O   UNL     1      -9.425   3.551  68.687  1.00  0.00    -0.167 OA 
BRANCH  18  19
HETATM   19  C   UNL     1      -9.716   3.816  67.303  1.00  0.00    -0.097 C  
HETATM   20  O   UNL     1     -11.347   5.531  68.028  1.00  0.00     0.233 OA 
HETATM   21  C   UNL     1      -8.368   3.953  66.598  1.00  0.00    -0.104 C  
HETATM   22  C   UNL     1      -9.169   6.112  66.965  1.00  0.00    -0.123 C  
HETATM   23  H   UNL     1     -11.759   6.372  67.868  1.00  0.00     0.000 HD 
HETATM   24  O   UNL     1      -8.015   5.345  66.616  1.00  0.00    -0.103 OA 
HETATM   25  C   UNL     1     -10.375   5.161  67.047  1.00  0.00    -0.217 C  
BRANCH  21  26
HETATM   26  C   UNL     1      -8.378   3.479  65.144  1.00  0.00    -0.097 C  
HETATM   27  H   UNL     1      -7.973   4.229  63.362  1.00  0.00     0.000 HD 
HETATM   28  O   UNL     1      -7.967   4.523  64.265  1.00  0.00    -0.089 OA 
ENDBRANCH  21  26
BRANCH  22  29
HETATM   29  O   UNL     1      -9.436   7.101  65.975  1.00  0.00    -0.059 OA 
BRANCH  29  30
HETATM   30  C   UNL     1      -8.396   8.043  65.649  1.00  0.00    -0.141 C  
HETATM   31  C   UNL     1      -7.678   7.620  64.353  1.00  0.00    -0.127 C  
HETATM   32  O   UNL     1      -8.636   7.286  63.339  1.00  0.00    -0.339 OA 
HETATM   33  C   UNL     1      -6.767   8.746  63.850  1.00  0.00    -0.087 C  
HETATM   34  C   UNL     1      -5.694   9.030  64.900  1.00  0.00    -0.062 C  
HETATM   35  N   UNL     1      -6.147   8.391  62.559  1.00  0.00    -0.087 NA 
HETATM   36  H   UNL     1      -8.194   7.025  62.541  1.00  0.00     0.000 HD 
HETATM   37  H1  UNL     1      -5.541   9.139  62.224  1.00  0.00     0.000 HD 
HETATM   38  H2  UNL     1      -6.848   8.135  61.863  1.00  0.00     0.000 HD 
HETATM   39  C   UNL     1      -6.305   9.382  66.268  1.00  0.00    -0.069 C  
HETATM   40  C   UNL     1      -7.380   8.353  66.782  1.00  0.00    -0.083 C  
HETATM   41  N   UNL     1      -5.206   9.546  67.242  1.00  0.00    -0.036 NA 
HETATM   42  H2  UNL     1      -4.509  10.226  66.937  1.00  0.00     0.000 HD 
HETATM   43  H1  UNL     1      -5.611   9.780  68.148  1.00  0.00     0.000 HD 
BRANCH  40  44
HETATM   44  O   UNL     1      -7.969   8.935  67.968  1.00  0.00    -0.101 OA 
BRANCH  44  45
HETATM   45  C   UNL     1      -8.071  10.366  67.971  1.00  0.00    -0.110 C  
HETATM   46  O   UNL     1      -8.776  10.849  66.832  1.00  0.00    -0.139 OA 
HETATM   47  C   UNL     1     -10.164  10.524  66.789  1.00  0.00    -0.234 C  
HETATM   48  C   UNL     1     -10.876  11.117  68.008  1.00  0.00    -0.225 C  
HETATM   49  H1  UNL     1      -8.461  10.778  71.374  1.00  0.00     0.000 HD 
HETATM   50  H2  UNL     1      -7.046  10.629  70.489  1.00  0.00     0.000 HD 
HETATM   51  O   UNL     1     -12.268  10.796  68.036  1.00  0.00    -0.659 OA 
HETATM   52  C   UNL     1     -10.211  10.604  69.293  1.00  0.00    -0.213 C  
HETATM   53  H   UNL     1     -12.709  11.164  68.793  1.00  0.00     0.000 HD 
HETATM   54  O   UNL     1     -10.819  11.236  70.434  1.00  0.00    -0.300 OA 
HETATM   55  N   UNL     1      -8.045  10.423  70.514  1.00  0.00     0.333 NA 
HETATM   56  C   UNL     1      -8.704  10.905  69.279  1.00  0.00     0.029 C  
HETATM   57  H   UNL     1     -10.407  10.919  71.229  1.00  0.00     0.000 HD 
BRANCH  47  58
HETATM   58  C   UNL     1     -10.722  11.094  65.478  1.00  0.00    -0.185 C  
HETATM   59  O   UNL     1     -11.716  12.086  65.751  1.00  0.00    -0.398 OA 
HETATM   60  H   UNL     1     -12.061  12.439  64.940  1.00  0.00     0.000 HD 
ENDBRANCH  47  58
ENDBRANCH  44  45
ENDBRANCH  40  44
ENDBRANCH  29  30
ENDBRANCH  22  29
ENDBRANCH  18  19
ENDBRANCH   7  18
ENDBRANCH   2   5
TORSDOF 9
ENDMDL
MODEL      242
REMARK 921   NORMALIZED FREE ENERGY PREDICTED BY IDOCK:   -2.89 KCAL/MOL
REMARK 922        TOTAL FREE ENERGY PREDICTED BY IDOCK:   -6.45 KCAL/MOL
REMARK 923 INTER-LIGAND FREE ENERGY PREDICTED BY IDOCK:   -6.40 KCAL/MOL
REMARK 924 INTRA-LIGAND FREE ENERGY PREDICTED BY IDOCK:   -0.05 KCAL/MOL
REMARK 927      BINDING AFFINITY PREDICTED BY RF-SCORE:    0.00 PKD
ROOT
HETATM    1  N   UNL     1      -7.596   6.156  73.359  1.00  0.00    -0.096 NA 
HETATM    2  C   UNL     1      -6.269   6.461  72.787  1.00  0.00    -0.054 C  
HETATM    3  H1  UNL     1      -7.505   5.950  74.354  1.00  0.00     0.000 HD 
HETATM    4  H2  UNL     1      -8.069   5.407  72.854  1.00  0.00     0.000 HD 
ENDROOT
BRANCH   2   5
HETATM    5  C   UNL     1      -6.406   6.772  71.287  1.00  0.00    -0.041 C  
HETATM    6  O   UNL     1      -7.805   6.989  71.025  1.00  0.00    -0.094 OA 
HETATM    7  C   UNL     1      -8.033   7.484  69.708  1.00  0.00    -0.124 C  
HETATM    8  C   UNL     1      -7.656   6.373  68.685  1.00  0.00    -0.093 C  
HETATM    9  O   UNL     1      -6.453   4.397  70.770  1.00  0.00    -0.028 OA 
HETATM   10  H   UNL     1      -6.121   3.704  70.211  1.00  0.00     0.000 HD 
HETATM   11  N   UNL     1      -8.550   5.187  68.836  1.00  0.00    -0.090 NA 
HETATM   12  C   UNL     1      -6.178   5.971  68.898  1.00  0.00    -0.036 C  
HETATM   13  H2  UNL     1      -9.535   5.445  68.767  1.00  0.00     0.000 HD 
HETATM   14  O   UNL     1      -5.291   6.980  68.396  1.00  0.00    -0.015 OA 
HETATM   15  C   UNL     1      -5.868   5.646  70.379  1.00  0.00    -0.024 C  
HETATM   16  H1  UNL     1      -8.303   4.459  68.166  1.00  0.00     0.000 HD 
HETATM   17  H   UNL     1      -4.384   6.732  68.527  1.00  0.00     0.000 HD 
BRANCH   7  18
HETATM   18  O   UNL     1      -9.407   7.832  69.519  1.00  0.00    -0.150 OA 
BRANCH  18  19
HETATM   19  C   UNL     1     -10.011   8.470  70.658  1.00  0.00    -0.189 C  
HETATM   20  O   UNL     1      -8.661  10.488  70.179  1.00  0.00    -0.269 OA 
HETATM   21  C   UNL     1     -11.514   8.223  70.544  1.00  0.00    -0.175 C  
HETATM   22  C   UNL     1     -11.121  10.396  69.797  1.00  0.00    -0.295 C  
HETATM   23  H   UNL     1      -8.599  11.436  70.177  1.00  0.00     0.000 HD 
HETATM   24  O   UNL     1     -12.078   9.335  69.833  1.00  0.00     0.263 OA 
HETATM   25  C   UNL     1      -9.912   9.986  70.654  1.00  0.00     0.133 C  
BRANCH  21  26
HETATM   26  C   UNL     1     -12.226   8.102  71.892  1.00  0.00    -0.331 C  
HETATM   27  H   UNL     1     -13.735   7.084  72.659  1.00  0.00     0.000 HD 
HETATM   28  O   UNL     1     -13.294   7.159  71.822  1.00  0.00    -0.353 OA 
ENDBRANCH  21  26
BRANCH  22  29
HETATM   29  O   UNL     1     -11.675  11.594  70.334  1.00  0.00    -0.313 OA 
BRANCH  29  30
HETATM   30  C   UNL     1     -11.408  12.837  69.655  1.00  0.00    -0.099 C  
HETATM   31  C   UNL     1     -12.335  13.946  70.189  1.00  0.00    -0.334 C  
HETATM   32  O   UNL     1     -12.343  13.941  71.624  1.00  0.00    -0.293 OA 
HETATM   33  C   UNL     1     -11.879  15.319  69.681  1.00  0.00    -0.339 C  
HETATM   34  C   UNL     1     -11.964  15.342  68.155  1.00  0.00    -0.099 C  
HETATM   35  N   UNL     1     -12.701  16.399  70.262  1.00  0.00     0.009 NA 
HETATM   36  H   UNL     1     -12.914  14.625  71.953  1.00  0.00     0.000 HD 
HETATM   37  H1  UNL     1     -12.398  17.312  69.924  1.00  0.00     0.000 HD 
HETATM   38  H2  UNL     1     -12.708  16.359  71.280  1.00  0.00     0.000 HD 
HETATM   39  C   UNL     1     -11.137  14.214  67.515  1.00  0.00    -0.291 C  
HETATM   40  C   UNL     1     -11.429  12.782  68.104  1.00  0.00    -0.314 C  
HETATM   41  N   UNL     1     -11.350  14.249  66.053  1.00  0.00    -0.328 NA 
HETATM   42  H2  UNL     1     -11.144  15.164  65.650  1.00  0.00     0.000 HD 
HETATM   43  H1  UNL     1     -10.801  13.502  65.629  1.00  0.00     0.000 HD 
BRANCH  40  44
HETATM   44  O   UNL     1     -10.445  11.893  67.525  1.00  0.00    -0.203 OA 
BRANCH  44  45
HETATM   45  C   UNL     1      -9.573  12.484  66.551  1.00  0.00    -0.242 C  
HETATM   46  O   UNL     1      -8.779  13.523  67.112  1.00  0.00    -0.210 OA 
HETATM   47  C   UNL     1      -7.802  13.101  68.062  1.00  0.00    -0.147 C  
HETATM   48  C   UNL     1      -6.820  12.129  67.402  1.00  0.00    -0.147 C  
HETATM   49  H1  UNL     1      -8.847   9.602  64.798  1.00  0.00     0.000 HD 
HETATM   50  H2  UNL     1     -10.155  10.637  64.625  1.00  0.00     0.000 HD 
HETATM   51  O   UNL     1      -5.834  11.645  68.317  1.00  0.00    -0.046 OA 
HETATM   52  C   UNL     1      -7.590  10.940  66.811  1.00  0.00    -0.134 C  
HETATM   53  H   UNL     1      -5.225  11.042  67.907  1.00  0.00     0.000 HD 
HETATM   54  O   UNL     1      -6.678  10.077  66.109  1.00  0.00    -0.089 OA 
HETATM   55  N   UNL     1      -9.433  10.297  65.261  1.00  0.00    -0.218 NA 
HETATM   56  C   UNL     1      -8.682  11.430  65.847  1.00  0.00    -0.101 C  
HETATM   57  H   UNL     1      -7.154   9.342  65.744  1.00  0.00     0.000 HD 
BRANCH  47  58
HETATM   58  C   UNL     1      -7.090  14.362  68.572  1.00  0.00    -0.109 C  
HETATM   59  O   UNL     1      -6.191  14.860  67.578  1.00  0.00    -0.290 OA 
HETATM   60  H   UNL     1      -5.751  15.640  67.893  1.00  0.00     0.000 HD 
ENDBRANCH  47  58
ENDBRANCH  44  45
ENDBRANCH  40  44
ENDBRANCH  29  30
ENDBRANCH  22  29
ENDBRANCH  18  19
ENDBRANCH   7  18
ENDBRANCH   2   5
TORSDOF 9
ENDMDL
MODEL      243
REMARK 921   NORMALIZED FREE ENERGY PREDICTED BY IDOCK:   -2.84 KCAL/MOL
REMARK 922        TOTAL FREE ENERGY PREDICTED BY IDOCK:   -6.38 KCAL/MOL
REMARK 923 INTER-LIGAND FREE ENERGY PREDICTED BY IDOCK:   -8.16 KCAL/MOL
REMARK 924 INTRA-LIGAND FREE ENERGY PREDICTED BY IDOCK:    1.79 KCAL/MOL
REMARK 927      BINDING AFFINITY PREDICTED BY RF-SCORE:    0.00 PKD
ROOT
HETATM    1  N   UNL     1      -8.521  18.325  66.755  1.00  0.00    -0.252 NA 
HETATM    2  C   UNL     1      -8.875  17.055  66.090  1.00  0.00    -0.216 C  
HETATM    3  H1  UNL     1      -8.330  19.041  66.055  1.00  0.00     0.000 HD 
HETATM    4  H2  UNL     1      -7.746  18.212  67.410  1.00  0.00     0.000 HD 
ENDROOT
BRANCH   2   5
HETATM    5  C   UNL     1      -9.164  15.975  67.146  1.00  0.00    -0.207 C  
HETATM    6  O   UNL     1      -9.990  14.977  66.517  1.00  0.00    -0.245 OA 
HETATM    7  C   UNL     1     -10.157  13.824  67.338  1.00  0.00    -0.244 C  
HETATM    8  C   UNL     1     -10.988  14.221  68.593  1.00  0.00    -0.252 C  
HETATM    9  O   UNL     1     -11.023  17.281  68.013  1.00  0.00    -0.350 OA 
HETATM   10  H   UNL     1     -11.456  17.620  68.788  1.00  0.00     0.000 HD 
HETATM   11  N   UNL     1     -12.364  14.650  68.206  1.00  0.00    -0.593 NA 
HETATM   12  C   UNL     1     -10.256  15.358  69.344  1.00  0.00    -0.262 C  
HETATM   13  H2  UNL     1     -12.839  13.938  67.650  1.00  0.00     0.000 HD 
HETATM   14  O   UNL     1      -9.108  14.859  70.043  1.00  0.00    -0.411 OA 
HETATM   15  C   UNL     1      -9.869  16.525  68.404  1.00  0.00    -0.237 C  
HETATM   16  H1  UNL     1     -12.908  14.910  69.028  1.00  0.00     0.000 HD 
HETATM   17  H   UNL     1      -8.658  15.558  70.504  1.00  0.00     0.000 HD 
BRANCH   7  18
HETATM   18  O   UNL     1     -10.854  12.789  66.639  1.00  0.00    -0.258 OA 
BRANCH  18  19
HETATM   19  C   UNL     1     -10.484  11.459  67.043  1.00  0.00    -0.236 C  
HETATM   20  O   UNL     1      -9.024  11.315  65.049  1.00  0.00    -0.355 OA 
HETATM   21  C   UNL     1     -10.142  11.539  68.529  1.00  0.00    -0.207 C  
HETATM   22  C   UNL     1      -8.123  11.523  67.363  1.00  0.00    -0.146 C  
HETATM   23  H   UNL     1      -8.217  10.997  64.661  1.00  0.00     0.000 HD 
HETATM   24  O   UNL     1      -8.731  11.781  68.631  1.00  0.00    -0.143 OA 
HETATM   25  C   UNL     1      -9.194  10.950  66.421  1.00  0.00    -0.174 C  
BRANCH  21  26
HETATM   26  C   UNL     1     -10.468  10.265  69.310  1.00  0.00    -0.228 C  
HETATM   27  H   UNL     1     -11.709   9.710  70.743  1.00  0.00     0.000 HD 
HETATM   28  O   UNL     1     -11.506  10.501  70.258  1.00  0.00    -0.287 OA 
ENDBRANCH  21  26
BRANCH  22  29
HETATM   29  O   UNL     1      -7.073  10.569  67.492  1.00  0.00    -0.086 OA 
BRANCH  29  30
HETATM   30  C   UNL     1      -6.919   9.574  66.461  1.00  0.00    -0.085 C  
HETATM   31  C   UNL     1      -6.599  10.247  65.112  1.00  0.00    -0.121 C  
HETATM   32  O   UNL     1      -5.561  11.224  65.277  1.00  0.00    -0.493 OA 
HETATM   33  C   UNL     1      -6.163   9.202  64.079  1.00  0.00    -0.083 C  
HETATM   34  C   UNL     1      -7.312   8.221  63.844  1.00  0.00    -0.100 C  
HETATM   35  N   UNL     1      -5.763   9.843  62.812  1.00  0.00    -0.094 NA 
HETATM   36  H   UNL     1      -5.364  11.638  64.446  1.00  0.00     0.000 HD 
HETATM   37  H1  UNL     1      -5.474   9.148  62.124  1.00  0.00     0.000 HD 
HETATM   38  H2  UNL     1      -5.042  10.549  62.959  1.00  0.00     0.000 HD 
HETATM   39  C   UNL     1      -7.772   7.549  65.150  1.00  0.00    -0.111 C  
HETATM   40  C   UNL     1      -8.082   8.554  66.322  1.00  0.00    -0.107 C  
HETATM   41  N   UNL     1      -8.940   6.694  64.849  1.00  0.00    -0.210 NA 
HETATM   42  H2  UNL     1      -8.752   6.021  64.106  1.00  0.00     0.000 HD 
HETATM   43  H1  UNL     1      -9.244   6.249  65.715  1.00  0.00     0.000 HD 
BRANCH  40  44
HETATM   44  O   UNL     1      -8.313   7.749  67.501  1.00  0.00    -0.119 OA 
BRANCH  44  45
HETATM   45  C   UNL     1      -7.148   7.442  68.280  1.00  0.00    -0.084 C  
HETATM   46  O   UNL     1      -7.201   8.038  69.571  1.00  0.00    -0.067 OA 
HETATM   47  C   UNL     1      -8.201   7.515  70.445  1.00  0.00    -0.123 C  
HETATM   48  C   UNL     1      -7.958   6.022  70.679  1.00  0.00    -0.111 C  
HETATM   49  H1  UNL     1      -6.702   4.210  67.156  1.00  0.00     0.000 HD 
HETATM   50  H2  UNL     1      -6.173   5.644  66.468  1.00  0.00     0.000 HD 
HETATM   51  O   UNL     1      -8.951   5.434  71.524  1.00  0.00    -0.134 OA 
HETATM   52  C   UNL     1      -7.938   5.285  69.333  1.00  0.00    -0.088 C  
HETATM   53  H   UNL     1      -8.800   4.508  71.669  1.00  0.00     0.000 HD 
HETATM   54  O   UNL     1      -7.615   3.900  69.548  1.00  0.00    -0.052 OA 
HETATM   55  N   UNL     1      -6.863   5.215  67.085  1.00  0.00    -0.059 NA 
HETATM   56  C   UNL     1      -6.903   5.916  68.388  1.00  0.00    -0.066 C  
HETATM   57  H   UNL     1      -7.602   3.444  68.714  1.00  0.00     0.000 HD 
BRANCH  47  58
HETATM   58  C   UNL     1      -8.120   8.312  71.754  1.00  0.00    -0.141 C  
HETATM   59  O   UNL     1      -7.219   9.413  71.610  1.00  0.00    -0.328 OA 
HETATM   60  H   UNL     1      -7.168   9.906  72.420  1.00  0.00     0.000 HD 
ENDBRANCH  47  58
ENDBRANCH  44  45
ENDBRANCH  40  44
ENDBRANCH  29  30
ENDBRANCH  22  29
ENDBRANCH  18  19
ENDBRANCH   7  18
ENDBRANCH   2   5
TORSDOF 9
ENDMDL
MODEL      244
REMARK 921   NORMALIZED FREE ENERGY PREDICTED BY IDOCK:   -2.82 KCAL/MOL
REMARK 922        TOTAL FREE ENERGY PREDICTED BY IDOCK:   -6.35 KCAL/MOL
REMARK 923 INTER-LIGAND FREE ENERGY PREDICTED BY IDOCK:   -7.74 KCAL/MOL
REMARK 924 INTRA-LIGAND FREE ENERGY PREDICTED BY IDOCK:    1.39 KCAL/MOL
REMARK 927      BINDING AFFINITY PREDICTED BY RF-SCORE:    0.00 PKD
ROOT
HETATM    1  N   UNL     1      -8.185   5.737  68.296  1.00  0.00    -0.107 NA 
HETATM    2  C   UNL     1      -8.820   5.792  66.964  1.00  0.00    -0.112 C  
HETATM    3  H1  UNL     1      -8.783   5.223  68.944  1.00  0.00     0.000 HD 
HETATM    4  H2  UNL     1      -7.950   6.666  68.647  1.00  0.00     0.000 HD 
ENDROOT
BRANCH   2   5
HETATM    5  C   UNL     1      -7.919   6.568  65.988  1.00  0.00    -0.112 C  
HETATM    6  O   UNL     1      -8.778   7.402  65.189  1.00  0.00    -0.017 OA 
HETATM    7  C   UNL     1      -8.039   8.318  64.384  1.00  0.00    -0.145 C  
HETATM    8  C   UNL     1      -7.244   7.513  63.315  1.00  0.00    -0.083 C  
HETATM    9  O   UNL     1      -7.935   4.692  64.440  1.00  0.00    -0.090 OA 
HETATM   10  H   UNL     1      -7.417   4.128  63.878  1.00  0.00     0.000 HD 
HETATM   11  N   UNL     1      -8.172   6.808  62.383  1.00  0.00    -0.235 NA 
HETATM   12  C   UNL     1      -6.318   6.502  64.029  1.00  0.00    -0.037 C  
HETATM   13  H2  UNL     1      -8.837   7.451  61.953  1.00  0.00     0.000 HD 
HETATM   14  O   UNL     1      -5.193   7.163  64.624  1.00  0.00    -0.027 OA 
HETATM   15  C   UNL     1      -7.077   5.650  65.075  1.00  0.00    -0.064 C  
HETATM   16  H1  UNL     1      -7.651   6.280  61.682  1.00  0.00     0.000 HD 
HETATM   17  H   UNL     1      -4.624   6.541  65.062  1.00  0.00     0.000 HD 
BRANCH   7  18
HETATM   18  O   UNL     1      -8.909   9.233  63.713  1.00  0.00    -0.201 OA 
BRANCH  18  19
HETATM   19  C   UNL     1      -8.826  10.584  64.202  1.00  0.00    -0.194 C  
HETATM   20  O   UNL     1     -11.073  11.010  63.256  1.00  0.00    -0.734 OA 
HETATM   21  C   UNL     1      -8.353  10.490  65.651  1.00  0.00    -0.167 C  
HETATM   22  C   UNL     1     -10.658  10.833  65.706  1.00  0.00    -0.134 C  
HETATM   23  H   UNL     1     -11.911  11.452  63.332  1.00  0.00     0.000 HD 
HETATM   24  O   UNL     1      -9.523  10.440  66.481  1.00  0.00    -0.160 OA 
HETATM   25  C   UNL     1     -10.165  11.291  64.324  1.00  0.00    -0.327 C  
BRANCH  21  26
HETATM   26  C   UNL     1      -7.494  11.673  66.100  1.00  0.00     0.313 C  
HETATM   27  H   UNL     1      -5.573  12.096  66.281  1.00  0.00     0.000 HD 
HETATM   28  O   UNL     1      -6.106  11.362  66.003  1.00  0.00    -0.055 OA 
ENDBRANCH  21  26
BRANCH  22  29
HETATM   29  O   UNL     1     -11.343  11.916  66.328  1.00  0.00    -0.334 OA 
BRANCH  29  30
HETATM   30  C   UNL     1     -10.563  12.943  66.970  1.00  0.00    -0.252 C  
HETATM   31  C   UNL     1      -9.923  13.867  65.915  1.00  0.00    -0.300 C  
HETATM   32  O   UNL     1     -10.899  14.261  64.941  1.00  0.00    -0.373 OA 
HETATM   33  C   UNL     1      -9.327  15.112  66.581  1.00  0.00    -0.267 C  
HETATM   34  C   UNL     1      -8.224  14.683  67.549  1.00  0.00    -0.203 C  
HETATM   35  N   UNL     1      -8.795  16.050  65.573  1.00  0.00    -0.122 NA 
HETATM   36  H   UNL     1     -10.505  14.830  64.291  1.00  0.00     0.000 HD 
HETATM   37  H1  UNL     1      -8.398  16.878  66.015  1.00  0.00     0.000 HD 
HETATM   38  H2  UNL     1      -9.501  16.296  64.880  1.00  0.00     0.000 HD 
HETATM   39  C   UNL     1      -8.737  13.686  68.602  1.00  0.00    -0.027 C  
HETATM   40  C   UNL     1      -9.513  12.453  68.003  1.00  0.00    -0.208 C  
HETATM   41  N   UNL     1      -7.594  13.253  69.432  1.00  0.00    -0.232 NA 
HETATM   42  H2  UNL     1      -7.091  14.038  69.847  1.00  0.00     0.000 HD 
HETATM   43  H1  UNL     1      -7.935  12.592  70.130  1.00  0.00     0.000 HD 
BRANCH  40  44
HETATM   44  O   UNL     1     -10.073  11.736  69.128  1.00  0.00    -0.050 OA 
BRANCH  44  45
HETATM   45  C   UNL     1     -11.381  11.184  68.922  1.00  0.00    -0.278 C  
HETATM   46  O   UNL     1     -11.350   9.763  68.849  1.00  0.00    -0.092 OA 
HETATM   47  C   UNL     1     -11.012   9.095  70.063  1.00  0.00    -0.220 C  
HETATM   48  C   UNL     1     -12.035   9.440  71.149  1.00  0.00    -0.337 C  
HETATM   49  H1  UNL     1     -13.127  13.440  70.863  1.00  0.00     0.000 HD 
HETATM   50  H2  UNL     1     -12.657  13.576  69.260  1.00  0.00     0.000 HD 
HETATM   51  O   UNL     1     -11.729   8.823  72.401  1.00  0.00    -0.353 OA 
HETATM   52  C   UNL     1     -12.097  10.962  71.335  1.00  0.00    -0.138 C  
HETATM   53  H   UNL     1     -12.365   9.037  73.074  1.00  0.00     0.000 HD 
HETATM   54  O   UNL     1     -13.126  11.288  72.285  1.00  0.00    -0.517 OA 
HETATM   55  N   UNL     1     -12.461  13.128  70.156  1.00  0.00    -0.184 NA 
HETATM   56  C   UNL     1     -12.392  11.657  69.996  1.00  0.00    -0.187 C  
HETATM   57  H   UNL     1     -13.165  12.230  72.401  1.00  0.00     0.000 HD 
BRANCH  47  58
HETATM   58  C   UNL     1     -10.993   7.590  69.763  1.00  0.00    -0.184 C  
HETATM   59  O   UNL     1     -10.196   6.900  70.730  1.00  0.00    -0.195 OA 
HETATM   60  H   UNL     1     -10.185   5.969  70.544  1.00  0.00     0.000 HD 
ENDBRANCH  47  58
ENDBRANCH  44  45
ENDBRANCH  40  44
ENDBRANCH  29  30
ENDBRANCH  22  29
ENDBRANCH  18  19
ENDBRANCH   7  18
ENDBRANCH   2   5
TORSDOF 9
ENDMDL
MODEL      245
REMARK 921   NORMALIZED FREE ENERGY PREDICTED BY IDOCK:   -2.75 KCAL/MOL
REMARK 922        TOTAL FREE ENERGY PREDICTED BY IDOCK:   -6.24 KCAL/MOL
REMARK 923 INTER-LIGAND FREE ENERGY PREDICTED BY IDOCK:   -7.20 KCAL/MOL
REMARK 924 INTRA-LIGAND FREE ENERGY PREDICTED BY IDOCK:    0.95 KCAL/MOL
REMARK 927      BINDING AFFINITY PREDICTED BY RF-SCORE:    0.00 PKD
ROOT
HETATM    1  N   UNL     1      -6.623  20.219  70.450  1.00  0.00    -0.339 NA 
HETATM    2  C   UNL     1      -6.496  19.665  69.086  1.00  0.00    -0.326 C  
HETATM    3  H1  UNL     1      -5.805  20.786  70.671  1.00  0.00     0.000 HD 
HETATM    4  H2  UNL     1      -6.785  19.491  71.146  1.00  0.00     0.000 HD 
ENDROOT
BRANCH   2   5
HETATM    5  C   UNL     1      -7.731  18.811  68.752  1.00  0.00    -0.318 C  
HETATM    6  O   UNL     1      -7.250  17.544  68.265  1.00  0.00    -0.200 OA 
HETATM    7  C   UNL     1      -8.303  16.595  68.112  1.00  0.00    -0.193 C  
HETATM    8  C   UNL     1      -9.244  17.073  66.968  1.00  0.00    -0.236 C  
HETATM    9  O   UNL     1      -7.885  19.845  66.556  1.00  0.00    -0.282 OA 
HETATM   10  H   UNL     1      -8.455  20.246  65.911  1.00  0.00     0.000 HD 
HETATM   11  N   UNL     1      -8.522  17.096  65.662  1.00  0.00    -0.296 NA 
HETATM   12  C   UNL     1      -9.786  18.479  67.315  1.00  0.00    -0.313 C  
HETATM   13  H2  UNL     1      -8.098  16.193  65.449  1.00  0.00     0.000 HD 
HETATM   14  O   UNL     1     -10.783  18.408  68.344  1.00  0.00    -0.315 OA 
HETATM   15  C   UNL     1      -8.657  19.462  67.703  1.00  0.00    -0.305 C  
HETATM   16  H1  UNL     1      -9.139  17.409  64.912  1.00  0.00     0.000 HD 
HETATM   17  H   UNL     1     -11.116  19.272  68.556  1.00  0.00     0.000 HD 
BRANCH   7  18
HETATM   18  O   UNL     1      -7.788  15.305  67.771  1.00  0.00    -0.127 OA 
BRANCH  18  19
HETATM   19  C   UNL     1      -7.474  14.481  68.909  1.00  0.00    -0.133 C  
HETATM   20  O   UNL     1      -9.648  13.335  68.614  1.00  0.00    -0.371 OA 
HETATM   21  C   UNL     1      -6.045  13.984  68.699  1.00  0.00    -0.088 C  
HETATM   22  C   UNL     1      -7.471  12.241  68.093  1.00  0.00    -0.112 C  
HETATM   23  H   UNL     1     -10.150  12.530  68.667  1.00  0.00     0.000 HD 
HETATM   24  O   UNL     1      -6.127  12.722  68.019  1.00  0.00    -0.076 OA 
HETATM   25  C   UNL     1      -8.276  13.193  68.992  1.00  0.00     0.365 C  
BRANCH  21  26
HETATM   26  C   UNL     1      -5.263  13.781  69.997  1.00  0.00    -0.093 C  
HETATM   27  H   UNL     1      -5.413  14.323  71.890  1.00  0.00     0.000 HD 
HETATM   28  O   UNL     1      -5.898  14.449  71.084  1.00  0.00    -0.188 OA 
ENDBRANCH  21  26
BRANCH  22  29
HETATM   29  O   UNL     1      -7.510  10.936  68.662  1.00  0.00    -0.091 OA 
BRANCH  29  30
HETATM   30  C   UNL     1      -8.108   9.871  67.897  1.00  0.00    -0.109 C  
HETATM   31  C   UNL     1      -8.438  10.357  66.472  1.00  0.00    -0.132 C  
HETATM   32  O   UNL     1      -7.316  11.052  65.911  1.00  0.00    -0.316 OA 
HETATM   33  C   UNL     1      -8.814   9.173  65.574  1.00  0.00    -0.191 C  
HETATM   34  C   UNL     1     -10.066   8.497  66.133  1.00  0.00    -0.053 C  
HETATM   35  N   UNL     1      -9.040   9.612  64.184  1.00  0.00    -0.344 NA 
HETATM   36  H   UNL     1      -7.520  11.351  65.033  1.00  0.00     0.000 HD 
HETATM   37  H1  UNL     1      -9.290   8.825  63.586  1.00  0.00     0.000 HD 
HETATM   38  H2  UNL     1      -8.238  10.123  63.816  1.00  0.00     0.000 HD 
HETATM   39  C   UNL     1      -9.874   8.045  67.591  1.00  0.00    -0.167 C  
HETATM   40  C   UNL     1      -9.328   9.168  68.551  1.00  0.00    -0.135 C  
HETATM   41  N   UNL     1     -11.154   7.492  68.081  1.00  0.00    -0.446 NA 
HETATM   42  H2  UNL     1     -11.514   6.748  67.484  1.00  0.00     0.000 HD 
HETATM   43  H1  UNL     1     -11.027   7.192  69.047  1.00  0.00     0.000 HD 
BRANCH  40  44
HETATM   44  O   UNL     1      -9.038   8.522  69.813  1.00  0.00    -0.149 OA 
BRANCH  44  45
HETATM   45  C   UNL     1      -9.520   7.177  69.945  1.00  0.00    -0.153 C  
HETATM   46  O   UNL     1      -8.858   6.287  69.053  1.00  0.00    -0.124 OA 
HETATM   47  C   UNL     1      -7.477   6.060  69.328  1.00  0.00    -0.089 C  
HETATM   48  C   UNL     1      -7.317   5.453  70.724  1.00  0.00    -0.078 C  
HETATM   49  H1  UNL     1     -10.005   7.213  73.361  1.00  0.00     0.000 HD 
HETATM   50  H2  UNL     1     -11.038   7.731  72.148  1.00  0.00     0.000 HD 
HETATM   51  O   UNL     1      -5.948   5.233  71.069  1.00  0.00    -0.019 OA 
HETATM   52  C   UNL     1      -7.960   6.379  71.766  1.00  0.00    -0.105 C  
HETATM   53  H   UNL     1      -5.849   4.856  71.936  1.00  0.00     0.000 HD 
HETATM   54  O   UNL     1      -7.893   5.762  73.064  1.00  0.00    -0.102 OA 
HETATM   55  N   UNL     1     -10.066   7.551  72.401  1.00  0.00    -0.192 NA 
HETATM   56  C   UNL     1      -9.426   6.663  71.404  1.00  0.00    -0.158 C  
HETATM   57  H   UNL     1      -8.291   6.336  73.709  1.00  0.00     0.000 HD 
BRANCH  47  58
HETATM   58  C   UNL     1      -6.947   5.117  68.239  1.00  0.00    -0.061 C  
HETATM   59  O   UNL     1      -6.452   3.910  68.825  1.00  0.00    -0.035 OA 
HETATM   60  H   UNL     1      -6.125   3.326  68.152  1.00  0.00     0.000 HD 
ENDBRANCH  47  58
ENDBRANCH  44  45
ENDBRANCH  40  44
ENDBRANCH  29  30
ENDBRANCH  22  29
ENDBRANCH  18  19
ENDBRANCH   7  18
ENDBRANCH   2   5
TORSDOF 9
ENDMDL
MODEL      246
REMARK 921   NORMALIZED FREE ENERGY PREDICTED BY IDOCK:   -2.74 KCAL/MOL
REMARK 922        TOTAL FREE ENERGY PREDICTED BY IDOCK:   -6.23 KCAL/MOL
REMARK 923 INTER-LIGAND FREE ENERGY PREDICTED BY IDOCK:   -6.32 KCAL/MOL
REMARK 924 INTRA-LIGAND FREE ENERGY PREDICTED BY IDOCK:    0.09 KCAL/MOL
REMARK 927      BINDING AFFINITY PREDICTED BY RF-SCORE:    0.00 PKD
ROOT
HETATM    1  N   UNL     1      -9.757  16.298  65.858  1.00  0.00    -0.406 NA 
HETATM    2  C   UNL     1     -10.376  17.326  66.719  1.00  0.00    -0.308 C  
HETATM    3  H1  UNL     1      -9.723  16.629  64.893  1.00  0.00     0.000 HD 
HETATM    4  H2  UNL     1     -10.229  15.397  65.937  1.00  0.00     0.000 HD 
ENDROOT
BRANCH   2   5
HETATM    5  C   UNL     1     -10.428  16.827  68.173  1.00  0.00    -0.332 C  
HETATM    6  O   UNL     1      -9.638  15.625  68.237  1.00  0.00    -0.198 OA 
HETATM    7  C   UNL     1      -9.445  15.181  69.578  1.00  0.00    -0.145 C  
HETATM    8  C   UNL     1     -10.817  14.726  70.155  1.00  0.00    -0.074 C  
HETATM    9  O   UNL     1     -12.529  15.684  67.735  1.00  0.00     0.103 OA 
HETATM   10  H   UNL     1     -13.411  15.510  68.041  1.00  0.00     0.000 HD 
HETATM   11  N   UNL     1     -11.344  13.547  69.406  1.00  0.00    -0.364 NA 
HETATM   12  C   UNL     1     -11.813  15.906  70.080  1.00  0.00    -0.311 C  
HETATM   13  H2  UNL     1     -10.670  12.781  69.386  1.00  0.00     0.000 HD 
HETATM   14  O   UNL     1     -11.521  16.893  71.079  1.00  0.00    -0.435 OA 
HETATM   15  C   UNL     1     -11.861  16.543  68.670  1.00  0.00     0.266 C  
HETATM   16  H1  UNL     1     -12.243  13.249  69.784  1.00  0.00     0.000 HD 
HETATM   17  H   UNL     1     -12.133  17.618  71.033  1.00  0.00     0.000 HD 
BRANCH   7  18
HETATM   18  O   UNL     1      -8.539  14.076  69.630  1.00  0.00     0.614 OA 
BRANCH  18  19
HETATM   19  C   UNL     1      -8.111  13.609  68.338  1.00  0.00    -0.146 C  
HETATM   20  O   UNL     1      -5.967  12.909  69.359  1.00  0.00    -0.089 OA 
HETATM   21  C   UNL     1      -9.265  12.784  67.774  1.00  0.00    -0.199 C  
HETATM   22  C   UNL     1      -7.695  11.277  68.608  1.00  0.00    -0.136 C  
HETATM   23  H   UNL     1      -5.251  12.285  69.385  1.00  0.00     0.000 HD 
HETATM   24  O   UNL     1      -9.042  11.418  68.155  1.00  0.00    -0.160 OA 
HETATM   25  C   UNL     1      -6.965  12.611  68.380  1.00  0.00    -0.094 C  
BRANCH  21  26
HETATM   26  C   UNL     1      -9.383  12.846  66.250  1.00  0.00    -0.141 C  
HETATM   27  H   UNL     1     -10.801  13.139  64.907  1.00  0.00     0.000 HD 
HETATM   28  O   UNL     1     -10.728  13.101  65.853  1.00  0.00    -0.270 OA 
ENDBRANCH  21  26
BRANCH  22  29
HETATM   29  O   UNL     1      -7.020  10.258  67.876  1.00  0.00    -0.080 OA 
BRANCH  29  30
HETATM   30  C   UNL     1      -7.712   9.020  67.625  1.00  0.00    -0.097 C  
HETATM   31  C   UNL     1      -7.908   8.814  66.110  1.00  0.00    -0.102 C  
HETATM   32  O   UNL     1      -6.679   9.062  65.412  1.00  0.00    -0.071 OA 
HETATM   33  C   UNL     1      -8.389   7.389  65.818  1.00  0.00    -0.139 C  
HETATM   34  C   UNL     1      -9.744   7.169  66.492  1.00  0.00    -0.199 C  
HETATM   35  N   UNL     1      -8.489   7.149  64.366  1.00  0.00    -0.347 NA 
HETATM   36  H   UNL     1      -6.800   8.935  64.479  1.00  0.00     0.000 HD 
HETATM   37  H1  UNL     1      -8.809   6.201  64.171  1.00  0.00     0.000 HD 
HETATM   38  H2  UNL     1      -7.610   7.354  63.890  1.00  0.00     0.000 HD 
HETATM   39  C   UNL     1      -9.683   7.433  68.007  1.00  0.00    -0.144 C  
HETATM   40  C   UNL     1      -9.044   8.817  68.399  1.00  0.00    -0.141 C  
HETATM   41  N   UNL     1     -11.046   7.292  68.561  1.00  0.00    -0.455 NA 
HETATM   42  H2  UNL     1     -11.469   6.391  68.335  1.00  0.00     0.000 HD 
HETATM   43  H1  UNL     1     -11.005   7.466  69.564  1.00  0.00     0.000 HD 
BRANCH  40  44
HETATM   44  O   UNL     1      -8.901   8.810  69.839  1.00  0.00    -0.134 OA 
BRANCH  44  45
HETATM   45  C   UNL     1      -8.822   7.512  70.446  1.00  0.00    -0.145 C  
HETATM   46  O   UNL     1      -7.479   7.152  70.751  1.00  0.00    -0.078 OA 
HETATM   47  C   UNL     1      -6.858   7.921  71.779  1.00  0.00    -0.062 C  
HETATM   48  C   UNL     1      -7.641   7.772  73.086  1.00  0.00    -0.116 C  
HETATM   49  H1  UNL     1     -11.723   7.712  72.303  1.00  0.00     0.000 HD 
HETATM   50  H2  UNL     1     -11.529   7.252  70.703  1.00  0.00     0.000 HD 
HETATM   51  O   UNL     1      -7.083   8.549  74.148  1.00  0.00    -0.240 OA 
HETATM   52  C   UNL     1      -9.100   8.194  72.863  1.00  0.00    -0.267 C  
HETATM   53  H   UNL     1      -7.569   8.456  74.958  1.00  0.00     0.000 HD 
HETATM   54  O   UNL     1      -9.856   7.963  74.065  1.00  0.00    -0.239 OA 
HETATM   55  N   UNL     1     -11.131   7.787  71.476  1.00  0.00    -0.234 NA 
HETATM   56  C   UNL     1      -9.720   7.399  71.703  1.00  0.00    -0.154 C  
HETATM   57  H   UNL     1     -10.759   8.224  73.927  1.00  0.00     0.000 HD 
BRANCH  47  58
HETATM   58  C   UNL     1      -5.418   7.406  71.923  1.00  0.00    -0.036 C  
HETATM   59  O   UNL     1      -5.267   6.159  71.239  1.00  0.00    -0.017 OA 
HETATM   60  H   UNL     1      -4.377   5.841  71.327  1.00  0.00     0.000 HD 
ENDBRANCH  47  58
ENDBRANCH  44  45
ENDBRANCH  40  44
ENDBRANCH  29  30
ENDBRANCH  22  29
ENDBRANCH  18  19
ENDBRANCH   7  18
ENDBRANCH   2   5
TORSDOF 9
ENDMDL
MODEL      247
REMARK 921   NORMALIZED FREE ENERGY PREDICTED BY IDOCK:   -2.65 KCAL/MOL
REMARK 922        TOTAL FREE ENERGY PREDICTED BY IDOCK:   -6.09 KCAL/MOL
REMARK 923 INTER-LIGAND FREE ENERGY PREDICTED BY IDOCK:   -8.55 KCAL/MOL
REMARK 924 INTRA-LIGAND FREE ENERGY PREDICTED BY IDOCK:    2.46 KCAL/MOL
REMARK 927      BINDING AFFINITY PREDICTED BY RF-SCORE:    0.00 PKD
ROOT
HETATM    1  N   UNL     1     -11.570  13.118  68.178  1.00  0.00    -0.317 NA 
HETATM    2  C   UNL     1     -11.008  13.636  66.915  1.00  0.00    -0.289 C  
HETATM    3  H1  UNL     1     -11.462  13.813  68.917  1.00  0.00     0.000 HD 
HETATM    4  H2  UNL     1     -11.166  12.217  68.436  1.00  0.00     0.000 HD 
ENDROOT
BRANCH   2   5
HETATM    5  C   UNL     1     -11.172  12.588  65.801  1.00  0.00    -0.320 C  
HETATM    6  O   UNL     1      -9.976  11.787  65.794  1.00  0.00    -0.224 OA 
HETATM    7  C   UNL     1     -10.096  10.654  64.936  1.00  0.00    -0.335 C  
HETATM    8  C   UNL     1     -10.191  11.149  63.464  1.00  0.00    -0.390 C  
HETATM    9  O   UNL     1     -10.376  14.183  64.146  1.00  0.00    -0.528 OA 
HETATM   10  H   UNL     1     -10.515  14.566  63.288  1.00  0.00     0.000 HD 
HETATM   11  N   UNL     1      -8.932  11.840  63.054  1.00  0.00    -0.654 NA 
HETATM   12  C   UNL     1     -11.402  12.101  63.329  1.00  0.00    -0.327 C  
HETATM   13  H2  UNL     1      -8.113  11.251  63.202  1.00  0.00     0.000 HD 
HETATM   14  O   UNL     1     -12.636  11.370  63.348  1.00  0.00    -0.594 OA 
HETATM   15  C   UNL     1     -11.398  13.211  64.407  1.00  0.00    -0.363 C  
HETATM   16  H1  UNL     1      -8.995  12.165  62.089  1.00  0.00     0.000 HD 
HETATM   17  H   UNL     1     -13.380  11.955  63.265  1.00  0.00     0.000 HD 
BRANCH   7  18
HETATM   18  O   UNL     1      -8.959   9.794  65.056  1.00  0.00    -0.176 OA 
BRANCH  18  19
HETATM   19  C   UNL     1      -9.231   8.555  65.737  1.00  0.00    -0.146 C  
HETATM   20  O   UNL     1      -7.318   7.538  64.541  1.00  0.00    -0.075 OA 
HETATM   21  C   UNL     1      -9.417   8.906  67.212  1.00  0.00    -0.154 C  
HETATM   22  C   UNL     1      -7.257   8.061  66.977  1.00  0.00    -0.087 C  
HETATM   23  H   UNL     1      -6.588   6.929  64.556  1.00  0.00     0.000 HD 
HETATM   24  O   UNL     1      -8.136   8.778  67.846  1.00  0.00    -0.106 OA 
HETATM   25  C   UNL     1      -8.065   7.582  65.760  1.00  0.00    -0.127 C  
BRANCH  21  26
HETATM   26  C   UNL     1     -10.409   8.000  67.944  1.00  0.00    -0.222 C  
HETATM   27  H   UNL     1     -11.637   8.127  69.485  1.00  0.00     0.000 HD 
HETATM   28  O   UNL     1     -11.021   8.689  69.031  1.00  0.00    -0.079 OA 
ENDBRANCH  21  26
BRANCH  22  29
HETATM   29  O   UNL     1      -6.711   6.923  67.637  1.00  0.00    -0.062 OA 
BRANCH  29  30
HETATM   30  C   UNL     1      -7.616   5.916  68.131  1.00  0.00    -0.089 C  
HETATM   31  C   UNL     1      -8.373   5.257  66.962  1.00  0.00    -0.107 C  
HETATM   32  O   UNL     1      -7.458   4.897  65.917  1.00  0.00    -0.080 OA 
HETATM   33  C   UNL     1      -9.124   4.010  67.441  1.00  0.00    -0.150 C  
HETATM   34  C   UNL     1     -10.160   4.421  68.487  1.00  0.00     0.029 C  
HETATM   35  N   UNL     1      -9.774   3.315  66.313  1.00  0.00    -0.409 NA 
HETATM   36  H   UNL     1      -7.924   4.491  65.197  1.00  0.00     0.000 HD 
HETATM   37  H1  UNL     1     -10.275   2.486  66.632  1.00  0.00     0.000 HD 
HETATM   38  H2  UNL     1      -9.107   3.091  65.575  1.00  0.00     0.000 HD 
HETATM   39  C   UNL     1      -9.520   5.168  69.670  1.00  0.00    -0.143 C  
HETATM   40  C   UNL     1      -8.592   6.371  69.251  1.00  0.00    -0.125 C  
HETATM   41  N   UNL     1     -10.596   5.610  70.581  1.00  0.00    -0.273 NA 
HETATM   42  H2  UNL     1     -11.195   4.841  70.882  1.00  0.00     0.000 HD 
HETATM   43  H1  UNL     1     -10.171   6.106  71.365  1.00  0.00     0.000 HD 
BRANCH  40  44
HETATM   44  O   UNL     1      -7.942   6.827  70.460  1.00  0.00    -0.110 OA 
BRANCH  44  45
HETATM   45  C   UNL     1      -8.588   6.459  71.687  1.00  0.00    -0.129 C  
HETATM   46  O   UNL     1      -7.926   5.377  72.331  1.00  0.00    -0.101 OA 
HETATM   47  C   UNL     1      -6.626   5.671  72.839  1.00  0.00    -0.072 C  
HETATM   48  C   UNL     1      -6.715   6.790  73.880  1.00  0.00    -0.072 C  
HETATM   49  H1  UNL     1      -9.495   9.637  72.680  1.00  0.00     0.000 HD 
HETATM   50  H2  UNL     1     -10.300   8.588  71.649  1.00  0.00     0.000 HD 
HETATM   51  O   UNL     1      -5.435   7.151  74.403  1.00  0.00    -0.057 OA 
HETATM   52  C   UNL     1      -7.374   8.026  73.254  1.00  0.00    -0.128 C  
HETATM   53  H   UNL     1      -5.491   7.845  75.049  1.00  0.00     0.000 HD 
HETATM   54  O   UNL     1      -7.544   9.042  74.258  1.00  0.00    -0.385 OA 
HETATM   55  N   UNL     1      -9.395   8.845  72.046  1.00  0.00    -0.370 NA 
HETATM   56  C   UNL     1      -8.740   7.663  72.651  1.00  0.00    -0.136 C  
HETATM   57  H   UNL     1      -7.951   9.807  73.870  1.00  0.00     0.000 HD 
BRANCH  47  58
HETATM   58  C   UNL     1      -6.075   4.375  73.450  1.00  0.00    -0.024 C  
HETATM   59  O   UNL     1      -7.125   3.419  73.618  1.00  0.00    -0.046 OA 
HETATM   60  H   UNL     1      -6.785   2.617  73.995  1.00  0.00     0.000 HD 
ENDBRANCH  47  58
ENDBRANCH  44  45
ENDBRANCH  40  44
ENDBRANCH  29  30
ENDBRANCH  22  29
ENDBRANCH  18  19
ENDBRANCH   7  18
ENDBRANCH   2   5
TORSDOF 9
ENDMDL
MODEL      248
REMARK 921   NORMALIZED FREE ENERGY PREDICTED BY IDOCK:   -2.63 KCAL/MOL
REMARK 922        TOTAL FREE ENERGY PREDICTED BY IDOCK:   -6.05 KCAL/MOL
REMARK 923 INTER-LIGAND FREE ENERGY PREDICTED BY IDOCK:   -4.94 KCAL/MOL
REMARK 924 INTRA-LIGAND FREE ENERGY PREDICTED BY IDOCK:   -1.12 KCAL/MOL
REMARK 927      BINDING AFFINITY PREDICTED BY RF-SCORE:    0.00 PKD
ROOT
HETATM    1  N   UNL     1     -10.321   9.952  70.910  1.00  0.00    -0.349 NA 
HETATM    2  C   UNL     1     -10.356   8.603  71.510  1.00  0.00    -0.271 C  
HETATM    3  H1  UNL     1     -11.209  10.150  70.450  1.00  0.00     0.000 HD 
HETATM    4  H2  UNL     1      -9.528  10.070  70.280  1.00  0.00     0.000 HD 
ENDROOT
BRANCH   2   5
HETATM    5  C   UNL     1      -9.016   8.304  72.204  1.00  0.00    -0.209 C  
HETATM    6  O   UNL     1      -8.590   7.003  71.760  1.00  0.00    -0.115 OA 
HETATM    7  C   UNL     1      -7.261   6.702  72.180  1.00  0.00    -0.081 C  
HETATM    8  C   UNL     1      -7.247   6.563  73.730  1.00  0.00    -0.084 C  
HETATM    9  O   UNL     1     -10.187   7.490  74.174  1.00  0.00    -0.356 OA 
HETATM   10  H   UNL     1     -10.244   7.508  75.122  1.00  0.00     0.000 HD 
HETATM   11  N   UNL     1      -8.084   5.407  74.167  1.00  0.00    -0.109 NA 
HETATM   12  C   UNL     1      -7.764   7.877  74.360  1.00  0.00    -0.207 C  
HETATM   13  H2  UNL     1      -7.801   4.541  73.708  1.00  0.00     0.000 HD 
HETATM   14  O   UNL     1      -6.779   8.916  74.269  1.00  0.00    -0.327 OA 
HETATM   15  C   UNL     1      -9.108   8.332  73.744  1.00  0.00     0.041 C  
HETATM   16  H1  UNL     1      -8.075   5.315  75.183  1.00  0.00     0.000 HD 
HETATM   17  H   UNL     1      -7.096   9.723  74.656  1.00  0.00     0.000 HD 
BRANCH   7  18
HETATM   18  O   UNL     1      -6.804   5.474  71.607  1.00  0.00    -0.061 OA 
BRANCH  18  19
HETATM   19  C   UNL     1      -7.849   4.677  71.023  1.00  0.00    -0.081 C  
HETATM   20  O   UNL     1      -8.087   6.383  69.246  1.00  0.00    -0.108 OA 
HETATM   21  C   UNL     1      -7.320   3.245  70.970  1.00  0.00    -0.033 C  
HETATM   22  C   UNL     1      -7.090   4.138  68.829  1.00  0.00    -0.051 C  
HETATM   23  H   UNL     1      -8.267   6.579  68.334  1.00  0.00     0.000 HD 
HETATM   24  O   UNL     1      -6.698   3.066  69.688  1.00  0.00    -0.033 OA 
HETATM   25  C   UNL     1      -8.137   4.990  69.564  1.00  0.00    -0.078 C  
BRANCH  21  26
HETATM   26  C   UNL     1      -8.404   2.178  71.131  1.00  0.00    -0.050 C  
HETATM   27  H   UNL     1      -9.881   1.776  72.380  1.00  0.00     0.000 HD 
HETATM   28  O   UNL     1      -9.208   2.439  72.280  1.00  0.00    -0.080 OA 
ENDBRANCH  21  26
BRANCH  22  29
HETATM   29  O   UNL     1      -7.673   3.636  67.630  1.00  0.00    -0.073 OA 
BRANCH  29  30
HETATM   30  C   UNL     1      -7.173   4.121  66.368  1.00  0.00    -0.071 C  
HETATM   31  C   UNL     1      -6.277   3.058  65.703  1.00  0.00    -0.024 C  
HETATM   32  O   UNL     1      -6.919   1.776  65.734  1.00  0.00    -0.043 OA 
HETATM   33  C   UNL     1      -5.968   3.446  64.253  1.00  0.00    -0.018 C  
HETATM   34  C   UNL     1      -5.202   4.769  64.240  1.00  0.00    -0.012 C  
HETATM   35  N   UNL     1      -5.190   2.391  63.576  1.00  0.00    -0.007 NA 
HETATM   36  H   UNL     1      -6.367   1.122  65.324  1.00  0.00     0.000 HD 
HETATM   37  H1  UNL     1      -4.983   2.648  62.611  1.00  0.00     0.000 HD 
HETATM   38  H2  UNL     1      -5.656   1.486  63.631  1.00  0.00     0.000 HD 
HETATM   39  C   UNL     1      -5.974   5.889  64.959  1.00  0.00    -0.025 C  
HETATM   40  C   UNL     1      -6.474   5.508  66.403  1.00  0.00    -0.047 C  
HETATM   41  N   UNL     1      -5.126   7.099  64.983  1.00  0.00    -0.027 NA 
HETATM   42  H2  UNL     1      -4.809   7.375  64.054  1.00  0.00     0.000 HD 
HETATM   43  H1  UNL     1      -5.638   7.841  65.460  1.00  0.00     0.000 HD 
BRANCH  40  44
HETATM   44  O   UNL     1      -7.324   6.593  66.841  1.00  0.00    -0.078 OA 
BRANCH  44  45
HETATM   45  C   UNL     1      -8.223   7.115  65.851  1.00  0.00    -0.132 C  
HETATM   46  O   UNL     1      -9.127   6.122  65.380  1.00  0.00    -0.024 OA 
HETATM   47  C   UNL     1     -10.084   5.664  66.334  1.00  0.00    -0.156 C  
HETATM   48  C   UNL     1     -10.951   6.835  66.804  1.00  0.00    -0.178 C  
HETATM   49  H1  UNL     1      -8.625  10.254  67.226  1.00  0.00     0.000 HD 
HETATM   50  H2  UNL     1      -7.418   9.702  66.203  1.00  0.00     0.000 HD 
HETATM   51  O   UNL     1     -11.909   6.442  67.789  1.00  0.00    -0.311 OA 
HETATM   52  C   UNL     1     -10.056   7.940  67.381  1.00  0.00    -0.226 C  
HETATM   53  H   UNL     1     -12.448   7.168  68.080  1.00  0.00     0.000 HD 
HETATM   54  O   UNL     1     -10.864   9.077  67.734  1.00  0.00    -0.451 OA 
HETATM   55  N   UNL     1      -8.120   9.433  66.893  1.00  0.00    -0.108 NA 
HETATM   56  C   UNL     1      -8.991   8.362  66.357  1.00  0.00    -0.171 C  
HETATM   57  H   UNL     1     -10.310   9.762  68.091  1.00  0.00     0.000 HD 
BRANCH  47  58
HETATM   58  C   UNL     1     -10.925   4.579  65.647  1.00  0.00     0.173 C  
HETATM   59  O   UNL     1     -10.255   3.316  65.713  1.00  0.00    -0.280 OA 
HETATM   60  H   UNL     1     -10.775   2.645  65.288  1.00  0.00     0.000 HD 
ENDBRANCH  47  58
ENDBRANCH  44  45
ENDBRANCH  40  44
ENDBRANCH  29  30
ENDBRANCH  22  29
ENDBRANCH  18  19
ENDBRANCH   7  18
ENDBRANCH   2   5
TORSDOF 9
ENDMDL
MODEL      249
REMARK 921   NORMALIZED FREE ENERGY PREDICTED BY IDOCK:   -2.57 KCAL/MOL
REMARK 922        TOTAL FREE ENERGY PREDICTED BY IDOCK:   -5.96 KCAL/MOL
REMARK 923 INTER-LIGAND FREE ENERGY PREDICTED BY IDOCK:   -5.85 KCAL/MOL
REMARK 924 INTRA-LIGAND FREE ENERGY PREDICTED BY IDOCK:   -0.11 KCAL/MOL
REMARK 927      BINDING AFFINITY PREDICTED BY RF-SCORE:    0.00 PKD
ROOT
HETATM    1  N   UNL     1     -12.656  10.599  69.497  1.00  0.00    -0.643 NA 
HETATM    2  C   UNL     1     -13.064  11.253  70.757  1.00  0.00     0.058 C  
HETATM    3  H1  UNL     1     -12.667   9.586  69.613  1.00  0.00     0.000 HD 
HETATM    4  H2  UNL     1     -11.752  10.937  69.164  1.00  0.00     0.000 HD 
ENDROOT
BRANCH   2   5
HETATM    5  C   UNL     1     -13.047  12.781  70.581  1.00  0.00     0.319 C  
HETATM    6  O   UNL     1     -11.668  13.181  70.480  1.00  0.00    -0.180 OA 
HETATM    7  C   UNL     1     -11.533  14.552  70.114  1.00  0.00    -0.242 C  
HETATM    8  C   UNL     1     -12.066  15.435  71.279  1.00  0.00    -0.366 C  
HETATM    9  O   UNL     1     -13.187  13.086  72.990  1.00  0.00    -0.388 OA 
HETATM   10  H   UNL     1     -13.609  13.550  73.703  1.00  0.00     0.000 HD 
HETATM   11  N   UNL     1     -11.233  15.257  72.505  1.00  0.00    -0.299 NA 
HETATM   12  C   UNL     1     -13.539  15.061  71.563  1.00  0.00    -0.452 C  
HETATM   13  H2  UNL     1     -10.246  15.433  72.319  1.00  0.00     0.000 HD 
HETATM   14  O   UNL     1     -14.408  15.572  70.543  1.00  0.00    -0.574 OA 
HETATM   15  C   UNL     1     -13.731  13.535  71.741  1.00  0.00    -0.297 C  
HETATM   16  H1  UNL     1     -11.583  15.835  73.269  1.00  0.00     0.000 HD 
HETATM   17  H   UNL     1     -15.313  15.342  70.718  1.00  0.00     0.000 HD 
BRANCH   7  18
HETATM   18  O   UNL     1     -10.164  14.890  69.875  1.00  0.00    -0.124 OA 
BRANCH  18  19
HETATM   19  C   UNL     1      -9.774  14.809  68.492  1.00  0.00    -0.218 C  
HETATM   20  O   UNL     1      -7.427  14.523  69.223  1.00  0.00    -0.177 OA 
HETATM   21  C   UNL     1     -10.741  13.831  67.828  1.00  0.00    -0.246 C  
HETATM   22  C   UNL     1      -8.764  12.665  68.238  1.00  0.00    -0.169 C  
HETATM   23  H   UNL     1      -6.580  14.119  69.077  1.00  0.00     0.000 HD 
HETATM   24  O   UNL     1     -10.145  12.527  67.898  1.00  0.00    -0.202 OA 
HETATM   25  C   UNL     1      -8.419  14.163  68.258  1.00  0.00    -0.169 C  
BRANCH  21  26
HETATM   26  C   UNL     1     -11.033  14.148  66.361  1.00  0.00    -0.311 C  
HETATM   27  H   UNL     1     -12.537  13.945  65.096  1.00  0.00     0.000 HD 
HETATM   28  O   UNL     1     -12.355  13.748  66.007  1.00  0.00    -0.434 OA 
ENDBRANCH  21  26
BRANCH  22  29
HETATM   29  O   UNL     1      -7.940  12.021  67.271  1.00  0.00    -0.157 OA 
BRANCH  29  30
HETATM   30  C   UNL     1      -8.480  10.899  66.546  1.00  0.00    -0.159 C  
HETATM   31  C   UNL     1      -9.415  11.388  65.423  1.00  0.00    -0.216 C  
HETATM   32  O   UNL     1      -8.791  12.443  64.679  1.00  0.00     0.347 OA 
HETATM   33  C   UNL     1      -9.774  10.234  64.481  1.00  0.00    -0.329 C  
HETATM   34  C   UNL     1     -10.521   9.157  65.268  1.00  0.00     1.717 C  
HETATM   35  N   UNL     1     -10.592  10.708  63.348  1.00  0.00    -0.445 NA 
HETATM   36  H   UNL     1      -9.367  12.744  63.987  1.00  0.00     0.000 HD 
HETATM   37  H1  UNL     1     -10.831   9.941  62.721  1.00  0.00     0.000 HD 
HETATM   38  H2  UNL     1     -10.137  11.473  62.850  1.00  0.00     0.000 HD 
HETATM   39  C   UNL     1      -9.706   8.654  66.472  1.00  0.00    -0.255 C  
HETATM   40  C   UNL     1      -9.156   9.797  67.406  1.00  0.00    -0.134 C  
HETATM   41  N   UNL     1     -10.534   7.692  67.228  1.00  0.00    -0.301 NA 
HETATM   42  H2  UNL     1     -10.882   6.931  66.644  1.00  0.00     0.000 HD 
HETATM   43  H1  UNL     1      -9.994   7.358  68.026  1.00  0.00     0.000 HD 
BRANCH  40  44
HETATM   44  O   UNL     1      -8.275   9.159  68.359  1.00  0.00    -0.113 OA 
BRANCH  44  45
HETATM   45  C   UNL     1      -6.877   9.212  68.041  1.00  0.00    -0.069 C  
HETATM   46  O   UNL     1      -6.092   9.593  69.165  1.00  0.00    -0.040 OA 
HETATM   47  C   UNL     1      -6.046   8.644  70.230  1.00  0.00    -0.033 C  
HETATM   48  C   UNL     1      -5.450   7.327  69.727  1.00  0.00    -0.023 C  
HETATM   49  H1  UNL     1      -6.810   6.520  65.883  1.00  0.00     0.000 HD 
HETATM   50  H2  UNL     1      -7.201   8.117  65.559  1.00  0.00     0.000 HD 
HETATM   51  O   UNL     1      -5.408   6.324  70.744  1.00  0.00    -0.017 OA 
HETATM   52  C   UNL     1      -6.271   6.809  68.538  1.00  0.00    -0.030 C  
HETATM   53  H   UNL     1      -5.038   5.507  70.432  1.00  0.00     0.000 HD 
HETATM   54  O   UNL     1      -5.654   5.623  68.007  1.00  0.00    -0.011 OA 
HETATM   55  N   UNL     1      -7.148   7.397  66.280  1.00  0.00    -0.069 NA 
HETATM   56  C   UNL     1      -6.363   7.879  67.439  1.00  0.00    -0.055 C  
HETATM   57  H   UNL     1      -6.162   5.303  67.271  1.00  0.00     0.000 HD 
BRANCH  47  58
HETATM   58  C   UNL     1      -5.193   9.259  71.348  1.00  0.00    -0.046 C  
HETATM   59  O   UNL     1      -5.566  10.623  71.563  1.00  0.00    -0.297 OA 
HETATM   60  H   UNL     1      -5.038  11.004  72.255  1.00  0.00     0.000 HD 
ENDBRANCH  47  58
ENDBRANCH  44  45
ENDBRANCH  40  44
ENDBRANCH  29  30
ENDBRANCH  22  29
ENDBRANCH  18  19
ENDBRANCH   7  18
ENDBRANCH   2   5
TORSDOF 9
ENDMDL
MODEL      250
REMARK 921   NORMALIZED FREE ENERGY PREDICTED BY IDOCK:   -2.52 KCAL/MOL
REMARK 922        TOTAL FREE ENERGY PREDICTED BY IDOCK:   -5.89 KCAL/MOL
REMARK 923 INTER-LIGAND FREE ENERGY PREDICTED BY IDOCK:   -4.24 KCAL/MOL
REMARK 924 INTRA-LIGAND FREE ENERGY PREDICTED BY IDOCK:   -1.64 KCAL/MOL
REMARK 927      BINDING AFFINITY PREDICTED BY RF-SCORE:    0.00 PKD
ROOT
HETATM    1  N   UNL     1      -6.210  15.303  68.486  1.00  0.00    -0.089 NA 
HETATM    2  C   UNL     1      -7.147  15.854  69.485  1.00  0.00    -0.184 C  
HETATM    3  H1  UNL     1      -5.262  15.298  68.865  1.00  0.00     0.000 HD 
HETATM    4  H2  UNL     1      -6.264  15.797  67.596  1.00  0.00     0.000 HD 
ENDROOT
BRANCH   2   5
HETATM    5  C   UNL     1      -8.575  15.860  68.914  1.00  0.00    -0.221 C  
HETATM    6  O   UNL     1      -8.505  15.297  67.592  1.00  0.00    -0.149 OA 
HETATM    7  C   UNL     1      -9.799  15.064  67.038  1.00  0.00    -0.238 C  
HETATM    8  C   UNL     1     -10.491  16.437  66.795  1.00  0.00    -0.273 C  
HETATM    9  O   UNL     1      -8.303  18.164  68.185  1.00  0.00    -0.261 OA 
HETATM   10  H   UNL     1      -8.688  19.031  68.149  1.00  0.00     0.000 HD 
HETATM   11  N   UNL     1      -9.747  17.233  65.775  1.00  0.00    -0.544 NA 
HETATM   12  C   UNL     1     -10.570  17.207  68.134  1.00  0.00    -0.380 C  
HETATM   13  H2  UNL     1      -9.625  16.713  64.905  1.00  0.00     0.000 HD 
HETATM   14  O   UNL     1     -11.577  16.652  68.990  1.00  0.00    -0.179 OA 
HETATM   15  C   UNL     1      -9.202  17.270  68.854  1.00  0.00    -0.182 C  
HETATM   16  H1  UNL     1     -10.201  18.133  65.615  1.00  0.00     0.000 HD 
HETATM   17  H   UNL     1     -11.625  17.125  69.812  1.00  0.00     0.000 HD 
BRANCH   7  18
HETATM   18  O   UNL     1      -9.709  14.371  65.791  1.00  0.00    -0.304 OA 
BRANCH  18  19
HETATM   19  C   UNL     1     -10.666  13.306  65.644  1.00  0.00    -0.282 C  
HETATM   20  O   UNL     1      -9.669  12.784  63.439  1.00  0.00    -0.601 OA 
HETATM   21  C   UNL     1     -10.649  12.527  66.958  1.00  0.00    -0.232 C  
HETATM   22  C   UNL     1      -9.375  11.314  65.430  1.00  0.00    -0.210 C  
HETATM   23  H   UNL     1      -9.429  12.126  62.798  1.00  0.00     0.000 HD 
HETATM   24  O   UNL     1      -9.695  11.464  66.814  1.00  0.00    -0.193 OA 
HETATM   25  C   UNL     1     -10.281  12.254  64.618  1.00  0.00    -0.285 C  
BRANCH  21  26
HETATM   26  C   UNL     1     -12.000  11.914  67.333  1.00  0.00    -0.017 C  
HETATM   27  H   UNL     1     -12.696  10.605  68.637  1.00  0.00     0.000 HD 
HETATM   28  O   UNL     1     -11.858  10.985  68.405  1.00  0.00    -0.503 OA 
ENDBRANCH  21  26
BRANCH  22  29
HETATM   29  O   UNL     1      -9.607   9.975  65.001  1.00  0.00    -0.258 OA 
BRANCH  29  30
HETATM   30  C   UNL     1      -8.480   9.083  64.898  1.00  0.00    -0.178 C  
HETATM   31  C   UNL     1      -7.731   9.317  63.571  1.00  0.00    -0.119 C  
HETATM   32  O   UNL     1      -7.510  10.719  63.366  1.00  0.00    -0.354 OA 
HETATM   33  C   UNL     1      -6.388   8.578  63.574  1.00  0.00    -0.081 C  
HETATM   34  C   UNL     1      -6.644   7.076  63.700  1.00  0.00    -0.044 C  
HETATM   35  N   UNL     1      -5.620   8.871  62.349  1.00  0.00    -0.083 NA 
HETATM   36  H   UNL     1      -7.049  10.863  62.549  1.00  0.00     0.000 HD 
HETATM   37  H1  UNL     1      -4.726   8.379  62.349  1.00  0.00     0.000 HD 
HETATM   38  H2  UNL     1      -5.496   9.874  62.214  1.00  0.00     0.000 HD 
HETATM   39  C   UNL     1      -7.464   6.735  64.956  1.00  0.00    -0.092 C  
HETATM   40  C   UNL     1      -8.786   7.576  65.115  1.00  0.00     0.136 C  
HETATM   41  N   UNL     1      -7.745   5.284  64.951  1.00  0.00    -0.083 NA 
HETATM   42  H2  UNL     1      -6.898   4.721  64.871  1.00  0.00     0.000 HD 
HETATM   43  H1  UNL     1      -8.288   5.058  65.784  1.00  0.00     0.000 HD 
BRANCH  40  44
HETATM   44  O   UNL     1      -9.319   7.258  66.422  1.00  0.00    -0.176 OA 
BRANCH  44  45
HETATM   45  C   UNL     1     -10.403   6.318  66.437  1.00  0.00    -0.005 C  
HETATM   46  O   UNL     1      -9.957   4.999  66.732  1.00  0.00    -0.172 OA 
HETATM   47  C   UNL     1      -9.468   4.801  68.057  1.00  0.00    -0.140 C  
HETATM   48  C   UNL     1     -10.573   5.109  69.071  1.00  0.00     0.009 C  
HETATM   49  H1  UNL     1     -12.778   8.404  67.822  1.00  0.00     0.000 HD 
HETATM   50  H2  UNL     1     -12.329   8.243  66.216  1.00  0.00     0.000 HD 
HETATM   51  O   UNL     1     -10.131   4.958  70.422  1.00  0.00    -0.231 OA 
HETATM   52  C   UNL     1     -11.081   6.542  68.861  1.00  0.00    -0.301 C  
HETATM   53  H   UNL     1     -10.817   5.149  71.051  1.00  0.00     0.000 HD 
HETATM   54  O   UNL     1     -12.183   6.796  69.750  1.00  0.00    -0.610 OA 
HETATM   55  N   UNL     1     -12.033   8.122  67.185  1.00  0.00     3.789 NA 
HETATM   56  C   UNL     1     -11.534   6.746  67.407  1.00  0.00     0.278 C  
HETATM   57  H   UNL     1     -12.498   7.683  69.620  1.00  0.00     0.000 HD 
BRANCH  47  58
HETATM   58  C   UNL     1      -9.004   3.341  68.155  1.00  0.00    -0.142 C  
HETATM   59  O   UNL     1      -7.584   3.261  68.008  1.00  0.00    -0.059 OA 
HETATM   60  H   UNL     1      -7.296   2.358  68.069  1.00  0.00     0.000 HD 
ENDBRANCH  47  58
ENDBRANCH  44  45
ENDBRANCH  40  44
ENDBRANCH  29  30
ENDBRANCH  22  29
ENDBRANCH  18  19
ENDBRANCH   7  18
ENDBRANCH   2   5
TORSDOF 9
ENDMDL
MODEL      251
REMARK 921   NORMALIZED FREE ENERGY PREDICTED BY IDOCK:   -2.42 KCAL/MOL
REMARK 922        TOTAL FREE ENERGY PREDICTED BY IDOCK:   -5.73 KCAL/MOL
REMARK 923 INTER-LIGAND FREE ENERGY PREDICTED BY IDOCK:   -5.99 KCAL/MOL
REMARK 924 INTRA-LIGAND FREE ENERGY PREDICTED BY IDOCK:    0.26 KCAL/MOL
REMARK 927      BINDING AFFINITY PREDICTED BY RF-SCORE:    0.00 PKD
ROOT
HETATM    1  N   UNL     1      -6.336   6.873  67.555  1.00  0.00    -0.043 NA 
HETATM    2  C   UNL     1      -6.737   6.548  66.171  1.00  0.00    -0.049 C  
HETATM    3  H1  UNL     1      -5.321   6.821  67.643  1.00  0.00     0.000 HD 
HETATM    4  H2  UNL     1      -6.811   6.284  68.240  1.00  0.00     0.000 HD 
ENDROOT
BRANCH   2   5
HETATM    5  C   UNL     1      -8.267   6.627  66.039  1.00  0.00    -0.128 C  
HETATM    6  O   UNL     1      -8.652   7.975  66.365  1.00  0.00    -0.130 OA 
HETATM    7  C   UNL     1     -10.028   8.223  66.083  1.00  0.00     0.010 C  
HETATM    8  C   UNL     1     -10.898   7.370  67.051  1.00  0.00    -0.237 C  
HETATM    9  O   UNL     1      -8.534   5.770  68.299  1.00  0.00    -0.113 OA 
HETATM   10  H   UNL     1      -8.992   5.156  68.862  1.00  0.00     0.000 HD 
HETATM   11  N   UNL     1     -10.689   7.793  68.467  1.00  0.00    -0.394 NA 
HETATM   12  C   UNL     1     -10.536   5.877  66.871  1.00  0.00    -0.315 C  
HETATM   13  H2  UNL     1     -10.856   8.792  68.590  1.00  0.00     0.000 HD 
HETATM   14  O   UNL     1     -11.075   5.359  65.647  1.00  0.00    -0.661 OA 
HETATM   15  C   UNL     1      -9.011   5.630  66.953  1.00  0.00    -0.112 C  
HETATM   16  H1  UNL     1     -11.259   7.234  69.101  1.00  0.00     0.000 HD 
HETATM   17  H   UNL     1     -10.853   4.442  65.537  1.00  0.00     0.000 HD 
BRANCH   7  18
HETATM   18  O   UNL     1     -10.352   9.603  66.274  1.00  0.00    -0.239 OA 
BRANCH  18  19
HETATM   19  C   UNL     1     -10.603  10.319  65.051  1.00  0.00     0.197 C  
HETATM   20  O   UNL     1     -12.235  11.726  66.271  1.00  0.00    -0.344 OA 
HETATM   21  C   UNL     1      -9.235  10.657  64.462  1.00  0.00    -0.231 C  
HETATM   22  C   UNL     1     -10.023  12.585  65.509  1.00  0.00    -0.234 C  
HETATM   23  H   UNL     1     -12.633  12.580  66.391  1.00  0.00     0.000 HD 
HETATM   24  O   UNL     1      -8.868  11.956  64.951  1.00  0.00     0.347 OA 
HETATM   25  C   UNL     1     -11.241  11.685  65.244  1.00  0.00    -0.199 C  
BRANCH  21  26
HETATM   26  C   UNL     1      -9.211  10.694  62.933  1.00  0.00    -0.305 C  
HETATM   27  H   UNL     1      -7.902  11.069  61.503  1.00  0.00     0.000 HD 
HETATM   28  O   UNL     1      -7.916  11.047  62.452  1.00  0.00    -0.172 OA 
ENDBRANCH  21  26
BRANCH  22  29
HETATM   29  O   UNL     1     -10.252  13.852  64.900  1.00  0.00    -0.395 OA 
BRANCH  29  30
HETATM   30  C   UNL     1     -10.082  15.039  65.699  1.00  0.00    -0.362 C  
HETATM   31  C   UNL     1     -10.549  16.282  64.917  1.00  0.00    -0.133 C  
HETATM   32  O   UNL     1     -11.830  16.041  64.318  1.00  0.00    -0.689 OA 
HETATM   33  C   UNL     1     -10.633  17.501  65.842  1.00  0.00    -0.203 C  
HETATM   34  C   UNL     1      -9.242  17.803  66.401  1.00  0.00    -0.257 C  
HETATM   35  N   UNL     1     -11.170  18.675  65.127  1.00  0.00    -0.025 NA 
HETATM   36  H   UNL     1     -12.118  16.807  63.836  1.00  0.00     0.000 HD 
HETATM   37  H1  UNL     1     -11.225  19.486  65.742  1.00  0.00     0.000 HD 
HETATM   38  H2  UNL     1     -12.069  18.471  64.692  1.00  0.00     0.000 HD 
HETATM   39  C   UNL     1      -8.641  16.592  67.135  1.00  0.00    -0.186 C  
HETATM   40  C   UNL     1      -8.669  15.252  66.307  1.00  0.00    -0.153 C  
HETATM   41  N   UNL     1      -7.267  16.936  67.557  1.00  0.00    -0.143 NA 
HETATM   42  H2  UNL     1      -7.231  17.790  68.114  1.00  0.00     0.000 HD 
HETATM   43  H1  UNL     1      -6.869  16.133  68.044  1.00  0.00     0.000 HD 
BRANCH  40  44
HETATM   44  O   UNL     1      -8.244  14.204  67.209  1.00  0.00    -0.186 OA 
BRANCH  44  45
HETATM   45  C   UNL     1      -8.551  14.417  68.594  1.00  0.00    -0.161 C  
HETATM   46  O   UNL     1      -9.779  15.116  68.763  1.00  0.00    -0.205 OA 
HETATM   47  C   UNL     1     -10.950  14.396  68.381  1.00  0.00    -0.248 C  
HETATM   48  C   UNL     1     -11.072  13.120  69.217  1.00  0.00    -0.145 C  
HETATM   49  H1  UNL     1      -7.321  11.422  69.787  1.00  0.00     0.000 HD 
HETATM   50  H2  UNL     1      -6.499  12.852  69.490  1.00  0.00     0.000 HD 
HETATM   51  O   UNL     1     -12.213  12.339  68.855  1.00  0.00    -0.187 OA 
HETATM   52  C   UNL     1      -9.804  12.272  69.053  1.00  0.00     0.240 C  
HETATM   53  H   UNL     1     -12.289  11.547  69.375  1.00  0.00     0.000 HD 
HETATM   54  O   UNL     1      -9.880  11.121  69.913  1.00  0.00    -0.161 OA 
HETATM   55  N   UNL     1      -7.319  12.292  69.256  1.00  0.00     0.095 NA 
HETATM   56  C   UNL     1      -8.554  13.096  69.403  1.00  0.00     1.148 C  
HETATM   57  H   UNL     1      -9.095  10.596  69.811  1.00  0.00     0.000 HD 
BRANCH  47  58
HETATM   58  C   UNL     1     -12.148  15.331  68.600  1.00  0.00    -0.130 C  
HETATM   59  O   UNL     1     -11.701  16.613  69.050  1.00  0.00    -0.151 OA 
HETATM   60  H   UNL     1     -12.442  17.192  69.185  1.00  0.00     0.000 HD 
ENDBRANCH  47  58
ENDBRANCH  44  45
ENDBRANCH  40  44
ENDBRANCH  29  30
ENDBRANCH  22  29
ENDBRANCH  18  19
ENDBRANCH   7  18
ENDBRANCH   2   5
TORSDOF 9
ENDMDL
MODEL      252
REMARK 921   NORMALIZED FREE ENERGY PREDICTED BY IDOCK:   -2.40 KCAL/MOL
REMARK 922        TOTAL FREE ENERGY PREDICTED BY IDOCK:   -5.71 KCAL/MOL
REMARK 923 INTER-LIGAND FREE ENERGY PREDICTED BY IDOCK:   -7.92 KCAL/MOL
REMARK 924 INTRA-LIGAND FREE ENERGY PREDICTED BY IDOCK:    2.21 KCAL/MOL
REMARK 927      BINDING AFFINITY PREDICTED BY RF-SCORE:    0.00 PKD
ROOT
HETATM    1  N   UNL     1     -11.196  11.932  62.709  1.00  0.00    -0.264 NA 
HETATM    2  C   UNL     1      -9.873  12.114  63.341  1.00  0.00    -0.176 C  
HETATM    3  H1  UNL     1     -11.502  12.809  62.287  1.00  0.00     0.000 HD 
HETATM    4  H2  UNL     1     -11.885  11.560  63.363  1.00  0.00     0.000 HD 
ENDROOT
BRANCH   2   5
HETATM    5  C   UNL     1      -9.411  10.793  63.976  1.00  0.00    -0.252 C  
HETATM    6  O   UNL     1      -8.804  11.120  65.240  1.00  0.00    -0.171 OA 
HETATM    7  C   UNL     1      -8.517   9.957  66.014  1.00  0.00    -0.129 C  
HETATM    8  C   UNL     1      -7.404   9.141  65.295  1.00  0.00    -0.092 C  
HETATM    9  O   UNL     1      -7.337  10.877  62.709  1.00  0.00    -0.353 OA 
HETATM   10  H   UNL     1      -6.722  10.396  62.169  1.00  0.00     0.000 HD 
HETATM   11  N   UNL     1      -6.130   9.917  65.236  1.00  0.00    -0.083 NA 
HETATM   12  C   UNL     1      -7.885   8.777  63.870  1.00  0.00    -0.141 C  
HETATM   13  H2  UNL     1      -5.833  10.225  66.162  1.00  0.00     0.000 HD 
HETATM   14  O   UNL     1      -8.870   7.735  63.908  1.00  0.00    -0.136 OA 
HETATM   15  C   UNL     1      -8.411  10.010  63.098  1.00  0.00    -0.181 C  
HETATM   16  H1  UNL     1      -5.401   9.382  64.765  1.00  0.00     0.000 HD 
HETATM   17  H   UNL     1      -9.165   7.512  63.033  1.00  0.00     0.000 HD 
BRANCH   7  18
HETATM   18  O   UNL     1      -8.054  10.308  67.320  1.00  0.00    -0.118 OA 
BRANCH  18  19
HETATM   19  C   UNL     1      -8.987  11.097  68.080  1.00  0.00    -0.149 C  
HETATM   20  O   UNL     1      -7.109  11.856  69.503  1.00  0.00    -0.320 OA 
HETATM   21  C   UNL     1      -9.840  11.853  67.063  1.00  0.00    -0.192 C  
HETATM   22  C   UNL     1      -8.242  13.351  67.862  1.00  0.00    -0.162 C  
HETATM   23  H   UNL     1      -6.712  12.554  70.010  1.00  0.00     0.000 HD 
HETATM   24  O   UNL     1      -9.209  13.123  66.835  1.00  0.00    -0.225 OA 
HETATM   25  C   UNL     1      -8.351  12.213  68.891  1.00  0.00     0.185 C  
BRANCH  21  26
HETATM   26  C   UNL     1     -11.276  12.105  67.523  1.00  0.00    -0.297 C  
HETATM   27  H   UNL     1     -12.704  13.428  67.190  1.00  0.00     0.000 HD 
HETATM   28  O   UNL     1     -11.812  13.272  66.904  1.00  0.00    -0.364 OA 
ENDBRANCH  21  26
BRANCH  22  29
HETATM   29  O   UNL     1      -8.491  14.588  68.524  1.00  0.00    -0.156 OA 
BRANCH  29  30
HETATM   30  C   UNL     1      -7.421  15.550  68.605  1.00  0.00    -0.131 C  
HETATM   31  C   UNL     1      -6.948  15.701  70.064  1.00  0.00     0.057 C  
HETATM   32  O   UNL     1      -6.751  14.411  70.660  1.00  0.00    -0.374 OA 
HETATM   33  C   UNL     1      -5.642  16.503  70.126  1.00  0.00    -0.200 C  
HETATM   34  C   UNL     1      -5.889  17.906  69.573  1.00  0.00    -0.238 C  
HETATM   35  N   UNL     1      -5.129  16.574  71.508  1.00  0.00    -0.287 NA 
HETATM   36  H   UNL     1      -6.460  14.505  71.559  1.00  0.00     0.000 HD 
HETATM   37  H1  UNL     1      -4.261  17.107  71.550  1.00  0.00     0.000 HD 
HETATM   38  H2  UNL     1      -5.019  15.646  71.916  1.00  0.00     0.000 HD 
HETATM   39  C   UNL     1      -6.448  17.871  68.140  1.00  0.00    -0.189 C  
HETATM   40  C   UNL     1      -7.699  16.932  67.955  1.00  0.00    -0.173 C  
HETATM   41  N   UNL     1      -6.746  19.256  67.720  1.00  0.00    -0.221 NA 
HETATM   42  H2  UNL     1      -5.940  19.875  67.812  1.00  0.00     0.000 HD 
HETATM   43  H1  UNL     1      -7.116  19.232  66.770  1.00  0.00     0.000 HD 
BRANCH  40  44
HETATM   44  O   UNL     1      -7.966  16.880  66.534  1.00  0.00    -0.234 OA 
BRANCH  44  45
HETATM   45  C   UNL     1      -9.302  17.225  66.141  1.00  0.00    -0.168 C  
HETATM   46  O   UNL     1     -10.276  16.568  66.944  1.00  0.00    -0.284 OA 
HETATM   47  C   UNL     1     -10.327  16.984  68.307  1.00  0.00    -0.347 C  
HETATM   48  C   UNL     1     -10.656  18.477  68.384  1.00  0.00    -0.107 C  
HETATM   49  H1  UNL     1      -8.693  20.527  65.347  1.00  0.00     0.000 HD 
HETATM   50  H2  UNL     1      -8.495  19.164  64.393  1.00  0.00     0.000 HD 
HETATM   51  O   UNL     1     -10.688  18.960  69.729  1.00  0.00     0.294 OA 
HETATM   52  C   UNL     1      -9.617  19.276  67.584  1.00  0.00    -0.315 C  
HETATM   53  H   UNL     1     -10.892  19.886  69.776  1.00  0.00     0.000 HD 
HETATM   54  O   UNL     1      -9.981  20.667  67.577  1.00  0.00    -0.421 OA 
HETATM   55  N   UNL     1      -8.540  19.519  65.349  1.00  0.00     0.036 NA 
HETATM   56  C   UNL     1      -9.534  18.757  66.140  1.00  0.00    -0.186 C  
HETATM   57  H   UNL     1      -9.338  21.161  67.082  1.00  0.00     0.000 HD 
BRANCH  47  58
HETATM   58  C   UNL     1     -11.401  16.134  69.001  1.00  0.00    -0.340 C  
HETATM   59  O   UNL     1     -11.050  15.910  70.369  1.00  0.00    -0.321 OA 
HETATM   60  H   UNL     1     -11.714  15.384  70.798  1.00  0.00     0.000 HD 
ENDBRANCH  47  58
ENDBRANCH  44  45
ENDBRANCH  40  44
ENDBRANCH  29  30
ENDBRANCH  22  29
ENDBRANCH  18  19
ENDBRANCH   7  18
ENDBRANCH   2   5
TORSDOF 9
ENDMDL
MODEL      253
REMARK 921   NORMALIZED FREE ENERGY PREDICTED BY IDOCK:   -2.35 KCAL/MOL
REMARK 922        TOTAL FREE ENERGY PREDICTED BY IDOCK:   -5.64 KCAL/MOL
REMARK 923 INTER-LIGAND FREE ENERGY PREDICTED BY IDOCK:   -6.07 KCAL/MOL
REMARK 924 INTRA-LIGAND FREE ENERGY PREDICTED BY IDOCK:    0.44 KCAL/MOL
REMARK 927      BINDING AFFINITY PREDICTED BY RF-SCORE:    0.00 PKD
ROOT
HETATM    1  N   UNL     1     -14.281   6.971  71.723  1.00  0.00    -0.492 NA 
HETATM    2  C   UNL     1     -13.349   8.105  71.888  1.00  0.00    -0.324 C  
HETATM    3  H1  UNL     1     -15.184   7.310  71.390  1.00  0.00     0.000 HD 
HETATM    4  H2  UNL     1     -14.370   6.420  72.577  1.00  0.00     0.000 HD 
ENDROOT
BRANCH   2   5
HETATM    5  C   UNL     1     -11.988   7.594  72.390  1.00  0.00    -0.253 C  
HETATM    6  O   UNL     1     -11.113   7.531  71.249  1.00  0.00    -0.241 OA 
HETATM    7  C   UNL     1      -9.764   7.262  71.623  1.00  0.00    -0.154 C  
HETATM    8  C   UNL     1      -9.684   5.819  72.202  1.00  0.00    -0.152 C  
HETATM    9  O   UNL     1     -12.754   5.293  72.205  1.00  0.00     0.563 OA 
HETATM   10  H   UNL     1     -12.804   4.442  72.624  1.00  0.00     0.000 HD 
HETATM   11  N   UNL     1     -10.028   4.808  71.159  1.00  0.00    -0.196 NA 
HETATM   12  C   UNL     1     -10.646   5.705  73.407  1.00  0.00    -0.258 C  
HETATM   13  H2  UNL     1      -9.448   4.913  70.326  1.00  0.00     0.000 HD 
HETATM   14  O   UNL     1     -10.119   6.385  74.555  1.00  0.00    -0.332 OA 
HETATM   15  C   UNL     1     -12.070   6.210  73.069  1.00  0.00     0.578 C  
HETATM   16  H1  UNL     1      -9.976   3.863  71.539  1.00  0.00     0.000 HD 
HETATM   17  H   UNL     1     -10.710   6.315  75.295  1.00  0.00     0.000 HD 
BRANCH   7  18
HETATM   18  O   UNL     1      -8.888   7.350  70.495  1.00  0.00    -0.146 OA 
BRANCH  18  19
HETATM   19  C   UNL     1      -9.384   6.687  69.317  1.00  0.00    -0.142 C  
HETATM   20  O   UNL     1      -9.967   8.902  68.379  1.00  0.00    -0.166 OA 
HETATM   21  C   UNL     1      -8.312   5.679  68.908  1.00  0.00    -0.103 C  
HETATM   22  C   UNL     1      -8.075   7.531  67.512  1.00  0.00    -0.113 C  
HETATM   23  H   UNL     1     -10.038   9.462  67.615  1.00  0.00     0.000 HD 
HETATM   24  O   UNL     1      -7.445   6.334  67.970  1.00  0.00    -0.086 OA 
HETATM   25  C   UNL     1      -9.497   7.582  68.095  1.00  0.00    -0.143 C  
BRANCH  21  26
HETATM   26  C   UNL     1      -8.869   4.417  68.247  1.00  0.00    -0.105 C  
HETATM   27  H   UNL     1      -8.600   3.407  66.571  1.00  0.00     0.000 HD 
HETATM   28  O   UNL     1      -8.255   4.191  66.981  1.00  0.00    -0.100 OA 
ENDBRANCH  21  26
BRANCH  22  29
HETATM   29  O   UNL     1      -8.165   7.544  66.091  1.00  0.00    -0.112 OA 
BRANCH  29  30
HETATM   30  C   UNL     1      -7.523   8.615  65.372  1.00  0.00    -0.086 C  
HETATM   31  C   UNL     1      -6.524   8.046  64.345  1.00  0.00    -0.061 C  
HETATM   32  O   UNL     1      -7.133   6.989  63.591  1.00  0.00    -0.054 OA 
HETATM   33  C   UNL     1      -6.044   9.148  63.394  1.00  0.00    -0.089 C  
HETATM   34  C   UNL     1      -5.315  10.223  64.199  1.00  0.00    -0.133 C  
HETATM   35  N   UNL     1      -5.161   8.598  62.347  1.00  0.00    -0.070 NA 
HETATM   36  H   UNL     1      -6.518   6.639  62.959  1.00  0.00     0.000 HD 
HETATM   37  H1  UNL     1      -4.842   9.331  61.714  1.00  0.00     0.000 HD 
HETATM   38  H2  UNL     1      -5.609   7.834  61.842  1.00  0.00     0.000 HD 
HETATM   39  C   UNL     1      -6.199  10.805  65.316  1.00  0.00     0.026 C  
HETATM   40  C   UNL     1      -6.868   9.721  66.244  1.00  0.00    -0.092 C  
HETATM   41  N   UNL     1      -5.392  11.762  66.101  1.00  0.00    -0.489 NA 
HETATM   42  H2  UNL     1      -4.968  12.485  65.520  1.00  0.00     0.000 HD 
HETATM   43  H1  UNL     1      -5.978  12.147  66.841  1.00  0.00     0.000 HD 
BRANCH  40  44
HETATM   44  O   UNL     1      -7.793  10.430  67.100  1.00  0.00    -0.108 OA 
BRANCH  44  45
HETATM   45  C   UNL     1      -8.149  11.752  66.668  1.00  0.00    -0.094 C  
HETATM   46  O   UNL     1      -9.209  11.731  65.718  1.00  0.00    -0.216 OA 
HETATM   47  C   UNL     1     -10.475  11.310  66.224  1.00  0.00    -0.258 C  
HETATM   48  C   UNL     1     -10.929  12.252  67.341  1.00  0.00    -0.253 C  
HETATM   49  H1  UNL     1      -7.680  13.348  69.691  1.00  0.00     0.000 HD 
HETATM   50  H2  UNL     1      -6.551  12.992  68.504  1.00  0.00     0.000 HD 
HETATM   51  O   UNL     1     -12.180  11.861  67.910  1.00  0.00    -0.508 OA 
HETATM   52  C   UNL     1      -9.862  12.296  68.444  1.00  0.00    -0.199 C  
HETATM   53  H   UNL     1     -12.462  12.446  68.603  1.00  0.00     0.000 HD 
HETATM   54  O   UNL     1     -10.246  13.254  69.446  1.00  0.00    -0.342 OA 
HETATM   55  N   UNL     1      -7.453  12.736  68.908  1.00  0.00    -0.036 NA 
HETATM   56  C   UNL     1      -8.495  12.682  67.858  1.00  0.00    -0.173 C  
HETATM   57  H   UNL     1      -9.586  13.281  70.129  1.00  0.00     0.000 HD 
BRANCH  47  58
HETATM   58  C   UNL     1     -11.458  11.318  65.045  1.00  0.00     0.161 C  
HETATM   59  O   UNL     1     -12.366  12.416  65.163  1.00  0.00    -0.524 OA 
HETATM   60  H   UNL     1     -12.974  12.421  64.434  1.00  0.00     0.000 HD 
ENDBRANCH  47  58
ENDBRANCH  44  45
ENDBRANCH  40  44
ENDBRANCH  29  30
ENDBRANCH  22  29
ENDBRANCH  18  19
ENDBRANCH   7  18
ENDBRANCH   2   5
TORSDOF 9
ENDMDL
MODEL      254
REMARK 921   NORMALIZED FREE ENERGY PREDICTED BY IDOCK:   -2.19 KCAL/MOL
REMARK 922        TOTAL FREE ENERGY PREDICTED BY IDOCK:   -5.39 KCAL/MOL
REMARK 923 INTER-LIGAND FREE ENERGY PREDICTED BY IDOCK:   -4.75 KCAL/MOL
REMARK 924 INTRA-LIGAND FREE ENERGY PREDICTED BY IDOCK:   -0.64 KCAL/MOL
REMARK 927      BINDING AFFINITY PREDICTED BY RF-SCORE:    0.00 PKD
ROOT
HETATM    1  N   UNL     1     -12.430  15.914  73.737  1.00  0.00    -0.553 NA 
HETATM    2  C   UNL     1     -11.545  15.686  72.577  1.00  0.00    -0.406 C  
HETATM    3  H1  UNL     1     -12.264  16.844  74.122  1.00  0.00     0.000 HD 
HETATM    4  H2  UNL     1     -12.332  15.184  74.443  1.00  0.00     0.000 HD 
ENDROOT
BRANCH   2   5
HETATM    5  C   UNL     1     -11.795  14.284  71.996  1.00  0.00     0.294 C  
HETATM    6  O   UNL     1     -11.131  14.229  70.720  1.00  0.00     0.089 OA 
HETATM    7  C   UNL     1     -11.122  12.911  70.177  1.00  0.00     0.657 C  
HETATM    8  C   UNL     1     -12.584  12.507  69.825  1.00  0.00     0.311 C  
HETATM    9  O   UNL     1     -13.935  15.009  71.096  1.00  0.00    -0.582 OA 
HETATM   10  H   UNL     1     -14.857  14.806  70.992  1.00  0.00     0.000 HD 
HETATM   11  N   UNL     1     -13.135  13.388  68.752  1.00  0.00     1.304 NA 
HETATM   12  C   UNL     1     -13.453  12.596  71.101  1.00  0.00     0.440 C  
HETATM   13  H2  UNL     1     -12.536  13.396  67.926  1.00  0.00     0.000 HD 
HETATM   14  O   UNL     1     -13.178  11.504  71.989  1.00  0.00    -0.509 OA 
HETATM   15  C   UNL     1     -13.293  13.954  71.825  1.00  0.00    -0.381 C  
HETATM   16  H1  UNL     1     -14.093  13.123  68.522  1.00  0.00     0.000 HD 
HETATM   17  H   UNL     1     -13.713  11.559  72.773  1.00  0.00     0.000 HD 
BRANCH   7  18
HETATM   18  O   UNL     1     -10.333  12.849  68.986  1.00  0.00    -0.094 OA 
BRANCH  18  19
HETATM   19  C   UNL     1      -9.643  11.599  68.806  1.00  0.00    -0.072 C  
HETATM   20  O   UNL     1     -11.823  10.525  68.333  1.00  0.00    -0.720 OA 
HETATM   21  C   UNL     1      -8.453  11.890  67.894  1.00  0.00    -0.154 C  
HETATM   22  C   UNL     1     -10.111  10.929  66.567  1.00  0.00    -0.222 C  
HETATM   23  H   UNL     1     -12.312   9.873  67.845  1.00  0.00     0.000 HD 
HETATM   24  O   UNL     1      -8.882  11.656  66.544  1.00  0.00    -0.183 OA 
HETATM   25  C   UNL     1     -10.427  10.557  68.025  1.00  0.00    -0.197 C  
BRANCH  21  26
HETATM   26  C   UNL     1      -7.231  11.013  68.170  1.00  0.00    -0.083 C  
HETATM   27  H   UNL     1      -6.445  10.048  69.703  1.00  0.00     0.000 HD 
HETATM   28  O   UNL     1      -7.204  10.593  69.532  1.00  0.00    -0.115 OA 
ENDBRANCH  21  26
BRANCH  22  29
HETATM   29  O   UNL     1     -10.004   9.730  65.805  1.00  0.00    -0.284 OA 
BRANCH  29  30
HETATM   30  C   UNL     1      -8.740   9.038  65.789  1.00  0.00    -0.169 C  
HETATM   31  C   UNL     1      -7.932   9.428  64.536  1.00  0.00    -0.126 C  
HETATM   32  O   UNL     1      -7.930  10.853  64.369  1.00  0.00    -0.358 OA 
HETATM   33  C   UNL     1      -6.490   8.920  64.646  1.00  0.00    -0.066 C  
HETATM   34  C   UNL     1      -6.502   7.394  64.730  1.00  0.00    -0.037 C  
HETATM   35  N   UNL     1      -5.680   9.368  63.497  1.00  0.00    -0.085 NA 
HETATM   36  H   UNL     1      -7.432  11.093  63.597  1.00  0.00     0.000 HD 
HETATM   37  H1  UNL     1      -4.721   9.030  63.569  1.00  0.00     0.000 HD 
HETATM   38  H2  UNL     1      -5.714  10.382  63.386  1.00  0.00     0.000 HD 
HETATM   39  C   UNL     1      -7.357   6.888  65.905  1.00  0.00    -0.079 C  
HETATM   40  C   UNL     1      -8.809   7.496  65.959  1.00  0.00    -0.150 C  
HETATM   41  N   UNL     1      -7.391   5.411  65.857  1.00  0.00    -0.076 NA 
HETATM   42  H2  UNL     1      -6.459   4.998  65.843  1.00  0.00     0.000 HD 
HETATM   43  H1  UNL     1      -7.958   5.077  66.636  1.00  0.00     0.000 HD 
BRANCH  40  44
HETATM   44  O   UNL     1      -9.389   7.059  67.210  1.00  0.00    -0.128 OA 
BRANCH  44  45
HETATM   45  C   UNL     1      -8.452   6.736  68.248  1.00  0.00    -0.125 C  
HETATM   46  O   UNL     1      -8.458   7.707  69.288  1.00  0.00    -0.135 OA 
HETATM   47  C   UNL     1      -9.651   7.760  70.069  1.00  0.00    -0.161 C  
HETATM   48  C   UNL     1      -9.886   6.410  70.752  1.00  0.00    -0.184 C  
HETATM   49  H1  UNL     1      -8.871   3.312  68.174  1.00  0.00     0.000 HD 
HETATM   50  H2  UNL     1      -7.875   4.269  67.226  1.00  0.00     0.000 HD 
HETATM   51  O   UNL     1     -11.088   6.393  71.525  1.00  0.00    -0.252 OA 
HETATM   52  C   UNL     1      -9.948   5.301  69.693  1.00  0.00    -0.232 C  
HETATM   53  H   UNL     1     -11.234   5.555  71.948  1.00  0.00     0.000 HD 
HETATM   54  O   UNL     1     -10.074   4.023  70.342  1.00  0.00    -0.127 OA 
HETATM   55  N   UNL     1      -8.720   4.247  67.797  1.00  0.00    -0.103 NA 
HETATM   56  C   UNL     1      -8.682   5.315  68.822  1.00  0.00    -0.090 C  
HETATM   57  H   UNL     1     -10.112   3.337  69.687  1.00  0.00     0.000 HD 
BRANCH  47  58
HETATM   58  C   UNL     1      -9.471   8.888  71.095  1.00  0.00    -0.265 C  
HETATM   59  O   UNL     1     -10.734   9.484  71.404  1.00  0.00    -0.346 OA 
HETATM   60  H   UNL     1     -10.622  10.182  72.039  1.00  0.00     0.000 HD 
ENDBRANCH  47  58
ENDBRANCH  44  45
ENDBRANCH  40  44
ENDBRANCH  29  30
ENDBRANCH  22  29
ENDBRANCH  18  19
ENDBRANCH   7  18
ENDBRANCH   2   5
TORSDOF 9
ENDMDL
MODEL      255
REMARK 921   NORMALIZED FREE ENERGY PREDICTED BY IDOCK:   -2.19 KCAL/MOL
REMARK 922        TOTAL FREE ENERGY PREDICTED BY IDOCK:   -5.38 KCAL/MOL
REMARK 923 INTER-LIGAND FREE ENERGY PREDICTED BY IDOCK:   -4.57 KCAL/MOL
REMARK 924 INTRA-LIGAND FREE ENERGY PREDICTED BY IDOCK:   -0.81 KCAL/MOL
REMARK 927      BINDING AFFINITY PREDICTED BY RF-SCORE:    0.00 PKD
ROOT
HETATM    1  N   UNL     1      -8.429  14.777  65.510  1.00  0.00     1.400 NA 
HETATM    2  C   UNL     1      -8.781  15.904  66.397  1.00  0.00    -0.327 C  
HETATM    3  H1  UNL     1      -7.778  15.092  64.790  1.00  0.00     0.000 HD 
HETATM    4  H2  UNL     1      -9.256  14.331  65.111  1.00  0.00     0.000 HD 
ENDROOT
BRANCH   2   5
HETATM    5  C   UNL     1      -9.761  15.428  67.482  1.00  0.00    -0.208 C  
HETATM    6  O   UNL     1      -9.543  14.017  67.661  1.00  0.00    -0.212 OA 
HETATM    7  C   UNL     1     -10.255  13.503  68.785  1.00  0.00    -0.131 C  
HETATM    8  C   UNL     1     -11.780  13.583  68.488  1.00  0.00    -0.357 C  
HETATM    9  O   UNL     1     -11.517  15.168  65.820  1.00  0.00    -0.292 OA 
HETATM   10  H   UNL     1     -12.427  15.331  65.600  1.00  0.00     0.000 HD 
HETATM   11  N   UNL     1     -12.145  12.705  67.337  1.00  0.00    -0.435 NA 
HETATM   12  C   UNL     1     -12.161  15.053  68.193  1.00  0.00    -0.037 C  
HETATM   13  H2  UNL     1     -11.840  11.743  67.485  1.00  0.00     0.000 HD 
HETATM   14  O   UNL     1     -12.174  15.834  69.395  1.00  0.00    -0.502 OA 
HETATM   15  C   UNL     1     -11.240  15.692  67.126  1.00  0.00    -0.152 C  
HETATM   16  H1  UNL     1     -13.145  12.758  67.143  1.00  0.00     0.000 HD 
HETATM   17  H   UNL     1     -12.408  16.737  69.213  1.00  0.00     0.000 HD 
BRANCH   7  18
HETATM   18  O   UNL     1      -9.909  12.137  69.033  1.00  0.00     0.013 OA 
BRANCH  18  19
HETATM   19  C   UNL     1      -8.953  11.597  68.104  1.00  0.00    -0.182 C  
HETATM   20  O   UNL     1      -7.337  11.390  69.967  1.00  0.00    -0.359 OA 
HETATM   21  C   UNL     1      -9.691  10.531  67.297  1.00  0.00    -0.169 C  
HETATM   22  C   UNL     1      -8.436   9.417  68.915  1.00  0.00    -0.122 C  
HETATM   23  H   UNL     1      -6.629  10.902  70.371  1.00  0.00     0.000 HD 
HETATM   24  O   UNL     1      -9.496   9.276  67.967  1.00  0.00    -0.137 OA 
HETATM   25  C   UNL     1      -7.821  10.816  68.750  1.00  0.00    -0.129 C  
BRANCH  21  26
HETATM   26  C   UNL     1      -9.195  10.389  65.857  1.00  0.00    -0.170 C  
HETATM   27  H   UNL     1      -9.360   9.090  64.379  1.00  0.00     0.000 HD 
HETATM   28  O   UNL     1      -9.668   9.178  65.272  1.00  0.00    -0.157 OA 
ENDBRANCH  21  26
BRANCH  22  29
HETATM   29  O   UNL     1      -7.421   8.444  68.685  1.00  0.00    -0.089 OA 
BRANCH  29  30
HETATM   30  C   UNL     1      -7.815   7.136  68.227  1.00  0.00    -0.122 C  
HETATM   31  C   UNL     1      -7.394   6.933  66.759  1.00  0.00    -0.078 C  
HETATM   32  O   UNL     1      -6.031   7.338  66.571  1.00  0.00    -0.033 OA 
HETATM   33  C   UNL     1      -7.557   5.465  66.350  1.00  0.00    -0.088 C  
HETATM   34  C   UNL     1      -9.029   5.072  66.466  1.00  0.00    -0.116 C  
HETATM   35  N   UNL     1      -7.068   5.239  64.976  1.00  0.00    -0.061 NA 
HETATM   36  H   UNL     1      -5.772   7.213  65.667  1.00  0.00     0.000 HD 
HETATM   37  H1  UNL     1      -7.176   4.263  64.703  1.00  0.00     0.000 HD 
HETATM   38  H2  UNL     1      -6.105   5.556  64.863  1.00  0.00     0.000 HD 
HETATM   39  C   UNL     1      -9.581   5.316  67.881  1.00  0.00    -0.134 C  
HETATM   40  C   UNL     1      -9.306   6.761  68.444  1.00  0.00    -0.124 C  
HETATM   41  N   UNL     1     -11.025   5.002  67.881  1.00  0.00     0.389 NA 
HETATM   42  H2  UNL     1     -11.222   4.061  67.540  1.00  0.00     0.000 HD 
HETATM   43  H1  UNL     1     -11.390   5.163  68.819  1.00  0.00     0.000 HD 
BRANCH  40  44
HETATM   44  O   UNL     1      -9.722   6.746  69.830  1.00  0.00    -0.157 OA 
BRANCH  44  45
HETATM   45  C   UNL     1      -9.391   5.558  70.563  1.00  0.00    -0.157 C  
HETATM   46  O   UNL     1      -7.984   5.404  70.714  1.00  0.00    -0.094 OA 
HETATM   47  C   UNL     1      -7.349   6.370  71.550  1.00  0.00    -0.088 C  
HETATM   48  C   UNL     1      -7.935   6.301  72.963  1.00  0.00    -0.107 C  
HETATM   49  H1  UNL     1     -12.036   5.651  72.777  1.00  0.00     0.000 HD 
HETATM   50  H2  UNL     1     -11.983   5.012  71.229  1.00  0.00     0.000 HD 
HETATM   51  O   UNL     1      -7.358   7.272  73.840  1.00  0.00    -0.095 OA 
HETATM   52  C   UNL     1      -9.454   6.512  72.903  1.00  0.00    -0.141 C  
HETATM   53  H   UNL     1      -7.722   7.228  74.717  1.00  0.00     0.000 HD 
HETATM   54  O   UNL     1     -10.014   6.352  74.218  1.00  0.00    -0.260 OA 
HETATM   55  N   UNL     1     -11.568   5.687  71.872  1.00  0.00    -0.115 NA 
HETATM   56  C   UNL     1     -10.101   5.504  71.940  1.00  0.00    -0.189 C  
HETATM   57  H   UNL     1     -10.955   6.482  74.180  1.00  0.00     0.000 HD 
BRANCH  47  58
HETATM   58  C   UNL     1      -5.847   6.055  71.546  1.00  0.00    -0.027 C  
HETATM   59  O   UNL     1      -5.495   5.301  72.710  1.00  0.00    -0.016 OA 
HETATM   60  H   UNL     1      -4.565   5.106  72.707  1.00  0.00     0.000 HD 
ENDBRANCH  47  58
ENDBRANCH  44  45
ENDBRANCH  40  44
ENDBRANCH  29  30
ENDBRANCH  22  29
ENDBRANCH  18  19
ENDBRANCH   7  18
ENDBRANCH   2   5
TORSDOF 9
ENDMDL
MODEL      256
REMARK 921   NORMALIZED FREE ENERGY PREDICTED BY IDOCK:   -2.09 KCAL/MOL
REMARK 922        TOTAL FREE ENERGY PREDICTED BY IDOCK:   -5.24 KCAL/MOL
REMARK 923 INTER-LIGAND FREE ENERGY PREDICTED BY IDOCK:   -5.05 KCAL/MOL
REMARK 924 INTRA-LIGAND FREE ENERGY PREDICTED BY IDOCK:   -0.19 KCAL/MOL
REMARK 927      BINDING AFFINITY PREDICTED BY RF-SCORE:    0.00 PKD
ROOT
HETATM    1  N   UNL     1      -9.938  12.997  65.429  1.00  0.00    -0.440 NA 
HETATM    2  C   UNL     1      -8.809  13.101  66.375  1.00  0.00     0.111 C  
HETATM    3  H1  UNL     1      -9.585  12.907  64.476  1.00  0.00     0.000 HD 
HETATM    4  H2  UNL     1     -10.590  13.776  65.523  1.00  0.00     0.000 HD 
ENDROOT
BRANCH   2   5
HETATM    5  C   UNL     1      -9.342  13.237  67.811  1.00  0.00    -0.209 C  
HETATM    6  O   UNL     1     -10.162  12.083  68.070  1.00  0.00    -0.187 OA 
HETATM    7  C   UNL     1     -10.550  11.997  69.440  1.00  0.00     0.158 C  
HETATM    8  C   UNL     1     -11.505  13.182  69.764  1.00  0.00    -0.145 C  
HETATM    9  O   UNL     1     -11.172  14.635  67.029  1.00  0.00    -0.324 OA 
HETATM   10  H   UNL     1     -11.675  15.429  67.169  1.00  0.00     0.000 HD 
HETATM   11  N   UNL     1     -12.768  13.077  68.975  1.00  0.00     0.595 NA 
HETATM   12  C   UNL     1     -10.781  14.513  69.456  1.00  0.00    -0.146 C  
HETATM   13  H2  UNL     1     -13.225  12.175  69.113  1.00  0.00     0.000 HD 
HETATM   14  O   UNL     1      -9.793  14.806  70.453  1.00  0.00    -0.207 OA 
HETATM   15  C   UNL     1     -10.159  14.527  68.039  1.00  0.00    -0.226 C  
HETATM   16  H1  UNL     1     -13.394  13.854  69.187  1.00  0.00     0.000 HD 
HETATM   17  H   UNL     1      -9.349  15.624  70.264  1.00  0.00     0.000 HD 
BRANCH   7  18
HETATM   18  O   UNL     1     -11.237  10.771  69.705  1.00  0.00    -0.256 OA 
BRANCH  18  19
HETATM   19  C   UNL     1     -10.476   9.831  70.486  1.00  0.00    -0.301 C  
HETATM   20  O   UNL     1     -12.310   8.192  70.205  1.00  0.00    -0.248 OA 
HETATM   21  C   UNL     1      -9.057   9.850  69.920  1.00  0.00    -0.210 C  
HETATM   22  C   UNL     1     -10.112   7.960  69.055  1.00  0.00    -0.200 C  
HETATM   23  H   UNL     1     -12.572   7.286  70.094  1.00  0.00     0.000 HD 
HETATM   24  O   UNL     1      -8.982   8.824  68.919  1.00  0.00    -0.133 OA 
HETATM   25  C   UNL     1     -10.896   8.382  70.308  1.00  0.00    -0.239 C  
BRANCH  21  26
HETATM   26  C   UNL     1      -7.971   9.586  70.964  1.00  0.00     0.158 C  
HETATM   27  H   UNL     1      -6.373   8.439  71.147  1.00  0.00     0.000 HD 
HETATM   28  O   UNL     1      -7.047   8.603  70.500  1.00  0.00    -0.038 OA 
ENDBRANCH  21  26
BRANCH  22  29
HETATM   29  O   UNL     1      -9.697   6.607  69.211  1.00  0.00    -0.146 OA 
BRANCH  29  30
HETATM   30  C   UNL     1      -9.810   5.719  68.082  1.00  0.00    -0.135 C  
HETATM   31  C   UNL     1      -9.332   4.304  68.464  1.00  0.00    -0.151 C  
HETATM   32  O   UNL     1      -9.916   3.900  69.710  1.00  0.00    -0.145 OA 
HETATM   33  C   UNL     1      -9.702   3.297  67.370  1.00  0.00     0.086 C  
HETATM   34  C   UNL     1      -8.998   3.687  66.071  1.00  0.00    -0.144 C  
HETATM   35  N   UNL     1      -9.334   1.924  67.766  1.00  0.00    -0.303 NA 
HETATM   36  H   UNL     1      -9.622   3.029  69.945  1.00  0.00     0.000 HD 
HETATM   37  H1  UNL     1      -9.580   1.253  67.039  1.00  0.00     0.000 HD 
HETATM   38  H2  UNL     1      -9.743   1.670  68.665  1.00  0.00     0.000 HD 
HETATM   39  C   UNL     1      -9.341   5.123  65.638  1.00  0.00    -0.138 C  
HETATM   40  C   UNL     1      -9.144   6.204  66.766  1.00  0.00    -0.133 C  
HETATM   41  N   UNL     1      -8.550   5.450  64.434  1.00  0.00    -0.270 NA 
HETATM   42  H2  UNL     1      -8.681   4.772  63.683  1.00  0.00     0.000 HD 
HETATM   43  H1  UNL     1      -8.777   6.402  64.147  1.00  0.00     0.000 HD 
BRANCH  40  44
HETATM   44  O   UNL     1      -9.684   7.442  66.246  1.00  0.00    -0.131 OA 
BRANCH  44  45
HETATM   45  C   UNL     1      -8.807   8.575  66.312  1.00  0.00    -0.156 C  
HETATM   46  O   UNL     1      -7.455   8.215  66.053  1.00  0.00    -0.078 OA 
HETATM   47  C   UNL     1      -7.179   7.794  64.718  1.00  0.00    -0.067 C  
HETATM   48  C   UNL     1      -7.511   8.921  63.737  1.00  0.00    -0.112 C  
HETATM   49  H1  UNL     1     -10.969  10.888  64.940  1.00  0.00     0.000 HD 
HETATM   50  H2  UNL     1     -10.844  10.382  66.533  1.00  0.00     0.000 HD 
HETATM   51  O   UNL     1      -7.284   8.545  62.377  1.00  0.00    -0.097 OA 
HETATM   52  C   UNL     1      -8.977   9.341  63.910  1.00  0.00    -0.050 C  
HETATM   53  H   UNL     1      -7.490   9.245  61.769  1.00  0.00     0.000 HD 
HETATM   54  O   UNL     1      -9.259  10.464  63.056  1.00  0.00    -0.235 OA 
HETATM   55  N   UNL     1     -10.670  10.135  65.559  1.00  0.00     0.125 NA 
HETATM   56  C   UNL     1      -9.261   9.721  65.372  1.00  0.00    -0.227 C  
HETATM   57  H   UNL     1     -10.167  10.724  63.163  1.00  0.00     0.000 HD 
BRANCH  47  58
HETATM   58  C   UNL     1      -5.693   7.414  64.660  1.00  0.00    -0.037 C  
HETATM   59  O   UNL     1      -5.478   6.397  63.678  1.00  0.00    -0.018 OA 
HETATM   60  H   UNL     1      -4.559   6.162  63.643  1.00  0.00     0.000 HD 
ENDBRANCH  47  58
ENDBRANCH  44  45
ENDBRANCH  40  44
ENDBRANCH  29  30
ENDBRANCH  22  29
ENDBRANCH  18  19
ENDBRANCH   7  18
ENDBRANCH   2   5
TORSDOF 9
ENDMDL
MODEL      257
REMARK 921   NORMALIZED FREE ENERGY PREDICTED BY IDOCK:   -1.90 KCAL/MOL
REMARK 922        TOTAL FREE ENERGY PREDICTED BY IDOCK:   -4.94 KCAL/MOL
REMARK 923 INTER-LIGAND FREE ENERGY PREDICTED BY IDOCK:   -5.30 KCAL/MOL
REMARK 924 INTRA-LIGAND FREE ENERGY PREDICTED BY IDOCK:    0.37 KCAL/MOL
REMARK 927      BINDING AFFINITY PREDICTED BY RF-SCORE:    0.00 PKD
ROOT
HETATM    1  N   UNL     1     -11.777   6.750  69.439  1.00  0.00    -0.631 NA 
HETATM    2  C   UNL     1     -11.215   7.232  70.717  1.00  0.00    -0.274 C  
HETATM    3  H1  UNL     1     -12.794   6.702  69.505  1.00  0.00     0.000 HD 
HETATM    4  H2  UNL     1     -11.369   5.860  69.152  1.00  0.00     0.000 HD 
ENDROOT
BRANCH   2   5
HETATM    5  C   UNL     1      -9.682   7.304  70.618  1.00  0.00    -0.175 C  
HETATM    6  O   UNL     1      -9.175   5.988  70.907  1.00  0.00    -0.152 OA 
HETATM    7  C   UNL     1      -7.777   5.883  70.649  1.00  0.00    -0.097 C  
HETATM    8  C   UNL     1      -7.013   6.780  71.666  1.00  0.00    -0.070 C  
HETATM    9  O   UNL     1      -9.544   8.100  72.912  1.00  0.00    -0.257 OA 
HETATM   10  H   UNL     1      -9.160   8.733  73.506  1.00  0.00     0.000 HD 
HETATM   11  N   UNL     1      -7.209   6.287  73.061  1.00  0.00    -0.086 NA 
HETATM   12  C   UNL     1      -7.513   8.237  71.529  1.00  0.00    -0.090 C  
HETATM   13  H2  UNL     1      -6.948   5.305  73.154  1.00  0.00     0.000 HD 
HETATM   14  O   UNL     1      -7.002   8.849  70.337  1.00  0.00    -0.041 OA 
HETATM   15  C   UNL     1      -9.056   8.333  71.584  1.00  0.00    -0.185 C  
HETATM   16  H1  UNL     1      -6.708   6.875  73.727  1.00  0.00     0.000 HD 
HETATM   17  H   UNL     1      -7.309   9.744  70.253  1.00  0.00     0.000 HD 
BRANCH   7  18
HETATM   18  O   UNL     1      -7.324   4.535  70.799  1.00  0.00    -0.049 OA 
BRANCH  18  19
HETATM   19  C   UNL     1      -7.512   3.721  69.628  1.00  0.00    -0.052 C  
HETATM   20  O   UNL     1      -9.952   3.782  70.038  1.00  0.00    -0.125 OA 
HETATM   21  C   UNL     1      -6.667   4.353  68.524  1.00  0.00    -0.047 C  
HETATM   22  C   UNL     1      -8.873   5.016  68.161  1.00  0.00    -0.102 C  
HETATM   23  H   UNL     1     -10.831   3.809  69.678  1.00  0.00     0.000 HD 
HETATM   24  O   UNL     1      -7.511   5.273  67.814  1.00  0.00    -0.075 OA 
HETATM   25  C   UNL     1      -8.917   3.764  69.052  1.00  0.00    -0.122 C  
BRANCH  21  26
HETATM   26  C   UNL     1      -6.103   3.346  67.521  1.00  0.00    -0.028 C  
HETATM   27  H   UNL     1      -4.961   1.735  67.557  1.00  0.00     0.000 HD 
HETATM   28  O   UNL     1      -5.311   2.361  68.180  1.00  0.00    -0.012 OA 
ENDBRANCH  21  26
BRANCH  22  29
HETATM   29  O   UNL     1      -9.654   4.774  66.996  1.00  0.00    -0.147 OA 
BRANCH  29  30
HETATM   30  C   UNL     1      -9.166   5.257  65.729  1.00  0.00    -0.151 C  
HETATM   31  C   UNL     1      -8.293   4.184  65.048  1.00  0.00    -0.110 C  
HETATM   32  O   UNL     1      -8.952   2.911  65.083  1.00  0.00    -0.124 OA 
HETATM   33  C   UNL     1      -7.999   4.573  63.594  1.00  0.00    -0.089 C  
HETATM   34  C   UNL     1      -7.216   5.886  63.576  1.00  0.00    -0.058 C  
HETATM   35  N   UNL     1      -7.245   3.510  62.903  1.00  0.00    -0.047 NA 
HETATM   36  H   UNL     1      -8.415   2.250  64.663  1.00  0.00     0.000 HD 
HETATM   37  H1  UNL     1      -7.049   3.768  61.936  1.00  0.00     0.000 HD 
HETATM   38  H2  UNL     1      -7.723   2.611  62.962  1.00  0.00     0.000 HD 
HETATM   39  C   UNL     1      -7.963   7.013  64.309  1.00  0.00    -0.091 C  
HETATM   40  C   UNL     1      -8.448   6.634  65.758  1.00  0.00    -0.148 C  
HETATM   41  N   UNL     1      -7.098   8.212  64.326  1.00  0.00    -0.076 NA 
HETATM   42  H2  UNL     1      -6.791   8.487  63.393  1.00  0.00     0.000 HD 
HETATM   43  H1  UNL     1      -7.594   8.959  64.812  1.00  0.00     0.000 HD 
BRANCH  40  44
HETATM   44  O   UNL     1      -9.277   7.729  66.212  1.00  0.00    -0.178 OA 
BRANCH  44  45
HETATM   45  C   UNL     1      -8.941   8.269  67.498  1.00  0.00    -0.134 C  
HETATM   46  O   UNL     1      -7.536   8.433  67.653  1.00  0.00    -0.095 OA 
HETATM   47  C   UNL     1      -6.943   9.434  66.826  1.00  0.00    -0.081 C  
HETATM   48  C   UNL     1      -7.564  10.798  67.134  1.00  0.00    -0.105 C  
HETATM   49  H1  UNL     1     -11.645  10.390  67.810  1.00  0.00     0.000 HD 
HETATM   50  H2  UNL     1     -11.539   8.760  68.187  1.00  0.00     0.000 HD 
HETATM   51  O   UNL     1      -7.030  11.838  66.311  1.00  0.00    -0.368 OA 
HETATM   52  C   UNL     1      -9.085  10.729  66.940  1.00  0.00    -0.149 C  
HETATM   53  H   UNL     1      -7.416  12.685  66.503  1.00  0.00     0.000 HD 
HETATM   54  O   UNL     1      -9.676  11.983  67.322  1.00  0.00    -0.183 OA 
HETATM   55  N   UNL     1     -11.154   9.516  67.619  1.00  0.00    -0.080 NA 
HETATM   56  C   UNL     1      -9.686   9.596  67.788  1.00  0.00    -0.146 C  
HETATM   57  H   UNL     1     -10.617  11.940  67.202  1.00  0.00     0.000 HD 
BRANCH  47  58
HETATM   58  C   UNL     1      -5.435   9.422  67.113  1.00  0.00    -0.040 C  
HETATM   59  O   UNL     1      -5.141   8.529  68.190  1.00  0.00    -0.032 OA 
HETATM   60  H   UNL     1      -4.208   8.521  68.367  1.00  0.00     0.000 HD 
ENDBRANCH  47  58
ENDBRANCH  44  45
ENDBRANCH  40  44
ENDBRANCH  29  30
ENDBRANCH  22  29
ENDBRANCH  18  19
ENDBRANCH   7  18
ENDBRANCH   2   5
TORSDOF 9
ENDMDL
MODEL      258
REMARK 921   NORMALIZED FREE ENERGY PREDICTED BY IDOCK:   -1.89 KCAL/MOL
REMARK 922        TOTAL FREE ENERGY PREDICTED BY IDOCK:   -4.93 KCAL/MOL
REMARK 923 INTER-LIGAND FREE ENERGY PREDICTED BY IDOCK:   -7.31 KCAL/MOL
REMARK 924 INTRA-LIGAND FREE ENERGY PREDICTED BY IDOCK:    2.38 KCAL/MOL
REMARK 927      BINDING AFFINITY PREDICTED BY RF-SCORE:    0.00 PKD
ROOT
HETATM    1  N   UNL     1     -13.413   8.656  71.325  1.00  0.00    -0.542 NA 
HETATM    2  C   UNL     1     -12.800   8.383  72.641  1.00  0.00    -0.119 C  
HETATM    3  H1  UNL     1     -14.396   8.902  71.445  1.00  0.00     0.000 HD 
HETATM    4  H2  UNL     1     -13.289   7.879  70.676  1.00  0.00     0.000 HD 
ENDROOT
BRANCH   2   5
HETATM    5  C   UNL     1     -11.318   8.013  72.460  1.00  0.00    -0.406 C  
HETATM    6  O   UNL     1     -10.774   8.909  71.473  1.00  0.00    -0.272 OA 
HETATM    7  C   UNL     1      -9.357   8.794  71.368  1.00  0.00    -0.258 C  
HETATM    8  C   UNL     1      -9.012   7.391  70.790  1.00  0.00    -0.151 C  
HETATM    9  O   UNL     1     -11.919   6.276  70.867  1.00  0.00    -0.261 OA 
HETATM   10  H   UNL     1     -11.788   5.375  70.595  1.00  0.00     0.000 HD 
HETATM   11  N   UNL     1      -9.538   7.246  69.400  1.00  0.00    -0.154 NA 
HETATM   12  C   UNL     1      -9.608   6.304  71.713  1.00  0.00    -0.153 C  
HETATM   13  H2  UNL     1      -9.210   7.996  68.791  1.00  0.00     0.000 HD 
HETATM   14  O   UNL     1      -8.851   6.185  72.926  1.00  0.00    -0.127 OA 
HETATM   15  C   UNL     1     -11.105   6.550  72.016  1.00  0.00    -0.258 C  
HETATM   16  H1  UNL     1      -9.312   6.326  69.021  1.00  0.00     0.000 HD 
HETATM   17  H   UNL     1      -9.217   5.517  73.493  1.00  0.00     0.000 HD 
BRANCH   7  18
HETATM   18  O   UNL     1      -8.822   9.793  70.494  1.00  0.00    -0.182 OA 
BRANCH  18  19
HETATM   19  C   UNL     1      -9.751  10.842  70.167  1.00  0.00     0.862 C  
HETATM   20  O   UNL     1      -8.465  11.263  68.094  1.00  0.00    -0.132 OA 
HETATM   21  C   UNL     1     -11.148  10.262  70.376  1.00  0.00    -0.319 C  
HETATM   22  C   UNL     1     -10.722  10.208  68.085  1.00  0.00    -0.244 C  
HETATM   23  H   UNL     1      -8.471  11.510  67.177  1.00  0.00     0.000 HD 
HETATM   24  O   UNL     1     -11.578   9.718  69.119  1.00  0.00     0.010 OA 
HETATM   25  C   UNL     1      -9.760  11.237  68.700  1.00  0.00    -0.195 C  
BRANCH  21  26
HETATM   26  C   UNL     1     -12.183  11.290  70.836  1.00  0.00    -0.356 C  
HETATM   27  H   UNL     1     -14.007  11.850  70.326  1.00  0.00     0.000 HD 
HETATM   28  O   UNL     1     -13.365  11.212  70.041  1.00  0.00     0.340 OA 
ENDBRANCH  21  26
BRANCH  22  29
HETATM   29  O   UNL     1     -11.480  10.848  67.063  1.00  0.00    -0.392 OA 
BRANCH  29  30
HETATM   30  C   UNL     1     -10.774  11.539  66.014  1.00  0.00    -0.281 C  
HETATM   31  C   UNL     1     -11.461  12.883  65.702  1.00  0.00    -0.332 C  
HETATM   32  O   UNL     1     -11.742  13.592  66.917  1.00  0.00    -0.343 OA 
HETATM   33  C   UNL     1     -10.573  13.743  64.796  1.00  0.00    -0.428 C  
HETATM   34  C   UNL     1     -10.358  13.016  63.469  1.00  0.00     0.419 C  
HETATM   35  N   UNL     1     -11.177  15.070  64.567  1.00  0.00    -0.640 NA 
HETATM   36  H   UNL     1     -12.165  14.420  66.724  1.00  0.00     0.000 HD 
HETATM   37  H1  UNL     1     -10.587  15.643  63.963  1.00  0.00     0.000 HD 
HETATM   38  H2  UNL     1     -11.388  15.543  65.445  1.00  0.00     0.000 HD 
HETATM   39  C   UNL     1      -9.749  11.617  63.670  1.00  0.00    -0.289 C  
HETATM   40  C   UNL     1     -10.513  10.723  64.719  1.00  0.00    -0.265 C  
HETATM   41  N   UNL     1      -9.664  10.950  62.354  1.00  0.00    -0.581 NA 
HETATM   42  H2  UNL     1      -9.153  11.505  61.667  1.00  0.00     0.000 HD 
HETATM   43  H1  UNL     1      -9.260  10.023  62.488  1.00  0.00     0.000 HD 
BRANCH  40  44
HETATM   44  O   UNL     1      -9.705   9.539  64.912  1.00  0.00    -0.214 OA 
BRANCH  44  45
HETATM   45  C   UNL     1      -8.297   9.707  64.694  1.00  0.00    -0.158 C  
HETATM   46  O   UNL     1      -7.568   9.712  65.917  1.00  0.00    -0.099 OA 
HETATM   47  C   UNL     1      -7.541   8.469  66.618  1.00  0.00    -0.082 C  
HETATM   48  C   UNL     1      -6.892   7.393  65.744  1.00  0.00    -0.056 C  
HETATM   49  H1  UNL     1      -8.074   7.863  61.787  1.00  0.00     0.000 HD 
HETATM   50  H2  UNL     1      -8.492   9.474  61.979  1.00  0.00     0.000 HD 
HETATM   51  O   UNL     1      -6.866   6.115  66.382  1.00  0.00    -0.058 OA 
HETATM   52  C   UNL     1      -7.651   7.280  64.414  1.00  0.00    -0.111 C  
HETATM   53  H   UNL     1      -6.463   5.447  65.840  1.00  0.00     0.000 HD 
HETATM   54  O   UNL     1      -6.983   6.338  63.558  1.00  0.00    -0.043 OA 
HETATM   55  N   UNL     1      -8.450   8.560  62.429  1.00  0.00    -0.197 NA 
HETATM   56  C   UNL     1      -7.725   8.648  63.718  1.00  0.00    -0.136 C  
HETATM   57  H   UNL     1      -7.452   6.268  62.735  1.00  0.00     0.000 HD 
BRANCH  47  58
HETATM   58  C   UNL     1      -6.751   8.697  67.913  1.00  0.00    -0.066 C  
HETATM   59  O   UNL     1      -5.723   9.669  67.703  1.00  0.00    -0.040 OA 
HETATM   60  H   UNL     1      -5.233   9.810  68.505  1.00  0.00     0.000 HD 
ENDBRANCH  47  58
ENDBRANCH  44  45
ENDBRANCH  40  44
ENDBRANCH  29  30
ENDBRANCH  22  29
ENDBRANCH  18  19
ENDBRANCH   7  18
ENDBRANCH   2   5
TORSDOF 9
ENDMDL
MODEL      259
REMARK 921   NORMALIZED FREE ENERGY PREDICTED BY IDOCK:   -1.88 KCAL/MOL
REMARK 922        TOTAL FREE ENERGY PREDICTED BY IDOCK:   -4.92 KCAL/MOL
REMARK 923 INTER-LIGAND FREE ENERGY PREDICTED BY IDOCK:   -5.12 KCAL/MOL
REMARK 924 INTRA-LIGAND FREE ENERGY PREDICTED BY IDOCK:    0.21 KCAL/MOL
REMARK 927      BINDING AFFINITY PREDICTED BY RF-SCORE:    0.00 PKD
ROOT
HETATM    1  N   UNL     1      -7.979  13.909  69.091  1.00  0.00    -0.338 NA 
HETATM    2  C   UNL     1      -9.176  14.599  68.568  1.00  0.00    -0.193 C  
HETATM    3  H1  UNL     1      -7.440  14.546  69.677  1.00  0.00     0.000 HD 
HETATM    4  H2  UNL     1      -7.414  13.503  68.344  1.00  0.00     0.000 HD 
ENDROOT
BRANCH   2   5
HETATM    5  C   UNL     1      -9.989  13.638  67.685  1.00  0.00    -0.239 C  
HETATM    6  O   UNL     1      -9.253  12.404  67.612  1.00  0.00    -0.173 OA 
HETATM    7  C   UNL     1     -10.005  11.367  66.984  1.00  0.00    -0.201 C  
HETATM    8  C   UNL     1     -10.212  11.737  65.487  1.00  0.00    -0.252 C  
HETATM    9  O   UNL     1      -9.001  14.600  65.682  1.00  0.00    -0.335 OA 
HETATM   10  H   UNL     1      -9.158  14.937  64.808  1.00  0.00     0.000 HD 
HETATM   11  N   UNL     1      -8.905  11.787  64.767  1.00  0.00    -0.161 NA 
HETATM   12  C   UNL     1     -10.933  13.102  65.399  1.00  0.00    -0.279 C  
HETATM   13  H2  UNL     1      -8.383  10.917  64.872  1.00  0.00     0.000 HD 
HETATM   14  O   UNL     1     -12.320  12.976  65.742  1.00  0.00    -0.452 OA 
HETATM   15  C   UNL     1     -10.244  14.185  66.264  1.00  0.00    -0.295 C  
HETATM   16  H1  UNL     1      -9.040  12.030  63.785  1.00  0.00     0.000 HD 
HETATM   17  H   UNL     1     -12.762  13.815  65.688  1.00  0.00     0.000 HD 
BRANCH   7  18
HETATM   18  O   UNL     1      -9.316  10.116  67.055  1.00  0.00    -0.151 OA 
BRANCH  18  19
HETATM   19  C   UNL     1      -7.926  10.232  67.407  1.00  0.00    -0.107 C  
HETATM   20  O   UNL     1      -8.531   9.708  69.750  1.00  0.00    -0.153 OA 
HETATM   21  C   UNL     1      -7.150   9.422  66.371  1.00  0.00    -0.088 C  
HETATM   22  C   UNL     1      -7.311   8.103  68.286  1.00  0.00    -0.095 C  
HETATM   23  H   UNL     1      -8.297   9.287  70.569  1.00  0.00     0.000 HD 
HETATM   24  O   UNL     1      -6.998   8.093  66.892  1.00  0.00    -0.071 OA 
HETATM   25  C   UNL     1      -7.553   9.558  68.718  1.00  0.00    -0.076 C  
BRANCH  21  26
HETATM   26  C   UNL     1      -5.759   9.981  66.064  1.00  0.00    -0.062 C  
HETATM   27  H   UNL     1      -4.735  10.555  64.476  1.00  0.00     0.000 HD 
HETATM   28  O   UNL     1      -5.599  10.208  64.666  1.00  0.00    -0.092 OA 
ENDBRANCH  21  26
BRANCH  22  29
HETATM   29  O   UNL     1      -6.231   7.575  69.050  1.00  0.00    -0.033 OA 
BRANCH  29  30
HETATM   30  C   UNL     1      -6.406   6.298  69.694  1.00  0.00    -0.035 C  
HETATM   31  C   UNL     1      -5.942   6.372  71.162  1.00  0.00    -0.028 C  
HETATM   32  O   UNL     1      -6.487   7.536  71.798  1.00  0.00    -0.042 OA 
HETATM   33  C   UNL     1      -6.374   5.116  71.927  1.00  0.00    -0.035 C  
HETATM   34  C   UNL     1      -5.712   3.891  71.295  1.00  0.00    -0.013 C  
HETATM   35  N   UNL     1      -6.019   5.216  73.356  1.00  0.00    -0.026 NA 
HETATM   36  H   UNL     1      -6.201   7.581  72.703  1.00  0.00     0.000 HD 
HETATM   37  H1  UNL     1      -6.307   4.381  73.865  1.00  0.00     0.000 HD 
HETATM   38  H2  UNL     1      -6.399   6.063  73.779  1.00  0.00     0.000 HD 
HETATM   39  C   UNL     1      -6.042   3.767  69.797  1.00  0.00    -0.023 C  
HETATM   40  C   UNL     1      -5.780   5.078  68.965  1.00  0.00    -0.016 C  
HETATM   41  N   UNL     1      -5.290   2.619  69.247  1.00  0.00    -0.012 NA 
HETATM   42  H2  UNL     1      -5.464   1.755  69.760  1.00  0.00     0.000 HD 
HETATM   43  H1  UNL     1      -5.509   2.537  68.254  1.00  0.00     0.000 HD 
BRANCH  40  44
HETATM   44  O   UNL     1      -6.314   4.836  67.642  1.00  0.00    -0.038 OA 
BRANCH  44  45
HETATM   45  C   UNL     1      -7.342   3.838  67.561  1.00  0.00    -0.067 C  
HETATM   46  O   UNL     1      -8.174   3.842  68.716  1.00  0.00    -0.072 OA 
HETATM   47  C   UNL     1      -8.994   4.998  68.875  1.00  0.00    -0.101 C  
HETATM   48  C   UNL     1      -9.935   5.138  67.675  1.00  0.00    -0.161 C  
HETATM   49  H1  UNL     1      -7.949   4.099  64.175  1.00  0.00     0.000 HD 
HETATM   50  H2  UNL     1      -6.782   3.193  64.966  1.00  0.00     0.000 HD 
HETATM   51  O   UNL     1     -10.762   6.301  67.764  1.00  0.00    -0.240 OA 
HETATM   52  C   UNL     1      -9.115   5.197  66.380  1.00  0.00    -0.131 C  
HETATM   53  H   UNL     1     -11.345   6.387  67.020  1.00  0.00     0.000 HD 
HETATM   54  O   UNL     1     -10.003   5.232  65.249  1.00  0.00    -0.374 OA 
HETATM   55  N   UNL     1      -7.392   4.010  65.024  1.00  0.00    -0.071 NA 
HETATM   56  C   UNL     1      -8.189   3.975  66.271  1.00  0.00    -0.104 C  
HETATM   57  H   UNL     1      -9.495   5.268  64.447  1.00  0.00     0.000 HD 
BRANCH  47  58
HETATM   58  C   UNL     1      -9.774   4.824  70.186  1.00  0.00    -0.217 C  
HETATM   59  O   UNL     1     -10.401   3.539  70.223  1.00  0.00     0.526 OA 
HETATM   60  H   UNL     1     -10.883   3.431  71.034  1.00  0.00     0.000 HD 
ENDBRANCH  47  58
ENDBRANCH  44  45
ENDBRANCH  40  44
ENDBRANCH  29  30
ENDBRANCH  22  29
ENDBRANCH  18  19
ENDBRANCH   7  18
ENDBRANCH   2   5
TORSDOF 9
ENDMDL
MODEL      260
REMARK 921   NORMALIZED FREE ENERGY PREDICTED BY IDOCK:   -1.76 KCAL/MOL
REMARK 922        TOTAL FREE ENERGY PREDICTED BY IDOCK:   -4.74 KCAL/MOL
REMARK 923 INTER-LIGAND FREE ENERGY PREDICTED BY IDOCK:   -4.77 KCAL/MOL
REMARK 924 INTRA-LIGAND FREE ENERGY PREDICTED BY IDOCK:    0.04 KCAL/MOL
REMARK 927      BINDING AFFINITY PREDICTED BY RF-SCORE:    0.00 PKD
ROOT
HETATM    1  N   UNL     1     -10.592  19.511  68.014  1.00  0.00    -0.394 NA 
HETATM    2  C   UNL     1     -10.604  19.710  66.550  1.00  0.00    -0.482 C  
HETATM    3  H1  UNL     1     -11.506  19.744  68.402  1.00  0.00     0.000 HD 
HETATM    4  H2  UNL     1      -9.840  20.032  68.465  1.00  0.00     0.000 HD 
ENDROOT
BRANCH   2   5
HETATM    5  C   UNL     1      -9.226  19.359  65.964  1.00  0.00    -0.174 C  
HETATM    6  O   UNL     1      -8.618  18.406  66.855  1.00  0.00    -0.255 OA 
HETATM    7  C   UNL     1      -7.421  17.853  66.311  1.00  0.00    -0.286 C  
HETATM    8  C   UNL     1      -6.348  18.977  66.220  1.00  0.00    -0.183 C  
HETATM    9  O   UNL     1      -8.245  21.312  67.030  1.00  0.00    -0.615 OA 
HETATM   10  H   UNL     1      -7.678  22.067  66.925  1.00  0.00     0.000 HD 
HETATM   11  N   UNL     1      -5.987  19.478  67.579  1.00  0.00    -0.193 NA 
HETATM   12  C   UNL     1      -6.897  20.128  65.344  1.00  0.00    -0.306 C  
HETATM   13  H2  UNL     1      -5.687  18.721  68.193  1.00  0.00     0.000 HD 
HETATM   14  O   UNL     1      -6.893  19.768  63.956  1.00  0.00     0.023 OA 
HETATM   15  C   UNL     1      -8.305  20.586  65.795  1.00  0.00     0.378 C  
HETATM   16  H1  UNL     1      -5.284  20.215  67.519  1.00  0.00     0.000 HD 
HETATM   17  H   UNL     1      -7.230  20.475  63.419  1.00  0.00     0.000 HD 
BRANCH   7  18
HETATM   18  O   UNL     1      -6.913  16.805  67.142  1.00  0.00    -0.154 OA 
BRANCH  18  19
HETATM   19  C   UNL     1      -7.505  15.518  66.886  1.00  0.00    -0.082 C  
HETATM   20  O   UNL     1      -6.162  14.589  68.747  1.00  0.00    -0.083 OA 
HETATM   21  C   UNL     1      -9.008  15.753  66.759  1.00  0.00    -0.260 C  
HETATM   22  C   UNL     1      -8.627  14.920  68.902  1.00  0.00    -0.177 C  
HETATM   23  H   UNL     1      -6.101  13.979  69.472  1.00  0.00     0.000 HD 
HETATM   24  O   UNL     1      -9.582  15.571  68.062  1.00  0.00    -0.201 OA 
HETATM   25  C   UNL     1      -7.407  14.542  68.046  1.00  0.00    -0.138 C  
BRANCH  21  26
HETATM   26  C   UNL     1      -9.705  14.797  65.789  1.00  0.00    -0.313 C  
HETATM   27  H   UNL     1     -10.183  14.755  63.873  1.00  0.00     0.000 HD 
HETATM   28  O   UNL     1      -9.751  15.348  64.475  1.00  0.00     0.248 OA 
ENDBRANCH  21  26
BRANCH  22  29
HETATM   29  O   UNL     1      -9.175  13.732  69.465  1.00  0.00     0.643 OA 
BRANCH  29  30
HETATM   30  C   UNL     1     -10.597  13.521  69.371  1.00  0.00     0.177 C  
HETATM   31  C   UNL     1     -11.348  14.541  70.250  1.00  0.00    -0.171 C  
HETATM   32  O   UNL     1     -10.839  15.862  70.024  1.00  0.00    -0.298 OA 
HETATM   33  C   UNL     1     -12.851  14.508  69.948  1.00  0.00     0.056 C  
HETATM   34  C   UNL     1     -13.398  13.120  70.281  1.00  0.00     0.965 C  
HETATM   35  N   UNL     1     -13.569  15.545  70.714  1.00  0.00    -0.847 NA 
HETATM   36  H   UNL     1     -11.302  16.490  70.565  1.00  0.00     0.000 HD 
HETATM   37  H1  UNL     1     -14.568  15.523  70.514  1.00  0.00     0.000 HD 
HETATM   38  H2  UNL     1     -13.173  16.471  70.554  1.00  0.00     0.000 HD 
HETATM   39  C   UNL     1     -12.657  12.010  69.516  1.00  0.00     0.372 C  
HETATM   40  C   UNL     1     -11.088  12.073  69.641  1.00  0.00    -0.006 C  
HETATM   41  N   UNL     1     -13.182  10.703  69.965  1.00  0.00    -0.311 NA 
HETATM   42  H2  UNL     1     -14.195  10.634  69.872  1.00  0.00     0.000 HD 
HETATM   43  H1  UNL     1     -12.690   9.967  69.458  1.00  0.00     0.000 HD 
BRANCH  40  44
HETATM   44  O   UNL     1     -10.565  11.085  68.723  1.00  0.00    -0.182 OA 
BRANCH  44  45
HETATM   45  C   UNL     1      -9.148  10.867  68.790  1.00  0.00    -0.171 C  
HETATM   46  O   UNL     1      -8.821   9.767  69.631  1.00  0.00    -0.178 OA 
HETATM   47  C   UNL     1      -9.224   8.486  69.148  1.00  0.00    -0.150 C  
HETATM   48  C   UNL     1      -8.552   8.202  67.803  1.00  0.00    -0.131 C  
HETATM   49  H1  UNL     1      -8.420  11.669  65.514  1.00  0.00     0.000 HD 
HETATM   50  H2  UNL     1      -8.580  12.688  66.835  1.00  0.00     0.000 HD 
HETATM   51  O   UNL     1      -8.944   6.943  67.252  1.00  0.00    -0.117 OA 
HETATM   52  C   UNL     1      -8.896   9.319  66.808  1.00  0.00    -0.127 C  
HETATM   53  H   UNL     1      -8.527   6.767  66.417  1.00  0.00     0.000 HD 
HETATM   54  O   UNL     1      -8.188   9.101  65.575  1.00  0.00    -0.113 OA 
HETATM   55  N   UNL     1      -8.836  11.784  66.438  1.00  0.00    -0.191 NA 
HETATM   56  C   UNL     1      -8.517  10.692  67.386  1.00  0.00    -0.122 C  
HETATM   57  H   UNL     1      -8.401   9.793  64.960  1.00  0.00     0.000 HD 
BRANCH  47  58
HETATM   58  C   UNL     1      -8.819   7.454  70.210  1.00  0.00    -0.147 C  
HETATM   59  O   UNL     1      -7.401   7.466  70.399  1.00  0.00    -0.074 OA 
HETATM   60  H   UNL     1      -7.151   6.827  71.055  1.00  0.00     0.000 HD 
ENDBRANCH  47  58
ENDBRANCH  44  45
ENDBRANCH  40  44
ENDBRANCH  29  30
ENDBRANCH  22  29
ENDBRANCH  18  19
ENDBRANCH   7  18
ENDBRANCH   2   5
TORSDOF 9
ENDMDL
MODEL      261
REMARK 921   NORMALIZED FREE ENERGY PREDICTED BY IDOCK:   -1.60 KCAL/MOL
REMARK 922        TOTAL FREE ENERGY PREDICTED BY IDOCK:   -4.49 KCAL/MOL
REMARK 923 INTER-LIGAND FREE ENERGY PREDICTED BY IDOCK:   -6.55 KCAL/MOL
REMARK 924 INTRA-LIGAND FREE ENERGY PREDICTED BY IDOCK:    2.06 KCAL/MOL
REMARK 927      BINDING AFFINITY PREDICTED BY RF-SCORE:    0.00 PKD
ROOT
HETATM    1  N   UNL     1      -8.776   9.827  69.434  1.00  0.00    -0.159 NA 
HETATM    2  C   UNL     1      -9.610   9.107  70.418  1.00  0.00    -0.224 C  
HETATM    3  H1  UNL     1      -7.818   9.478  69.470  1.00  0.00     0.000 HD 
HETATM    4  H2  UNL     1      -8.821  10.838  69.560  1.00  0.00     0.000 HD 
ENDROOT
BRANCH   2   5
HETATM    5  C   UNL     1     -11.054   9.632  70.362  1.00  0.00    -0.290 C  
HETATM    6  O   UNL     1     -11.000  11.049  70.613  1.00  0.00     0.170 OA 
HETATM    7  C   UNL     1     -12.258  11.682  70.387  1.00  0.00    -0.347 C  
HETATM    8  C   UNL     1     -13.269  11.178  71.458  1.00  0.00    -0.279 C  
HETATM    9  O   UNL     1     -11.399   9.012  72.688  1.00  0.00     0.014 OA 
HETATM   10  H   UNL     1     -11.975   8.592  73.316  1.00  0.00     0.000 HD 
HETATM   11  N   UNL     1     -12.843  11.592  72.827  1.00  0.00     0.818 NA 
HETATM   12  C   UNL     1     -13.378   9.638  71.365  1.00  0.00    -0.368 C  
HETATM   13  H2  UNL     1     -12.700  12.600  72.889  1.00  0.00     0.000 HD 
HETATM   14  O   UNL     1     -14.132   9.243  70.211  1.00  0.00     0.101 OA 
HETATM   15  C   UNL     1     -11.991   8.952  71.383  1.00  0.00    -0.311 C  
HETATM   16  H1  UNL     1     -13.506  11.262  73.529  1.00  0.00     0.000 HD 
HETATM   17  H   UNL     1     -14.198   8.297  70.154  1.00  0.00     0.000 HD 
BRANCH   7  18
HETATM   18  O   UNL     1     -12.147  13.103  70.497  1.00  0.00    -0.357 OA 
BRANCH  18  19
HETATM   19  C   UNL     1     -12.112  13.787  69.232  1.00  0.00    -0.329 C  
HETATM   20  O   UNL     1     -10.212  15.133  70.071  1.00  0.00    -0.445 OA 
HETATM   21  C   UNL     1     -12.172  12.705  68.156  1.00  0.00     0.122 C  
HETATM   22  C   UNL     1      -9.943  13.363  68.338  1.00  0.00    -0.231 C  
HETATM   23  H   UNL     1      -9.391  15.574  69.885  1.00  0.00     0.000 HD 
HETATM   24  O   UNL     1     -10.820  12.362  67.818  1.00  0.00    -0.213 OA 
HETATM   25  C   UNL     1     -10.799  14.492  68.936  1.00  0.00    -0.253 C  
BRANCH  21  26
HETATM   26  C   UNL     1     -12.892  13.142  66.878  1.00  0.00     1.204 C  
HETATM   27  H   UNL     1     -13.356  14.833  65.971  1.00  0.00     0.000 HD 
HETATM   28  O   UNL     1     -12.909  14.563  66.764  1.00  0.00     0.220 OA 
ENDBRANCH  21  26
BRANCH  22  29
HETATM   29  O   UNL     1      -9.129  13.908  67.304  1.00  0.00    -0.207 OA 
BRANCH  29  30
HETATM   30  C   UNL     1      -9.630  13.887  65.953  1.00  0.00    -0.145 C  
HETATM   31  C   UNL     1     -10.705  14.975  65.764  1.00  0.00    -0.342 C  
HETATM   32  O   UNL     1     -10.248  16.224  66.302  1.00  0.00    -0.296 OA 
HETATM   33  C   UNL     1     -11.042  15.146  64.278  1.00  0.00     0.082 C  
HETATM   34  C   UNL     1     -11.614  13.835  63.740  1.00  0.00    -0.125 C  
HETATM   35  N   UNL     1     -12.000  16.251  64.075  1.00  0.00    -1.231 NA 
HETATM   36  H   UNL     1     -10.910  16.894  66.185  1.00  0.00     0.000 HD 
HETATM   37  H1  UNL     1     -12.225  16.364  63.087  1.00  0.00     0.000 HD 
HETATM   38  H2  UNL     1     -11.662  17.121  64.486  1.00  0.00     0.000 HD 
HETATM   39  C   UNL     1     -10.650  12.655  63.955  1.00  0.00    -0.427 C  
HETATM   40  C   UNL     1     -10.123  12.509  65.432  1.00  0.00    -0.267 C  
HETATM   41  N   UNL     1     -11.316  11.418  63.496  1.00  0.00    -0.719 NA 
HETATM   42  H2  UNL     1     -11.646  11.485  62.533  1.00  0.00     0.000 HD 
HETATM   43  H1  UNL     1     -10.677  10.636  63.639  1.00  0.00     0.000 HD 
BRANCH  40  44
HETATM   44  O   UNL     1      -9.104  11.483  65.404  1.00  0.00    -0.167 OA 
BRANCH  44  45
HETATM   45  C   UNL     1      -9.474  10.261  64.748  1.00  0.00    -0.283 C  
HETATM   46  O   UNL     1      -8.576   9.934  63.693  1.00  0.00    -0.165 OA 
HETATM   47  C   UNL     1      -7.255   9.581  64.102  1.00  0.00    -0.115 C  
HETATM   48  C   UNL     1      -7.304   8.350  65.012  1.00  0.00    -0.086 C  
HETATM   49  H1  UNL     1     -10.592   8.577  67.544  1.00  0.00     0.000 HD 
HETATM   50  H2  UNL     1     -11.424   9.650  66.561  1.00  0.00     0.000 HD 
HETATM   51  O   UNL     1      -6.009   7.967  65.480  1.00  0.00    -0.037 OA 
HETATM   52  C   UNL     1      -8.215   8.633  66.214  1.00  0.00    -0.116 C  
HETATM   53  H   UNL     1      -6.040   7.204  66.044  1.00  0.00     0.000 HD 
HETATM   54  O   UNL     1      -8.335   7.445  67.016  1.00  0.00    -0.118 OA 
HETATM   55  N   UNL     1     -10.504   9.354  66.889  1.00  0.00    -0.234 NA 
HETATM   56  C   UNL     1      -9.608   9.081  65.743  1.00  0.00    -0.217 C  
HETATM   57  H   UNL     1      -8.899   7.620  67.760  1.00  0.00     0.000 HD 
BRANCH  47  58
HETATM   58  C   UNL     1      -6.445   9.308  62.827  1.00  0.00    -0.093 C  
HETATM   59  O   UNL     1      -6.574   7.938  62.440  1.00  0.00    -0.083 OA 
HETATM   60  H   UNL     1      -6.073   7.769  61.652  1.00  0.00     0.000 HD 
ENDBRANCH  47  58
ENDBRANCH  44  45
ENDBRANCH  40  44
ENDBRANCH  29  30
ENDBRANCH  22  29
ENDBRANCH  18  19
ENDBRANCH   7  18
ENDBRANCH   2   5
TORSDOF 9
ENDMDL
MODEL      262
REMARK 921   NORMALIZED FREE ENERGY PREDICTED BY IDOCK:   -1.57 KCAL/MOL
REMARK 922        TOTAL FREE ENERGY PREDICTED BY IDOCK:   -4.44 KCAL/MOL
REMARK 923 INTER-LIGAND FREE ENERGY PREDICTED BY IDOCK:   -4.93 KCAL/MOL
REMARK 924 INTRA-LIGAND FREE ENERGY PREDICTED BY IDOCK:    0.49 KCAL/MOL
REMARK 927      BINDING AFFINITY PREDICTED BY RF-SCORE:    0.00 PKD
ROOT
HETATM    1  N   UNL     1     -11.352  18.446  66.531  1.00  0.00     0.783 NA 
HETATM    2  C   UNL     1     -10.491  18.728  65.364  1.00  0.00     0.303 C  
HETATM    3  H1  UNL     1     -12.271  18.136  66.216  1.00  0.00     0.000 HD 
HETATM    4  H2  UNL     1     -11.411  19.243  67.165  1.00  0.00     0.000 HD 
ENDROOT
BRANCH   2   5
HETATM    5  C   UNL     1      -9.104  19.195  65.839  1.00  0.00     0.101 C  
HETATM    6  O   UNL     1      -8.481  18.074  66.493  1.00  0.00    -0.255 OA 
HETATM    7  C   UNL     1      -7.111  18.325  66.798  1.00  0.00    -0.206 C  
HETATM    8  C   UNL     1      -7.037  19.442  67.879  1.00  0.00    -0.256 C  
HETATM    9  O   UNL     1     -10.078  20.116  67.868  1.00  0.00    -0.406 OA 
HETATM   10  H   UNL     1     -10.114  20.859  68.459  1.00  0.00     0.000 HD 
HETATM   11  N   UNL     1      -7.664  18.988  69.156  1.00  0.00    -0.240 NA 
HETATM   12  C   UNL     1      -7.747  20.708  67.346  1.00  0.00    -0.311 C  
HETATM   13  H2  UNL     1      -7.253  18.115  69.488  1.00  0.00     0.000 HD 
HETATM   14  O   UNL     1      -6.948  21.369  66.355  1.00  0.00    -0.670 OA 
HETATM   15  C   UNL     1      -9.162  20.400  66.801  1.00  0.00    -0.273 C  
HETATM   16  H1  UNL     1      -7.615  19.721  69.864  1.00  0.00     0.000 HD 
HETATM   17  H   UNL     1      -7.384  22.147  66.027  1.00  0.00     0.000 HD 
BRANCH   7  18
HETATM   18  O   UNL     1      -6.473  17.152  67.310  1.00  0.00    -0.134 OA 
BRANCH  18  19
HETATM   19  C   UNL     1      -7.021  15.920  66.805  1.00  0.00     0.093 C  
HETATM   20  O   UNL     1      -5.316  14.688  68.110  1.00  0.00    -0.108 OA 
HETATM   21  C   UNL     1      -8.535  16.019  66.980  1.00  0.00    -0.214 C  
HETATM   22  C   UNL     1      -7.730  14.703  68.728  1.00  0.00    -0.137 C  
HETATM   23  H   UNL     1      -5.091  13.919  68.621  1.00  0.00     0.000 HD 
HETATM   24  O   UNL     1      -8.857  15.444  68.255  1.00  0.00    -0.169 OA 
HETATM   25  C   UNL     1      -6.661  14.692  67.623  1.00  0.00    -0.155 C  
BRANCH  21  26
HETATM   26  C   UNL     1      -9.332  15.280  65.904  1.00  0.00    -0.273 C  
HETATM   27  H   UNL     1     -11.225  15.055  65.387  1.00  0.00     0.000 HD 
HETATM   28  O   UNL     1     -10.730  15.514  66.055  1.00  0.00    -0.316 OA 
ENDBRANCH  21  26
BRANCH  22  29
HETATM   29  O   UNL     1      -8.097  13.358  69.019  1.00  0.00     0.081 OA 
BRANCH  29  30
HETATM   30  C   UNL     1      -9.407  12.903  68.628  1.00  0.00     0.019 C  
HETATM   31  C   UNL     1     -10.433  13.207  69.737  1.00  0.00     0.930 C  
HETATM   32  O   UNL     1     -10.289  14.560  70.191  1.00  0.00    -0.405 OA 
HETATM   33  C   UNL     1     -11.861  12.983  69.227  1.00  0.00    -0.316 C  
HETATM   34  C   UNL     1     -12.028  11.516  68.833  1.00  0.00    -0.364 C  
HETATM   35  N   UNL     1     -12.855  13.362  70.249  1.00  0.00     0.008 NA 
HETATM   36  H   UNL     1     -10.920  14.747  70.875  1.00  0.00     0.000 HD 
HETATM   37  H1  UNL     1     -13.805  13.213  69.910  1.00  0.00     0.000 HD 
HETATM   38  H2  UNL     1     -12.717  14.319  70.571  1.00  0.00     0.000 HD 
HETATM   39  C   UNL     1     -10.992  11.079  67.784  1.00  0.00    -0.269 C  
HETATM   40  C   UNL     1      -9.502  11.425  68.160  1.00  0.00    -0.181 C  
HETATM   41  N   UNL     1     -11.162   9.632  67.532  1.00  0.00    -0.374 NA 
HETATM   42  H2  UNL     1     -12.116   9.391  67.265  1.00  0.00     0.000 HD 
HETATM   43  H1  UNL     1     -10.475   9.343  66.836  1.00  0.00     0.000 HD 
BRANCH  40  44
HETATM   44  O   UNL     1      -8.702  11.116  66.995  1.00  0.00    -0.141 OA 
BRANCH  44  45
HETATM   45  C   UNL     1      -7.656  10.155  67.199  1.00  0.00    -0.092 C  
HETATM   46  O   UNL     1      -8.037   8.856  66.758  1.00  0.00    -0.109 OA 
HETATM   47  C   UNL     1      -8.203   8.713  65.348  1.00  0.00    -0.136 C  
HETATM   48  C   UNL     1      -6.887   9.033  64.634  1.00  0.00    -0.084 C  
HETATM   49  H1  UNL     1      -4.997  12.236  66.490  1.00  0.00     0.000 HD 
HETATM   50  H2  UNL     1      -5.813  12.030  67.940  1.00  0.00     0.000 HD 
HETATM   51  O   UNL     1      -7.001   8.938  63.213  1.00  0.00    -0.090 OA 
HETATM   52  C   UNL     1      -6.425  10.447  65.012  1.00  0.00    -0.086 C  
HETATM   53  H   UNL     1      -6.184   9.136  62.770  1.00  0.00     0.000 HD 
HETATM   54  O   UNL     1      -5.142  10.708  64.417  1.00  0.00    -0.139 OA 
HETATM   55  N   UNL     1      -5.874  11.948  66.925  1.00  0.00    -0.184 NA 
HETATM   56  C   UNL     1      -6.324  10.592  66.539  1.00  0.00    -0.094 C  
HETATM   57  H   UNL     1      -4.855  11.583  64.651  1.00  0.00     0.000 HD 
BRANCH  47  58
HETATM   58  C   UNL     1      -8.649   7.268  65.089  1.00  0.00     0.061 C  
HETATM   59  O   UNL     1      -8.494   6.480  66.273  1.00  0.00    -0.118 OA 
HETATM   60  H   UNL     1      -8.770   5.586  66.113  1.00  0.00     0.000 HD 
ENDBRANCH  47  58
ENDBRANCH  44  45
ENDBRANCH  40  44
ENDBRANCH  29  30
ENDBRANCH  22  29
ENDBRANCH  18  19
ENDBRANCH   7  18
ENDBRANCH   2   5
TORSDOF 9
ENDMDL
MODEL      263
REMARK 921   NORMALIZED FREE ENERGY PREDICTED BY IDOCK:   -1.51 KCAL/MOL
REMARK 922        TOTAL FREE ENERGY PREDICTED BY IDOCK:   -4.35 KCAL/MOL
REMARK 923 INTER-LIGAND FREE ENERGY PREDICTED BY IDOCK:   -3.42 KCAL/MOL
REMARK 924 INTRA-LIGAND FREE ENERGY PREDICTED BY IDOCK:   -0.93 KCAL/MOL
REMARK 927      BINDING AFFINITY PREDICTED BY RF-SCORE:    0.00 PKD
ROOT
HETATM    1  N   UNL     1      -7.979   8.717  72.836  1.00  0.00    -0.400 NA 
HETATM    2  C   UNL     1      -9.337   9.178  72.485  1.00  0.00     0.929 C  
HETATM    3  H1  UNL     1      -7.663   9.185  73.686  1.00  0.00     0.000 HD 
HETATM    4  H2  UNL     1      -7.322   8.838  72.065  1.00  0.00     0.000 HD 
ENDROOT
BRANCH   2   5
HETATM    5  C   UNL     1      -9.813   8.472  71.204  1.00  0.00    -0.206 C  
HETATM    6  O   UNL     1      -9.249   9.189  70.090  1.00  0.00    -0.174 OA 
HETATM    7  C   UNL     1      -9.456   8.508  68.854  1.00  0.00    -0.147 C  
HETATM    8  C   UNL     1     -10.978   8.510  68.533  1.00  0.00     0.195 C  
HETATM    9  O   UNL     1     -11.890   9.736  71.247  1.00  0.00    -0.340 OA 
HETATM   10  H   UNL     1     -12.836   9.704  71.166  1.00  0.00     0.000 HD 
HETATM   11  N   UNL     1     -11.475   9.902  68.321  1.00  0.00    -0.557 NA 
HETATM   12  C   UNL     1     -11.741   7.832  69.695  1.00  0.00     0.562 C  
HETATM   13  H2  UNL     1     -10.937  10.389  67.603  1.00  0.00     0.000 HD 
HETATM   14  O   UNL     1     -11.558   6.410  69.672  1.00  0.00    -0.549 OA 
HETATM   15  C   UNL     1     -11.350   8.419  71.072  1.00  0.00    -0.266 C  
HETATM   16  H1  UNL     1     -12.473   9.903  68.110  1.00  0.00     0.000 HD 
HETATM   17  H   UNL     1     -12.027   5.994  70.386  1.00  0.00     0.000 HD 
BRANCH   7  18
HETATM   18  O   UNL     1      -8.763   9.158  67.785  1.00  0.00    -0.121 OA 
BRANCH  18  19
HETATM   19  C   UNL     1      -7.399   8.728  67.626  1.00  0.00    -0.085 C  
HETATM   20  O   UNL     1      -7.933   6.711  68.958  1.00  0.00    -0.109 OA 
HETATM   21  C   UNL     1      -7.067   8.888  66.144  1.00  0.00    -0.085 C  
HETATM   22  C   UNL     1      -7.519   6.629  66.502  1.00  0.00    -0.078 C  
HETATM   23  H   UNL     1      -7.794   5.783  69.109  1.00  0.00     0.000 HD 
HETATM   24  O   UNL     1      -7.359   7.638  65.502  1.00  0.00    -0.069 OA 
HETATM   25  C   UNL     1      -7.176   7.244  67.869  1.00  0.00    -0.091 C  
BRANCH  21  26
HETATM   26  C   UNL     1      -5.603   9.238  65.871  1.00  0.00    -0.045 C  
HETATM   27  H   UNL     1      -4.502   9.809  64.334  1.00  0.00     0.000 HD 
HETATM   28  O   UNL     1      -5.410   9.592  64.503  1.00  0.00    -0.056 OA 
ENDBRANCH  21  26
BRANCH  22  29
HETATM   29  O   UNL     1      -6.638   5.536  66.261  1.00  0.00    -0.052 OA 
BRANCH  29  30
HETATM   30  C   UNL     1      -7.209   4.252  65.942  1.00  0.00    -0.072 C  
HETATM   31  C   UNL     1      -7.965   4.321  64.601  1.00  0.00    -0.090 C  
HETATM   32  O   UNL     1      -7.161   4.974  63.609  1.00  0.00    -0.047 OA 
HETATM   33  C   UNL     1      -8.336   2.913  64.120  1.00  0.00    -0.086 C  
HETATM   34  C   UNL     1      -9.268   2.264  65.143  1.00  0.00    -0.099 C  
HETATM   35  N   UNL     1      -8.977   2.959  62.791  1.00  0.00    -0.088 NA 
HETATM   36  H   UNL     1      -7.627   5.016  62.783  1.00  0.00     0.000 HD 
HETATM   37  H1  UNL     1      -9.224   2.023  62.471  1.00  0.00     0.000 HD 
HETATM   38  H2  UNL     1      -8.396   3.448  62.111  1.00  0.00     0.000 HD 
HETATM   39  C   UNL     1      -8.642   2.220  66.547  1.00  0.00    -0.111 C  
HETATM   40  C   UNL     1      -8.081   3.603  67.051  1.00  0.00    -0.091 C  
HETATM   41  N   UNL     1      -9.639   1.667  67.487  1.00  0.00    -0.401 NA 
HETATM   42  H2  UNL     1      -9.998   0.760  67.189  1.00  0.00     0.000 HD 
HETATM   43  H1  UNL     1      -9.223   1.638  68.418  1.00  0.00     0.000 HD 
BRANCH  40  44
HETATM   44  O   UNL     1      -7.376   3.334  68.285  1.00  0.00    -0.050 OA 
BRANCH  44  45
HETATM   45  C   UNL     1      -7.687   4.208  69.379  1.00  0.00    -0.053 C  
HETATM   46  O   UNL     1      -8.798   3.737  70.133  1.00  0.00    -0.068 OA 
HETATM   47  C   UNL     1      -8.576   2.531  70.863  1.00  0.00    -0.059 C  
HETATM   48  C   UNL     1      -7.439   2.734  71.868  1.00  0.00    -0.044 C  
HETATM   49  H1  UNL     1      -4.448   5.080  70.187  1.00  0.00     0.000 HD 
HETATM   50  H2  UNL     1      -5.461   5.752  69.033  1.00  0.00     0.000 HD 
HETATM   51  O   UNL     1      -7.148   1.547  72.609  1.00  0.00    -0.022 OA 
HETATM   52  C   UNL     1      -6.174   3.195  71.132  1.00  0.00    -0.018 C  
HETATM   53  H   UNL     1      -6.443   1.673  73.233  1.00  0.00     0.000 HD 
HETATM   54  O   UNL     1      -5.137   3.477  72.087  1.00  0.00     0.000 OA 
HETATM   55  N   UNL     1      -5.253   4.918  69.583  1.00  0.00     0.000 NA 
HETATM   56  C   UNL     1      -6.464   4.453  70.298  1.00  0.00    -0.031 C  
HETATM   57  H   UNL     1      -4.354   3.762  71.631  1.00  0.00     0.000 HD 
BRANCH  47  58
HETATM   58  C   UNL     1      -9.894   2.177  71.565  1.00  0.00    -0.132 C  
HETATM   59  O   UNL     1      -9.961   2.812  72.845  1.00  0.00    -0.115 OA 
HETATM   60  H   UNL     1     -10.776   2.593  73.279  1.00  0.00     0.000 HD 
ENDBRANCH  47  58
ENDBRANCH  44  45
ENDBRANCH  40  44
ENDBRANCH  29  30
ENDBRANCH  22  29
ENDBRANCH  18  19
ENDBRANCH   7  18
ENDBRANCH   2   5
TORSDOF 9
ENDMDL
MODEL      264
REMARK 921   NORMALIZED FREE ENERGY PREDICTED BY IDOCK:   -1.48 KCAL/MOL
REMARK 922        TOTAL FREE ENERGY PREDICTED BY IDOCK:   -4.30 KCAL/MOL
REMARK 923 INTER-LIGAND FREE ENERGY PREDICTED BY IDOCK:   -4.65 KCAL/MOL
REMARK 924 INTRA-LIGAND FREE ENERGY PREDICTED BY IDOCK:    0.35 KCAL/MOL
REMARK 927      BINDING AFFINITY PREDICTED BY RF-SCORE:    0.00 PKD
ROOT
HETATM    1  N   UNL     1     -12.669  10.948  70.330  1.00  0.00    -0.285 NA 
HETATM    2  C   UNL     1     -13.123  11.635  71.557  1.00  0.00    -0.302 C  
HETATM    3  H1  UNL     1     -12.694   9.938  70.469  1.00  0.00     0.000 HD 
HETATM    4  H2  UNL     1     -11.749  11.271  70.029  1.00  0.00     0.000 HD 
ENDROOT
BRANCH   2   5
HETATM    5  C   UNL     1     -13.085  13.158  71.347  1.00  0.00    -0.266 C  
HETATM    6  O   UNL     1     -11.701  13.536  71.237  1.00  0.00     0.218 OA 
HETATM    7  C   UNL     1     -11.546  14.897  70.840  1.00  0.00    -0.297 C  
HETATM    8  C   UNL     1     -12.066  15.813  71.985  1.00  0.00    -0.473 C  
HETATM    9  O   UNL     1     -13.219  13.519  73.748  1.00  0.00     0.637 OA 
HETATM   10  H   UNL     1     -13.633  14.004  74.452  1.00  0.00     0.000 HD 
HETATM   11  N   UNL     1     -11.235  15.650  73.215  1.00  0.00     0.464 NA 
HETATM   12  C   UNL     1     -13.544  15.466  72.278  1.00  0.00    -0.503 C  
HETATM   13  H2  UNL     1     -10.245  15.808  73.025  1.00  0.00     0.000 HD 
HETATM   14  O   UNL     1     -14.406  15.967  71.248  1.00  0.00    -0.422 OA 
HETATM   15  C   UNL     1     -13.758  13.948  72.490  1.00  0.00    -0.560 C  
HETATM   16  H1  UNL     1     -11.576  16.250  73.965  1.00  0.00     0.000 HD 
HETATM   17  H   UNL     1     -15.314  15.753  71.428  1.00  0.00     0.000 HD 
BRANCH   7  18
HETATM   18  O   UNL     1     -10.173  15.209  70.593  1.00  0.00    -0.020 OA 
BRANCH  18  19
HETATM   19  C   UNL     1      -9.837  15.307  69.197  1.00  0.00    -0.239 C  
HETATM   20  O   UNL     1      -7.530  14.604  69.756  1.00  0.00    -0.360 OA 
HETATM   21  C   UNL     1     -10.945  14.584  68.435  1.00  0.00    -0.245 C  
HETATM   22  C   UNL     1      -9.134  13.122  68.555  1.00  0.00    -0.053 C  
HETATM   23  H   UNL     1      -6.750  14.124  69.505  1.00  0.00     0.000 HD 
HETATM   24  O   UNL     1     -10.530  13.220  68.267  1.00  0.00    -0.237 OA 
HETATM   25  C   UNL     1      -8.588  14.539  68.797  1.00  0.00    -0.145 C  
BRANCH  21  26
HETATM   26  C   UNL     1     -11.234  15.173  67.053  1.00  0.00    -0.308 C  
HETATM   27  H   UNL     1     -10.732  16.778  66.018  1.00  0.00     0.000 HD 
HETATM   28  O   UNL     1     -10.553  16.413  66.876  1.00  0.00    -0.305 OA 
ENDBRANCH  21  26
BRANCH  22  29
HETATM   29  O   UNL     1      -8.431  12.544  67.459  1.00  0.00    -0.157 OA 
BRANCH  29  30
HETATM   30  C   UNL     1      -9.127  11.604  66.617  1.00  0.00    -0.194 C  
HETATM   31  C   UNL     1     -10.242  12.317  65.827  1.00  0.00    -0.255 C  
HETATM   32  O   UNL     1      -9.740  13.522  65.233  1.00  0.00    -0.527 OA 
HETATM   33  C   UNL     1     -10.800  11.397  64.735  1.00  0.00    -0.273 C  
HETATM   34  C   UNL     1     -11.416  10.160  65.389  1.00  0.00     2.383 C  
HETATM   35  N   UNL     1     -11.803  12.100  63.911  1.00  0.00    -0.433 NA 
HETATM   36  H   UNL     1     -10.427  13.961  64.747  1.00  0.00     0.000 HD 
HETATM   37  H1  UNL     1     -12.175  11.488  63.185  1.00  0.00     0.000 HD 
HETATM   38  H2  UNL     1     -11.428  12.963  63.519  1.00  0.00     0.000 HD 
HETATM   39  C   UNL     1     -10.404   9.413  66.276  1.00  0.00    -0.141 C  
HETATM   40  C   UNL     1      -9.660  10.327  67.321  1.00  0.00    -0.159 C  
HETATM   41  N   UNL     1     -11.103   8.293  66.940  1.00  0.00    -0.097 NA 
HETATM   42  H2  UNL     1     -11.573   7.677  66.277  1.00  0.00     0.000 HD 
HETATM   43  H1  UNL     1     -10.432   7.798  67.528  1.00  0.00     0.000 HD 
BRANCH  40  44
HETATM   44  O   UNL     1      -8.634   9.506  67.925  1.00  0.00    -0.119 OA 
BRANCH  44  45
HETATM   45  C   UNL     1      -9.017   8.156  68.224  1.00  0.00    -0.136 C  
HETATM   46  O   UNL     1      -8.063   7.216  67.744  1.00  0.00    -0.113 OA 
HETATM   47  C   UNL     1      -6.795   7.242  68.399  1.00  0.00    -0.073 C  
HETATM   48  C   UNL     1      -6.973   6.938  69.888  1.00  0.00    -0.062 C  
HETATM   49  H1  UNL     1     -10.422   8.768  71.316  1.00  0.00     0.000 HD 
HETATM   50  H2  UNL     1     -11.123   8.897  69.799  1.00  0.00     0.000 HD 
HETATM   51  O   UNL     1      -5.738   6.982  70.605  1.00  0.00    -0.026 OA 
HETATM   52  C   UNL     1      -7.954   7.944  70.507  1.00  0.00    -0.097 C  
HETATM   53  H   UNL     1      -5.848   6.793  71.529  1.00  0.00     0.000 HD 
HETATM   54  O   UNL     1      -8.193   7.599  71.882  1.00  0.00    -0.102 OA 
HETATM   55  N   UNL     1     -10.246   8.907  70.321  1.00  0.00    -0.192 NA 
HETATM   56  C   UNL     1      -9.283   7.945  69.736  1.00  0.00    -0.150 C  
HETATM   57  H   UNL     1      -8.800   8.222  72.265  1.00  0.00     0.000 HD 
BRANCH  47  58
HETATM   58  C   UNL     1      -5.909   6.194  67.711  1.00  0.00    -0.016 C  
HETATM   59  O   UNL     1      -5.503   5.194  68.650  1.00  0.00    -0.009 OA 
HETATM   60  H   UNL     1      -4.954   4.546  68.225  1.00  0.00     0.000 HD 
ENDBRANCH  47  58
ENDBRANCH  44  45
ENDBRANCH  40  44
ENDBRANCH  29  30
ENDBRANCH  22  29
ENDBRANCH  18  19
ENDBRANCH   7  18
ENDBRANCH   2   5
TORSDOF 9
ENDMDL
MODEL      265
REMARK 921   NORMALIZED FREE ENERGY PREDICTED BY IDOCK:   -1.46 KCAL/MOL
REMARK 922        TOTAL FREE ENERGY PREDICTED BY IDOCK:   -4.27 KCAL/MOL
REMARK 923 INTER-LIGAND FREE ENERGY PREDICTED BY IDOCK:   -6.66 KCAL/MOL
REMARK 924 INTRA-LIGAND FREE ENERGY PREDICTED BY IDOCK:    2.39 KCAL/MOL
REMARK 927      BINDING AFFINITY PREDICTED BY RF-SCORE:    0.00 PKD
ROOT
HETATM    1  N   UNL     1      -5.758  11.808  69.118  1.00  0.00    -0.056 NA 
HETATM    2  C   UNL     1      -5.472  10.360  69.188  1.00  0.00    -0.038 C  
HETATM    3  H1  UNL     1      -5.233  12.300  69.841  1.00  0.00     0.000 HD 
HETATM    4  H2  UNL     1      -6.757  12.004  69.169  1.00  0.00     0.000 HD 
ENDROOT
BRANCH   2   5
HETATM    5  C   UNL     1      -6.263   9.619  68.097  1.00  0.00    -0.055 C  
HETATM    6  O   UNL     1      -7.638   9.582  68.522  1.00  0.00    -0.080 OA 
HETATM    7  C   UNL     1      -8.503   9.096  67.497  1.00  0.00    -0.116 C  
HETATM    8  C   UNL     1      -8.179   7.596  67.241  1.00  0.00    -0.119 C  
HETATM    9  O   UNL     1      -5.673   7.477  69.087  1.00  0.00    -0.024 OA 
HETATM   10  H   UNL     1      -5.358   6.595  68.930  1.00  0.00     0.000 HD 
HETATM   11  N   UNL     1      -8.477   6.774  68.451  1.00  0.00    -0.122 NA 
HETATM   12  C   UNL     1      -6.690   7.461  66.846  1.00  0.00    -0.065 C  
HETATM   13  H2  UNL     1      -9.438   6.903  68.768  1.00  0.00     0.000 HD 
HETATM   14  O   UNL     1      -6.468   7.920  65.505  1.00  0.00    -0.042 OA 
HETATM   15  C   UNL     1      -5.752   8.185  67.842  1.00  0.00    -0.038 C  
HETATM   16  H1  UNL     1      -8.264   5.790  68.283  1.00  0.00     0.000 HD 
HETATM   17  H   UNL     1      -5.553   7.837  65.263  1.00  0.00     0.000 HD 
BRANCH   7  18
HETATM   18  O   UNL     1      -9.875   9.207  67.885  1.00  0.00    -0.156 OA 
BRANCH  18  19
HETATM   19  C   UNL     1     -10.543  10.364  67.349  1.00  0.00    -0.269 C  
HETATM   20  O   UNL     1     -11.857  10.510  69.441  1.00  0.00    -0.417 OA 
HETATM   21  C   UNL     1      -9.449  11.272  66.790  1.00  0.00    -0.179 C  
HETATM   22  C   UNL     1     -10.060  12.138  68.865  1.00  0.00     0.006 C  
HETATM   23  H   UNL     1     -12.277  11.058  70.094  1.00  0.00     0.000 HD 
HETATM   24  O   UNL     1      -9.072  12.181  67.834  1.00  0.00    -0.170 OA 
HETATM   25  C   UNL     1     -11.215  11.240  68.393  1.00  0.00    -0.262 C  
BRANCH  21  26
HETATM   26  C   UNL     1      -9.886  12.090  65.573  1.00  0.00    -0.229 C  
HETATM   27  H   UNL     1     -10.964  11.816  63.941  1.00  0.00     0.000 HD 
HETATM   28  O   UNL     1     -10.693  11.308  64.696  1.00  0.00    -0.321 OA 
ENDBRANCH  21  26
BRANCH  22  29
HETATM   29  O   UNL     1     -10.575  13.441  69.127  1.00  0.00    -0.142 OA 
BRANCH  29  30
HETATM   30  C   UNL     1     -10.809  14.323  68.012  1.00  0.00    -0.239 C  
HETATM   31  C   UNL     1     -11.711  13.636  66.967  1.00  0.00    -0.384 C  
HETATM   32  O   UNL     1     -12.843  13.032  67.608  1.00  0.00     0.533 OA 
HETATM   33  C   UNL     1     -12.190  14.649  65.921  1.00  0.00    -0.156 C  
HETATM   34  C   UNL     1     -10.978  15.217  65.182  1.00  0.00    -0.428 C  
HETATM   35  N   UNL     1     -13.130  14.025  64.970  1.00  0.00    -0.717 NA 
HETATM   36  H   UNL     1     -13.399  12.610  66.964  1.00  0.00     0.000 HD 
HETATM   37  H1  UNL     1     -13.448  14.698  64.273  1.00  0.00     0.000 HD 
HETATM   38  H2  UNL     1     -13.913  13.584  65.451  1.00  0.00     0.000 HD 
HETATM   39  C   UNL     1      -9.963  15.856  66.146  1.00  0.00    -0.314 C  
HETATM   40  C   UNL     1      -9.543  14.933  67.351  1.00  0.00    -0.206 C  
HETATM   41  N   UNL     1      -8.787  16.292  65.364  1.00  0.00     0.132 NA 
HETATM   42  H2  UNL     1      -9.036  16.909  64.591  1.00  0.00     0.000 HD 
HETATM   43  H1  UNL     1      -8.114  16.716  66.003  1.00  0.00     0.000 HD 
BRANCH  40  44
HETATM   44  O   UNL     1      -8.745  15.754  68.236  1.00  0.00    -0.167 OA 
BRANCH  44  45
HETATM   45  C   UNL     1      -7.375  15.930  67.849  1.00  0.00    -0.134 C  
HETATM   46  O   UNL     1      -7.172  17.161  67.164  1.00  0.00    -0.152 OA 
HETATM   47  C   UNL     1      -7.336  18.336  67.956  1.00  0.00    -0.239 C  
HETATM   48  C   UNL     1      -6.335  18.328  69.113  1.00  0.00    -0.248 C  
HETATM   49  H1  UNL     1      -5.938  14.479  70.630  1.00  0.00     0.000 HD 
HETATM   50  H2  UNL     1      -6.500  13.743  69.233  1.00  0.00     0.000 HD 
HETATM   51  O   UNL     1      -6.474  19.469  69.963  1.00  0.00    -0.287 OA 
HETATM   52  C   UNL     1      -6.518  17.051  69.945  1.00  0.00     0.031 C  
HETATM   53  H   UNL     1      -5.852  19.464  70.680  1.00  0.00     0.000 HD 
HETATM   54  O   UNL     1      -5.514  16.999  70.974  1.00  0.00    -0.136 OA 
HETATM   55  N   UNL     1      -6.575  14.561  69.838  1.00  0.00    -0.158 NA 
HETATM   56  C   UNL     1      -6.407  15.805  69.053  1.00  0.00    -0.126 C  
HETATM   57  H   UNL     1      -5.627  16.209  71.489  1.00  0.00     0.000 HD 
BRANCH  47  58
HETATM   58  C   UNL     1      -7.119  19.541  67.029  1.00  0.00    -0.202 C  
HETATM   59  O   UNL     1      -5.802  20.071  67.207  1.00  0.00    -0.171 OA 
HETATM   60  H   UNL     1      -5.667  20.816  66.633  1.00  0.00     0.000 HD 
ENDBRANCH  47  58
ENDBRANCH  44  45
ENDBRANCH  40  44
ENDBRANCH  29  30
ENDBRANCH  22  29
ENDBRANCH  18  19
ENDBRANCH   7  18
ENDBRANCH   2   5
TORSDOF 9
ENDMDL
MODEL      266
REMARK 921   NORMALIZED FREE ENERGY PREDICTED BY IDOCK:   -1.34 KCAL/MOL
REMARK 922        TOTAL FREE ENERGY PREDICTED BY IDOCK:   -4.08 KCAL/MOL
REMARK 923 INTER-LIGAND FREE ENERGY PREDICTED BY IDOCK:   -6.41 KCAL/MOL
REMARK 924 INTRA-LIGAND FREE ENERGY PREDICTED BY IDOCK:    2.33 KCAL/MOL
REMARK 927      BINDING AFFINITY PREDICTED BY RF-SCORE:    0.00 PKD
ROOT
HETATM    1  N   UNL     1      -8.507  18.325  66.744  1.00  0.00    -0.252 NA 
HETATM    2  C   UNL     1      -8.856  17.107  65.985  1.00  0.00    -0.107 C  
HETATM    3  H1  UNL     1      -8.246  19.072  66.100  1.00  0.00     0.000 HD 
HETATM    4  H2  UNL     1      -7.782  18.147  67.440  1.00  0.00     0.000 HD 
ENDROOT
BRANCH   2   5
HETATM    5  C   UNL     1      -9.250  15.981  66.955  1.00  0.00    -0.212 C  
HETATM    6  O   UNL     1     -10.037  15.034  66.209  1.00  0.00    -0.257 OA 
HETATM    7  C   UNL     1     -10.291  13.844  66.953  1.00  0.00    -0.266 C  
HETATM    8  C   UNL     1     -11.216  14.195  68.154  1.00  0.00    -0.276 C  
HETATM    9  O   UNL     1     -11.152  17.280  67.735  1.00  0.00    -0.257 OA 
HETATM   10  H   UNL     1     -11.642  17.589  68.488  1.00  0.00     0.000 HD 
HETATM   11  N   UNL     1     -12.548  14.671  67.678  1.00  0.00    -0.218 NA 
HETATM   12  C   UNL     1     -10.530  15.276  69.021  1.00  0.00    -0.248 C  
HETATM   13  H2  UNL     1     -12.987  13.998  67.049  1.00  0.00     0.000 HD 
HETATM   14  O   UNL     1      -9.453  14.718  69.785  1.00  0.00    -0.424 OA 
HETATM   15  C   UNL     1     -10.047  16.481  68.179  1.00  0.00    -0.255 C  
HETATM   16  H1  UNL     1     -13.154  14.901  68.466  1.00  0.00     0.000 HD 
HETATM   17  H   UNL     1      -9.032  15.383  70.318  1.00  0.00     0.000 HD 
BRANCH   7  18
HETATM   18  O   UNL     1     -10.945  12.861  66.145  1.00  0.00    -0.275 OA 
BRANCH  18  19
HETATM   19  C   UNL     1     -10.643  11.504  66.517  1.00  0.00    -0.258 C  
HETATM   20  O   UNL     1      -8.936  11.447  64.726  1.00  0.00    -0.393 OA 
HETATM   21  C   UNL     1     -10.498  11.497  68.037  1.00  0.00    -0.189 C  
HETATM   22  C   UNL     1      -8.344  11.511  67.145  1.00  0.00    -0.160 C  
HETATM   23  H   UNL     1      -8.089  11.137  64.428  1.00  0.00     0.000 HD 
HETATM   24  O   UNL     1      -9.110  11.709  68.335  1.00  0.00    -0.180 OA 
HETATM   25  C   UNL     1      -9.288  11.009  66.041  1.00  0.00    -0.201 C  
BRANCH  21  26
HETATM   26  C   UNL     1     -10.936  10.187  68.695  1.00  0.00    -0.230 C  
HETATM   27  H   UNL     1     -12.604   9.392  69.393  1.00  0.00     0.000 HD 
HETATM   28  O   UNL     1     -12.332  10.205  68.985  1.00  0.00     0.140 OA 
ENDBRANCH  21  26
BRANCH  22  29
HETATM   29  O   UNL     1      -7.329  10.534  67.355  1.00  0.00    -0.090 OA 
BRANCH  29  30
HETATM   30  C   UNL     1      -7.619   9.161  67.026  1.00  0.00    -0.091 C  
HETATM   31  C   UNL     1      -7.837   9.009  65.508  1.00  0.00    -0.096 C  
HETATM   32  O   UNL     1      -6.793   9.677  64.786  1.00  0.00    -0.099 OA 
HETATM   33  C   UNL     1      -7.871   7.528  65.114  1.00  0.00    -0.122 C  
HETATM   34  C   UNL     1      -9.045   6.849  65.819  1.00  0.00     0.023 C  
HETATM   35  N   UNL     1      -7.984   7.371  63.652  1.00  0.00    -0.253 NA 
HETATM   36  H   UNL     1      -6.927   9.584  63.851  1.00  0.00     0.000 HD 
HETATM   37  H1  UNL     1      -8.007   6.386  63.389  1.00  0.00     0.000 HD 
HETATM   38  H2  UNL     1      -7.244   7.873  63.161  1.00  0.00     0.000 HD 
HETATM   39  C   UNL     1      -8.972   7.013  67.347  1.00  0.00    -0.117 C  
HETATM   40  C   UNL     1      -8.769   8.498  67.831  1.00  0.00    -0.138 C  
HETATM   41  N   UNL     1     -10.186   6.414  67.940  1.00  0.00    -0.151 NA 
HETATM   42  H2  UNL     1     -10.324   5.444  67.655  1.00  0.00     0.000 HD 
HETATM   43  H1  UNL     1     -10.138   6.522  68.953  1.00  0.00     0.000 HD 
BRANCH  40  44
HETATM   44  O   UNL     1      -8.540   8.436  69.258  1.00  0.00    -0.127 OA 
BRANCH  44  45
HETATM   45  C   UNL     1      -7.277   7.886  69.659  1.00  0.00    -0.070 C  
HETATM   46  O   UNL     1      -6.411   8.881  70.191  1.00  0.00    -0.039 OA 
HETATM   47  C   UNL     1      -6.818   9.444  71.438  1.00  0.00     0.085 C  
HETATM   48  C   UNL     1      -6.902   8.345  72.501  1.00  0.00    -0.088 C  
HETATM   49  H1  UNL     1      -8.462   4.869  70.842  1.00  0.00     0.000 HD 
HETATM   50  H2  UNL     1      -8.062   5.298  69.272  1.00  0.00     0.000 HD 
HETATM   51  O   UNL     1      -7.338   8.845  73.767  1.00  0.00    -0.391 OA 
HETATM   52  C   UNL     1      -7.864   7.245  72.032  1.00  0.00    -0.090 C  
HETATM   53  H   UNL     1      -7.390   8.164  74.427  1.00  0.00     0.000 HD 
HETATM   54  O   UNL     1      -7.869   6.170  72.988  1.00  0.00    -0.104 OA 
HETATM   55  N   UNL     1      -8.354   5.643  70.187  1.00  0.00    -0.116 NA 
HETATM   56  C   UNL     1      -7.441   6.710  70.655  1.00  0.00    -0.083 C  
HETATM   57  H   UNL     1      -8.464   5.490  72.697  1.00  0.00     0.000 HD 
BRANCH  47  58
HETATM   58  C   UNL     1      -5.782  10.513  71.812  1.00  0.00     0.353 C  
HETATM   59  O   UNL     1      -5.284  11.155  70.635  1.00  0.00    -0.088 OA 
HETATM   60  H   UNL     1      -4.644  11.816  70.867  1.00  0.00     0.000 HD 
ENDBRANCH  47  58
ENDBRANCH  44  45
ENDBRANCH  40  44
ENDBRANCH  29  30
ENDBRANCH  22  29
ENDBRANCH  18  19
ENDBRANCH   7  18
ENDBRANCH   2   5
TORSDOF 9
ENDMDL
MODEL      267
REMARK 921   NORMALIZED FREE ENERGY PREDICTED BY IDOCK:   -1.25 KCAL/MOL
REMARK 922        TOTAL FREE ENERGY PREDICTED BY IDOCK:   -3.95 KCAL/MOL
REMARK 923 INTER-LIGAND FREE ENERGY PREDICTED BY IDOCK:   -7.31 KCAL/MOL
REMARK 924 INTRA-LIGAND FREE ENERGY PREDICTED BY IDOCK:    3.36 KCAL/MOL
REMARK 927      BINDING AFFINITY PREDICTED BY RF-SCORE:    0.00 PKD
ROOT
HETATM    1  N   UNL     1     -11.644  13.127  68.054  1.00  0.00    -0.312 NA 
HETATM    2  C   UNL     1     -11.153  13.678  66.775  1.00  0.00    -0.307 C  
HETATM    3  H1  UNL     1     -11.542  13.822  68.793  1.00  0.00     0.000 HD 
HETATM    4  H2  UNL     1     -11.189  12.245  68.291  1.00  0.00     0.000 HD 
ENDROOT
BRANCH   2   5
HETATM    5  C   UNL     1     -11.308  12.630  65.660  1.00  0.00    -0.322 C  
HETATM    6  O   UNL     1     -10.096  11.853  65.638  1.00  0.00    -0.229 OA 
HETATM    7  C   UNL     1     -10.201  10.719  64.780  1.00  0.00    -0.334 C  
HETATM    8  C   UNL     1     -10.323  11.216  63.310  1.00  0.00    -0.308 C  
HETATM    9  O   UNL     1     -10.563  14.244  64.001  1.00  0.00    -0.426 OA 
HETATM   10  H   UNL     1     -10.720  14.626  63.146  1.00  0.00     0.000 HD 
HETATM   11  N   UNL     1      -9.083  11.934  62.888  1.00  0.00    -0.580 NA 
HETATM   12  C   UNL     1     -11.555  12.143  63.190  1.00  0.00    -0.188 C  
HETATM   13  H2  UNL     1      -8.250  11.361  63.025  1.00  0.00     0.000 HD 
HETATM   14  O   UNL     1     -12.774  11.387  63.221  1.00  0.00    -0.657 OA 
HETATM   15  C   UNL     1     -11.562  13.251  64.270  1.00  0.00    -0.400 C  
HETATM   16  H1  UNL     1      -9.163  12.260  61.925  1.00  0.00     0.000 HD 
HETATM   17  H   UNL     1     -13.530  11.957  63.147  1.00  0.00     0.000 HD 
BRANCH   7  18
HETATM   18  O   UNL     1      -9.046   9.883  64.885  1.00  0.00    -0.189 OA 
BRANCH  18  19
HETATM   19  C   UNL     1      -9.295   8.619  65.526  1.00  0.00    -0.035 C  
HETATM   20  O   UNL     1      -7.337   7.687  64.334  1.00  0.00    -0.076 OA 
HETATM   21  C   UNL     1      -9.513   8.923  67.007  1.00  0.00    -0.166 C  
HETATM   22  C   UNL     1      -7.328   8.142  66.784  1.00  0.00    -0.083 C  
HETATM   23  H   UNL     1      -6.592   7.098  64.343  1.00  0.00     0.000 HD 
HETATM   24  O   UNL     1      -8.238   8.811  67.659  1.00  0.00    -0.109 OA 
HETATM   25  C   UNL     1      -8.103   7.677  65.541  1.00  0.00    -0.130 C  
BRANCH  21  26
HETATM   26  C   UNL     1     -10.491   7.970  67.698  1.00  0.00    -0.232 C  
HETATM   27  H   UNL     1     -11.628   7.966  69.313  1.00  0.00     0.000 HD 
HETATM   28  O   UNL     1     -11.020   8.557  68.884  1.00  0.00    -0.040 OA 
ENDBRANCH  21  26
BRANCH  22  29
HETATM   29  O   UNL     1      -6.762   7.001  67.421  1.00  0.00    -0.062 OA 
BRANCH  29  30
HETATM   30  C   UNL     1      -7.650   5.988  67.930  1.00  0.00    -0.097 C  
HETATM   31  C   UNL     1      -8.468   5.366  66.781  1.00  0.00    -0.107 C  
HETATM   32  O   UNL     1      -7.607   5.028  65.684  1.00  0.00    -0.083 OA 
HETATM   33  C   UNL     1      -9.206   4.112  67.263  1.00  0.00    -0.158 C  
HETATM   34  C   UNL     1     -10.187   4.502  68.368  1.00  0.00     0.075 C  
HETATM   35  N   UNL     1      -9.916   3.453  66.149  1.00  0.00    -0.386 NA 
HETATM   36  H   UNL     1      -8.110   4.645  64.977  1.00  0.00     0.000 HD 
HETATM   37  H1  UNL     1     -10.407   2.619  66.469  1.00  0.00     0.000 HD 
HETATM   38  H2  UNL     1      -9.287   3.245  65.374  1.00  0.00     0.000 HD 
HETATM   39  C   UNL     1      -9.484   5.212  69.538  1.00  0.00    -0.146 C  
HETATM   40  C   UNL     1      -8.568   6.418  69.107  1.00  0.00    -0.125 C  
HETATM   41  N   UNL     1     -10.512   5.636  70.512  1.00  0.00    -0.259 NA 
HETATM   42  H2  UNL     1     -11.102   4.864  70.820  1.00  0.00     0.000 HD 
HETATM   43  H1  UNL     1     -10.046   6.107  71.287  1.00  0.00     0.000 HD 
BRANCH  40  44
HETATM   44  O   UNL     1      -7.857   6.837  70.296  1.00  0.00    -0.105 OA 
BRANCH  44  45
HETATM   45  C   UNL     1      -6.429   6.913  70.169  1.00  0.00    -0.040 C  
HETATM   46  O   UNL     1      -6.026   8.044  69.405  1.00  0.00    -0.032 OA 
HETATM   47  C   UNL     1      -6.266   9.312  70.014  1.00  0.00    -0.043 C  
HETATM   48  C   UNL     1      -5.506   9.404  71.340  1.00  0.00    -0.063 C  
HETATM   49  H1  UNL     1      -5.640   5.753  73.321  1.00  0.00     0.000 HD 
HETATM   50  H2  UNL     1      -5.969   4.877  71.930  1.00  0.00     0.000 HD 
HETATM   51  O   UNL     1      -5.735  10.643  72.014  1.00  0.00    -0.264 OA 
HETATM   52  C   UNL     1      -5.921   8.245  72.255  1.00  0.00    -0.053 C  
HETATM   53  H   UNL     1      -5.263  10.701  72.836  1.00  0.00     0.000 HD 
HETATM   54  O   UNL     1      -5.137   8.279  73.460  1.00  0.00    -0.041 OA 
HETATM   55  N   UNL     1      -6.108   5.764  72.415  1.00  0.00    -0.039 NA 
HETATM   56  C   UNL     1      -5.718   6.897  71.545  1.00  0.00    -0.036 C  
HETATM   57  H   UNL     1      -5.394   7.561  74.027  1.00  0.00     0.000 HD 
BRANCH  47  58
HETATM   58  C   UNL     1      -5.803  10.387  69.021  1.00  0.00    -0.040 C  
HETATM   59  O   UNL     1      -6.473  11.624  69.281  1.00  0.00    -0.085 OA 
HETATM   60  H   UNL     1      -6.186  12.289  68.667  1.00  0.00     0.000 HD 
ENDBRANCH  47  58
ENDBRANCH  44  45
ENDBRANCH  40  44
ENDBRANCH  29  30
ENDBRANCH  22  29
ENDBRANCH  18  19
ENDBRANCH   7  18
ENDBRANCH   2   5
TORSDOF 9
ENDMDL
MODEL      268
REMARK 921   NORMALIZED FREE ENERGY PREDICTED BY IDOCK:   -1.23 KCAL/MOL
REMARK 922        TOTAL FREE ENERGY PREDICTED BY IDOCK:   -3.92 KCAL/MOL
REMARK 923 INTER-LIGAND FREE ENERGY PREDICTED BY IDOCK:   -3.75 KCAL/MOL
REMARK 924 INTRA-LIGAND FREE ENERGY PREDICTED BY IDOCK:   -0.17 KCAL/MOL
REMARK 927      BINDING AFFINITY PREDICTED BY RF-SCORE:    0.00 PKD
ROOT
HETATM    1  N   UNL     1     -12.256  16.382  72.862  1.00  0.00    -0.493 NA 
HETATM    2  C   UNL     1     -11.641  16.002  71.575  1.00  0.00    -0.456 C  
HETATM    3  H1  UNL     1     -12.183  17.390  72.997  1.00  0.00     0.000 HD 
HETATM    4  H2  UNL     1     -11.860  15.861  73.645  1.00  0.00     0.000 HD 
ENDROOT
BRANCH   2   5
HETATM    5  C   UNL     1     -11.751  14.481  71.372  1.00  0.00    -0.163 C  
HETATM    6  O   UNL     1     -11.131  14.176  70.109  1.00  0.00    -0.080 OA 
HETATM    7  C   UNL     1     -10.992  12.771  69.905  1.00  0.00     0.496 C  
HETATM    8  C   UNL     1     -12.410  12.147  69.756  1.00  0.00    -0.026 C  
HETATM    9  O   UNL     1     -13.990  14.737  70.459  1.00  0.00    -0.445 OA 
HETATM   10  H   UNL     1     -14.886  14.422  70.465  1.00  0.00     0.000 HD 
HETATM   11  N   UNL     1     -13.095  12.671  68.537  1.00  0.00     1.970 NA 
HETATM   12  C   UNL     1     -13.237  12.463  71.023  1.00  0.00     0.231 C  
HETATM   13  H2  UNL     1     -12.532  12.532  67.698  1.00  0.00     0.000 HD 
HETATM   14  O   UNL     1     -12.809  11.662  72.133  1.00  0.00    -0.270 OA 
HETATM   15  C   UNL     1     -13.207  13.968  71.381  1.00  0.00    -0.334 C  
HETATM   16  H1  UNL     1     -14.025  12.261  68.440  1.00  0.00     0.000 HD 
HETATM   17  H   UNL     1     -13.317  11.857  72.911  1.00  0.00     0.000 HD 
BRANCH   7  18
HETATM   18  O   UNL     1     -10.244  12.494  68.719  1.00  0.00    -0.188 OA 
BRANCH  18  19
HETATM   19  C   UNL     1      -9.344  11.378  68.843  1.00  0.00    -0.032 C  
HETATM   20  O   UNL     1     -11.306   9.892  69.108  1.00  0.00    -0.410 OA 
HETATM   21  C   UNL     1      -8.335  11.508  67.703  1.00  0.00    -0.135 C  
HETATM   22  C   UNL     1      -9.899   9.908  67.051  1.00  0.00    -0.191 C  
HETATM   23  H   UNL     1     -11.705   9.045  68.944  1.00  0.00     0.000 HD 
HETATM   24  O   UNL     1      -8.846  10.757  66.592  1.00  0.00    -0.140 OA 
HETATM   25  C   UNL     1      -9.983  10.024  68.582  1.00  0.00    -0.165 C  
BRANCH  21  26
HETATM   26  C   UNL     1      -6.942  10.976  68.045  1.00  0.00    -0.068 C  
HETATM   27  H   UNL     1      -6.163   9.499  69.099  1.00  0.00     0.000 HD 
HETATM   28  O   UNL     1      -7.028   9.829  68.887  1.00  0.00    -0.060 OA 
ENDBRANCH  21  26
BRANCH  22  29
HETATM   29  O   UNL     1      -9.637   8.549  66.711  1.00  0.00    -0.174 OA 
BRANCH  29  30
HETATM   30  C   UNL     1      -8.366   7.982  67.083  1.00  0.00    -0.121 C  
HETATM   31  C   UNL     1      -7.483   7.783  65.836  1.00  0.00    -0.081 C  
HETATM   32  O   UNL     1      -7.490   8.968  65.027  1.00  0.00    -0.094 OA 
HETATM   33  C   UNL     1      -6.044   7.444  66.243  1.00  0.00    -0.037 C  
HETATM   34  C   UNL     1      -6.041   6.131  67.024  1.00  0.00    -0.022 C  
HETATM   35  N   UNL     1      -5.168   7.345  65.060  1.00  0.00    -0.028 NA 
HETATM   36  H   UNL     1      -6.946   8.845  64.259  1.00  0.00     0.000 HD 
HETATM   37  H1  UNL     1      -4.211   7.119  65.330  1.00  0.00     0.000 HD 
HETATM   38  H2  UNL     1      -5.208   8.190  64.490  1.00  0.00     0.000 HD 
HETATM   39  C   UNL     1      -6.963   6.190  68.254  1.00  0.00    -0.080 C  
HETATM   40  C   UNL     1      -8.424   6.692  67.946  1.00  0.00    -0.119 C  
HETATM   41  N   UNL     1      -6.975   4.858  68.894  1.00  0.00    -0.051 NA 
HETATM   42  H2  UNL     1      -6.038   4.524  69.122  1.00  0.00     0.000 HD 
HETATM   43  H1  UNL     1      -7.586   4.897  69.709  1.00  0.00     0.000 HD 
BRANCH  40  44
HETATM   44  O   UNL     1      -9.078   6.858  69.225  1.00  0.00    -0.140 OA 
BRANCH  44  45
HETATM   45  C   UNL     1      -9.754   5.698  69.731  1.00  0.00    -0.167 C  
HETATM   46  O   UNL     1      -8.909   4.917  70.569  1.00  0.00    -0.110 OA 
HETATM   47  C   UNL     1      -8.546   5.525  71.808  1.00  0.00    -0.135 C  
HETATM   48  C   UNL     1      -9.802   5.819  72.631  1.00  0.00    -0.164 C  
HETATM   49  H1  UNL     1     -12.861   7.139  70.147  1.00  0.00     0.000 HD 
HETATM   50  H2  UNL     1     -12.194   6.459  68.768  1.00  0.00     0.000 HD 
HETATM   51  O   UNL     1      -9.502   6.460  73.873  1.00  0.00    -0.141 OA 
HETATM   52  C   UNL     1     -10.755   6.707  71.820  1.00  0.00    -0.227 C  
HETATM   53  H   UNL     1     -10.281   6.642  74.384  1.00  0.00     0.000 HD 
HETATM   54  O   UNL     1     -11.974   6.903  72.557  1.00  0.00    -0.476 OA 
HETATM   55  N   UNL     1     -11.994   6.900  69.666  1.00  0.00     0.061 NA 
HETATM   56  C   UNL     1     -11.071   6.060  70.462  1.00  0.00    -0.314 C  
HETATM   57  H   UNL     1     -12.564   7.453  72.055  1.00  0.00     0.000 HD 
BRANCH  47  58
HETATM   58  C   UNL     1      -7.610   4.548  72.534  1.00  0.00    -0.085 C  
HETATM   59  O   UNL     1      -7.858   4.578  73.942  1.00  0.00    -0.091 OA 
HETATM   60  H   UNL     1      -7.280   3.973  74.392  1.00  0.00     0.000 HD 
ENDBRANCH  47  58
ENDBRANCH  44  45
ENDBRANCH  40  44
ENDBRANCH  29  30
ENDBRANCH  22  29
ENDBRANCH  18  19
ENDBRANCH   7  18
ENDBRANCH   2   5
TORSDOF 9
ENDMDL
MODEL      269
REMARK 921   NORMALIZED FREE ENERGY PREDICTED BY IDOCK:   -1.20 KCAL/MOL
REMARK 922        TOTAL FREE ENERGY PREDICTED BY IDOCK:   -3.88 KCAL/MOL
REMARK 923 INTER-LIGAND FREE ENERGY PREDICTED BY IDOCK:   -5.41 KCAL/MOL
REMARK 924 INTRA-LIGAND FREE ENERGY PREDICTED BY IDOCK:    1.53 KCAL/MOL
REMARK 927      BINDING AFFINITY PREDICTED BY RF-SCORE:    0.00 PKD
ROOT
HETATM    1  N   UNL     1      -9.690  18.689  68.873  1.00  0.00    -0.351 NA 
HETATM    2  C   UNL     1     -10.103  19.290  67.589  1.00  0.00    -0.387 C  
HETATM    3  H1  UNL     1      -9.191  19.379  69.435  1.00  0.00     0.000 HD 
HETATM    4  H2  UNL     1      -9.146  17.836  68.740  1.00  0.00     0.000 HD 
ENDROOT
BRANCH   2   5
HETATM    5  C   UNL     1     -10.856  18.250  66.743  1.00  0.00    -0.074 C  
HETATM    6  O   UNL     1     -11.240  17.181  67.629  1.00  0.00    -0.132 OA 
HETATM    7  C   UNL     1     -12.120  16.253  66.999  1.00  0.00     1.551 C  
HETATM    8  C   UNL     1     -11.341  15.510  65.875  1.00  0.00    -0.028 C  
HETATM    9  O   UNL     1      -8.752  17.232  66.072  1.00  0.00    -0.497 OA 
HETATM   10  H   UNL     1      -8.236  16.888  65.353  1.00  0.00     0.000 HD 
HETATM   11  N   UNL     1     -10.230  14.694  66.449  1.00  0.00    -0.280 NA 
HETATM   12  C   UNL     1     -10.789  16.549  64.871  1.00  0.00    -0.204 C  
HETATM   13  H2  UNL     1     -10.566  14.050  67.165  1.00  0.00     0.000 HD 
HETATM   14  O   UNL     1     -11.836  17.072  64.042  1.00  0.00    -0.548 OA 
HETATM   15  C   UNL     1     -10.017  17.690  65.575  1.00  0.00     0.327 C  
HETATM   16  H1  UNL     1      -9.719  14.208  65.713  1.00  0.00     0.000 HD 
HETATM   17  H   UNL     1     -11.497  17.710  63.425  1.00  0.00     0.000 HD 
BRANCH   7  18
HETATM   18  O   UNL     1     -12.605  15.286  67.934  1.00  0.00     0.577 OA 
BRANCH  18  19
HETATM   19  C   UNL     1     -11.728  15.062  69.052  1.00  0.00    -0.325 C  
HETATM   20  O   UNL     1     -13.583  13.903  70.210  1.00  0.00     0.107 OA 
HETATM   21  C   UNL     1     -10.420  14.526  68.474  1.00  0.00    -0.250 C  
HETATM   22  C   UNL     1     -11.602  12.695  69.301  1.00  0.00    -0.318 C  
HETATM   23  H   UNL     1     -13.861  13.206  70.793  1.00  0.00     0.000 HD 
HETATM   24  O   UNL     1     -10.509  13.093  68.472  1.00  0.00    -0.249 OA 
HETATM   25  C   UNL     1     -12.172  13.948  69.985  1.00  0.00    -0.344 C  
BRANCH  21  26
HETATM   26  C   UNL     1      -9.178  14.931  69.270  1.00  0.00    -0.098 C  
HETATM   27  H   UNL     1      -7.220  14.726  69.121  1.00  0.00     0.000 HD 
HETATM   28  O   UNL     1      -7.990  14.475  68.627  1.00  0.00    -0.135 OA 
ENDBRANCH  21  26
BRANCH  22  29
HETATM   29  O   UNL     1     -11.167  11.785  70.307  1.00  0.00     0.013 OA 
BRANCH  29  30
HETATM   30  C   UNL     1     -11.409  10.378  70.111  1.00  0.00    -0.323 C  
HETATM   31  C   UNL     1     -12.134   9.785  71.335  1.00  0.00    -0.400 C  
HETATM   32  O   UNL     1     -13.237  10.619  71.714  1.00  0.00    -0.438 OA 
HETATM   33  C   UNL     1     -12.638   8.370  71.028  1.00  0.00    -0.049 C  
HETATM   34  C   UNL     1     -11.444   7.469  70.717  1.00  0.00    -0.305 C  
HETATM   35  N   UNL     1     -13.416   7.827  72.159  1.00  0.00    -0.516 NA 
HETATM   36  H   UNL     1     -13.683  10.253  72.468  1.00  0.00     0.000 HD 
HETATM   37  H1  UNL     1     -13.751   6.886  71.955  1.00  0.00     0.000 HD 
HETATM   38  H2  UNL     1     -14.179   8.449  72.423  1.00  0.00     0.000 HD 
HETATM   39  C   UNL     1     -10.596   8.016  69.556  1.00  0.00    -0.214 C  
HETATM   40  C   UNL     1     -10.173   9.525  69.718  1.00  0.00    -0.228 C  
HETATM   41  N   UNL     1      -9.417   7.141  69.385  1.00  0.00    -0.154 NA 
HETATM   42  H2  UNL     1      -9.671   6.162  69.257  1.00  0.00     0.000 HD 
HETATM   43  H1  UNL     1      -8.855   7.505  68.615  1.00  0.00     0.000 HD 
BRANCH  40  44
HETATM   44  O   UNL     1      -9.554   9.913  68.469  1.00  0.00    -0.149 OA 
BRANCH  44  45
HETATM   45  C   UNL     1      -8.499  10.880  68.575  1.00  0.00    -0.147 C  
HETATM   46  O   UNL     1      -7.522  10.495  69.535  1.00  0.00    -0.127 OA 
HETATM   47  C   UNL     1      -6.744   9.350  69.192  1.00  0.00    -0.050 C  
HETATM   48  C   UNL     1      -5.978   9.612  67.892  1.00  0.00    -0.051 C  
HETATM   49  H1  UNL     1      -8.358  11.749  65.239  1.00  0.00     0.000 HD 
HETATM   50  H2  UNL     1      -9.366  12.345  66.438  1.00  0.00     0.000 HD 
HETATM   51  O   UNL     1      -5.204   8.484  67.480  1.00  0.00    -0.033 OA 
HETATM   52  C   UNL     1      -6.965   9.985  66.778  1.00  0.00    -0.089 C  
HETATM   53  H   UNL     1      -4.728   8.647  66.674  1.00  0.00     0.000 HD 
HETATM   54  O   UNL     1      -6.237  10.323  65.584  1.00  0.00    -0.094 OA 
HETATM   55  N   UNL     1      -8.793  11.555  66.140  1.00  0.00    -0.192 NA 
HETATM   56  C   UNL     1      -7.837  11.175  67.205  1.00  0.00    -0.137 C  
HETATM   57  H   UNL     1      -6.848  10.554  64.894  1.00  0.00     0.000 HD 
BRANCH  47  58
HETATM   58  C   UNL     1      -5.791   9.081  70.365  1.00  0.00    -0.031 C  
HETATM   59  O   UNL     1      -6.330   8.070  71.220  1.00  0.00    -0.034 OA 
HETATM   60  H   UNL     1      -5.741   7.903  71.946  1.00  0.00     0.000 HD 
ENDBRANCH  47  58
ENDBRANCH  44  45
ENDBRANCH  40  44
ENDBRANCH  29  30
ENDBRANCH  22  29
ENDBRANCH  18  19
ENDBRANCH   7  18
ENDBRANCH   2   5
TORSDOF 9
ENDMDL
MODEL      270
REMARK 921   NORMALIZED FREE ENERGY PREDICTED BY IDOCK:   -0.87 KCAL/MOL
REMARK 922        TOTAL FREE ENERGY PREDICTED BY IDOCK:   -3.37 KCAL/MOL
REMARK 923 INTER-LIGAND FREE ENERGY PREDICTED BY IDOCK:   -5.99 KCAL/MOL
REMARK 924 INTRA-LIGAND FREE ENERGY PREDICTED BY IDOCK:    2.63 KCAL/MOL
REMARK 927      BINDING AFFINITY PREDICTED BY RF-SCORE:    0.00 PKD
ROOT
HETATM    1  N   UNL     1     -13.182   7.677  71.266  1.00  0.00    -0.542 NA 
HETATM    2  C   UNL     1     -12.884   7.877  72.699  1.00  0.00     0.181 C  
HETATM    3  H1  UNL     1     -14.191   7.634  71.125  1.00  0.00     0.000 HD 
HETATM    4  H2  UNL     1     -12.706   6.858  70.887  1.00  0.00     0.000 HD 
ENDROOT
BRANCH   2   5
HETATM    5  C   UNL     1     -11.363   7.943  72.912  1.00  0.00    -0.337 C  
HETATM    6  O   UNL     1     -10.780   8.388  71.674  1.00  0.00    -0.231 OA 
HETATM    7  C   UNL     1      -9.391   8.680  71.809  1.00  0.00    -0.273 C  
HETATM    8  C   UNL     1      -8.628   7.355  72.096  1.00  0.00    -0.113 C  
HETATM    9  O   UNL     1     -11.163   5.572  72.409  1.00  0.00    -0.260 OA 
HETATM   10  H   UNL     1     -10.784   4.740  72.666  1.00  0.00     0.000 HD 
HETATM   11  N   UNL     1      -8.736   6.418  70.939  1.00  0.00    -0.135 NA 
HETATM   12  C   UNL     1      -9.204   6.707  73.376  1.00  0.00    -0.131 C  
HETATM   13  H2  UNL     1      -8.424   6.853  70.071  1.00  0.00     0.000 HD 
HETATM   14  O   UNL     1      -8.778   7.413  74.549  1.00  0.00    -0.284 OA 
HETATM   15  C   UNL     1     -10.747   6.590  73.329  1.00  0.00    -0.274 C  
HETATM   16  H1  UNL     1      -8.236   5.549  71.127  1.00  0.00     0.000 HD 
HETATM   17  H   UNL     1      -9.132   7.014  75.336  1.00  0.00     0.000 HD 
BRANCH   7  18
HETATM   18  O   UNL     1      -8.866   9.259  70.611  1.00  0.00    -0.213 OA 
BRANCH  18  19
HETATM   19  C   UNL     1      -9.720  10.256  70.021  1.00  0.00     0.021 C  
HETATM   20  O   UNL     1      -8.258  10.251  68.024  1.00  0.00    -0.111 OA 
HETATM   21  C   UNL     1     -11.153   9.765  70.212  1.00  0.00    -0.292 C  
HETATM   22  C   UNL     1     -10.551   9.277  68.014  1.00  0.00    -0.208 C  
HETATM   23  H   UNL     1      -8.181  10.325  67.080  1.00  0.00     0.000 HD 
HETATM   24  O   UNL     1     -11.506   9.012  69.043  1.00  0.00     0.294 OA 
HETATM   25  C   UNL     1      -9.596  10.374  68.511  1.00  0.00    -0.158 C  
BRANCH  21  26
HETATM   26  C   UNL     1     -12.175  10.889  70.388  1.00  0.00    -0.365 C  
HETATM   27  H   UNL     1     -12.339  12.563  71.422  1.00  0.00     0.000 HD 
HETATM   28  O   UNL     1     -11.705  11.866  71.314  1.00  0.00     0.541 OA 
ENDBRANCH  21  26
BRANCH  22  29
HETATM   29  O   UNL     1     -11.198   9.739  66.831  1.00  0.00     0.080 OA 
BRANCH  29  30
HETATM   30  C   UNL     1     -10.521  10.713  66.014  1.00  0.00    -0.183 C  
HETATM   31  C   UNL     1     -11.288  12.050  66.028  1.00  0.00    -0.343 C  
HETATM   32  O   UNL     1     -11.634  12.411  67.372  1.00  0.00    -0.328 OA 
HETATM   33  C   UNL     1     -10.444  13.162  65.396  1.00  0.00    -0.296 C  
HETATM   34  C   UNL     1     -10.160  12.808  63.936  1.00  0.00    -0.153 C  
HETATM   35  N   UNL     1     -11.129  14.466  65.489  1.00  0.00    -0.314 NA 
HETATM   36  H   UNL     1     -12.107  13.234  67.381  1.00  0.00     0.000 HD 
HETATM   37  H1  UNL     1     -10.567  15.206  65.069  1.00  0.00     0.000 HD 
HETATM   38  H2  UNL     1     -11.384  14.688  66.451  1.00  0.00     0.000 HD 
HETATM   39  C   UNL     1      -9.466  11.442  63.799  1.00  0.00    -0.171 C  
HETATM   40  C   UNL     1     -10.187  10.269  64.564  1.00  0.00    -0.091 C  
HETATM   41  N   UNL     1      -9.316  11.136  62.361  1.00  0.00    -0.529 NA 
HETATM   42  H2  UNL     1      -8.832  11.875  61.852  1.00  0.00     0.000 HD 
HETATM   43  H1  UNL     1      -8.856  10.231  62.270  1.00  0.00     0.000 HD 
BRANCH  40  44
HETATM   44  O   UNL     1      -9.307   9.123  64.479  1.00  0.00    -0.043 OA 
BRANCH  44  45
HETATM   45  C   UNL     1      -8.795   8.642  65.730  1.00  0.00    -0.193 C  
HETATM   46  O   UNL     1      -9.460   7.457  66.153  1.00  0.00    -0.125 OA 
HETATM   47  C   UNL     1      -9.222   6.301  65.352  1.00  0.00     0.284 C  
HETATM   48  C   UNL     1      -7.727   5.969  65.350  1.00  0.00    -0.091 C  
HETATM   49  H1  UNL     1      -5.486   9.466  65.201  1.00  0.00     0.000 HD 
HETATM   50  H2  UNL     1      -6.727  10.426  65.791  1.00  0.00     0.000 HD 
HETATM   51  O   UNL     1      -7.422   4.835  64.534  1.00  0.00    -0.069 OA 
HETATM   52  C   UNL     1      -6.929   7.181  64.852  1.00  0.00    -0.055 C  
HETATM   53  H   UNL     1      -6.495   4.629  64.534  1.00  0.00     0.000 HD 
HETATM   54  O   UNL     1      -5.521   6.900  64.942  1.00  0.00    -0.026 OA 
HETATM   55  N   UNL     1      -6.496   9.607  65.228  1.00  0.00    -0.078 NA 
HETATM   56  C   UNL     1      -7.261   8.426  65.689  1.00  0.00    -0.075 C  
HETATM   57  H   UNL     1      -5.027   7.650  64.634  1.00  0.00     0.000 HD 
BRANCH  47  58
HETATM   58  C   UNL     1     -10.054   5.157  65.947  1.00  0.00    -0.123 C  
HETATM   59  O   UNL     1      -9.908   3.974  65.157  1.00  0.00    -0.181 OA 
HETATM   60  H   UNL     1     -10.423   3.266  65.525  1.00  0.00     0.000 HD 
ENDBRANCH  47  58
ENDBRANCH  44  45
ENDBRANCH  40  44
ENDBRANCH  29  30
ENDBRANCH  22  29
ENDBRANCH  18  19
ENDBRANCH   7  18
ENDBRANCH   2   5
TORSDOF 9
ENDMDL
MODEL      271
REMARK 921   NORMALIZED FREE ENERGY PREDICTED BY IDOCK:   -0.69 KCAL/MOL
REMARK 922        TOTAL FREE ENERGY PREDICTED BY IDOCK:   -3.10 KCAL/MOL
REMARK 923 INTER-LIGAND FREE ENERGY PREDICTED BY IDOCK:   -4.98 KCAL/MOL
REMARK 924 INTRA-LIGAND FREE ENERGY PREDICTED BY IDOCK:    1.88 KCAL/MOL
REMARK 927      BINDING AFFINITY PREDICTED BY RF-SCORE:    0.00 PKD
ROOT
HETATM    1  N   UNL     1      -5.287  12.192  69.772  1.00  0.00    -0.076 NA 
HETATM    2  C   UNL     1      -5.397  10.902  70.484  1.00  0.00    -0.092 C  
HETATM    3  H1  UNL     1      -4.645  12.809  70.271  1.00  0.00     0.000 HD 
HETATM    4  H2  UNL     1      -6.198  12.626  69.622  1.00  0.00     0.000 HD 
ENDROOT
BRANCH   2   5
HETATM    5  C   UNL     1      -6.364   9.971  69.733  1.00  0.00    -0.058 C  
HETATM    6  O   UNL     1      -7.698  10.338  70.128  1.00  0.00    -0.147 OA 
HETATM    7  C   UNL     1      -8.690   9.678  69.344  1.00  0.00    -0.171 C  
HETATM    8  C   UNL     1      -8.641   8.154  69.656  1.00  0.00    -0.131 C  
HETATM    9  O   UNL     1      -6.090   8.263  71.441  1.00  0.00    -0.034 OA 
HETATM   10  H   UNL     1      -5.940   7.342  71.620  1.00  0.00     0.000 HD 
HETATM   11  N   UNL     1      -9.005   7.892  71.080  1.00  0.00    -0.136 NA 
HETATM   12  C   UNL     1      -7.221   7.622  69.351  1.00  0.00    -0.081 C  
HETATM   13  H2  UNL     1      -9.911   8.296  71.319  1.00  0.00     0.000 HD 
HETATM   14  O   UNL     1      -7.001   7.518  67.938  1.00  0.00    -0.071 OA 
HETATM   15  C   UNL     1      -6.119   8.475  70.023  1.00  0.00    -0.031 C  
HETATM   16  H1  UNL     1      -8.972   6.893  71.285  1.00  0.00     0.000 HD 
HETATM   17  H   UNL     1      -6.129   7.191  67.751  1.00  0.00     0.000 HD 
BRANCH   7  18
HETATM   18  O   UNL     1      -9.999  10.165  69.651  1.00  0.00    -0.223 OA 
BRANCH  18  19
HETATM   19  C   UNL     1     -10.540  11.055  68.658  1.00  0.00    -0.196 C  
HETATM   20  O   UNL     1     -11.972  12.056  70.411  1.00  0.00    -0.403 OA 
HETATM   21  C   UNL     1      -9.347  11.626  67.895  1.00  0.00    -0.174 C  
HETATM   22  C   UNL     1     -10.024  13.253  69.422  1.00  0.00     0.717 C  
HETATM   23  H   UNL     1     -12.391  12.832  70.766  1.00  0.00     0.000 HD 
HETATM   24  O   UNL     1      -8.970  12.850  68.544  1.00  0.00    -0.152 OA 
HETATM   25  C   UNL     1     -11.210  12.295  69.226  1.00  0.00    -0.213 C  
BRANCH  21  26
HETATM   26  C   UNL     1      -9.640  11.931  66.425  1.00  0.00    -0.225 C  
HETATM   27  H   UNL     1     -10.782  11.208  64.985  1.00  0.00     0.000 HD 
HETATM   28  O   UNL     1     -10.600  11.019  65.898  1.00  0.00    -0.252 OA 
ENDBRANCH  21  26
BRANCH  22  29
HETATM   29  O   UNL     1     -10.453  14.577  69.120  1.00  0.00    -0.242 OA 
BRANCH  29  30
HETATM   30  C   UNL     1     -10.930  14.858  67.790  1.00  0.00    -0.293 C  
HETATM   31  C   UNL     1     -12.039  13.863  67.398  1.00  0.00    -0.345 C  
HETATM   32  O   UNL     1     -13.000  13.746  68.456  1.00  0.00     0.434 OA 
HETATM   33  C   UNL     1     -12.739  14.316  66.112  1.00  0.00    -0.131 C  
HETATM   34  C   UNL     1     -11.722  14.346  64.971  1.00  0.00    -0.389 C  
HETATM   35  N   UNL     1     -13.865  13.423  65.778  1.00  0.00     0.761 NA 
HETATM   36  H   UNL     1     -13.684  13.133  68.214  1.00  0.00     0.000 HD 
HETATM   37  H1  UNL     1     -14.331  13.724  64.922  1.00  0.00     0.000 HD 
HETATM   38  H2  UNL     1     -14.522  13.339  66.553  1.00  0.00     0.000 HD 
HETATM   39  C   UNL     1     -10.521  15.251  65.294  1.00  0.00    -0.411 C  
HETATM   40  C   UNL     1      -9.843  14.957  66.685  1.00  0.00    -0.260 C  
HETATM   41  N   UNL     1      -9.547  15.149  64.187  1.00  0.00     1.383 NA 
HETATM   42  H2  UNL     1      -9.962  15.358  63.279  1.00  0.00     0.000 HD 
HETATM   43  H1  UNL     1      -8.751  15.749  64.402  1.00  0.00     0.000 HD 
BRANCH  40  44
HETATM   44  O   UNL     1      -8.870  16.007  66.897  1.00  0.00    -0.198 OA 
BRANCH  44  45
HETATM   45  C   UNL     1      -9.313  17.107  67.705  1.00  0.00    -0.239 C  
HETATM   46  O   UNL     1      -8.474  17.304  68.837  1.00  0.00    -0.257 OA 
HETATM   47  C   UNL     1      -7.151  17.755  68.547  1.00  0.00    -0.245 C  
HETATM   48  C   UNL     1      -7.208  19.103  67.824  1.00  0.00    -0.240 C  
HETATM   49  H1  UNL     1     -10.376  19.147  65.133  1.00  0.00     0.000 HD 
HETATM   50  H2  UNL     1     -11.207  17.916  65.909  1.00  0.00     0.000 HD 
HETATM   51  O   UNL     1      -5.910  19.590  67.477  1.00  0.00    -0.185 OA 
HETATM   52  C   UNL     1      -8.056  18.971  66.551  1.00  0.00    -0.289 C  
HETATM   53  H   UNL     1      -5.945  20.427  67.029  1.00  0.00     0.000 HD 
HETATM   54  O   UNL     1      -8.187  20.259  65.925  1.00  0.00    -0.547 OA 
HETATM   55  N   UNL     1     -10.286  18.286  65.672  1.00  0.00    -0.550 NA 
HETATM   56  C   UNL     1      -9.449  18.416  66.887  1.00  0.00    -0.291 C  
HETATM   57  H   UNL     1      -8.712  20.177  65.137  1.00  0.00     0.000 HD 
BRANCH  47  58
HETATM   58  C   UNL     1      -6.406  17.863  69.885  1.00  0.00    -0.043 C  
HETATM   59  O   UNL     1      -6.026  19.219  70.133  1.00  0.00    -0.255 OA 
HETATM   60  H   UNL     1      -5.565  19.286  70.960  1.00  0.00     0.000 HD 
ENDBRANCH  47  58
ENDBRANCH  44  45
ENDBRANCH  40  44
ENDBRANCH  29  30
ENDBRANCH  22  29
ENDBRANCH  18  19
ENDBRANCH   7  18
ENDBRANCH   2   5
TORSDOF 9
ENDMDL
MODEL      272
REMARK 921   NORMALIZED FREE ENERGY PREDICTED BY IDOCK:   -0.56 KCAL/MOL
REMARK 922        TOTAL FREE ENERGY PREDICTED BY IDOCK:   -2.91 KCAL/MOL
REMARK 923 INTER-LIGAND FREE ENERGY PREDICTED BY IDOCK:   -5.60 KCAL/MOL
REMARK 924 INTRA-LIGAND FREE ENERGY PREDICTED BY IDOCK:    2.69 KCAL/MOL
REMARK 927      BINDING AFFINITY PREDICTED BY RF-SCORE:    0.00 PKD
ROOT
HETATM    1  N   UNL     1     -10.363   4.420  65.789  1.00  0.00    -0.415 NA 
HETATM    2  C   UNL     1     -10.060   5.809  66.191  1.00  0.00    -0.006 C  
HETATM    3  H1  UNL     1     -11.365   4.247  65.870  1.00  0.00     0.000 HD 
HETATM    4  H2  UNL     1      -9.813   3.741  66.314  1.00  0.00     0.000 HD 
ENDROOT
BRANCH   2   5
HETATM    5  C   UNL     1      -8.549   6.070  66.068  1.00  0.00    -0.147 C  
HETATM    6  O   UNL     1      -8.368   7.498  66.024  1.00  0.00    -0.121 OA 
HETATM    7  C   UNL     1      -6.994   7.867  66.113  1.00  0.00    -0.062 C  
HETATM    8  C   UNL     1      -6.263   7.384  64.827  1.00  0.00    -0.038 C  
HETATM    9  O   UNL     1      -8.670   5.791  63.655  1.00  0.00    -0.340 OA 
HETATM   10  H   UNL     1      -8.281   5.390  62.886  1.00  0.00     0.000 HD 
HETATM   11  N   UNL     1      -6.796   8.082  63.619  1.00  0.00    -0.074 NA 
HETATM   12  C   UNL     1      -6.438   5.853  64.690  1.00  0.00    -0.037 C  
HETATM   13  H2  UNL     1      -6.752   9.097  63.720  1.00  0.00     0.000 HD 
HETATM   14  O   UNL     1      -5.614   5.154  65.633  1.00  0.00    -0.013 OA 
HETATM   15  C   UNL     1      -7.918   5.420  64.818  1.00  0.00    -0.110 C  
HETATM   16  H1  UNL     1      -6.317   7.766  62.776  1.00  0.00     0.000 HD 
HETATM   17  H   UNL     1      -5.722   4.214  65.549  1.00  0.00     0.000 HD 
BRANCH   7  18
HETATM   18  O   UNL     1      -6.847   9.285  66.217  1.00  0.00    -0.080 OA 
BRANCH  18  19
HETATM   19  C   UNL     1      -7.967   9.946  66.832  1.00  0.00    -0.109 C  
HETATM   20  O   UNL     1      -6.531  10.452  68.783  1.00  0.00    -0.050 OA 
HETATM   21  C   UNL     1      -8.565  10.863  65.766  1.00  0.00    -0.173 C  
HETATM   22  C   UNL     1      -7.271  12.201  67.170  1.00  0.00    -0.117 C  
HETATM   23  H   UNL     1      -6.297  11.056  69.479  1.00  0.00     0.000 HD 
HETATM   24  O   UNL     1      -7.942  12.149  65.910  1.00  0.00     0.558 OA 
HETATM   25  C   UNL     1      -7.593  10.912  67.944  1.00  0.00    -0.095 C  
BRANCH  21  26
HETATM   26  C   UNL     1     -10.079  11.045  65.885  1.00  0.00    -0.249 C  
HETATM   27  H   UNL     1     -11.640   9.964  66.424  1.00  0.00     0.000 HD 
HETATM   28  O   UNL     1     -10.701   9.850  66.350  1.00  0.00    -0.099 OA 
ENDBRANCH  21  26
BRANCH  22  29
HETATM   29  O   UNL     1      -7.719  13.316  67.935  1.00  0.00    -0.122 OA 
BRANCH  29  30
HETATM   30  C   UNL     1      -9.033  13.845  67.672  1.00  0.00    -0.192 C  
HETATM   31  C   UNL     1     -10.108  12.782  67.970  1.00  0.00    -0.230 C  
HETATM   32  O   UNL     1      -9.862  12.170  69.244  1.00  0.00    -0.335 OA 
HETATM   33  C   UNL     1     -11.505  13.411  67.961  1.00  0.00    -0.304 C  
HETATM   34  C   UNL     1     -11.790  13.978  66.570  1.00  0.00    -0.439 C  
HETATM   35  N   UNL     1     -12.535  12.424  68.338  1.00  0.00     0.189 NA 
HETATM   36  H   UNL     1     -10.525  11.515  69.428  1.00  0.00     0.000 HD 
HETATM   37  H1  UNL     1     -13.465  12.842  68.332  1.00  0.00     0.000 HD 
HETATM   38  H2  UNL     1     -12.325  11.987  69.236  1.00  0.00     0.000 HD 
HETATM   39  C   UNL     1     -10.723  14.996  66.133  1.00  0.00    -0.327 C  
HETATM   40  C   UNL     1      -9.241  14.481  66.270  1.00  0.00    -0.198 C  
HETATM   41  N   UNL     1     -11.021  15.420  64.748  1.00  0.00    -0.600 NA 
HETATM   42  H2  UNL     1     -11.970  15.777  64.643  1.00  0.00     0.000 HD 
HETATM   43  H1  UNL     1     -10.313  16.094  64.459  1.00  0.00     0.000 HD 
BRANCH  40  44
HETATM   44  O   UNL     1      -8.386  15.615  65.997  1.00  0.00    -0.072 OA 
BRANCH  44  45
HETATM   45  C   UNL     1      -9.018  16.901  66.080  1.00  0.00    -0.163 C  
HETATM   46  O   UNL     1      -9.885  16.993  67.204  1.00  0.00    -0.255 OA 
HETATM   47  C   UNL     1      -9.240  16.977  68.477  1.00  0.00    -0.266 C  
HETATM   48  C   UNL     1      -8.277  18.162  68.588  1.00  0.00    -0.281 C  
HETATM   49  H1  UNL     1      -6.351  18.780  64.958  1.00  0.00     0.000 HD 
HETATM   50  H2  UNL     1      -7.523  17.981  64.065  1.00  0.00     0.000 HD 
HETATM   51  O   UNL     1      -7.576  18.179  69.833  1.00  0.00     0.625 OA 
HETATM   52  C   UNL     1      -7.264  18.113  67.436  1.00  0.00    -0.199 C  
HETATM   53  H   UNL     1      -6.979  18.914  69.902  1.00  0.00     0.000 HD 
HETATM   54  O   UNL     1      -6.422  19.278  67.487  1.00  0.00    -0.202 OA 
HETATM   55  N   UNL     1      -7.028  18.018  64.956  1.00  0.00     0.191 NA 
HETATM   56  C   UNL     1      -7.989  18.059  66.082  1.00  0.00    -0.192 C  
HETATM   57  H   UNL     1      -5.795  19.248  66.774  1.00  0.00     0.000 HD 
BRANCH  47  58
HETATM   58  C   UNL     1     -10.342  17.043  69.544  1.00  0.00    -0.156 C  
HETATM   59  O   UNL     1     -10.613  15.736  70.059  1.00  0.00    -0.292 OA 
HETATM   60  H   UNL     1     -11.294  15.777  70.719  1.00  0.00     0.000 HD 
ENDBRANCH  47  58
ENDBRANCH  44  45
ENDBRANCH  40  44
ENDBRANCH  29  30
ENDBRANCH  22  29
ENDBRANCH  18  19
ENDBRANCH   7  18
ENDBRANCH   2   5
TORSDOF 9
ENDMDL
MODEL      273
REMARK 921   NORMALIZED FREE ENERGY PREDICTED BY IDOCK:   -0.55 KCAL/MOL
REMARK 922        TOTAL FREE ENERGY PREDICTED BY IDOCK:   -2.89 KCAL/MOL
REMARK 923 INTER-LIGAND FREE ENERGY PREDICTED BY IDOCK:   -6.72 KCAL/MOL
REMARK 924 INTRA-LIGAND FREE ENERGY PREDICTED BY IDOCK:    3.83 KCAL/MOL
REMARK 927      BINDING AFFINITY PREDICTED BY RF-SCORE:    0.00 PKD
ROOT
HETATM    1  N   UNL     1      -8.123  18.315  66.665  1.00  0.00    -0.251 NA 
HETATM    2  C   UNL     1      -8.234  17.001  66.000  1.00  0.00    -0.144 C  
HETATM    3  H1  UNL     1      -7.629  18.969  66.059  1.00  0.00     0.000 HD 
HETATM    4  H2  UNL     1      -7.690  18.243  67.586  1.00  0.00     0.000 HD 
ENDROOT
BRANCH   2   5
HETATM    5  C   UNL     1      -8.980  16.014  66.914  1.00  0.00    -0.227 C  
HETATM    6  O   UNL     1      -9.391  14.905  66.093  1.00  0.00    -0.292 OA 
HETATM    7  C   UNL     1      -9.916  13.830  66.869  1.00  0.00    -0.264 C  
HETATM    8  C   UNL     1     -11.251  14.292  67.523  1.00  0.00    -0.307 C  
HETATM    9  O   UNL     1     -11.043  17.270  66.633  1.00  0.00     0.104 OA 
HETATM   10  H   UNL     1     -11.798  17.654  67.063  1.00  0.00     0.000 HD 
HETATM   11  N   UNL     1     -12.280  14.585  66.481  1.00  0.00    -0.401 NA 
HETATM   12  C   UNL     1     -10.982  15.545  68.388  1.00  0.00    -0.297 C  
HETATM   13  H2  UNL     1     -12.421  13.790  65.857  1.00  0.00     0.000 HD 
HETATM   14  O   UNL     1     -10.302  15.198  69.602  1.00  0.00    -0.239 OA 
HETATM   15  C   UNL     1     -10.207  16.637  67.612  1.00  0.00    -0.285 C  
HETATM   16  H1  UNL     1     -13.154  14.888  66.910  1.00  0.00     0.000 HD 
HETATM   17  H   UNL     1     -10.137  15.968  70.134  1.00  0.00     0.000 HD 
BRANCH   7  18
HETATM   18  O   UNL     1     -10.180  12.685  66.053  1.00  0.00    -0.260 OA 
BRANCH  18  19
HETATM   19  C   UNL     1     -10.060  11.431  66.748  1.00  0.00    -0.216 C  
HETATM   20  O   UNL     1      -8.361  10.733  65.088  1.00  0.00    -0.274 OA 
HETATM   21  C   UNL     1      -9.928  11.771  68.231  1.00  0.00    -0.200 C  
HETATM   22  C   UNL     1      -7.784  11.303  67.445  1.00  0.00    -0.128 C  
HETATM   23  H   UNL     1      -7.559  10.259  64.905  1.00  0.00     0.000 HD 
HETATM   24  O   UNL     1      -8.527  11.875  68.523  1.00  0.00    -0.159 OA 
HETATM   25  C   UNL     1      -8.777  10.672  66.455  1.00  0.00    -0.149 C  
BRANCH  21  26
HETATM   26  C   UNL     1     -10.538  10.723  69.163  1.00  0.00    -0.222 C  
HETATM   27  H   UNL     1     -11.992  10.625  70.496  1.00  0.00     0.000 HD 
HETATM   28  O   UNL     1     -11.614  11.276  69.917  1.00  0.00    -0.289 OA 
ENDBRANCH  21  26
BRANCH  22  29
HETATM   29  O   UNL     1      -6.906  10.287  67.919  1.00  0.00    -0.072 OA 
BRANCH  29  30
HETATM   30  C   UNL     1      -6.774   9.078  67.147  1.00  0.00    -0.066 C  
HETATM   31  C   UNL     1      -6.606   9.414  65.652  1.00  0.00    -0.070 C  
HETATM   32  O   UNL     1      -5.621  10.443  65.481  1.00  0.00    -0.080 OA 
HETATM   33  C   UNL     1      -6.191   8.167  64.863  1.00  0.00    -0.049 C  
HETATM   34  C   UNL     1      -7.292   7.113  64.978  1.00  0.00    -0.083 C  
HETATM   35  N   UNL     1      -5.934   8.495  63.448  1.00  0.00    -0.076 NA 
HETATM   36  H   UNL     1      -5.517  10.650  64.560  1.00  0.00     0.000 HD 
HETATM   37  H1  UNL     1      -5.658   7.666  62.922  1.00  0.00     0.000 HD 
HETATM   38  H2  UNL     1      -5.248   9.244  63.354  1.00  0.00     0.000 HD 
HETATM   39  C   UNL     1      -7.603   6.761  66.443  1.00  0.00    -0.089 C  
HETATM   40  C   UNL     1      -7.879   8.009  67.364  1.00  0.00    -0.117 C  
HETATM   41  N   UNL     1      -8.736   5.813  66.465  1.00  0.00    -0.120 NA 
HETATM   42  H2  UNL     1      -8.567   4.987  65.891  1.00  0.00     0.000 HD 
HETATM   43  H1  UNL     1      -8.942   5.580  67.437  1.00  0.00     0.000 HD 
BRANCH  40  44
HETATM   44  O   UNL     1      -7.965   7.507  68.718  1.00  0.00    -0.121 OA 
BRANCH  44  45
HETATM   45  C   UNL     1      -9.167   6.792  69.039  1.00  0.00    -0.136 C  
HETATM   46  O   UNL     1      -9.022   5.392  68.835  1.00  0.00    -0.114 OA 
HETATM   47  C   UNL     1      -8.123   4.734  69.727  1.00  0.00    -0.069 C  
HETATM   48  C   UNL     1      -8.607   4.902  71.169  1.00  0.00    -0.122 C  
HETATM   49  H1  UNL     1     -10.130   8.729  71.727  1.00  0.00     0.000 HD 
HETATM   50  H2  UNL     1     -10.416   8.980  70.095  1.00  0.00     0.000 HD 
HETATM   51  O   UNL     1      -7.727   4.289  72.114  1.00  0.00    -0.076 OA 
HETATM   52  C   UNL     1      -8.743   6.395  71.498  1.00  0.00    -0.134 C  
HETATM   53  H   UNL     1      -8.027   4.393  73.009  1.00  0.00     0.000 HD 
HETATM   54  O   UNL     1      -9.288   6.549  72.820  1.00  0.00    -0.141 OA 
HETATM   55  N   UNL     1      -9.807   8.532  70.780  1.00  0.00    -0.175 NA 
HETATM   56  C   UNL     1      -9.658   7.090  70.478  1.00  0.00    -0.169 C  
HETATM   57  H   UNL     1      -9.372   7.473  73.023  1.00  0.00     0.000 HD 
BRANCH  47  58
HETATM   58  C   UNL     1      -8.078   3.255  69.315  1.00  0.00    -0.052 C  
HETATM   59  O   UNL     1      -8.734   3.070  68.058  1.00  0.00    -0.091 OA 
HETATM   60  H   UNL     1      -8.706   2.156  67.803  1.00  0.00     0.000 HD 
ENDBRANCH  47  58
ENDBRANCH  44  45
ENDBRANCH  40  44
ENDBRANCH  29  30
ENDBRANCH  22  29
ENDBRANCH  18  19
ENDBRANCH   7  18
ENDBRANCH   2   5
TORSDOF 9
ENDMDL
MODEL      274
REMARK 921   NORMALIZED FREE ENERGY PREDICTED BY IDOCK:   -0.13 KCAL/MOL
REMARK 922        TOTAL FREE ENERGY PREDICTED BY IDOCK:   -2.24 KCAL/MOL
REMARK 923 INTER-LIGAND FREE ENERGY PREDICTED BY IDOCK:   -7.24 KCAL/MOL
REMARK 924 INTRA-LIGAND FREE ENERGY PREDICTED BY IDOCK:    5.00 KCAL/MOL
REMARK 927      BINDING AFFINITY PREDICTED BY RF-SCORE:    0.00 PKD
ROOT
HETATM    1  N   UNL     1     -12.667  11.509  71.499  1.00  0.00    -0.365 NA 
HETATM    2  C   UNL     1     -11.705  11.774  70.410  1.00  0.00    -0.160 C  
HETATM    3  H1  UNL     1     -12.430  10.633  71.965  1.00  0.00     0.000 HD 
HETATM    4  H2  UNL     1     -13.632  11.519  71.169  1.00  0.00     0.000 HD 
ENDROOT
BRANCH   2   5
HETATM    5  C   UNL     1     -12.062  13.095  69.708  1.00  0.00    -0.270 C  
HETATM    6  O   UNL     1     -11.063  13.322  68.697  1.00  0.00    -0.245 OA 
HETATM    7  C   UNL     1     -11.400  14.414  67.845  1.00  0.00    -0.301 C  
HETATM    8  C   UNL     1     -11.356  15.728  68.678  1.00  0.00    -0.369 C  
HETATM    9  O   UNL     1     -10.911  14.357  71.439  1.00  0.00    -0.043 OA 
HETATM   10  H   UNL     1     -10.948  15.099  72.032  1.00  0.00     0.000 HD 
HETATM   11  N   UNL     1      -9.971  16.002  69.164  1.00  0.00    -0.232 NA 
HETATM   12  C   UNL     1     -12.336  15.606  69.868  1.00  0.00    -0.234 C  
HETATM   13  H2  UNL     1      -9.298  16.018  68.398  1.00  0.00     0.000 HD 
HETATM   14  O   UNL     1     -13.696  15.721  69.429  1.00  0.00     0.957 OA 
HETATM   15  C   UNL     1     -12.121  14.301  70.671  1.00  0.00    -0.346 C  
HETATM   16  H1  UNL     1      -9.942  16.863  69.710  1.00  0.00     0.000 HD 
HETATM   17  H   UNL     1     -14.298  15.646  70.160  1.00  0.00     0.000 HD 
BRANCH   7  18
HETATM   18  O   UNL     1     -10.473  14.528  66.762  1.00  0.00    -0.266 OA 
BRANCH  18  19
HETATM   19  C   UNL     1     -10.513  13.425  65.840  1.00  0.00    -0.287 C  
HETATM   20  O   UNL     1      -8.138  12.966  66.367  1.00  0.00    -0.263 OA 
HETATM   21  C   UNL     1     -11.780  12.636  66.165  1.00  0.00    -0.406 C  
HETATM   22  C   UNL     1      -9.995  11.492  67.135  1.00  0.00    -0.199 C  
HETATM   23  H   UNL     1      -7.449  12.324  66.493  1.00  0.00     0.000 HD 
HETATM   24  O   UNL     1     -11.418  11.616  67.109  1.00  0.00    -0.403 OA 
HETATM   25  C   UNL     1      -9.410  12.399  66.041  1.00  0.00    -0.114 C  
BRANCH  21  26
HETATM   26  C   UNL     1     -12.419  11.962  64.950  1.00  0.00     0.271 C  
HETATM   27  H   UNL     1     -13.372  12.513  63.310  1.00  0.00     0.000 HD 
HETATM   28  O   UNL     1     -12.975  12.931  64.064  1.00  0.00    -0.661 OA 
ENDBRANCH  21  26
BRANCH  22  29
HETATM   29  O   UNL     1      -9.601  10.149  66.872  1.00  0.00    -0.167 OA 
BRANCH  29  30
HETATM   30  C   UNL     1      -8.701   9.504  67.793  1.00  0.00    -0.115 C  
HETATM   31  C   UNL     1      -7.926  10.558  68.609  1.00  0.00    -0.124 C  
HETATM   32  O   UNL     1      -8.825  11.552  69.118  1.00  0.00    -0.376 OA 
HETATM   33  C   UNL     1      -7.178   9.895  69.772  1.00  0.00    -0.118 C  
HETATM   34  C   UNL     1      -6.158   8.905  69.211  1.00  0.00    -0.041 C  
HETATM   35  N   UNL     1      -6.510  10.904  70.616  1.00  0.00    -0.453 NA 
HETATM   36  H   UNL     1      -8.348  12.201  69.621  1.00  0.00     0.000 HD 
HETATM   37  H1  UNL     1      -6.012  10.463  71.390  1.00  0.00     0.000 HD 
HETATM   38  H2  UNL     1      -7.166  11.611  70.947  1.00  0.00     0.000 HD 
HETATM   39  C   UNL     1      -6.816   7.850  68.305  1.00  0.00    -0.071 C  
HETATM   40  C   UNL     1      -7.741   8.448  67.180  1.00  0.00    -0.097 C  
HETATM   41  N   UNL     1      -5.754   6.996  67.733  1.00  0.00    -0.023 NA 
HETATM   42  H2  UNL     1      -5.157   6.581  68.448  1.00  0.00     0.000 HD 
HETATM   43  H1  UNL     1      -6.191   6.297  67.133  1.00  0.00     0.000 HD 
BRANCH  40  44
HETATM   44  O   UNL     1      -8.409   7.325  66.559  1.00  0.00    -0.112 OA 
BRANCH  44  45
HETATM   45  C   UNL     1      -9.657   6.940  67.154  1.00  0.00    -0.147 C  
HETATM   46  O   UNL     1     -10.478   6.219  66.243  1.00  0.00    -0.039 OA 
HETATM   47  C   UNL     1      -9.996   4.928  65.874  1.00  0.00    -0.203 C  
HETATM   48  C   UNL     1      -9.870   4.045  67.117  1.00  0.00    -0.098 C  
HETATM   49  H1  UNL     1      -8.453   6.283  70.320  1.00  0.00     0.000 HD 
HETATM   50  H2  UNL     1      -8.932   7.748  69.661  1.00  0.00     0.000 HD 
HETATM   51  O   UNL     1      -9.359   2.745  66.813  1.00  0.00    -0.317 OA 
HETATM   52  C   UNL     1      -8.951   4.724  68.142  1.00  0.00    -0.112 C  
HETATM   53  H   UNL     1      -9.281   2.197  67.585  1.00  0.00     0.000 HD 
HETATM   54  O   UNL     1      -8.910   3.939  69.346  1.00  0.00    -0.081 OA 
HETATM   55  N   UNL     1      -8.585   6.810  69.457  1.00  0.00    -0.132 NA 
HETATM   56  C   UNL     1      -9.456   6.139  68.465  1.00  0.00    -0.119 C  
HETATM   57  H   UNL     1      -8.341   4.359  69.981  1.00  0.00     0.000 HD 
BRANCH  47  58
HETATM   58  C   UNL     1     -10.994   4.343  64.865  1.00  0.00    -0.005 C  
HETATM   59  O   UNL     1     -10.352   4.113  63.608  1.00  0.00    -0.356 OA 
HETATM   60  H   UNL     1     -10.969   3.751  62.983  1.00  0.00     0.000 HD 
ENDBRANCH  47  58
ENDBRANCH  44  45
ENDBRANCH  40  44
ENDBRANCH  29  30
ENDBRANCH  22  29
ENDBRANCH  18  19
ENDBRANCH   7  18
ENDBRANCH   2   5
TORSDOF 9
ENDMDL
MODEL      275
REMARK 921   NORMALIZED FREE ENERGY PREDICTED BY IDOCK:    0.01 KCAL/MOL
REMARK 922        TOTAL FREE ENERGY PREDICTED BY IDOCK:   -2.04 KCAL/MOL
REMARK 923 INTER-LIGAND FREE ENERGY PREDICTED BY IDOCK:   -7.57 KCAL/MOL
REMARK 924 INTRA-LIGAND FREE ENERGY PREDICTED BY IDOCK:    5.53 KCAL/MOL
REMARK 927      BINDING AFFINITY PREDICTED BY RF-SCORE:    0.00 PKD
ROOT
HETATM    1  N   UNL     1     -10.007  10.113  65.478  1.00  0.00    -0.292 NA 
HETATM    2  C   UNL     1     -11.286  10.819  65.693  1.00  0.00     0.367 C  
HETATM    3  H1  UNL     1     -10.018   9.219  65.970  1.00  0.00     0.000 HD 
HETATM    4  H2  UNL     1      -9.204  10.685  65.741  1.00  0.00     0.000 HD 
ENDROOT
BRANCH   2   5
HETATM    5  C   UNL     1     -11.270  12.166  64.951  1.00  0.00    -0.323 C  
HETATM    6  O   UNL     1     -10.212  12.955  65.527  1.00  0.00    -0.284 OA 
HETATM    7  C   UNL     1      -9.969  14.148  64.786  1.00  0.00    -0.008 C  
HETATM    8  C   UNL     1     -11.209  15.080  64.919  1.00  0.00    -0.416 C  
HETATM    9  O   UNL     1     -13.007  13.026  66.420  1.00  0.00     0.149 OA 
HETATM   10  H   UNL     1     -13.831  13.496  66.477  1.00  0.00     0.000 HD 
HETATM   11  N   UNL     1     -11.399  15.511  66.336  1.00  0.00    -0.098 NA 
HETATM   12  C   UNL     1     -12.461  14.331  64.406  1.00  0.00    -0.300 C  
HETATM   13  H2  UNL     1     -10.558  15.946  66.715  1.00  0.00     0.000 HD 
HETATM   14  O   UNL     1     -12.459  14.245  62.974  1.00  0.00    -0.986 OA 
HETATM   15  C   UNL     1     -12.608  12.930  65.045  1.00  0.00    -0.472 C  
HETATM   16  H1  UNL     1     -12.212  16.121  66.423  1.00  0.00     0.000 HD 
HETATM   17  H   UNL     1     -13.228  13.785  62.659  1.00  0.00     0.000 HD 
BRANCH   7  18
HETATM   18  O   UNL     1      -8.822  14.841  65.286  1.00  0.00     1.144 OA 
BRANCH  18  19
HETATM   19  C   UNL     1      -8.847  15.066  66.706  1.00  0.00    -0.268 C  
HETATM   20  O   UNL     1      -9.939  12.862  66.984  1.00  0.00    -0.235 OA 
HETATM   21  C   UNL     1      -7.449  15.545  67.092  1.00  0.00    -0.209 C  
HETATM   22  C   UNL     1      -7.578  13.287  67.658  1.00  0.00    -0.170 C  
HETATM   23  H   UNL     1     -10.047  12.075  67.505  1.00  0.00     0.000 HD 
HETATM   24  O   UNL     1      -6.686  14.386  67.459  1.00  0.00    -0.185 OA 
HETATM   25  C   UNL     1      -9.020  13.807  67.538  1.00  0.00    -0.201 C  
BRANCH  21  26
HETATM   26  C   UNL     1      -7.432  16.524  68.267  1.00  0.00    -0.171 C  
HETATM   27  H   UNL     1      -6.773  16.557  70.129  1.00  0.00     0.000 HD 
HETATM   28  O   UNL     1      -6.784  15.949  69.399  1.00  0.00    -0.167 OA 
ENDBRANCH  21  26
BRANCH  22  29
HETATM   29  O   UNL     1      -7.403  12.723  68.953  1.00  0.00    -0.089 OA 
BRANCH  29  30
HETATM   30  C   UNL     1      -7.642  11.312  69.126  1.00  0.00    -0.070 C  
HETATM   31  C   UNL     1      -6.650  10.493  68.277  1.00  0.00    -0.059 C  
HETATM   32  O   UNL     1      -5.315  10.985  68.460  1.00  0.00    -0.044 OA 
HETATM   33  C   UNL     1      -6.710   9.010  68.660  1.00  0.00    -0.058 C  
HETATM   34  C   UNL     1      -8.113   8.476  68.373  1.00  0.00    -0.122 C  
HETATM   35  N   UNL     1      -5.698   8.230  67.922  1.00  0.00    -0.038 NA 
HETATM   36  H   UNL     1      -4.703  10.481  67.938  1.00  0.00     0.000 HD 
HETATM   37  H1  UNL     1      -5.738   7.244  68.176  1.00  0.00     0.000 HD 
HETATM   38  H2  UNL     1      -4.762   8.613  68.051  1.00  0.00     0.000 HD 
HETATM   39  C   UNL     1      -9.198   9.281  69.109  1.00  0.00    -0.149 C  
HETATM   40  C   UNL     1      -9.104  10.839  68.899  1.00  0.00    -0.164 C  
HETATM   41  N   UNL     1     -10.521   8.761  68.704  1.00  0.00    -0.282 NA 
HETATM   42  H2  UNL     1     -10.610   7.756  68.852  1.00  0.00     0.000 HD 
HETATM   43  H1  UNL     1     -11.240   9.295  69.192  1.00  0.00     0.000 HD 
BRANCH  40  44
HETATM   44  O   UNL     1     -10.069  11.432  69.799  1.00  0.00     0.329 OA 
BRANCH  44  45
HETATM   45  C   UNL     1     -11.395  11.583  69.272  1.00  0.00    -0.288 C  
HETATM   46  O   UNL     1     -12.280  10.587  69.772  1.00  0.00    -0.266 OA 
HETATM   47  C   UNL     1     -12.579  10.677  71.164  1.00  0.00    -0.423 C  
HETATM   48  C   UNL     1     -13.243  12.022  71.468  1.00  0.00    -0.178 C  
HETATM   49  H1  UNL     1     -11.463  15.033  69.222  1.00  0.00     0.000 HD 
HETATM   50  H2  UNL     1     -10.855  13.977  68.071  1.00  0.00     0.000 HD 
HETATM   51  O   UNL     1     -13.537  12.184  72.857  1.00  0.00    -0.377 OA 
HETATM   52  C   UNL     1     -12.328  13.165  71.007  1.00  0.00    -0.265 C  
HETATM   53  H   UNL     1     -13.949  13.018  73.045  1.00  0.00     0.000 HD 
HETATM   54  O   UNL     1     -12.994  14.425  71.206  1.00  0.00    -0.312 OA 
HETATM   55  N   UNL     1     -11.087  14.099  69.057  1.00  0.00    -0.256 NA 
HETATM   56  C   UNL     1     -11.966  13.002  69.523  1.00  0.00    -0.289 C  
HETATM   57  H   UNL     1     -12.428  15.132  70.921  1.00  0.00     0.000 HD 
BRANCH  47  58
HETATM   58  C   UNL     1     -13.504   9.501  71.506  1.00  0.00    -0.368 C  
HETATM   59  O   UNL     1     -13.620   9.357  72.924  1.00  0.00    -0.672 OA 
HETATM   60  H   UNL     1     -14.193   8.629  73.135  1.00  0.00     0.000 HD 
ENDBRANCH  47  58
ENDBRANCH  44  45
ENDBRANCH  40  44
ENDBRANCH  29  30
ENDBRANCH  22  29
ENDBRANCH  18  19
ENDBRANCH   7  18
ENDBRANCH   2   5
TORSDOF 9
ENDMDL
MODEL      276
REMARK 921   NORMALIZED FREE ENERGY PREDICTED BY IDOCK:    0.17 KCAL/MOL
REMARK 922        TOTAL FREE ENERGY PREDICTED BY IDOCK:   -1.79 KCAL/MOL
REMARK 923 INTER-LIGAND FREE ENERGY PREDICTED BY IDOCK:   -6.42 KCAL/MOL
REMARK 924 INTRA-LIGAND FREE ENERGY PREDICTED BY IDOCK:    4.63 KCAL/MOL
REMARK 927      BINDING AFFINITY PREDICTED BY RF-SCORE:    0.00 PKD
ROOT
HETATM    1  N   UNL     1     -12.405  15.115  68.434  1.00  0.00    -0.509 NA 
HETATM    2  C   UNL     1     -12.112  15.274  66.996  1.00  0.00     0.400 C  
HETATM    3  H1  UNL     1     -12.376  16.024  68.897  1.00  0.00     0.000 HD 
HETATM    4  H2  UNL     1     -11.785  14.438  68.879  1.00  0.00     0.000 HD 
ENDROOT
BRANCH   2   5
HETATM    5  C   UNL     1     -12.157  13.904  66.298  1.00  0.00    -0.451 C  
HETATM    6  O   UNL     1     -10.962  13.197  66.678  1.00  0.00    -0.277 OA 
HETATM    7  C   UNL     1     -10.988  11.835  66.254  1.00  0.00    -0.300 C  
HETATM    8  C   UNL     1     -10.936  11.796  64.699  1.00  0.00    -0.310 C  
HETATM    9  O   UNL     1     -11.207  14.871  64.279  1.00  0.00    -0.629 OA 
HETATM   10  H   UNL     1     -11.261  14.933  63.333  1.00  0.00     0.000 HD 
HETATM   11  N   UNL     1      -9.647  12.356  64.196  1.00  0.00    -0.538 NA 
HETATM   12  C   UNL     1     -12.133  12.595  64.133  1.00  0.00    -0.439 C  
HETATM   13  H2  UNL     1      -8.843  11.885  64.612  1.00  0.00     0.000 HD 
HETATM   14  O   UNL     1     -13.359  11.867  64.287  1.00  0.00    -0.610 OA 
HETATM   15  C   UNL     1     -12.244  14.005  64.761  1.00  0.00    -0.433 C  
HETATM   16  H1  UNL     1      -9.613  12.330  63.176  1.00  0.00     0.000 HD 
HETATM   17  H   UNL     1     -14.094  12.358  63.939  1.00  0.00     0.000 HD 
BRANCH   7  18
HETATM   18  O   UNL     1      -9.864  11.114  66.766  1.00  0.00    -0.193 OA 
BRANCH  18  19
HETATM   19  C   UNL     1      -9.094  11.844  67.738  1.00  0.00    -0.180 C  
HETATM   20  O   UNL     1      -7.245  10.233  67.407  1.00  0.00    -0.090 OA 
HETATM   21  C   UNL     1      -9.214  13.320  67.362  1.00  0.00    -0.216 C  
HETATM   22  C   UNL     1      -7.144  12.583  66.583  1.00  0.00     0.584 C  
HETATM   23  H   UNL     1      -6.309  10.076  67.364  1.00  0.00     0.000 HD 
HETATM   24  O   UNL     1      -8.110  13.633  66.500  1.00  0.00     0.344 OA 
HETATM   25  C   UNL     1      -7.597  11.594  67.669  1.00  0.00    -0.128 C  
BRANCH  21  26
HETATM   26  C   UNL     1      -9.173  14.270  68.560  1.00  0.00    -0.197 C  
HETATM   27  H   UNL     1     -10.077  14.455  70.306  1.00  0.00     0.000 HD 
HETATM   28  O   UNL     1     -10.103  13.866  69.563  1.00  0.00     0.212 OA 
ENDBRANCH  21  26
BRANCH  22  29
HETATM   29  O   UNL     1      -5.866  13.099  66.941  1.00  0.00    -0.106 OA 
BRANCH  29  30
HETATM   30  C   UNL     1      -5.706  13.690  68.246  1.00  0.00    -0.103 C  
HETATM   31  C   UNL     1      -6.057  12.667  69.343  1.00  0.00    -0.107 C  
HETATM   32  O   UNL     1      -5.412  11.413  69.079  1.00  0.00    -0.041 OA 
HETATM   33  C   UNL     1      -5.629  13.187  70.721  1.00  0.00    -0.187 C  
HETATM   34  C   UNL     1      -6.393  14.474  71.029  1.00  0.00     0.119 C  
HETATM   35  N   UNL     1      -5.874  12.177  71.768  1.00  0.00     0.022 NA 
HETATM   36  H   UNL     1      -5.628  10.783  69.756  1.00  0.00     0.000 HD 
HETATM   37  H1  UNL     1      -5.590  12.522  72.685  1.00  0.00     0.000 HD 
HETATM   38  H2  UNL     1      -5.424  11.289  71.546  1.00  0.00     0.000 HD 
HETATM   39  C   UNL     1      -6.181  15.544  69.944  1.00  0.00    -0.157 C  
HETATM   40  C   UNL     1      -6.440  15.039  68.475  1.00  0.00    -0.094 C  
HETATM   41  N   UNL     1      -7.024  16.714  70.269  1.00  0.00     0.823 NA 
HETATM   42  H2  UNL     1      -6.855  17.070  71.210  1.00  0.00     0.000 HD 
HETATM   43  H1  UNL     1      -6.883  17.423  69.550  1.00  0.00     0.000 HD 
BRANCH  40  44
HETATM   44  O   UNL     1      -6.017  16.106  67.594  1.00  0.00    -0.129 OA 
BRANCH  44  45
HETATM   45  C   UNL     1      -6.988  16.533  66.629  1.00  0.00    -0.161 C  
HETATM   46  O   UNL     1      -8.263  16.756  67.222  1.00  0.00    -0.168 OA 
HETATM   47  C   UNL     1      -8.335  17.862  68.120  1.00  0.00    -0.267 C  
HETATM   48  C   UNL     1      -7.982  19.156  67.381  1.00  0.00    -0.259 C  
HETATM   49  H1  UNL     1      -4.878  18.468  64.703  1.00  0.00     0.000 HD 
HETATM   50  H2  UNL     1      -5.155  16.817  64.623  1.00  0.00     0.000 HD 
HETATM   51  O   UNL     1      -8.006  20.298  68.240  1.00  0.00    -0.171 OA 
HETATM   52  C   UNL     1      -6.589  19.026  66.749  1.00  0.00    -0.189 C  
HETATM   53  H   UNL     1      -7.787  21.100  67.781  1.00  0.00     0.000 HD 
HETATM   54  O   UNL     1      -6.300  20.204  65.976  1.00  0.00    -0.191 OA 
HETATM   55  N   UNL     1      -5.186  17.645  65.220  1.00  0.00    -0.112 NA 
HETATM   56  C   UNL     1      -6.521  17.785  65.844  1.00  0.00    -0.229 C  
HETATM   57  H   UNL     1      -5.438  20.123  65.585  1.00  0.00     0.000 HD 
BRANCH  47  58
HETATM   58  C   UNL     1      -9.765  17.902  68.676  1.00  0.00    -0.353 C  
HETATM   59  O   UNL     1     -10.625  18.618  67.784  1.00  0.00    -0.406 OA 
HETATM   60  H   UNL     1     -11.509  18.642  68.127  1.00  0.00     0.000 HD 
ENDBRANCH  47  58
ENDBRANCH  44  45
ENDBRANCH  40  44
ENDBRANCH  29  30
ENDBRANCH  22  29
ENDBRANCH  18  19
ENDBRANCH   7  18
ENDBRANCH   2   5
TORSDOF 9
ENDMDL
MODEL      277
REMARK 921   NORMALIZED FREE ENERGY PREDICTED BY IDOCK:    0.24 KCAL/MOL
REMARK 922        TOTAL FREE ENERGY PREDICTED BY IDOCK:   -1.68 KCAL/MOL
REMARK 923 INTER-LIGAND FREE ENERGY PREDICTED BY IDOCK:   -6.11 KCAL/MOL
REMARK 924 INTRA-LIGAND FREE ENERGY PREDICTED BY IDOCK:    4.43 KCAL/MOL
REMARK 927      BINDING AFFINITY PREDICTED BY RF-SCORE:    0.00 PKD
ROOT
HETATM    1  N   UNL     1      -5.932  19.441  69.922  1.00  0.00    -0.259 NA 
HETATM    2  C   UNL     1      -6.540  18.637  68.843  1.00  0.00    -0.265 C  
HETATM    3  H1  UNL     1      -4.950  19.187  70.032  1.00  0.00     0.000 HD 
HETATM    4  H2  UNL     1      -6.449  19.360  70.798  1.00  0.00     0.000 HD 
ENDROOT
BRANCH   2   5
HETATM    5  C   UNL     1      -8.020  19.019  68.677  1.00  0.00    -0.352 C  
HETATM    6  O   UNL     1      -8.728  17.823  68.300  1.00  0.00    -0.262 OA 
HETATM    7  C   UNL     1     -10.141  18.010  68.313  1.00  0.00    -0.385 C  
HETATM    8  C   UNL     1     -10.523  19.010  67.184  1.00  0.00    -0.441 C  
HETATM    9  O   UNL     1      -7.603  19.754  66.396  1.00  0.00    -0.265 OA 
HETATM   10  H   UNL     1      -7.744  20.433  65.747  1.00  0.00     0.000 HD 
HETATM   11  N   UNL     1     -10.199  18.444  65.841  1.00  0.00    -0.587 NA 
HETATM   12  C   UNL     1      -9.768  20.340  67.410  1.00  0.00    -0.444 C  
HETATM   13  H2  UNL     1     -10.634  17.532  65.700  1.00  0.00     0.000 HD 
HETATM   14  O   UNL     1     -10.338  21.079  68.499  1.00  0.00     0.356 OA 
HETATM   15  C   UNL     1      -8.251  20.122  67.622  1.00  0.00    -0.294 C  
HETATM   16  H1  UNL     1     -10.449  19.100  65.101  1.00  0.00     0.000 HD 
HETATM   17  H   UNL     1      -9.874  21.896  68.637  1.00  0.00     0.000 HD 
BRANCH   7  18
HETATM   18  O   UNL     1     -10.826  16.776  68.082  1.00  0.00    -0.350 OA 
BRANCH  18  19
HETATM   19  C   UNL     1     -10.077  15.609  68.466  1.00  0.00    -0.211 C  
HETATM   20  O   UNL     1     -11.524  14.254  66.985  1.00  0.00    -0.328 OA 
HETATM   21  C   UNL     1      -8.602  15.987  68.349  1.00  0.00    -0.185 C  
HETATM   22  C   UNL     1      -9.144  14.756  66.445  1.00  0.00    -0.233 C  
HETATM   23  H   UNL     1     -11.606  13.521  66.386  1.00  0.00     0.000 HD 
HETATM   24  O   UNL     1      -8.170  15.623  67.029  1.00  0.00    -0.191 OA 
HETATM   25  C   UNL     1     -10.207  14.436  67.509  1.00  0.00    -0.240 C  
BRANCH  21  26
HETATM   26  C   UNL     1      -7.699  15.281  69.362  1.00  0.00    -0.225 C  
HETATM   27  H   UNL     1      -6.341  15.785  70.705  1.00  0.00     0.000 HD 
HETATM   28  O   UNL     1      -6.901  16.223  70.076  1.00  0.00    -0.018 OA 
ENDBRANCH  21  26
BRANCH  22  29
HETATM   29  O   UNL     1      -8.544  13.536  66.021  1.00  0.00     0.541 OA 
BRANCH  29  30
HETATM   30  C   UNL     1      -9.403  12.434  65.668  1.00  0.00     0.054 C  
HETATM   31  C   UNL     1     -10.586  12.931  64.815  1.00  0.00    -0.342 C  
HETATM   32  O   UNL     1     -10.118  13.791  63.767  1.00  0.00    -0.319 OA 
HETATM   33  C   UNL     1     -11.346  11.746  64.207  1.00  0.00    -0.325 C  
HETATM   34  C   UNL     1     -11.919  10.887  65.335  1.00  0.00     1.924 C  
HETATM   35  N   UNL     1     -12.423  12.209  63.312  1.00  0.00    -0.807 NA 
HETATM   36  H   UNL     1     -10.846  14.097  63.241  1.00  0.00     0.000 HD 
HETATM   37  H1  UNL     1     -12.929  11.422  62.908  1.00  0.00     0.000 HD 
HETATM   38  H2  UNL     1     -12.068  12.837  62.591  1.00  0.00     0.000 HD 
HETATM   39  C   UNL     1     -10.826  10.404  66.304  1.00  0.00     0.048 C  
HETATM   40  C   UNL     1      -9.889  11.548  66.847  1.00  0.00    -0.197 C  
HETATM   41  N   UNL     1     -11.473   9.666  67.409  1.00  0.00    -0.129 NA 
HETATM   42  H2  UNL     1     -12.067   8.906  67.077  1.00  0.00     0.000 HD 
HETATM   43  H1  UNL     1     -10.748   9.346  68.050  1.00  0.00     0.000 HD 
BRANCH  40  44
HETATM   44  O   UNL     1      -8.827  10.894  67.580  1.00  0.00    -0.132 OA 
BRANCH  44  45
HETATM   45  C   UNL     1      -8.579  11.404  68.898  1.00  0.00    -0.014 C  
HETATM   46  O   UNL     1      -9.729  11.303  69.730  1.00  0.00     0.448 OA 
HETATM   47  C   UNL     1     -10.121   9.974  70.072  1.00  0.00    -0.239 C  
HETATM   48  C   UNL     1      -8.989   9.276  70.830  1.00  0.00    -0.232 C  
HETATM   49  H1  UNL     1      -5.316  10.318  69.186  1.00  0.00     0.000 HD 
HETATM   50  H2  UNL     1      -5.898  11.723  68.480  1.00  0.00     0.000 HD 
HETATM   51  O   UNL     1      -9.313   7.927  71.171  1.00  0.00    -0.148 OA 
HETATM   52  C   UNL     1      -7.712   9.291  69.978  1.00  0.00    -0.104 C  
HETATM   53  H   UNL     1      -8.610   7.494  71.642  1.00  0.00     0.000 HD 
HETATM   54  O   UNL     1      -6.626   8.720  70.730  1.00  0.00    -0.040 OA 
HETATM   55  N   UNL     1      -6.122  10.764  68.747  1.00  0.00    -0.040 NA 
HETATM   56  C   UNL     1      -7.355  10.727  69.566  1.00  0.00    -0.124 C  
HETATM   57  H   UNL     1      -5.836   8.729  70.203  1.00  0.00     0.000 HD 
BRANCH  47  58
HETATM   58  C   UNL     1     -11.390  10.083  70.929  1.00  0.00    -0.361 C  
HETATM   59  O   UNL     1     -12.104   8.844  70.918  1.00  0.00    -0.398 OA 
HETATM   60  H   UNL     1     -12.889   8.911  71.447  1.00  0.00     0.000 HD 
ENDBRANCH  47  58
ENDBRANCH  44  45
ENDBRANCH  40  44
ENDBRANCH  29  30
ENDBRANCH  22  29
ENDBRANCH  18  19
ENDBRANCH   7  18
ENDBRANCH   2   5
TORSDOF 9
ENDMDL
MODEL      278
REMARK 921   NORMALIZED FREE ENERGY PREDICTED BY IDOCK:    0.41 KCAL/MOL
REMARK 922        TOTAL FREE ENERGY PREDICTED BY IDOCK:   -1.41 KCAL/MOL
REMARK 923 INTER-LIGAND FREE ENERGY PREDICTED BY IDOCK:   -3.12 KCAL/MOL
REMARK 924 INTRA-LIGAND FREE ENERGY PREDICTED BY IDOCK:    1.71 KCAL/MOL
REMARK 927      BINDING AFFINITY PREDICTED BY RF-SCORE:    0.00 PKD
ROOT
HETATM    1  N   UNL     1     -10.052  10.038  70.800  1.00  0.00    -0.317 NA 
HETATM    2  C   UNL     1      -9.724   8.733  71.408  1.00  0.00    -0.280 C  
HETATM    3  H1  UNL     1     -10.994  10.012  70.410  1.00  0.00     0.000 HD 
HETATM    4  H2  UNL     1      -9.358  10.323  70.108  1.00  0.00     0.000 HD 
ENDROOT
BRANCH   2   5
HETATM    5  C   UNL     1      -8.304   8.772  71.996  1.00  0.00    -0.023 C  
HETATM    6  O   UNL     1      -7.603   7.622  71.489  1.00  0.00    -0.077 OA 
HETATM    7  C   UNL     1      -6.213   7.658  71.804  1.00  0.00    -0.039 C  
HETATM    8  C   UNL     1      -6.047   7.514  73.345  1.00  0.00    -0.060 C  
HETATM    9  O   UNL     1      -9.084   7.677  74.022  1.00  0.00    -0.280 OA 
HETATM   10  H   UNL     1      -9.071   7.672  74.972  1.00  0.00     0.000 HD 
HETATM   11  N   UNL     1      -6.537   6.183  73.810  1.00  0.00    -0.074 NA 
HETATM   12  C   UNL     1      -6.824   8.653  74.045  1.00  0.00    -0.033 C  
HETATM   13  H2  UNL     1      -6.084   5.418  73.309  1.00  0.00     0.000 HD 
HETATM   14  O   UNL     1      -6.138   9.905  73.911  1.00  0.00    -0.089 OA 
HETATM   15  C   UNL     1      -8.283   8.764  73.539  1.00  0.00     0.385 C  
HETATM   16  H1  UNL     1      -6.428   6.088  74.820  1.00  0.00     0.000 HD 
HETATM   17  H   UNL     1      -6.615  10.605  74.341  1.00  0.00     0.000 HD 
BRANCH   7  18
HETATM   18  O   UNL     1      -5.511   6.587  71.168  1.00  0.00    -0.025 OA 
BRANCH  18  19
HETATM   19  C   UNL     1      -6.358   5.507  70.737  1.00  0.00    -0.031 C  
HETATM   20  O   UNL     1      -7.569   7.104  69.284  1.00  0.00    -0.097 OA 
HETATM   21  C   UNL     1      -5.431   4.344  70.389  1.00  0.00    -0.012 C  
HETATM   22  C   UNL     1      -6.046   5.352  68.379  1.00  0.00    -0.026 C  
HETATM   23  H   UNL     1      -8.026   7.266  68.467  1.00  0.00     0.000 HD 
HETATM   24  O   UNL     1      -5.128   4.442  68.989  1.00  0.00     0.000 OA 
HETATM   25  C   UNL     1      -7.089   5.765  69.430  1.00  0.00    -0.065 C  
BRANCH  21  26
HETATM   26  C   UNL     1      -6.039   2.966  70.655  1.00  0.00    -0.019 C  
HETATM   27  H   UNL     1      -6.039   1.184  69.804  1.00  0.00     0.000 HD 
HETATM   28  O   UNL     1      -5.662   2.039  69.639  1.00  0.00    -0.017 OA 
ENDBRANCH  21  26
BRANCH  22  29
HETATM   29  O   UNL     1      -6.720   4.733  67.287  1.00  0.00    -0.052 OA 
BRANCH  29  30
HETATM   30  C   UNL     1      -6.948   5.507  66.094  1.00  0.00    -0.063 C  
HETATM   31  C   UNL     1      -5.852   5.217  65.050  1.00  0.00    -0.017 C  
HETATM   32  O   UNL     1      -5.654   3.802  64.917  1.00  0.00    -0.013 OA 
HETATM   33  C   UNL     1      -6.232   5.814  63.690  1.00  0.00    -0.025 C  
HETATM   34  C   UNL     1      -6.349   7.332  63.826  1.00  0.00    -0.045 C  
HETATM   35  N   UNL     1      -5.237   5.462  62.659  1.00  0.00    -0.013 NA 
HETATM   36  H   UNL     1      -4.979   3.623  64.274  1.00  0.00     0.000 HD 
HETATM   37  H1  UNL     1      -5.488   5.859  61.755  1.00  0.00     0.000 HD 
HETATM   38  H2  UNL     1      -5.098   4.453  62.601  1.00  0.00     0.000 HD 
HETATM   39  C   UNL     1      -7.363   7.738  64.909  1.00  0.00    -0.070 C  
HETATM   40  C   UNL     1      -7.140   7.035  66.301  1.00  0.00    -0.074 C  
HETATM   41  N   UNL     1      -7.344   9.210  65.040  1.00  0.00    -0.098 NA 
HETATM   42  H2  UNL     1      -7.508   9.684  64.152  1.00  0.00     0.000 HD 
HETATM   43  H1  UNL     1      -8.016   9.478  65.758  1.00  0.00     0.000 HD 
BRANCH  40  44
HETATM   44  O   UNL     1      -8.276   7.387  67.124  1.00  0.00    -0.115 OA 
BRANCH  44  45
HETATM   45  C   UNL     1      -9.544   6.886  66.676  1.00  0.00    -0.168 C  
HETATM   46  O   UNL     1      -9.617   5.468  66.771  1.00  0.00    -0.131 OA 
HETATM   47  C   UNL     1      -9.623   4.943  68.098  1.00  0.00    -0.143 C  
HETATM   48  C   UNL     1     -10.834   5.480  68.865  1.00  0.00    -0.061 C  
HETATM   49  H1  UNL     1     -11.492   9.465  67.885  1.00  0.00     0.000 HD 
HETATM   50  H2  UNL     1     -10.658   9.369  66.434  1.00  0.00     0.000 HD 
HETATM   51  O   UNL     1     -10.875   5.012  70.215  1.00  0.00    -0.083 OA 
HETATM   52  C   UNL     1     -10.809   7.014  68.860  1.00  0.00    -0.167 C  
HETATM   53  H   UNL     1     -11.627   5.345  70.690  1.00  0.00     0.000 HD 
HETATM   54  O   UNL     1     -11.997   7.517  69.497  1.00  0.00    -0.053 OA 
HETATM   55  N   UNL     1     -10.711   9.029  67.395  1.00  0.00    -0.232 NA 
HETATM   56  C   UNL     1     -10.730   7.549  67.421  1.00  0.00    -0.261 C  
HETATM   57  H   UNL     1     -11.981   8.466  69.494  1.00  0.00     0.000 HD 
BRANCH  47  58
HETATM   58  C   UNL     1      -9.663   3.413  67.980  1.00  0.00     0.007 C  
HETATM   59  O   UNL     1      -8.719   2.821  68.877  1.00  0.00    -0.069 OA 
HETATM   60  H   UNL     1      -8.744   1.875  68.804  1.00  0.00     0.000 HD 
ENDBRANCH  47  58
ENDBRANCH  44  45
ENDBRANCH  40  44
ENDBRANCH  29  30
ENDBRANCH  22  29
ENDBRANCH  18  19
ENDBRANCH   7  18
ENDBRANCH   2   5
TORSDOF 9
ENDMDL
MODEL      279
REMARK 921   NORMALIZED FREE ENERGY PREDICTED BY IDOCK:    0.63 KCAL/MOL
REMARK 922        TOTAL FREE ENERGY PREDICTED BY IDOCK:   -1.08 KCAL/MOL
REMARK 923 INTER-LIGAND FREE ENERGY PREDICTED BY IDOCK:   -4.07 KCAL/MOL
REMARK 924 INTRA-LIGAND FREE ENERGY PREDICTED BY IDOCK:    2.99 KCAL/MOL
REMARK 927      BINDING AFFINITY PREDICTED BY RF-SCORE:    0.00 PKD
ROOT
HETATM    1  N   UNL     1     -10.801   4.683  72.531  1.00  0.00    -0.154 NA 
HETATM    2  C   UNL     1     -10.089   5.976  72.484  1.00  0.00    -0.178 C  
HETATM    3  H1  UNL     1     -11.775   4.832  72.795  1.00  0.00     0.000 HD 
HETATM    4  H2  UNL     1     -10.336   4.012  73.144  1.00  0.00     0.000 HD 
ENDROOT
BRANCH   2   5
HETATM    5  C   UNL     1      -8.621   5.751  72.087  1.00  0.00    -0.129 C  
HETATM    6  O   UNL     1      -8.481   6.182  70.720  1.00  0.00    -0.127 OA 
HETATM    7  C   UNL     1      -7.117   6.209  70.304  1.00  0.00    -0.074 C  
HETATM    8  C   UNL     1      -6.578   4.749  70.265  1.00  0.00    -0.036 C  
HETATM    9  O   UNL     1      -9.098   3.431  71.536  1.00  0.00    -0.095 OA 
HETATM   10  H   UNL     1      -8.820   2.526  71.622  1.00  0.00     0.000 HD 
HETATM   11  N   UNL     1      -7.302   3.943  69.239  1.00  0.00    -0.053 NA 
HETATM   12  C   UNL     1      -6.737   4.115  71.666  1.00  0.00    -0.026 C  
HETATM   13  H2  UNL     1      -7.267   4.383  68.319  1.00  0.00     0.000 HD 
HETATM   14  O   UNL     1      -5.765   4.637  72.582  1.00  0.00    -0.007 OA 
HETATM   15  C   UNL     1      -8.170   4.281  72.225  1.00  0.00    -0.103 C  
HETATM   16  H1  UNL     1      -6.949   2.986  69.213  1.00  0.00     0.000 HD 
HETATM   17  H   UNL     1      -5.862   4.247  73.443  1.00  0.00     0.000 HD 
BRANCH   7  18
HETATM   18  O   UNL     1      -6.988   6.778  68.998  1.00  0.00    -0.076 OA 
BRANCH  18  19
HETATM   19  C   UNL     1      -8.051   7.682  68.647  1.00  0.00    -0.127 C  
HETATM   20  O   UNL     1      -6.748   8.355  66.652  1.00  0.00    -0.059 OA 
HETATM   21  C   UNL     1      -9.350   6.889  68.771  1.00  0.00    -0.129 C  
HETATM   22  C   UNL     1      -8.813   6.968  66.504  1.00  0.00    -0.141 C  
HETATM   23  H   UNL     1      -6.748   8.625  65.741  1.00  0.00     0.000 HD 
HETATM   24  O   UNL     1      -9.631   6.323  67.482  1.00  0.00    -0.115 OA 
HETATM   25  C   UNL     1      -8.051   8.114  67.190  1.00  0.00    -0.116 C  
BRANCH  21  26
HETATM   26  C   UNL     1     -10.552   7.733  69.199  1.00  0.00    -0.183 C  
HETATM   27  H   UNL     1     -10.883   9.545  69.910  1.00  0.00     0.000 HD 
HETATM   28  O   UNL     1     -10.137   9.022  69.645  1.00  0.00    -0.185 OA 
ENDBRANCH  21  26
BRANCH  22  29
HETATM   29  O   UNL     1      -9.611   7.514  65.458  1.00  0.00     0.394 OA 
BRANCH  29  30
HETATM   30  C   UNL     1      -8.958   8.264  64.416  1.00  0.00     0.553 C  
HETATM   31  C   UNL     1      -7.499   7.795  64.253  1.00  0.00    -0.100 C  
HETATM   32  O   UNL     1      -7.440   6.362  64.201  1.00  0.00    -0.070 OA 
HETATM   33  C   UNL     1      -6.883   8.383  62.978  1.00  0.00    -0.090 C  
HETATM   34  C   UNL     1      -6.868   9.908  63.087  1.00  0.00    -0.125 C  
HETATM   35  N   UNL     1      -5.518   7.866  62.761  1.00  0.00    -0.055 NA 
HETATM   36  H   UNL     1      -6.541   6.073  64.100  1.00  0.00     0.000 HD 
HETATM   37  H1  UNL     1      -5.108   8.257  61.913  1.00  0.00     0.000 HD 
HETATM   38  H2  UNL     1      -5.500   6.846  62.750  1.00  0.00     0.000 HD 
HETATM   39  C   UNL     1      -8.273  10.482  63.338  1.00  0.00    -0.098 C  
HETATM   40  C   UNL     1      -9.043   9.810  64.536  1.00  0.00    -0.249 C  
HETATM   41  N   UNL     1      -8.154  11.943  63.524  1.00  0.00     0.993 NA 
HETATM   42  H2  UNL     1      -7.677  12.400  62.747  1.00  0.00     0.000 HD 
HETATM   43  H1  UNL     1      -9.086  12.323  63.690  1.00  0.00     0.000 HD 
BRANCH  40  44
HETATM   44  O   UNL     1     -10.390  10.337  64.503  1.00  0.00    -0.255 OA 
BRANCH  44  45
HETATM   45  C   UNL     1     -10.896  10.823  65.755  1.00  0.00    -0.006 C  
HETATM   46  O   UNL     1      -9.864  10.961  66.725  1.00  0.00    -0.186 OA 
HETATM   47  C   UNL     1      -8.905  11.983  66.457  1.00  0.00    -0.172 C  
HETATM   48  C   UNL     1      -9.603  13.344  66.386  1.00  0.00    -0.257 C  
HETATM   49  H1  UNL     1     -13.273  12.969  64.472  1.00  0.00     0.000 HD 
HETATM   50  H2  UNL     1     -13.395  11.325  64.773  1.00  0.00     0.000 HD 
HETATM   51  O   UNL     1      -8.694  14.407  66.086  1.00  0.00    -0.424 OA 
HETATM   52  C   UNL     1     -10.705  13.304  65.319  1.00  0.00    -0.311 C  
HETATM   53  H   UNL     1      -9.127  15.251  66.043  1.00  0.00     0.000 HD 
HETATM   54  O   UNL     1     -11.421  14.552  65.320  1.00  0.00    -0.334 OA 
HETATM   55  N   UNL     1     -12.756  12.096  64.578  1.00  0.00    -0.560 NA 
HETATM   56  C   UNL     1     -11.681  12.149  65.594  1.00  0.00    -0.323 C  
HETATM   57  H   UNL     1     -12.103  14.527  64.660  1.00  0.00     0.000 HD 
BRANCH  47  58
HETATM   58  C   UNL     1      -7.868  11.939  67.588  1.00  0.00    -0.142 C  
HETATM   59  O   UNL     1      -7.011  13.083  67.520  1.00  0.00    -0.145 OA 
HETATM   60  H   UNL     1      -6.370  13.056  68.219  1.00  0.00     0.000 HD 
ENDBRANCH  47  58
ENDBRANCH  44  45
ENDBRANCH  40  44
ENDBRANCH  29  30
ENDBRANCH  22  29
ENDBRANCH  18  19
ENDBRANCH   7  18
ENDBRANCH   2   5
TORSDOF 9
ENDMDL
MODEL      280
REMARK 921   NORMALIZED FREE ENERGY PREDICTED BY IDOCK:    0.63 KCAL/MOL
REMARK 922        TOTAL FREE ENERGY PREDICTED BY IDOCK:   -1.08 KCAL/MOL
REMARK 923 INTER-LIGAND FREE ENERGY PREDICTED BY IDOCK:   -3.42 KCAL/MOL
REMARK 924 INTRA-LIGAND FREE ENERGY PREDICTED BY IDOCK:    2.35 KCAL/MOL
REMARK 927      BINDING AFFINITY PREDICTED BY RF-SCORE:    0.00 PKD
ROOT
HETATM    1  N   UNL     1      -8.912   9.399  70.103  1.00  0.00    -0.209 NA 
HETATM    2  C   UNL     1      -9.901   8.679  70.930  1.00  0.00    -0.205 C  
HETATM    3  H1  UNL     1      -7.981   9.013  70.262  1.00  0.00     0.000 HD 
HETATM    4  H2  UNL     1      -8.941  10.407  70.261  1.00  0.00     0.000 HD 
ENDROOT
BRANCH   2   5
HETATM    5  C   UNL     1     -11.305   9.260  70.690  1.00  0.00    -0.275 C  
HETATM    6  O   UNL     1     -11.233  10.670  70.973  1.00  0.00    -0.093 OA 
HETATM    7  C   UNL     1     -12.425  11.354  70.592  1.00  0.00    -0.327 C  
HETATM    8  C   UNL     1     -13.590  10.874  71.507  1.00  0.00     0.152 C  
HETATM    9  O   UNL     1     -11.983   8.621  72.936  1.00  0.00    -0.236 OA 
HETATM   10  H   UNL     1     -12.654   8.215  73.473  1.00  0.00     0.000 HD 
HETATM   11  N   UNL     1     -13.338  11.253  72.929  1.00  0.00     0.636 NA 
HETATM   12  C   UNL     1     -13.740   9.341  71.371  1.00  0.00    -0.261 C  
HETATM   13  H2  UNL     1     -13.168  12.253  73.029  1.00  0.00     0.000 HD 
HETATM   14  O   UNL     1     -14.345   8.991  70.118  1.00  0.00     0.539 OA 
HETATM   15  C   UNL     1     -12.395   8.602  71.562  1.00  0.00    -0.324 C  
HETATM   16  H1  UNL     1     -14.101  10.938  73.528  1.00  0.00     0.000 HD 
HETATM   17  H   UNL     1     -14.438   8.050  70.035  1.00  0.00     0.000 HD 
BRANCH   7  18
HETATM   18  O   UNL     1     -12.279  12.768  70.743  1.00  0.00    -0.367 OA 
BRANCH  18  19
HETATM   19  C   UNL     1     -12.229  13.488  69.498  1.00  0.00    -0.236 C  
HETATM   20  O   UNL     1     -10.988  15.293  70.650  1.00  0.00    -0.363 OA 
HETATM   21  C   UNL     1     -11.779  12.484  68.438  1.00  0.00    -0.328 C  
HETATM   22  C   UNL     1      -9.912  13.757  69.009  1.00  0.00     0.066 C  
HETATM   23  H   UNL     1     -10.315  15.963  70.610  1.00  0.00     0.000 HD 
HETATM   24  O   UNL     1     -10.349  12.567  68.350  1.00  0.00    -0.223 OA 
HETATM   25  C   UNL     1     -11.153  14.559  69.434  1.00  0.00    -0.268 C  
BRANCH  21  26
HETATM   26  C   UNL     1     -12.363  12.746  67.049  1.00  0.00     0.220 C  
HETATM   27  H   UNL     1     -12.291  11.920  65.257  1.00  0.00     0.000 HD 
HETATM   28  O   UNL     1     -11.929  11.757  66.119  1.00  0.00    -0.464 OA 
ENDBRANCH  21  26
BRANCH  22  29
HETATM   29  O   UNL     1      -9.129  14.562  68.132  1.00  0.00    -0.178 OA 
BRANCH  29  30
HETATM   30  C   UNL     1      -9.393  14.492  66.717  1.00  0.00    -0.261 C  
HETATM   31  C   UNL     1     -10.709  15.221  66.382  1.00  0.00    -0.318 C  
HETATM   32  O   UNL     1     -10.743  16.506  67.019  1.00  0.00    -0.286 OA 
HETATM   33  C   UNL     1     -10.859  15.392  64.866  1.00  0.00    -0.425 C  
HETATM   34  C   UNL     1     -10.915  14.013  64.209  1.00  0.00    -0.163 C  
HETATM   35  N   UNL     1     -12.068  16.172  64.537  1.00  0.00    -0.132 NA 
HETATM   36  H   UNL     1     -11.553  16.955  66.812  1.00  0.00     0.000 HD 
HETATM   37  H1  UNL     1     -12.168  16.286  63.529  1.00  0.00     0.000 HD 
HETATM   38  H2  UNL     1     -12.078  17.070  65.019  1.00  0.00     0.000 HD 
HETATM   39  C   UNL     1      -9.680  13.162  64.550  1.00  0.00     0.224 C  
HETATM   40  C   UNL     1      -9.358  13.072  66.089  1.00  0.00    -0.080 C  
HETATM   41  N   UNL     1      -9.859  11.819  63.957  1.00  0.00    -0.403 NA 
HETATM   42  H2  UNL     1     -10.047  11.855  62.955  1.00  0.00     0.000 HD 
HETATM   43  H1  UNL     1      -9.040  11.256  64.183  1.00  0.00     0.000 HD 
BRANCH  40  44
HETATM   44  O   UNL     1      -8.082  12.401  66.202  1.00  0.00     0.370 OA 
BRANCH  44  45
HETATM   45  C   UNL     1      -8.082  11.195  66.980  1.00  0.00    -0.148 C  
HETATM   46  O   UNL     1      -9.200  10.369  66.675  1.00  0.00    -0.153 OA 
HETATM   47  C   UNL     1      -9.198   9.795  65.369  1.00  0.00    -0.227 C  
HETATM   48  C   UNL     1      -7.960   8.913  65.190  1.00  0.00    -0.122 C  
HETATM   49  H1  UNL     1      -4.670  10.685  67.011  1.00  0.00     0.000 HD 
HETATM   50  H2  UNL     1      -5.599  11.640  68.028  1.00  0.00     0.000 HD 
HETATM   51  O   UNL     1      -7.886   8.335  63.885  1.00  0.00    -0.133 OA 
HETATM   52  C   UNL     1      -6.694   9.741  65.450  1.00  0.00    -0.093 C  
HETATM   53  H   UNL     1      -7.118   7.787  63.775  1.00  0.00     0.000 HD 
HETATM   54  O   UNL     1      -5.538   8.889  65.375  1.00  0.00    -0.045 OA 
HETATM   55  N   UNL     1      -5.542  11.205  67.106  1.00  0.00    -0.056 NA 
HETATM   56  C   UNL     1      -6.758  10.405  66.834  1.00  0.00    -0.083 C  
HETATM   57  H   UNL     1      -4.754   9.401  65.536  1.00  0.00     0.000 HD 
BRANCH  47  58
HETATM   58  C   UNL     1     -10.494   8.984  65.228  1.00  0.00     2.062 C  
HETATM   59  O   UNL     1     -10.744   8.237  66.422  1.00  0.00    -0.207 OA 
HETATM   60  H   UNL     1     -11.545   7.736  66.335  1.00  0.00     0.000 HD 
ENDBRANCH  47  58
ENDBRANCH  44  45
ENDBRANCH  40  44
ENDBRANCH  29  30
ENDBRANCH  22  29
ENDBRANCH  18  19
ENDBRANCH   7  18
ENDBRANCH   2   5
TORSDOF 9
ENDMDL
MODEL      281
REMARK 921   NORMALIZED FREE ENERGY PREDICTED BY IDOCK:    1.16 KCAL/MOL
REMARK 922        TOTAL FREE ENERGY PREDICTED BY IDOCK:   -0.27 KCAL/MOL
REMARK 923 INTER-LIGAND FREE ENERGY PREDICTED BY IDOCK:   -0.74 KCAL/MOL
REMARK 924 INTRA-LIGAND FREE ENERGY PREDICTED BY IDOCK:    0.47 KCAL/MOL
REMARK 927      BINDING AFFINITY PREDICTED BY RF-SCORE:    0.00 PKD
ROOT
HETATM    1  N   UNL     1     -11.136   3.758  67.332  1.00  0.00     3.005 NA 
HETATM    2  C   UNL     1      -9.859   4.472  67.536  1.00  0.00    -0.140 C  
HETATM    3  H1  UNL     1     -11.236   3.501  66.349  1.00  0.00     0.000 HD 
HETATM    4  H2  UNL     1     -11.934   4.295  67.671  1.00  0.00     0.000 HD 
ENDROOT
BRANCH   2   5
HETATM    5  C   UNL     1      -9.708   4.858  69.017  1.00  0.00    -0.175 C  
HETATM    6  O   UNL     1      -8.753   5.934  69.079  1.00  0.00    -0.113 OA 
HETATM    7  C   UNL     1      -8.681   6.512  70.381  1.00  0.00    -0.147 C  
HETATM    8  C   UNL     1      -8.085   5.461  71.361  1.00  0.00    -0.116 C  
HETATM    9  O   UNL     1      -8.068   3.092  69.339  1.00  0.00    -0.048 OA 
HETATM   10  H   UNL     1      -7.782   2.371  69.887  1.00  0.00     0.000 HD 
HETATM   11  N   UNL     1      -6.680   5.122  70.987  1.00  0.00    -0.038 NA 
HETATM   12  C   UNL     1      -8.972   4.194  71.345  1.00  0.00    -0.118 C  
HETATM   13  H2  UNL     1      -6.094   5.955  70.925  1.00  0.00     0.000 HD 
HETATM   14  O   UNL     1     -10.201   4.416  72.051  1.00  0.00    -0.186 OA 
HETATM   15  C   UNL     1      -9.242   3.687  69.908  1.00  0.00    -0.144 C  
HETATM   16  H1  UNL     1      -6.289   4.433  71.629  1.00  0.00     0.000 HD 
HETATM   17  H   UNL     1     -10.746   3.638  72.041  1.00  0.00     0.000 HD 
BRANCH   7  18
HETATM   18  O   UNL     1      -7.841   7.669  70.385  1.00  0.00    -0.089 OA 
BRANCH  18  19
HETATM   19  C   UNL     1      -8.348   8.764  69.601  1.00  0.00    -0.126 C  
HETATM   20  O   UNL     1      -6.067   9.725  69.561  1.00  0.00    -0.042 OA 
HETATM   21  C   UNL     1      -9.191   8.143  68.489  1.00  0.00    -0.136 C  
HETATM   22  C   UNL     1      -7.130   8.701  67.553  1.00  0.00    -0.080 C  
HETATM   23  H   UNL     1      -5.403  10.206  69.083  1.00  0.00     0.000 HD 
HETATM   24  O   UNL     1      -8.331   7.951  67.357  1.00  0.00    -0.121 OA 
HETATM   25  C   UNL     1      -7.285   9.534  68.836  1.00  0.00    -0.072 C  
BRANCH  21  26
HETATM   26  C   UNL     1     -10.375   9.008  68.053  1.00  0.00    -0.224 C  
HETATM   27  H   UNL     1     -11.557   9.176  66.480  1.00  0.00     0.000 HD 
HETATM   28  O   UNL     1     -10.822   8.640  66.750  1.00  0.00    -0.145 OA 
ENDBRANCH  21  26
BRANCH  22  29
HETATM   29  O   UNL     1      -6.903   9.586  66.461  1.00  0.00    -0.081 OA 
BRANCH  29  30
HETATM   30  C   UNL     1      -8.042  10.191  65.818  1.00  0.00    -0.142 C  
HETATM   31  C   UNL     1      -8.215   9.626  64.395  1.00  0.00    -0.157 C  
HETATM   32  O   UNL     1      -8.123   8.195  64.412  1.00  0.00    -0.151 OA 
HETATM   33  C   UNL     1      -9.567  10.049  63.809  1.00  0.00    -0.126 C  
HETATM   34  C   UNL     1      -9.615  11.574  63.710  1.00  0.00    -0.232 C  
HETATM   35  N   UNL     1      -9.786   9.437  62.484  1.00  0.00    -0.374 NA 
HETATM   36  H   UNL     1      -8.230   7.848  63.535  1.00  0.00     0.000 HD 
HETATM   37  H1  UNL     1     -10.685   9.719  62.093  1.00  0.00     0.000 HD 
HETATM   38  H2  UNL     1      -9.693   8.423  62.519  1.00  0.00     0.000 HD 
HETATM   39  C   UNL     1      -9.368  12.248  65.070  1.00  0.00     0.278 C  
HETATM   40  C   UNL     1      -8.077  11.743  65.819  1.00  0.00     0.552 C  
HETATM   41  N   UNL     1      -9.337  13.712  64.869  1.00  0.00     0.134 NA 
HETATM   42  H2  UNL     1     -10.175  14.061  64.404  1.00  0.00     0.000 HD 
HETATM   43  H1  UNL     1      -9.173  14.158  65.771  1.00  0.00     0.000 HD 
BRANCH  40  44
HETATM   44  O   UNL     1      -8.109  12.339  67.137  1.00  0.00    -0.173 OA 
BRANCH  44  45
HETATM   45  C   UNL     1      -7.637  13.691  67.217  1.00  0.00    -0.055 C  
HETATM   46  O   UNL     1      -8.676  14.630  66.963  1.00  0.00    -0.215 OA 
HETATM   47  C   UNL     1      -9.702  14.690  67.952  1.00  0.00    -0.216 C  
HETATM   48  C   UNL     1      -9.100  15.083  69.303  1.00  0.00    -0.157 C  
HETATM   49  H1  UNL     1      -5.413  13.233  69.815  1.00  0.00     0.000 HD 
HETATM   50  H2  UNL     1      -5.179  12.983  68.174  1.00  0.00     0.000 HD 
HETATM   51  O   UNL     1     -10.079  15.127  70.344  1.00  0.00    -0.496 OA 
HETATM   52  C   UNL     1      -7.998  14.086  69.687  1.00  0.00     0.649 C  
HETATM   53  H   UNL     1      -9.705  15.372  71.182  1.00  0.00     0.000 HD 
HETATM   54  O   UNL     1      -7.369  14.511  70.908  1.00  0.00     0.222 OA 
HETATM   55  N   UNL     1      -5.869  13.037  68.924  1.00  0.00    -0.073 NA 
HETATM   56  C   UNL     1      -6.945  13.990  68.571  1.00  0.00    -0.103 C  
HETATM   57  H   UNL     1      -6.686  13.894  71.146  1.00  0.00     0.000 HD 
BRANCH  47  58
HETATM   58  C   UNL     1     -10.734  15.721  67.473  1.00  0.00    -0.317 C  
HETATM   59  O   UNL     1     -11.639  15.121  66.542  1.00  0.00    -0.252 OA 
HETATM   60  H   UNL     1     -12.278  15.758  66.245  1.00  0.00     0.000 HD 
ENDBRANCH  47  58
ENDBRANCH  44  45
ENDBRANCH  40  44
ENDBRANCH  29  30
ENDBRANCH  22  29
ENDBRANCH  18  19
ENDBRANCH   7  18
ENDBRANCH   2   5
TORSDOF 9
ENDMDL
MODEL      282
REMARK 921   NORMALIZED FREE ENERGY PREDICTED BY IDOCK:    1.32 KCAL/MOL
REMARK 922        TOTAL FREE ENERGY PREDICTED BY IDOCK:   -0.04 KCAL/MOL
REMARK 923 INTER-LIGAND FREE ENERGY PREDICTED BY IDOCK:   -2.97 KCAL/MOL
REMARK 924 INTRA-LIGAND FREE ENERGY PREDICTED BY IDOCK:    2.94 KCAL/MOL
REMARK 927      BINDING AFFINITY PREDICTED BY RF-SCORE:    0.00 PKD
ROOT
HETATM    1  N   UNL     1     -11.172  16.858  71.838  1.00  0.00     0.188 NA 
HETATM    2  C   UNL     1     -12.210  16.590  70.822  1.00  0.00     0.928 C  
HETATM    3  H1  UNL     1     -11.481  17.604  72.461  1.00  0.00     0.000 HD 
HETATM    4  H2  UNL     1     -10.266  17.063  71.415  1.00  0.00     0.000 HD 
ENDROOT
BRANCH   2   5
HETATM    5  C   UNL     1     -11.743  15.466  69.882  1.00  0.00    -0.336 C  
HETATM    6  O   UNL     1     -10.309  15.392  69.989  1.00  0.00    -0.294 OA 
HETATM    7  C   UNL     1      -9.779  14.253  69.315  1.00  0.00     0.154 C  
HETATM    8  C   UNL     1     -10.005  14.427  67.785  1.00  0.00    -0.226 C  
HETATM    9  O   UNL     1     -11.743  17.003  67.998  1.00  0.00     0.306 OA 
HETATM   10  H   UNL     1     -11.995  17.142  67.092  1.00  0.00     0.000 HD 
HETATM   11  N   UNL     1      -9.242  15.600  67.266  1.00  0.00    -0.201 NA 
HETATM   12  C   UNL     1     -11.518  14.600  67.515  1.00  0.00    -0.361 C  
HETATM   13  H2  UNL     1      -8.250  15.536  67.495  1.00  0.00     0.000 HD 
HETATM   14  O   UNL     1     -12.213  13.354  67.655  1.00  0.00    -0.302 OA 
HETATM   15  C   UNL     1     -12.151  15.692  68.411  1.00  0.00     0.084 C  
HETATM   16  H1  UNL     1      -9.390  15.714  66.263  1.00  0.00     0.000 HD 
HETATM   17  H   UNL     1     -13.143  13.460  67.489  1.00  0.00     0.000 HD 
BRANCH   7  18
HETATM   18  O   UNL     1      -8.376  14.117  69.557  1.00  0.00     0.309 OA 
BRANCH  18  19
HETATM   19  C   UNL     1      -7.708  13.228  68.643  1.00  0.00    -0.080 C  
HETATM   20  O   UNL     1      -5.970  12.849  70.364  1.00  0.00    -0.239 OA 
HETATM   21  C   UNL     1      -8.783  12.297  68.085  1.00  0.00    -0.186 C  
HETATM   22  C   UNL     1      -7.646  11.113  69.741  1.00  0.00     0.316 C  
HETATM   23  H   UNL     1      -5.359  12.249  70.775  1.00  0.00     0.000 HD 
HETATM   24  O   UNL     1      -8.820  11.134  68.926  1.00  0.00    -0.153 OA 
HETATM   25  C   UNL     1      -6.732  12.269  69.302  1.00  0.00    -0.075 C  
BRANCH  21  26
HETATM   26  C   UNL     1      -8.524  11.843  66.648  1.00  0.00    -0.143 C  
HETATM   27  H   UNL     1      -7.876  12.641  64.961  1.00  0.00     0.000 HD 
HETATM   28  O   UNL     1      -8.037  12.923  65.853  1.00  0.00     1.214 OA 
ENDBRANCH  21  26
BRANCH  22  29
HETATM   29  O   UNL     1      -6.941   9.887  69.578  1.00  0.00    -0.055 OA 
BRANCH  29  30
HETATM   30  C   UNL     1      -7.391   8.964  68.568  1.00  0.00    -0.081 C  
HETATM   31  C   UNL     1      -6.873   9.394  67.181  1.00  0.00    -0.084 C  
HETATM   32  O   UNL     1      -5.473   9.703  67.247  1.00  0.00    -0.036 OA 
HETATM   33  C   UNL     1      -7.108   8.284  66.151  1.00  0.00    -0.065 C  
HETATM   34  C   UNL     1      -8.610   8.030  66.023  1.00  0.00    -0.162 C  
HETATM   35  N   UNL     1      -6.531   8.645  64.841  1.00  0.00    -0.065 NA 
HETATM   36  H   UNL     1      -5.154   9.967  66.393  1.00  0.00     0.000 HD 
HETATM   37  H1  UNL     1      -6.688   7.907  64.155  1.00  0.00     0.000 HD 
HETATM   38  H2  UNL     1      -5.543   8.882  64.919  1.00  0.00     0.000 HD 
HETATM   39  C   UNL     1      -9.251   7.673  67.375  1.00  0.00    -0.132 C  
HETATM   40  C   UNL     1      -8.918   8.682  68.537  1.00  0.00    -0.139 C  
HETATM   41  N   UNL     1     -10.710   7.538  67.180  1.00  0.00    -0.452 NA 
HETATM   42  H2  UNL     1     -10.947   6.871  66.445  1.00  0.00     0.000 HD 
HETATM   43  H1  UNL     1     -11.134   7.301  68.076  1.00  0.00     0.000 HD 
BRANCH  40  44
HETATM   44  O   UNL     1      -9.440   8.096  69.752  1.00  0.00    -0.159 OA 
BRANCH  44  45
HETATM   45  C   UNL     1     -10.543   7.194  69.580  1.00  0.00    -0.234 C  
HETATM   46  O   UNL     1     -10.105   5.860  69.348  1.00  0.00    -0.173 OA 
HETATM   47  C   UNL     1      -9.466   5.225  70.455  1.00  0.00    -0.167 C  
HETATM   48  C   UNL     1     -10.430   5.153  71.642  1.00  0.00    -0.185 C  
HETATM   49  H1  UNL     1     -12.669   8.648  71.876  1.00  0.00     0.000 HD 
HETATM   50  H2  UNL     1     -12.423   9.053  70.268  1.00  0.00     0.000 HD 
HETATM   51  O   UNL     1      -9.833   4.555  72.794  1.00  0.00    -0.137 OA 
HETATM   52  C   UNL     1     -10.917   6.565  71.998  1.00  0.00    -0.247 C  
HETATM   53  H   UNL     1     -10.431   4.510  73.530  1.00  0.00     0.000 HD 
HETATM   54  O   UNL     1     -11.895   6.485  73.050  1.00  0.00    -0.449 OA 
HETATM   55  N   UNL     1     -12.016   8.611  71.093  1.00  0.00    -0.290 NA 
HETATM   56  C   UNL     1     -11.535   7.249  70.769  1.00  0.00    -0.299 C  
HETATM   57  H   UNL     1     -12.196   7.359  73.270  1.00  0.00     0.000 HD 
BRANCH  47  58
HETATM   58  C   UNL     1      -9.037   3.827  69.990  1.00  0.00    -0.124 C  
HETATM   59  O   UNL     1      -9.685   2.822  70.776  1.00  0.00    -0.141 OA 
HETATM   60  H   UNL     1      -9.420   1.957  70.489  1.00  0.00     0.000 HD 
ENDBRANCH  47  58
ENDBRANCH  44  45
ENDBRANCH  40  44
ENDBRANCH  29  30
ENDBRANCH  22  29
ENDBRANCH  18  19
ENDBRANCH   7  18
ENDBRANCH   2   5
TORSDOF 9
ENDMDL
MODEL      283
REMARK 921   NORMALIZED FREE ENERGY PREDICTED BY IDOCK:    1.37 KCAL/MOL
REMARK 922        TOTAL FREE ENERGY PREDICTED BY IDOCK:    0.05 KCAL/MOL
REMARK 923 INTER-LIGAND FREE ENERGY PREDICTED BY IDOCK:   -3.70 KCAL/MOL
REMARK 924 INTRA-LIGAND FREE ENERGY PREDICTED BY IDOCK:    3.75 KCAL/MOL
REMARK 927      BINDING AFFINITY PREDICTED BY RF-SCORE:    0.00 PKD
ROOT
HETATM    1  N   UNL     1      -8.921  10.508  69.996  1.00  0.00    -0.263 NA 
HETATM    2  C   UNL     1      -8.872   9.286  70.824  1.00  0.00    -0.225 C  
HETATM    3  H1  UNL     1      -9.850  10.614  69.590  1.00  0.00     0.000 HD 
HETATM    4  H2  UNL     1      -8.188  10.520  69.287  1.00  0.00     0.000 HD 
ENDROOT
BRANCH   2   5
HETATM    5  C   UNL     1      -7.470   9.126  71.438  1.00  0.00     0.023 C  
HETATM    6  O   UNL     1      -6.993   7.819  71.068  1.00  0.00    -0.048 OA 
HETATM    7  C   UNL     1      -5.621   7.633  71.410  1.00  0.00    -0.035 C  
HETATM    8  C   UNL     1      -5.490   7.626  72.961  1.00  0.00    -0.044 C  
HETATM    9  O   UNL     1      -8.446   8.413  73.548  1.00  0.00    -0.313 OA 
HETATM   10  H   UNL     1      -8.438   8.507  74.493  1.00  0.00     0.000 HD 
HETATM   11  N   UNL     1      -6.219   6.463  73.550  1.00  0.00    -0.063 NA 
HETATM   12  C   UNL     1      -6.046   8.956  73.522  1.00  0.00    -0.012 C  
HETATM   13  H2  UNL     1      -5.913   5.580  73.141  1.00  0.00     0.000 HD 
HETATM   14  O   UNL     1      -5.139  10.039  73.274  1.00  0.00    -0.264 OA 
HETATM   15  C   UNL     1      -7.456   9.278  72.973  1.00  0.00     1.139 C  
HETATM   16  H1  UNL     1      -6.133   6.458  74.567  1.00  0.00     0.000 HD 
HETATM   17  H   UNL     1      -5.480  10.856  73.618  1.00  0.00     0.000 HD 
BRANCH   7  18
HETATM   18  O   UNL     1      -5.127   6.390  70.905  1.00  0.00    -0.017 OA 
BRANCH  18  19
HETATM   19  C   UNL     1      -5.883   5.243  71.332  1.00  0.00    -0.017 C  
HETATM   20  O   UNL     1      -7.955   6.565  71.042  1.00  0.00    -0.108 OA 
HETATM   21  C   UNL     1      -5.339   4.052  70.546  1.00  0.00    -0.004 C  
HETATM   22  C   UNL     1      -7.319   4.709  69.506  1.00  0.00    -0.052 C  
HETATM   23  H   UNL     1      -8.872   6.585  70.794  1.00  0.00     0.000 HD 
HETATM   24  O   UNL     1      -6.134   3.924  69.358  1.00  0.00    -0.025 OA 
HETATM   25  C   UNL     1      -7.349   5.275  70.935  1.00  0.00    -0.074 C  
BRANCH  21  26
HETATM   26  C   UNL     1      -5.397   2.727  71.309  1.00  0.00    -0.004 C  
HETATM   27  H   UNL     1      -5.362   2.125  73.189  1.00  0.00     0.000 HD 
HETATM   28  O   UNL     1      -5.325   2.947  72.716  1.00  0.00     0.000 OA 
ENDBRANCH  21  26
BRANCH  22  29
HETATM   29  O   UNL     1      -8.482   3.911  69.307  1.00  0.00    -0.067 OA 
BRANCH  29  30
HETATM   30  C   UNL     1      -9.489   4.382  68.390  1.00  0.00    -0.154 C  
HETATM   31  C   UNL     1      -9.223   3.833  66.975  1.00  0.00    -0.181 C  
HETATM   32  O   UNL     1      -8.956   2.425  67.029  1.00  0.00    -0.130 OA 
HETATM   33  C   UNL     1     -10.425   4.096  66.061  1.00  0.00     0.176 C  
HETATM   34  C   UNL     1     -10.641   5.604  65.938  1.00  0.00     0.183 C  
HETATM   35  N   UNL     1     -10.221   3.492  64.730  1.00  0.00    -0.391 NA 
HETATM   36  H   UNL     1      -8.792   2.087  66.157  1.00  0.00     0.000 HD 
HETATM   37  H1  UNL     1     -11.020   3.667  64.121  1.00  0.00     0.000 HD 
HETATM   38  H2  UNL     1     -10.011   2.497  64.797  1.00  0.00     0.000 HD 
HETATM   39  C   UNL     1     -10.834   6.272  67.310  1.00  0.00    -0.375 C  
HETATM   40  C   UNL     1      -9.721   5.917  68.367  1.00  0.00    -0.129 C  
HETATM   41  N   UNL     1     -10.940   7.733  67.108  1.00  0.00    -0.498 NA 
HETATM   42  H2  UNL     1     -11.672   7.984  66.443  1.00  0.00     0.000 HD 
HETATM   43  H1  UNL     1     -11.069   8.175  68.018  1.00  0.00     0.000 HD 
BRANCH  40  44
HETATM   44  O   UNL     1     -10.161   6.474  69.627  1.00  0.00    -0.175 OA 
BRANCH  44  45
HETATM   45  C   UNL     1     -11.348   5.888  70.182  1.00  0.00    -0.161 C  
HETATM   46  O   UNL     1     -11.081   4.633  70.797  1.00  0.00     0.632 OA 
HETATM   47  C   UNL     1     -10.284   4.688  71.979  1.00  0.00    -0.190 C  
HETATM   48  C   UNL     1     -10.985   5.538  73.041  1.00  0.00    -0.290 C  
HETATM   49  H1  UNL     1     -12.824   8.814  71.262  1.00  0.00     0.000 HD 
HETATM   50  H2  UNL     1     -12.881   8.106  69.744  1.00  0.00     0.000 HD 
HETATM   51  O   UNL     1     -10.215   5.657  74.240  1.00  0.00    -0.235 OA 
HETATM   52  C   UNL     1     -11.266   6.938  72.479  1.00  0.00    -0.267 C  
HETATM   53  H   UNL     1     -10.651   6.184  74.899  1.00  0.00     0.000 HD 
HETATM   54  O   UNL     1     -12.010   7.704  73.444  1.00  0.00    -0.381 OA 
HETATM   55  N   UNL     1     -12.352   8.185  70.613  1.00  0.00     0.068 NA 
HETATM   56  C   UNL     1     -12.065   6.843  71.169  1.00  0.00    -0.381 C  
HETATM   57  H   UNL     1     -12.184   8.570  73.096  1.00  0.00     0.000 HD 
BRANCH  47  58
HETATM   58  C   UNL     1     -10.080   3.243  72.456  1.00  0.00    -0.159 C  
HETATM   59  O   UNL     1     -10.977   2.945  73.530  1.00  0.00    -0.193 OA 
HETATM   60  H   UNL     1     -10.851   2.051  73.825  1.00  0.00     0.000 HD 
ENDBRANCH  47  58
ENDBRANCH  44  45
ENDBRANCH  40  44
ENDBRANCH  29  30
ENDBRANCH  22  29
ENDBRANCH  18  19
ENDBRANCH   7  18
ENDBRANCH   2   5
TORSDOF 9
ENDMDL
MODEL      284
REMARK 921   NORMALIZED FREE ENERGY PREDICTED BY IDOCK:    1.42 KCAL/MOL
REMARK 922        TOTAL FREE ENERGY PREDICTED BY IDOCK:    0.12 KCAL/MOL
REMARK 923 INTER-LIGAND FREE ENERGY PREDICTED BY IDOCK:   -2.68 KCAL/MOL
REMARK 924 INTRA-LIGAND FREE ENERGY PREDICTED BY IDOCK:    2.80 KCAL/MOL
REMARK 927      BINDING AFFINITY PREDICTED BY RF-SCORE:    0.00 PKD
ROOT
HETATM    1  N   UNL     1      -9.974  15.766  71.506  1.00  0.00     1.647 NA 
HETATM    2  C   UNL     1     -11.365  15.498  71.089  1.00  0.00    -0.390 C  
HETATM    3  H1  UNL     1      -9.960  16.485  72.228  1.00  0.00     0.000 HD 
HETATM    4  H2  UNL     1      -9.377  16.006  70.714  1.00  0.00     0.000 HD 
ENDROOT
BRANCH   2   5
HETATM    5  C   UNL     1     -11.386  14.413  70.000  1.00  0.00    -0.198 C  
HETATM    6  O   UNL     1     -10.188  14.576  69.217  1.00  0.00    -0.203 OA 
HETATM    7  C   UNL     1      -9.996  13.500  68.301  1.00  0.00    -0.237 C  
HETATM    8  C   UNL     1     -11.122  13.551  67.228  1.00  0.00    -0.286 C  
HETATM    9  O   UNL     1     -12.767  15.824  68.581  1.00  0.00    -0.030 OA 
HETATM   10  H   UNL     1     -13.532  15.871  68.019  1.00  0.00     0.000 HD 
HETATM   11  N   UNL     1     -11.026  14.801  66.417  1.00  0.00    -0.326 NA 
HETATM   12  C   UNL     1     -12.496  13.465  67.933  1.00  0.00     0.350 C  
HETATM   13  H2  UNL     1     -10.102  14.909  65.999  1.00  0.00     0.000 HD 
HETATM   14  O   UNL     1     -12.756  12.133  68.397  1.00  0.00     0.463 OA 
HETATM   15  C   UNL     1     -12.627  14.489  69.086  1.00  0.00     0.188 C  
HETATM   16  H1  UNL     1     -11.765  14.834  65.714  1.00  0.00     0.000 HD 
HETATM   17  H   UNL     1     -13.600  12.081  68.830  1.00  0.00     0.000 HD 
BRANCH   7  18
HETATM   18  O   UNL     1      -8.732  13.604  67.642  1.00  0.00    -0.160 OA 
BRANCH  18  19
HETATM   19  C   UNL     1      -8.572  12.695  66.538  1.00  0.00     0.060 C  
HETATM   20  O   UNL     1      -6.157  12.559  67.067  1.00  0.00    -0.385 OA 
HETATM   21  C   UNL     1      -9.684  11.657  66.670  1.00  0.00    -0.202 C  
HETATM   22  C   UNL     1      -7.735  10.676  67.490  1.00  0.00    -0.101 C  
HETATM   23  H   UNL     1      -5.368  12.032  67.104  1.00  0.00     0.000 HD 
HETATM   24  O   UNL     1      -9.157  10.560  67.431  1.00  0.00    -0.139 OA 
HETATM   25  C   UNL     1      -7.308  11.853  66.597  1.00  0.00     0.070 C  
BRANCH  21  26
HETATM   26  C   UNL     1     -10.187  11.115  65.331  1.00  0.00    -0.271 C  
HETATM   27  H   UNL     1     -10.273  11.718  63.452  1.00  0.00     0.000 HD 
HETATM   28  O   UNL     1      -9.961  12.055  64.283  1.00  0.00    -0.276 OA 
ENDBRANCH  21  26
BRANCH  22  29
HETATM   29  O   UNL     1      -7.111   9.490  67.009  1.00  0.00    -0.084 OA 
BRANCH  29  30
HETATM   30  C   UNL     1      -6.982   8.370  67.906  1.00  0.00    -0.078 C  
HETATM   31  C   UNL     1      -6.249   8.796  69.193  1.00  0.00    -0.043 C  
HETATM   32  O   UNL     1      -6.806  10.016  69.702  1.00  0.00    -0.056 OA 
HETATM   33  C   UNL     1      -6.349   7.699  70.259  1.00  0.00    -0.034 C  
HETATM   34  C   UNL     1      -5.670   6.432  69.739  1.00  0.00    -0.014 C  
HETATM   35  N   UNL     1      -5.734   8.134  71.527  1.00  0.00    -0.034 NA 
HETATM   36  H   UNL     1      -6.355  10.279  70.495  1.00  0.00     0.000 HD 
HETATM   37  H1  UNL     1      -5.800   7.404  72.236  1.00  0.00     0.000 HD 
HETATM   38  H2  UNL     1      -6.131   9.013  71.855  1.00  0.00     0.000 HD 
HETATM   39  C   UNL     1      -6.271   5.962  68.404  1.00  0.00    -0.029 C  
HETATM   40  C   UNL     1      -6.357   7.083  67.301  1.00  0.00    -0.052 C  
HETATM   41  N   UNL     1      -5.499   4.795  67.928  1.00  0.00    -0.012 NA 
HETATM   42  H2  UNL     1      -5.450   4.048  68.621  1.00  0.00     0.000 HD 
HETATM   43  H1  UNL     1      -5.898   4.484  67.043  1.00  0.00     0.000 HD 
BRANCH  40  44
HETATM   44  O   UNL     1      -7.107   6.517  66.200  1.00  0.00    -0.064 OA 
BRANCH  44  45
HETATM   45  C   UNL     1      -7.439   5.127  66.326  1.00  0.00    -0.087 C  
HETATM   46  O   UNL     1      -8.296   4.887  67.437  1.00  0.00    -0.106 OA 
HETATM   47  C   UNL     1      -9.612   5.424  67.322  1.00  0.00    -0.132 C  
HETATM   48  C   UNL     1     -10.318   4.818  66.106  1.00  0.00    -0.300 C  
HETATM   49  H1  UNL     1      -7.636   4.410  62.957  1.00  0.00     0.000 HD 
HETATM   50  H2  UNL     1      -6.285   4.435  63.949  1.00  0.00     0.000 HD 
HETATM   51  O   UNL     1     -11.633   5.344  65.921  1.00  0.00    -0.467 OA 
HETATM   52  C   UNL     1      -9.485   5.078  64.844  1.00  0.00     0.084 C  
HETATM   53  H   UNL     1     -12.071   4.968  65.166  1.00  0.00     0.000 HD 
HETATM   54  O   UNL     1     -10.100   4.426  63.719  1.00  0.00    -0.372 OA 
HETATM   55  N   UNL     1      -7.233   4.789  63.814  1.00  0.00    -0.049 NA 
HETATM   56  C   UNL     1      -8.052   4.552  65.024  1.00  0.00    -0.100 C  
HETATM   57  H   UNL     1      -9.585   4.586  62.937  1.00  0.00     0.000 HD 
BRANCH  47  58
HETATM   58  C   UNL     1     -10.352   5.094  68.626  1.00  0.00    -0.078 C  
HETATM   59  O   UNL     1      -9.643   5.630  69.747  1.00  0.00    -0.148 OA 
HETATM   60  H   UNL     1     -10.101   5.426  70.554  1.00  0.00     0.000 HD 
ENDBRANCH  47  58
ENDBRANCH  44  45
ENDBRANCH  40  44
ENDBRANCH  29  30
ENDBRANCH  22  29
ENDBRANCH  18  19
ENDBRANCH   7  18
ENDBRANCH   2   5
TORSDOF 9
ENDMDL
MODEL      285
REMARK 921   NORMALIZED FREE ENERGY PREDICTED BY IDOCK:    1.65 KCAL/MOL
REMARK 922        TOTAL FREE ENERGY PREDICTED BY IDOCK:    0.47 KCAL/MOL
REMARK 923 INTER-LIGAND FREE ENERGY PREDICTED BY IDOCK:   -5.70 KCAL/MOL
REMARK 924 INTRA-LIGAND FREE ENERGY PREDICTED BY IDOCK:    6.17 KCAL/MOL
REMARK 927      BINDING AFFINITY PREDICTED BY RF-SCORE:    0.00 PKD
ROOT
HETATM    1  N   UNL     1     -12.019  11.382  70.889  1.00  0.00    -0.369 NA 
HETATM    2  C   UNL     1     -10.838  12.116  70.390  1.00  0.00     1.713 C  
HETATM    3  H1  UNL     1     -11.746  10.764  71.653  1.00  0.00     0.000 HD 
HETATM    4  H2  UNL     1     -12.501  10.880  70.143  1.00  0.00     0.000 HD 
ENDROOT
BRANCH   2   5
HETATM    5  C   UNL     1     -11.251  13.048  69.239  1.00  0.00    -0.199 C  
HETATM    6  O   UNL     1     -10.999  12.342  68.010  1.00  0.00    -0.206 OA 
HETATM    7  C   UNL     1     -11.530  13.027  66.878  1.00  0.00    -0.339 C  
HETATM    8  C   UNL     1     -10.740  14.355  66.684  1.00  0.00    -0.292 C  
HETATM    9  O   UNL     1      -9.080  14.142  69.311  1.00  0.00    -0.376 OA 
HETATM   10  H   UNL     1      -8.612  14.969  69.312  1.00  0.00     0.000 HD 
HETATM   11  N   UNL     1      -9.309  14.079  66.360  1.00  0.00    -0.429 NA 
HETATM   12  C   UNL     1     -10.852  15.202  67.972  1.00  0.00    -0.284 C  
HETATM   13  H2  UNL     1      -9.217  13.463  65.552  1.00  0.00     0.000 HD 
HETATM   14  O   UNL     1     -12.155  15.789  68.092  1.00  0.00    -0.340 OA 
HETATM   15  C   UNL     1     -10.490  14.392  69.240  1.00  0.00    -0.140 C  
HETATM   16  H1  UNL     1      -8.792  14.949  66.233  1.00  0.00     0.000 HD 
HETATM   17  H   UNL     1     -12.224  16.310  68.884  1.00  0.00     0.000 HD 
BRANCH   7  18
HETATM   18  O   UNL     1     -11.400  12.241  65.691  1.00  0.00    -0.323 OA 
BRANCH  18  19
HETATM   19  C   UNL     1     -10.053  11.821  65.412  1.00  0.00    -0.254 C  
HETATM   20  O   UNL     1      -9.690  11.542  67.845  1.00  0.00    -0.173 OA 
HETATM   21  C   UNL     1     -10.147  10.788  64.291  1.00  0.00    -0.361 C  
HETATM   22  C   UNL     1      -9.880   9.609  66.284  1.00  0.00    -0.256 C  
HETATM   23  H   UNL     1      -9.277  11.057  68.549  1.00  0.00     0.000 HD 
HETATM   24  O   UNL     1     -10.244   9.495  64.907  1.00  0.00     0.223 OA 
HETATM   25  C   UNL     1      -9.391  11.044  66.538  1.00  0.00    -0.180 C  
BRANCH  21  26
HETATM   26  C   UNL     1      -8.941  10.784  63.350  1.00  0.00    -0.203 C  
HETATM   27  H   UNL     1      -7.838   9.450  62.399  1.00  0.00     0.000 HD 
HETATM   28  O   UNL     1      -8.586   9.452  62.983  1.00  0.00    -0.196 OA 
ENDBRANCH  21  26
BRANCH  22  29
HETATM   29  O   UNL     1      -8.827   8.706  66.604  1.00  0.00    -0.124 OA 
BRANCH  29  30
HETATM   30  C   UNL     1      -9.078   7.677  67.581  1.00  0.00    -0.129 C  
HETATM   31  C   UNL     1      -9.491   8.305  68.926  1.00  0.00    -0.151 C  
HETATM   32  O   UNL     1     -10.495   9.308  68.720  1.00  0.00    -0.207 OA 
HETATM   33  C   UNL     1     -10.024   7.231  69.881  1.00  0.00    -0.183 C  
HETATM   34  C   UNL     1      -8.914   6.219  70.166  1.00  0.00    -0.149 C  
HETATM   35  N   UNL     1     -10.511   7.833  71.138  1.00  0.00    -0.208 NA 
HETATM   36  H   UNL     1     -10.750   9.695  69.548  1.00  0.00     0.000 HD 
HETATM   37  H1  UNL     1     -10.865   7.119  71.774  1.00  0.00     0.000 HD 
HETATM   38  H2  UNL     1     -11.206   8.557  70.963  1.00  0.00     0.000 HD 
HETATM   39  C   UNL     1      -8.365   5.587  68.875  1.00  0.00    -0.102 C  
HETATM   40  C   UNL     1      -7.948   6.629  67.770  1.00  0.00    -0.112 C  
HETATM   41  N   UNL     1      -7.239   4.699  69.232  1.00  0.00    -0.052 NA 
HETATM   42  H2  UNL     1      -7.496   4.002  69.931  1.00  0.00     0.000 HD 
HETATM   43  H1  UNL     1      -6.876   4.280  68.376  1.00  0.00     0.000 HD 
BRANCH  40  44
HETATM   44  O   UNL     1      -7.639   5.864  66.582  1.00  0.00    -0.092 OA 
BRANCH  44  45
HETATM   45  C   UNL     1      -8.588   5.972  65.512  1.00  0.00    -0.143 C  
HETATM   46  O   UNL     1      -7.950   6.193  64.259  1.00  0.00    -0.117 OA 
HETATM   47  C   UNL     1      -7.176   5.101  63.765  1.00  0.00    -0.050 C  
HETATM   48  C   UNL     1      -8.071   3.874  63.572  1.00  0.00    -0.089 C  
HETATM   49  H1  UNL     1     -10.832   3.620  66.668  1.00  0.00     0.000 HD 
HETATM   50  H2  UNL     1     -10.715   5.244  67.064  1.00  0.00     0.000 HD 
HETATM   51  O   UNL     1      -7.342   2.736  63.108  1.00  0.00    -0.050 OA 
HETATM   52  C   UNL     1      -8.764   3.527  64.896  1.00  0.00    -0.115 C  
HETATM   53  H   UNL     1      -7.898   1.975  62.987  1.00  0.00     0.000 HD 
HETATM   54  O   UNL     1      -9.677   2.435  64.690  1.00  0.00    -0.277 OA 
HETATM   55  N   UNL     1     -10.211   4.428  66.716  1.00  0.00    -0.148 NA 
HETATM   56  C   UNL     1      -9.530   4.744  65.439  1.00  0.00    -0.151 C  
HETATM   57  H   UNL     1     -10.106   2.220  65.510  1.00  0.00     0.000 HD 
BRANCH  47  58
HETATM   58  C   UNL     1      -6.546   5.555  62.440  1.00  0.00    -0.029 C  
HETATM   59  O   UNL     1      -6.215   6.945  62.499  1.00  0.00    -0.042 OA 
HETATM   60  H   UNL     1      -5.825   7.225  61.680  1.00  0.00     0.000 HD 
ENDBRANCH  47  58
ENDBRANCH  44  45
ENDBRANCH  40  44
ENDBRANCH  29  30
ENDBRANCH  22  29
ENDBRANCH  18  19
ENDBRANCH   7  18
ENDBRANCH   2   5
TORSDOF 9
ENDMDL
MODEL      286
REMARK 921   NORMALIZED FREE ENERGY PREDICTED BY IDOCK:    1.83 KCAL/MOL
REMARK 922        TOTAL FREE ENERGY PREDICTED BY IDOCK:    0.74 KCAL/MOL
REMARK 923 INTER-LIGAND FREE ENERGY PREDICTED BY IDOCK:   -4.34 KCAL/MOL
REMARK 924 INTRA-LIGAND FREE ENERGY PREDICTED BY IDOCK:    5.09 KCAL/MOL
REMARK 927      BINDING AFFINITY PREDICTED BY RF-SCORE:    0.00 PKD
ROOT
HETATM    1  N   UNL     1     -10.244   9.899  64.983  1.00  0.00    -0.273 NA 
HETATM    2  C   UNL     1     -10.077   9.062  66.188  1.00  0.00    -0.172 C  
HETATM    3  H1  UNL     1     -10.452   9.309  64.177  1.00  0.00     0.000 HD 
HETATM    4  H2  UNL     1      -9.437  10.501  64.819  1.00  0.00     0.000 HD 
ENDROOT
BRANCH   2   5
HETATM    5  C   UNL     1      -9.763   9.952  67.403  1.00  0.00    -0.162 C  
HETATM    6  O   UNL     1      -8.596   9.402  68.041  1.00  0.00    -0.120 OA 
HETATM    7  C   UNL     1      -8.091  10.258  69.063  1.00  0.00    -0.132 C  
HETATM    8  C   UNL     1      -9.127  10.316  70.223  1.00  0.00     0.455 C  
HETATM    9  O   UNL     1     -11.358   8.713  68.757  1.00  0.00    -0.244 OA 
HETATM   10  H   UNL     1     -12.075   8.765  69.378  1.00  0.00     0.000 HD 
HETATM   11  N   UNL     1      -9.289   8.974  70.858  1.00  0.00    -0.241 NA 
HETATM   12  C   UNL     1     -10.478  10.822  69.669  1.00  0.00    -0.140 C  
HETATM   13  H2  UNL     1      -8.396   8.593  71.169  1.00  0.00     0.000 HD 
HETATM   14  O   UNL     1     -10.432  12.231  69.404  1.00  0.00    -0.424 OA 
HETATM   15  C   UNL     1     -10.927  10.037  68.413  1.00  0.00    -0.217 C  
HETATM   16  H1  UNL     1      -9.969   9.013  71.618  1.00  0.00     0.000 HD 
HETATM   17  H   UNL     1     -11.262  12.542  69.063  1.00  0.00     0.000 HD 
BRANCH   7  18
HETATM   18  O   UNL     1      -6.852   9.766  69.582  1.00  0.00    -0.058 OA 
BRANCH  18  19
HETATM   19  C   UNL     1      -5.862   9.496  68.573  1.00  0.00    -0.040 C  
HETATM   20  O   UNL     1      -5.986   7.096  69.167  1.00  0.00    -0.021 OA 
HETATM   21  C   UNL     1      -6.311  10.240  67.318  1.00  0.00    -0.066 C  
HETATM   22  C   UNL     1      -6.906   8.004  67.036  1.00  0.00    -0.073 C  
HETATM   23  H   UNL     1      -5.955   6.191  68.880  1.00  0.00     0.000 HD 
HETATM   24  O   UNL     1      -7.106   9.330  66.543  1.00  0.00    -0.083 OA 
HETATM   25  C   UNL     1      -5.812   8.048  68.115  1.00  0.00    -0.041 C  
BRANCH  21  26
HETATM   26  C   UNL     1      -5.158  10.735  66.444  1.00  0.00    -0.076 C  
HETATM   27  H   UNL     1      -4.921  11.520  64.647  1.00  0.00     0.000 HD 
HETATM   28  O   UNL     1      -5.638  11.213  65.189  1.00  0.00    -0.127 OA 
ENDBRANCH  21  26
BRANCH  22  29
HETATM   29  O   UNL     1      -6.481   7.134  65.991  1.00  0.00    -0.048 OA 
BRANCH  29  30
HETATM   30  C   UNL     1      -7.301   5.993  65.671  1.00  0.00    -0.076 C  
HETATM   31  C   UNL     1      -7.399   5.817  64.144  1.00  0.00    -0.063 C  
HETATM   32  O   UNL     1      -6.098   5.910  63.547  1.00  0.00    -0.024 OA 
HETATM   33  C   UNL     1      -8.029   4.463  63.798  1.00  0.00    -0.091 C  
HETATM   34  C   UNL     1      -9.450   4.414  64.360  1.00  0.00    -0.119 C  
HETATM   35  N   UNL     1      -8.042   4.241  62.339  1.00  0.00    -0.066 NA 
HETATM   36  H   UNL     1      -6.158   5.801  62.606  1.00  0.00     0.000 HD 
HETATM   37  H1  UNL     1      -8.462   3.341  62.108  1.00  0.00     0.000 HD 
HETATM   38  H2  UNL     1      -7.110   4.335  61.936  1.00  0.00     0.000 HD 
HETATM   39  C   UNL     1      -9.478   4.664  65.878  1.00  0.00    -0.172 C  
HETATM   40  C   UNL     1      -8.704   5.957  66.336  1.00  0.00    -0.131 C  
HETATM   41  N   UNL     1     -10.888   4.694  66.321  1.00  0.00    -0.487 NA 
HETATM   42  H2  UNL     1     -11.400   3.854  66.052  1.00  0.00     0.000 HD 
HETATM   43  H1  UNL     1     -10.906   4.860  67.327  1.00  0.00     0.000 HD 
BRANCH  40  44
HETATM   44  O   UNL     1      -8.679   5.928  67.782  1.00  0.00    -0.106 OA 
BRANCH  44  45
HETATM   45  C   UNL     1      -9.152   4.716  68.386  1.00  0.00    -0.120 C  
HETATM   46  O   UNL     1      -8.651   3.562  67.720  1.00  0.00    -0.092 OA 
HETATM   47  C   UNL     1      -7.247   3.344  67.846  1.00  0.00    -0.051 C  
HETATM   48  C   UNL     1      -6.878   3.173  69.322  1.00  0.00    -0.041 C  
HETATM   49  H1  UNL     1      -9.094   5.799  71.661  1.00  0.00     0.000 HD 
HETATM   50  H2  UNL     1     -10.298   5.993  70.511  1.00  0.00     0.000 HD 
HETATM   51  O   UNL     1      -5.475   2.983  69.515  1.00  0.00    -0.015 OA 
HETATM   52  C   UNL     1      -7.336   4.405  70.115  1.00  0.00    -0.046 C  
HETATM   53  H   UNL     1      -5.246   2.877  70.430  1.00  0.00     0.000 HD 
HETATM   54  O   UNL     1      -7.075   4.200  71.515  1.00  0.00    -0.039 OA 
HETATM   55  N   UNL     1      -9.301   5.838  70.663  1.00  0.00    -0.157 NA 
HETATM   56  C   UNL     1      -8.837   4.656  69.902  1.00  0.00    -0.089 C  
HETATM   57  H   UNL     1      -7.359   4.963  72.005  1.00  0.00     0.000 HD 
BRANCH  47  58
HETATM   58  C   UNL     1      -6.908   2.089  67.031  1.00  0.00    -0.039 C  
HETATM   59  O   UNL     1      -5.490   1.941  66.913  1.00  0.00    -0.015 OA 
HETATM   60  H   UNL     1      -5.281   1.164  66.409  1.00  0.00     0.000 HD 
ENDBRANCH  47  58
ENDBRANCH  44  45
ENDBRANCH  40  44
ENDBRANCH  29  30
ENDBRANCH  22  29
ENDBRANCH  18  19
ENDBRANCH   7  18
ENDBRANCH   2   5
TORSDOF 9
ENDMDL
MODEL      287
REMARK 921   NORMALIZED FREE ENERGY PREDICTED BY IDOCK:    1.90 KCAL/MOL
REMARK 922        TOTAL FREE ENERGY PREDICTED BY IDOCK:    0.85 KCAL/MOL
REMARK 923 INTER-LIGAND FREE ENERGY PREDICTED BY IDOCK:   -2.96 KCAL/MOL
REMARK 924 INTRA-LIGAND FREE ENERGY PREDICTED BY IDOCK:    3.81 KCAL/MOL
REMARK 927      BINDING AFFINITY PREDICTED BY RF-SCORE:    0.00 PKD
ROOT
HETATM    1  N   UNL     1     -10.777   7.279  67.949  1.00  0.00    -0.393 NA 
HETATM    2  C   UNL     1     -11.300   5.919  68.190  1.00  0.00     0.487 C  
HETATM    3  H1  UNL     1     -11.408   7.788  67.331  1.00  0.00     0.000 HD 
HETATM    4  H2  UNL     1      -9.820   7.264  67.594  1.00  0.00     0.000 HD 
ENDROOT
BRANCH   2   5
HETATM    5  C   UNL     1     -10.348   5.150  69.122  1.00  0.00    -0.156 C  
HETATM    6  O   UNL     1      -9.273   6.045  69.461  1.00  0.00    -0.135 OA 
HETATM    7  C   UNL     1      -8.433   5.511  70.482  1.00  0.00    -0.123 C  
HETATM    8  C   UNL     1      -7.686   4.269  69.915  1.00  0.00    -0.053 C  
HETATM    9  O   UNL     1      -9.220   4.168  67.206  1.00  0.00    -0.134 OA 
HETATM   10  H   UNL     1      -8.872   3.374  66.816  1.00  0.00     0.000 HD 
HETATM   11  N   UNL     1      -6.774   4.661  68.800  1.00  0.00    -0.048 NA 
HETATM   12  C   UNL     1      -8.726   3.233  69.428  1.00  0.00    -0.079 C  
HETATM   13  H2  UNL     1      -6.125   5.395  69.083  1.00  0.00     0.000 HD 
HETATM   14  O   UNL     1      -9.352   2.571  70.536  1.00  0.00    -0.124 OA 
HETATM   15  C   UNL     1      -9.783   3.862  68.489  1.00  0.00    -0.044 C  
HETATM   16  H1  UNL     1      -6.285   3.847  68.428  1.00  0.00     0.000 HD 
HETATM   17  H   UNL     1      -9.991   1.934  70.237  1.00  0.00     0.000 HD 
BRANCH   7  18
HETATM   18  O   UNL     1      -7.463   6.472  70.907  1.00  0.00    -0.081 OA 
BRANCH  18  19
HETATM   19  C   UNL     1      -8.032   7.674  71.458  1.00  0.00    -0.094 C  
HETATM   20  O   UNL     1      -6.070   8.927  70.616  1.00  0.00    -0.032 OA 
HETATM   21  C   UNL     1      -9.495   7.696  71.021  1.00  0.00    -0.159 C  
HETATM   22  C   UNL     1      -8.337   9.142  69.605  1.00  0.00    -0.130 C  
HETATM   23  H   UNL     1      -5.724   9.731  70.247  1.00  0.00     0.000 HD 
HETATM   24  O   UNL     1      -9.562   8.430  69.788  1.00  0.00    -0.168 OA 
HETATM   25  C   UNL     1      -7.478   8.959  70.866  1.00  0.00    -0.102 C  
BRANCH  21  26
HETATM   26  C   UNL     1     -10.433   8.363  72.029  1.00  0.00    -0.314 C  
HETATM   27  H   UNL     1     -11.921   9.661  72.000  1.00  0.00     0.000 HD 
HETATM   28  O   UNL     1     -11.339   9.247  71.374  1.00  0.00    -0.307 OA 
ENDBRANCH  21  26
BRANCH  22  29
HETATM   29  O   UNL     1      -8.585  10.532  69.420  1.00  0.00    -0.154 OA 
BRANCH  29  30
HETATM   30  C   UNL     1      -8.094  11.164  68.222  1.00  0.00    -0.131 C  
HETATM   31  C   UNL     1      -7.267  10.163  67.390  1.00  0.00    -0.088 C  
HETATM   32  O   UNL     1      -7.970   8.919  67.266  1.00  0.00    -0.096 OA 
HETATM   33  C   UNL     1      -6.975  10.733  65.997  1.00  0.00    -0.104 C  
HETATM   34  C   UNL     1      -6.146  12.009  66.141  1.00  0.00     1.075 C  
HETATM   35  N   UNL     1      -6.267   9.747  65.159  1.00  0.00    -0.085 NA 
HETATM   36  H   UNL     1      -7.461   8.303  66.754  1.00  0.00     0.000 HD 
HETATM   37  H1  UNL     1      -6.072  10.125  64.232  1.00  0.00     0.000 HD 
HETATM   38  H2  UNL     1      -6.775   8.865  65.105  1.00  0.00     0.000 HD 
HETATM   39  C   UNL     1      -6.845  13.053  67.029  1.00  0.00     0.356 C  
HETATM   40  C   UNL     1      -7.328  12.500  68.423  1.00  0.00    -0.114 C  
HETATM   41  N   UNL     1      -5.939  14.209  67.193  1.00  0.00    -0.179 NA 
HETATM   42  H2  UNL     1      -5.633  14.596  66.300  1.00  0.00     0.000 HD 
HETATM   43  H1  UNL     1      -6.403  14.901  67.781  1.00  0.00     0.000 HD 
BRANCH  40  44
HETATM   44  O   UNL     1      -8.113  13.552  69.031  1.00  0.00     0.058 OA 
BRANCH  44  45
HETATM   45  C   UNL     1      -9.030  14.225  68.157  1.00  0.00    -0.189 C  
HETATM   46  O   UNL     1      -9.590  13.339  67.194  1.00  0.00    -0.225 OA 
HETATM   47  C   UNL     1     -10.468  12.343  67.717  1.00  0.00    -0.218 C  
HETATM   48  C   UNL     1     -11.654  13.010  68.418  1.00  0.00    -0.335 C  
HETATM   49  H1  UNL     1     -10.375  16.376  70.495  1.00  0.00     0.000 HD 
HETATM   50  H2  UNL     1      -8.981  16.555  69.582  1.00  0.00     0.000 HD 
HETATM   51  O   UNL     1     -12.553  12.059  68.993  1.00  0.00     0.111 OA 
HETATM   52  C   UNL     1     -11.141  13.951  69.517  1.00  0.00    -0.128 C  
HETATM   53  H   UNL     1     -13.289  12.474  69.427  1.00  0.00     0.000 HD 
HETATM   54  O   UNL     1     -12.251  14.648  70.110  1.00  0.00    -0.301 OA 
HETATM   55  N   UNL     1      -9.642  15.888  69.982  1.00  0.00     0.051 NA 
HETATM   56  C   UNL     1     -10.144  14.966  68.937  1.00  0.00    -0.236 C  
HETATM   57  H   UNL     1     -11.934  15.231  70.790  1.00  0.00     0.000 HD 
BRANCH  47  58
HETATM   58  C   UNL     1     -10.925  11.476  66.536  1.00  0.00    -0.293 C  
HETATM   59  O   UNL     1     -11.952  10.572  66.952  1.00  0.00     0.455 OA 
HETATM   60  H   UNL     1     -12.236  10.036  66.221  1.00  0.00     0.000 HD 
ENDBRANCH  47  58
ENDBRANCH  44  45
ENDBRANCH  40  44
ENDBRANCH  29  30
ENDBRANCH  22  29
ENDBRANCH  18  19
ENDBRANCH   7  18
ENDBRANCH   2   5
TORSDOF 9
ENDMDL
MODEL      288
REMARK 921   NORMALIZED FREE ENERGY PREDICTED BY IDOCK:    2.08 KCAL/MOL
REMARK 922        TOTAL FREE ENERGY PREDICTED BY IDOCK:    1.14 KCAL/MOL
REMARK 923 INTER-LIGAND FREE ENERGY PREDICTED BY IDOCK:   -5.24 KCAL/MOL
REMARK 924 INTRA-LIGAND FREE ENERGY PREDICTED BY IDOCK:    6.38 KCAL/MOL
REMARK 927      BINDING AFFINITY PREDICTED BY RF-SCORE:    0.00 PKD
ROOT
HETATM    1  N   UNL     1     -12.884  14.988  68.723  1.00  0.00     0.060 NA 
HETATM    2  C   UNL     1     -11.494  15.020  69.223  1.00  0.00    -0.307 C  
HETATM    3  H1  UNL     1     -13.476  15.577  69.309  1.00  0.00     0.000 HD 
HETATM    4  H2  UNL     1     -13.243  14.036  68.649  1.00  0.00     0.000 HD 
ENDROOT
BRANCH   2   5
HETATM    5  C   UNL     1     -10.601  14.133  68.339  1.00  0.00    -0.259 C  
HETATM    6  O   UNL     1     -10.796  12.773  68.769  1.00  0.00    -0.242 OA 
HETATM    7  C   UNL     1     -10.173  11.838  67.891  1.00  0.00    -0.191 C  
HETATM    8  C   UNL     1      -8.630  12.015  67.987  1.00  0.00    -0.170 C  
HETATM    9  O   UNL     1      -8.699  14.551  69.794  1.00  0.00    -0.264 OA 
HETATM   10  H   UNL     1      -7.778  14.778  69.844  1.00  0.00     0.000 HD 
HETATM   11  N   UNL     1      -8.141  11.677  69.357  1.00  0.00    -0.251 NA 
HETATM   12  C   UNL     1      -8.265  13.473  67.625  1.00  0.00    -0.178 C  
HETATM   13  H2  UNL     1      -8.432  10.741  69.641  1.00  0.00     0.000 HD 
HETATM   14  O   UNL     1      -8.380  13.698  66.213  1.00  0.00    -0.101 OA 
HETATM   15  C   UNL     1      -9.105  14.502  68.420  1.00  0.00    -0.191 C  
HETATM   16  H1  UNL     1      -7.130  11.793  69.420  1.00  0.00     0.000 HD 
HETATM   17  H   UNL     1      -8.155  14.594  65.990  1.00  0.00     0.000 HD 
BRANCH   7  18
HETATM   18  O   UNL     1     -10.502  10.494  68.251  1.00  0.00    -0.164 OA 
BRANCH  18  19
HETATM   19  C   UNL     1      -9.371   9.705  68.663  1.00  0.00    -0.143 C  
HETATM   20  O   UNL     1     -10.774   8.724  70.452  1.00  0.00    -0.213 OA 
HETATM   21  C   UNL     1      -8.792   9.085  67.394  1.00  0.00    -0.118 C  
HETATM   22  C   UNL     1     -10.062   7.435  68.442  1.00  0.00    -0.177 C  
HETATM   23  H   UNL     1     -10.995   7.966  70.979  1.00  0.00     0.000 HD 
HETATM   24  O   UNL     1      -9.412   7.801  67.223  1.00  0.00    -0.138 OA 
HETATM   25  C   UNL     1      -9.726   8.492  69.506  1.00  0.00    -0.176 C  
BRANCH  21  26
HETATM   26  C   UNL     1      -7.276   8.885  67.438  1.00  0.00    -0.080 C  
HETATM   27  H   UNL     1      -5.654   9.935  67.028  1.00  0.00     0.000 HD 
HETATM   28  O   UNL     1      -6.595  10.059  67.000  1.00  0.00    -0.068 OA 
ENDBRANCH  21  26
BRANCH  22  29
HETATM   29  O   UNL     1      -9.600   6.167  68.898  1.00  0.00    -0.128 OA 
BRANCH  29  30
HETATM   30  C   UNL     1      -8.253   5.770  68.577  1.00  0.00    -0.108 C  
HETATM   31  C   UNL     1      -7.339   5.933  69.808  1.00  0.00    -0.075 C  
HETATM   32  O   UNL     1      -7.960   5.360  70.967  1.00  0.00    -0.100 OA 
HETATM   33  C   UNL     1      -5.983   5.261  69.564  1.00  0.00    -0.021 C  
HETATM   34  C   UNL     1      -5.292   5.943  68.383  1.00  0.00    -0.004 C  
HETATM   35  N   UNL     1      -5.134   5.327  70.769  1.00  0.00    -0.004 NA 
HETATM   36  H   UNL     1      -7.397   5.460  71.725  1.00  0.00     0.000 HD 
HETATM   37  H1  UNL     1      -4.231   4.881  70.607  1.00  0.00     0.000 HD 
HETATM   38  H2  UNL     1      -5.606   4.935  71.583  1.00  0.00     0.000 HD 
HETATM   39  C   UNL     1      -6.159   5.913  67.112  1.00  0.00    -0.022 C  
HETATM   40  C   UNL     1      -7.630   6.436  67.319  1.00  0.00    -0.096 C  
HETATM   41  N   UNL     1      -5.462   6.672  66.052  1.00  0.00    -0.017 NA 
HETATM   42  H2  UNL     1      -4.514   6.334  65.888  1.00  0.00     0.000 HD 
HETATM   43  H1  UNL     1      -6.037   6.652  65.211  1.00  0.00     0.000 HD 
BRANCH  40  44
HETATM   44  O   UNL     1      -8.339   6.163  66.088  1.00  0.00    -0.117 OA 
BRANCH  44  45
HETATM   45  C   UNL     1      -7.771   5.137  65.261  1.00  0.00    -0.087 C  
HETATM   46  O   UNL     1      -7.988   3.839  65.804  1.00  0.00    -0.092 OA 
HETATM   47  C   UNL     1      -9.345   3.398  65.812  1.00  0.00    -0.144 C  
HETATM   48  C   UNL     1      -9.885   3.352  64.381  1.00  0.00    -0.174 C  
HETATM   49  H1  UNL     1      -8.456   6.596  62.210  1.00  0.00     0.000 HD 
HETATM   50  H2  UNL     1      -7.148   6.851  63.227  1.00  0.00     0.000 HD 
HETATM   51  O   UNL     1     -11.255   2.947  64.328  1.00  0.00    -0.478 OA 
HETATM   52  C   UNL     1      -9.741   4.735  63.730  1.00  0.00     0.320 C  
HETATM   53  H   UNL     1     -11.590   2.918  63.440  1.00  0.00     0.000 HD 
HETATM   54  O   UNL     1     -10.160   4.665  62.356  1.00  0.00    -0.359 OA 
HETATM   55  N   UNL     1      -8.120   6.545  63.172  1.00  0.00    -0.081 NA 
HETATM   56  C   UNL     1      -8.282   5.214  63.800  1.00  0.00    -0.126 C  
HETATM   57  H   UNL     1     -10.071   5.521  61.953  1.00  0.00     0.000 HD 
BRANCH  47  58
HETATM   58  C   UNL     1      -9.366   2.011  66.468  1.00  0.00     0.122 C  
HETATM   59  O   UNL     1      -8.777   2.068  67.770  1.00  0.00    -0.081 OA 
HETATM   60  H   UNL     1      -8.790   1.210  68.176  1.00  0.00     0.000 HD 
ENDBRANCH  47  58
ENDBRANCH  44  45
ENDBRANCH  40  44
ENDBRANCH  29  30
ENDBRANCH  22  29
ENDBRANCH  18  19
ENDBRANCH   7  18
ENDBRANCH   2   5
TORSDOF 9
ENDMDL
MODEL      289
REMARK 921   NORMALIZED FREE ENERGY PREDICTED BY IDOCK:    2.38 KCAL/MOL
REMARK 922        TOTAL FREE ENERGY PREDICTED BY IDOCK:    1.58 KCAL/MOL
REMARK 923 INTER-LIGAND FREE ENERGY PREDICTED BY IDOCK:   -1.61 KCAL/MOL
REMARK 924 INTRA-LIGAND FREE ENERGY PREDICTED BY IDOCK:    3.20 KCAL/MOL
REMARK 927      BINDING AFFINITY PREDICTED BY RF-SCORE:    0.00 PKD
ROOT
HETATM    1  N   UNL     1     -10.634  12.179  62.479  1.00  0.00     0.333 NA 
HETATM    2  C   UNL     1      -9.932  12.061  63.773  1.00  0.00    -0.343 C  
HETATM    3  H1  UNL     1     -10.679  13.158  62.197  1.00  0.00     0.000 HD 
HETATM    4  H2  UNL     1     -11.556  11.743  62.503  1.00  0.00     0.000 HD 
ENDROOT
BRANCH   2   5
HETATM    5  C   UNL     1      -9.863  10.585  64.198  1.00  0.00    -0.337 C  
HETATM    6  O   UNL     1      -9.958  10.552  65.634  1.00  0.00    -0.239 OA 
HETATM    7  C   UNL     1     -10.107   9.224  66.132  1.00  0.00    -0.233 C  
HETATM    8  C   UNL     1      -8.795   8.436  65.852  1.00  0.00    -0.175 C  
HETATM    9  O   UNL     1      -7.433  10.654  64.141  1.00  0.00    -0.347 OA 
HETATM   10  H   UNL     1      -6.637  10.219  63.858  1.00  0.00     0.000 HD 
HETATM   11  N   UNL     1      -7.649   9.027  66.605  1.00  0.00    -0.089 NA 
HETATM   12  C   UNL     1      -8.511   8.450  64.332  1.00  0.00    -0.039 C  
HETATM   13  H2  UNL     1      -7.846   9.089  67.604  1.00  0.00     0.000 HD 
HETATM   14  O   UNL     1      -9.399   7.566  63.633  1.00  0.00     1.228 OA 
HETATM   15  C   UNL     1      -8.570   9.878  63.739  1.00  0.00    -0.199 C  
HETATM   16  H1  UNL     1      -6.789   8.510  66.421  1.00  0.00     0.000 HD 
HETATM   17  H   UNL     1      -9.225   7.575  62.699  1.00  0.00     0.000 HD 
BRANCH   7  18
HETATM   18  O   UNL     1     -10.348   9.225  67.542  1.00  0.00    -0.228 OA 
BRANCH  18  19
HETATM   19  C   UNL     1     -11.137  10.338  67.999  1.00  0.00    -0.274 C  
HETATM   20  O   UNL     1      -9.862  10.304  70.121  1.00  0.00    -0.411 OA 
HETATM   21  C   UNL     1     -11.153  11.353  66.859  1.00  0.00    -0.295 C  
HETATM   22  C   UNL     1      -9.583  12.097  68.413  1.00  0.00    -0.186 C  
HETATM   23  H   UNL     1      -9.474  10.792  70.837  1.00  0.00     0.000 HD 
HETATM   24  O   UNL     1     -10.059  12.257  67.075  1.00  0.00    -0.211 OA 
HETATM   25  C   UNL     1     -10.516  11.119  69.145  1.00  0.00    -0.182 C  
BRANCH  21  26
HETATM   26  C   UNL     1     -12.444  12.171  66.775  1.00  0.00     1.168 C  
HETATM   27  H   UNL     1     -13.503  13.085  65.381  1.00  0.00     0.000 HD 
HETATM   28  O   UNL     1     -12.702  12.578  65.433  1.00  0.00    -0.624 OA 
ENDBRANCH  21  26
BRANCH  22  29
HETATM   29  O   UNL     1      -9.593  13.341  69.105  1.00  0.00     0.248 OA 
BRANCH  29  30
HETATM   30  C   UNL     1      -8.351  14.055  69.253  1.00  0.00     0.378 C  
HETATM   31  C   UNL     1      -7.467  13.377  70.318  1.00  0.00     1.872 C  
HETATM   32  O   UNL     1      -7.417  11.961  70.095  1.00  0.00     0.241 OA 
HETATM   33  C   UNL     1      -6.048  13.955  70.288  1.00  0.00    -0.141 C  
HETATM   34  C   UNL     1      -6.107  15.446  70.619  1.00  0.00     0.089 C  
HETATM   35  N   UNL     1      -5.167  13.248  71.237  1.00  0.00    -0.169 NA 
HETATM   36  H   UNL     1      -6.872  11.543  70.751  1.00  0.00     0.000 HD 
HETATM   37  H1  UNL     1      -4.222  13.632  71.218  1.00  0.00     0.000 HD 
HETATM   38  H2  UNL     1      -5.166  12.242  71.072  1.00  0.00     0.000 HD 
HETATM   39  C   UNL     1      -7.035  16.213  69.662  1.00  0.00    -0.112 C  
HETATM   40  C   UNL     1      -8.471  15.583  69.508  1.00  0.00    -0.211 C  
HETATM   41  N   UNL     1      -7.109  17.619  70.108  1.00  0.00     0.968 NA 
HETATM   42  H2  UNL     1      -6.189  18.052  70.193  1.00  0.00     0.000 HD 
HETATM   43  H1  UNL     1      -7.724  18.127  69.473  1.00  0.00     0.000 HD 
BRANCH  40  44
HETATM   44  O   UNL     1      -9.128  16.315  68.448  1.00  0.00    -0.192 OA 
BRANCH  44  45
HETATM   45  C   UNL     1      -8.554  16.161  67.141  1.00  0.00    -0.187 C  
HETATM   46  O   UNL     1      -9.482  15.602  66.218  1.00  0.00    -0.266 OA 
HETATM   47  C   UNL     1     -10.588  16.437  65.881  1.00  0.00    -0.285 C  
HETATM   48  C   UNL     1     -10.086  17.734  65.242  1.00  0.00     0.770 C  
HETATM   49  H1  UNL     1      -6.633  19.027  67.161  1.00  0.00     0.000 HD 
HETATM   50  H2  UNL     1      -6.266  17.512  67.775  1.00  0.00     0.000 HD 
HETATM   51  O   UNL     1     -11.152  18.628  64.912  1.00  0.00    -0.450 OA 
HETATM   52  C   UNL     1      -9.113  18.438  66.198  1.00  0.00    -0.108 C  
HETATM   53  H   UNL     1     -10.840  19.432  64.515  1.00  0.00     0.000 HD 
HETATM   54  O   UNL     1      -8.569  19.605  65.558  1.00  0.00    -0.260 OA 
HETATM   55  N   UNL     1      -7.017  18.152  67.517  1.00  0.00    -0.196 NA 
HETATM   56  C   UNL     1      -7.971  17.490  66.599  1.00  0.00    -0.253 C  
HETATM   57  H   UNL     1      -7.966  20.040  66.149  1.00  0.00     0.000 HD 
BRANCH  47  58
HETATM   58  C   UNL     1     -11.480  15.641  64.918  1.00  0.00    -0.245 C  
HETATM   59  O   UNL     1     -11.617  16.340  63.677  1.00  0.00    -1.424 OA 
HETATM   60  H   UNL     1     -12.168  15.848  63.081  1.00  0.00     0.000 HD 
ENDBRANCH  47  58
ENDBRANCH  44  45
ENDBRANCH  40  44
ENDBRANCH  29  30
ENDBRANCH  22  29
ENDBRANCH  18  19
ENDBRANCH   7  18
ENDBRANCH   2   5
TORSDOF 9
ENDMDL
MODEL      290
REMARK 921   NORMALIZED FREE ENERGY PREDICTED BY IDOCK:    2.47 KCAL/MOL
REMARK 922        TOTAL FREE ENERGY PREDICTED BY IDOCK:    1.73 KCAL/MOL
REMARK 923 INTER-LIGAND FREE ENERGY PREDICTED BY IDOCK:   -1.42 KCAL/MOL
REMARK 924 INTRA-LIGAND FREE ENERGY PREDICTED BY IDOCK:    3.14 KCAL/MOL
REMARK 927      BINDING AFFINITY PREDICTED BY RF-SCORE:    0.00 PKD
ROOT
HETATM    1  N   UNL     1      -6.153  12.032  70.997  1.00  0.00    -0.472 NA 
HETATM    2  C   UNL     1      -6.113  11.236  69.753  1.00  0.00    -0.112 C  
HETATM    3  H1  UNL     1      -5.288  11.901  71.521  1.00  0.00     0.000 HD 
HETATM    4  H2  UNL     1      -6.978  11.823  71.559  1.00  0.00     0.000 HD 
ENDROOT
BRANCH   2   5
HETATM    5  C   UNL     1      -7.417  11.435  68.963  1.00  0.00    -0.093 C  
HETATM    6  O   UNL     1      -7.210  10.869  67.656  1.00  0.00    -0.089 OA 
HETATM    7  C   UNL     1      -8.417  10.813  66.899  1.00  0.00    -0.131 C  
HETATM    8  C   UNL     1      -8.874  12.266  66.580  1.00  0.00    -0.167 C  
HETATM    9  O   UNL     1      -6.729  13.682  68.339  1.00  0.00    -0.082 OA 
HETATM   10  H   UNL     1      -6.986  14.593  68.262  1.00  0.00     0.000 HD 
HETATM   11  N   UNL     1      -7.878  12.957  65.709  1.00  0.00     1.587 NA 
HETATM   12  C   UNL     1      -9.065  13.038  67.906  1.00  0.00    -0.207 C  
HETATM   13  H2  UNL     1      -7.688  12.427  64.859  1.00  0.00     0.000 HD 
HETATM   14  O   UNL     1     -10.261  12.621  68.579  1.00  0.00    -0.229 OA 
HETATM   15  C   UNL     1      -7.834  12.915  68.837  1.00  0.00     0.139 C  
HETATM   16  H1  UNL     1      -8.177  13.910  65.501  1.00  0.00     0.000 HD 
HETATM   17  H   UNL     1     -10.378  13.096  69.394  1.00  0.00     0.000 HD 
BRANCH   7  18
HETATM   18  O   UNL     1      -8.222  10.115  65.666  1.00  0.00    -0.137 OA 
BRANCH  18  19
HETATM   19  C   UNL     1      -8.848   8.821  65.620  1.00  0.00    -0.199 C  
HETATM   20  O   UNL     1      -7.649   8.372  63.502  1.00  0.00    -0.118 OA 
HETATM   21  C   UNL     1      -8.682   8.212  67.011  1.00  0.00    -0.131 C  
HETATM   22  C   UNL     1      -7.060   7.245  65.645  1.00  0.00    -0.065 C  
HETATM   23  H   UNL     1      -7.211   7.744  62.940  1.00  0.00     0.000 HD 
HETATM   24  O   UNL     1      -7.471   7.441  66.999  1.00  0.00    -0.093 OA 
HETATM   25  C   UNL     1      -8.148   7.816  64.721  1.00  0.00    -0.131 C  
BRANCH  21  26
HETATM   26  C   UNL     1      -9.833   7.295  67.428  1.00  0.00    -0.159 C  
HETATM   27  H   UNL     1     -11.682   7.486  68.094  1.00  0.00     0.000 HD 
HETATM   28  O   UNL     1     -10.968   8.055  67.836  1.00  0.00    -0.036 OA 
ENDBRANCH  21  26
BRANCH  22  29
HETATM   29  O   UNL     1      -6.902   5.858  65.361  1.00  0.00    -0.052 OA 
BRANCH  29  30
HETATM   30  C   UNL     1      -8.001   4.970  65.644  1.00  0.00    -0.107 C  
HETATM   31  C   UNL     1      -9.274   5.445  64.917  1.00  0.00     0.156 C  
HETATM   32  O   UNL     1      -8.980   5.749  63.546  1.00  0.00    -0.313 OA 
HETATM   33  C   UNL     1     -10.365   4.370  64.984  1.00  0.00    -0.142 C  
HETATM   34  C   UNL     1     -10.735   4.123  66.447  1.00  0.00     0.895 C  
HETATM   35  N   UNL     1     -11.555   4.773  64.211  1.00  0.00     0.194 NA 
HETATM   36  H   UNL     1      -9.764   6.041  63.098  1.00  0.00     0.000 HD 
HETATM   37  H1  UNL     1     -12.282   4.059  64.256  1.00  0.00     0.000 HD 
HETATM   38  H2  UNL     1     -11.316   5.005  63.247  1.00  0.00     0.000 HD 
HETATM   39  C   UNL     1      -9.512   3.723  67.290  1.00  0.00    -0.200 C  
HETATM   40  C   UNL     1      -8.279   4.693  67.147  1.00  0.00    -0.105 C  
HETATM   41  N   UNL     1      -9.938   3.596  68.700  1.00  0.00     0.181 NA 
HETATM   42  H2  UNL     1     -10.722   2.955  68.817  1.00  0.00     0.000 HD 
HETATM   43  H1  UNL     1      -9.127   3.331  69.259  1.00  0.00     0.000 HD 
BRANCH  40  44
HETATM   44  O   UNL     1      -7.182   4.067  67.851  1.00  0.00    -0.058 OA 
BRANCH  44  45
HETATM   45  C   UNL     1      -6.631   4.823  68.938  1.00  0.00    -0.045 C  
HETATM   46  O   UNL     1      -7.558   5.780  69.440  1.00  0.00    -0.084 OA 
HETATM   47  C   UNL     1      -8.702   5.237  70.098  1.00  0.00    -0.121 C  
HETATM   48  C   UNL     1      -8.261   4.404  71.305  1.00  0.00    -0.083 C  
HETATM   49  H1  UNL     1      -4.815   2.270  70.383  1.00  0.00     0.000 HD 
HETATM   50  H2  UNL     1      -4.380   3.287  69.124  1.00  0.00     0.000 HD 
HETATM   51  O   UNL     1      -9.365   3.807  71.987  1.00  0.00    -0.115 OA 
HETATM   52  C   UNL     1      -7.293   3.305  70.847  1.00  0.00    -0.037 C  
HETATM   53  H   UNL     1      -9.091   3.290  72.736  1.00  0.00     0.000 HD 
HETATM   54  O   UNL     1      -6.806   2.585  71.993  1.00  0.00    -0.021 OA 
HETATM   55  N   UNL     1      -5.159   2.869  69.633  1.00  0.00    -0.004 NA 
HETATM   56  C   UNL     1      -6.109   3.914  70.079  1.00  0.00    -0.023 C  
HETATM   57  H   UNL     1      -6.207   1.904  71.709  1.00  0.00     0.000 HD 
BRANCH  47  58
HETATM   58  C   UNL     1      -9.584   6.420  70.521  1.00  0.00    -0.165 C  
HETATM   59  O   UNL     1     -10.756   5.949  71.193  1.00  0.00    -0.244 OA 
HETATM   60  H   UNL     1     -11.302   6.680  71.454  1.00  0.00     0.000 HD 
ENDBRANCH  47  58
ENDBRANCH  44  45
ENDBRANCH  40  44
ENDBRANCH  29  30
ENDBRANCH  22  29
ENDBRANCH  18  19
ENDBRANCH   7  18
ENDBRANCH   2   5
TORSDOF 9
ENDMDL
MODEL      291
REMARK 921   NORMALIZED FREE ENERGY PREDICTED BY IDOCK:    2.55 KCAL/MOL
REMARK 922        TOTAL FREE ENERGY PREDICTED BY IDOCK:    1.85 KCAL/MOL
REMARK 923 INTER-LIGAND FREE ENERGY PREDICTED BY IDOCK:   -0.84 KCAL/MOL
REMARK 924 INTRA-LIGAND FREE ENERGY PREDICTED BY IDOCK:    2.69 KCAL/MOL
REMARK 927      BINDING AFFINITY PREDICTED BY RF-SCORE:    0.00 PKD
ROOT
HETATM    1  N   UNL     1     -10.408  12.577  62.455  1.00  0.00     0.481 NA 
HETATM    2  C   UNL     1      -9.727  12.227  63.718  1.00  0.00    -0.048 C  
HETATM    3  H1  UNL     1     -10.468  13.592  62.364  1.00  0.00     0.000 HD 
HETATM    4  H2  UNL     1     -11.322  12.130  62.376  1.00  0.00     0.000 HD 
ENDROOT
BRANCH   2   5
HETATM    5  C   UNL     1      -9.637  10.698  63.856  1.00  0.00    -0.306 C  
HETATM    6  O   UNL     1      -9.777  10.389  65.255  1.00  0.00    -0.234 OA 
HETATM    7  C   UNL     1      -9.911   8.989  65.485  1.00  0.00     0.110 C  
HETATM    8  C   UNL     1      -8.572   8.291  65.108  1.00  0.00    -0.105 C  
HETATM    9  O   UNL     1      -7.208  10.819  63.901  1.00  0.00    -0.342 OA 
HETATM   10  H   UNL     1      -6.394  10.460  63.569  1.00  0.00     0.000 HD 
HETATM   11  N   UNL     1      -7.465   8.747  66.000  1.00  0.00    -0.088 NA 
HETATM   12  C   UNL     1      -8.240   8.600  63.629  1.00  0.00    -0.148 C  
HETATM   13  H2  UNL     1      -7.696   8.614  66.985  1.00  0.00     0.000 HD 
HETATM   14  O   UNL     1      -9.083   7.852  62.743  1.00  0.00     0.019 OA 
HETATM   15  C   UNL     1      -8.313  10.114  63.318  1.00  0.00    -0.170 C  
HETATM   16  H1  UNL     1      -6.588   8.290  65.753  1.00  0.00     0.000 HD 
HETATM   17  H   UNL     1      -8.879   8.042  61.835  1.00  0.00     0.000 HD 
BRANCH   7  18
HETATM   18  O   UNL     1     -10.196   8.716  66.859  1.00  0.00    -0.256 OA 
BRANCH  18  19
HETATM   19  C   UNL     1     -10.883   9.784  67.537  1.00  0.00    -0.220 C  
HETATM   20  O   UNL     1      -9.705   9.150  69.620  1.00  0.00    -0.166 OA 
HETATM   21  C   UNL     1     -10.746  11.017  66.647  1.00  0.00    -0.249 C  
HETATM   22  C   UNL     1      -9.170  11.227  68.352  1.00  0.00    -0.178 C  
HETATM   23  H   UNL     1      -9.296   9.425  70.432  1.00  0.00     0.000 HD 
HETATM   24  O   UNL     1      -9.573  11.726  67.075  1.00  0.00    -0.183 OA 
HETATM   25  C   UNL     1     -10.230  10.224  68.836  1.00  0.00    -0.205 C  
BRANCH  21  26
HETATM   26  C   UNL     1     -11.939  11.972  66.724  1.00  0.00    -0.006 C  
HETATM   27  H   UNL     1     -13.229  12.797  65.476  1.00  0.00     0.000 HD 
HETATM   28  O   UNL     1     -12.488  12.205  65.429  1.00  0.00    -0.523 OA 
ENDBRANCH  21  26
BRANCH  22  29
HETATM   29  O   UNL     1      -9.078  12.286  69.301  1.00  0.00     0.508 OA 
BRANCH  29  30
HETATM   30  C   UNL     1      -7.773  12.796  69.635  1.00  0.00     1.106 C  
HETATM   31  C   UNL     1      -7.206  12.054  70.861  1.00  0.00     3.997 C  
HETATM   32  O   UNL     1      -7.363  10.637  70.702  1.00  0.00    -0.379 OA 
HETATM   33  C   UNL     1      -5.723  12.390  71.056  1.00  0.00     0.043 C  
HETATM   34  C   UNL     1      -5.580  13.889  71.317  1.00  0.00    -0.223 C  
HETATM   35  N   UNL     1      -5.145  11.613  72.169  1.00  0.00    -0.340 NA 
HETATM   36  H   UNL     1      -7.014  10.180  71.457  1.00  0.00     0.000 HD 
HETATM   37  H1  UNL     1      -4.159  11.836  72.299  1.00  0.00     0.000 HD 
HETATM   38  H2  UNL     1      -5.290  10.611  72.043  1.00  0.00     0.000 HD 
HETATM   39  C   UNL     1      -6.193  14.733  70.186  1.00  0.00    -0.166 C  
HETATM   40  C   UNL     1      -7.670  14.336  69.810  1.00  0.00     0.407 C  
HETATM   41  N   UNL     1      -6.096  16.159  70.562  1.00  0.00     0.069 NA 
HETATM   42  H2  UNL     1      -5.143  16.441  70.789  1.00  0.00     0.000 HD 
HETATM   43  H1  UNL     1      -6.503  16.718  69.812  1.00  0.00     0.000 HD 
BRANCH  40  44
HETATM   44  O   UNL     1      -8.008  15.095  68.625  1.00  0.00    -0.134 OA 
BRANCH  44  45
HETATM   45  C   UNL     1      -8.820  16.257  68.845  1.00  0.00    -0.253 C  
HETATM   46  O   UNL     1      -8.031  17.407  69.130  1.00  0.00    -0.160 OA 
HETATM   47  C   UNL     1      -7.237  17.888  68.047  1.00  0.00    -0.220 C  
HETATM   48  C   UNL     1      -8.138  18.275  66.872  1.00  0.00    -0.245 C  
HETATM   49  H1  UNL     1     -11.254  15.549  66.504  1.00  0.00     0.000 HD 
HETATM   50  H2  UNL     1     -11.136  15.021  68.091  1.00  0.00     0.000 HD 
HETATM   51  O   UNL     1      -7.394  18.735  65.742  1.00  0.00    -0.417 OA 
HETATM   52  C   UNL     1      -8.994  17.070  66.459  1.00  0.00    -0.269 C  
HETATM   53  H   UNL     1      -7.953  18.976  65.014  1.00  0.00     0.000 HD 
HETATM   54  O   UNL     1      -9.907  17.462  65.419  1.00  0.00    -0.402 OA 
HETATM   55  N   UNL     1     -10.620  15.369  67.283  1.00  0.00    -0.288 NA 
HETATM   56  C   UNL     1      -9.783  16.530  67.662  1.00  0.00    -0.239 C  
HETATM   57  H   UNL     1     -10.437  16.716  65.164  1.00  0.00     0.000 HD 
BRANCH  47  58
HETATM   58  C   UNL     1      -6.441  19.093  68.569  1.00  0.00    -0.247 C  
HETATM   59  O   UNL     1      -5.201  19.210  67.866  1.00  0.00    -0.170 OA 
HETATM   60  H   UNL     1      -4.709  19.955  68.188  1.00  0.00     0.000 HD 
ENDBRANCH  47  58
ENDBRANCH  44  45
ENDBRANCH  40  44
ENDBRANCH  29  30
ENDBRANCH  22  29
ENDBRANCH  18  19
ENDBRANCH   7  18
ENDBRANCH   2   5
TORSDOF 9
ENDMDL
MODEL      292
REMARK 921   NORMALIZED FREE ENERGY PREDICTED BY IDOCK:    2.74 KCAL/MOL
REMARK 922        TOTAL FREE ENERGY PREDICTED BY IDOCK:    2.14 KCAL/MOL
REMARK 923 INTER-LIGAND FREE ENERGY PREDICTED BY IDOCK:   -4.10 KCAL/MOL
REMARK 924 INTRA-LIGAND FREE ENERGY PREDICTED BY IDOCK:    6.24 KCAL/MOL
REMARK 927      BINDING AFFINITY PREDICTED BY RF-SCORE:    0.00 PKD
ROOT
HETATM    1  N   UNL     1     -10.922  13.022  65.334  1.00  0.00    -0.272 NA 
HETATM    2  C   UNL     1      -9.565  12.489  65.097  1.00  0.00     0.081 C  
HETATM    3  H1  UNL     1     -10.864  13.998  65.627  1.00  0.00     0.000 HD 
HETATM    4  H2  UNL     1     -11.446  12.453  65.999  1.00  0.00     0.000 HD 
ENDROOT
BRANCH   2   5
HETATM    5  C   UNL     1      -9.652  11.018  64.655  1.00  0.00    -0.254 C  
HETATM    6  O   UNL     1      -9.853  10.230  65.843  1.00  0.00    -0.208 OA 
HETATM    7  C   UNL     1     -10.150   8.869  65.539  1.00  0.00     0.646 C  
HETATM    8  C   UNL     1      -8.892   8.215  64.898  1.00  0.00     0.181 C  
HETATM    9  O   UNL     1      -7.227  10.839  64.683  1.00  0.00    -0.354 OA 
HETATM   10  H   UNL     1      -6.452  10.539  64.222  1.00  0.00     0.000 HD 
HETATM   11  N   UNL     1      -7.758   8.179  65.869  1.00  0.00    -0.088 NA 
HETATM   12  C   UNL     1      -8.498   9.012  63.632  1.00  0.00    -0.167 C  
HETATM   13  H2  UNL     1      -8.022   7.717  66.739  1.00  0.00     0.000 HD 
HETATM   14  O   UNL     1      -9.404   8.746  62.553  1.00  0.00    -0.471 OA 
HETATM   15  C   UNL     1      -8.393  10.531  63.907  1.00  0.00    -0.093 C  
HETATM   16  H1  UNL     1      -6.934   7.751  65.448  1.00  0.00     0.000 HD 
HETATM   17  H   UNL     1      -9.162   9.236  61.775  1.00  0.00     0.000 HD 
BRANCH   7  18
HETATM   18  O   UNL     1     -10.491   8.140  66.721  1.00  0.00    -0.326 OA 
BRANCH  18  19
HETATM   19  C   UNL     1     -10.095   8.787  67.943  1.00  0.00    -0.207 C  
HETATM   20  O   UNL     1      -9.328   6.594  68.796  1.00  0.00    -0.132 OA 
HETATM   21  C   UNL     1      -9.309  10.032  67.536  1.00  0.00    -0.144 C  
HETATM   22  C   UNL     1      -7.750   8.406  68.136  1.00  0.00    -0.103 C  
HETATM   23  H   UNL     1      -8.700   6.104  69.314  1.00  0.00     0.000 HD 
HETATM   24  O   UNL     1      -7.923   9.663  67.479  1.00  0.00    -0.105 OA 
HETATM   25  C   UNL     1      -9.091   8.004  68.772  1.00  0.00    -0.144 C  
BRANCH  21  26
HETATM   26  C   UNL     1      -9.455  11.203  68.509  1.00  0.00    -0.193 C  
HETATM   27  H   UNL     1      -9.107  11.565  70.419  1.00  0.00     0.000 HD 
HETATM   28  O   UNL     1      -9.016  10.837  69.816  1.00  0.00     0.134 OA 
ENDBRANCH  21  26
BRANCH  22  29
HETATM   29  O   UNL     1      -6.770   8.504  69.165  1.00  0.00    -0.046 OA 
BRANCH  29  30
HETATM   30  C   UNL     1      -7.009   7.818  70.409  1.00  0.00    -0.046 C  
HETATM   31  C   UNL     1      -6.390   8.605  71.581  1.00  0.00    -0.069 C  
HETATM   32  O   UNL     1      -6.742   9.992  71.490  1.00  0.00    -0.236 OA 
HETATM   33  C   UNL     1      -6.870   8.038  72.922  1.00  0.00    -0.091 C  
HETATM   34  C   UNL     1      -6.408   6.586  73.046  1.00  0.00    -0.063 C  
HETATM   35  N   UNL     1      -6.360   8.842  74.050  1.00  0.00    -0.254 NA 
HETATM   36  H   UNL     1      -6.361  10.477  72.212  1.00  0.00     0.000 HD 
HETATM   37  H1  UNL     1      -6.679   8.465  74.943  1.00  0.00     0.000 HD 
HETATM   38  H2  UNL     1      -6.604   9.827  73.950  1.00  0.00     0.000 HD 
HETATM   39  C   UNL     1      -6.902   5.722  71.873  1.00  0.00    -0.068 C  
HETATM   40  C   UNL     1      -6.592   6.323  70.450  1.00  0.00    -0.048 C  
HETATM   41  N   UNL     1      -6.335   4.365  72.021  1.00  0.00    -0.021 NA 
HETATM   42  H2  UNL     1      -6.543   3.950  72.929  1.00  0.00     0.000 HD 
HETATM   43  H1  UNL     1      -6.663   3.793  71.243  1.00  0.00     0.000 HD 
BRANCH  40  44
HETATM   44  O   UNL     1      -7.282   5.485  69.494  1.00  0.00    -0.062 OA 
BRANCH  44  45
HETATM   45  C   UNL     1      -6.496   4.438  68.907  1.00  0.00    -0.040 C  
HETATM   46  O   UNL     1      -7.058   3.154  69.150  1.00  0.00    -0.044 OA 
HETATM   47  C   UNL     1      -8.300   2.896  68.496  1.00  0.00    -0.065 C  
HETATM   48  C   UNL     1      -8.121   2.998  66.980  1.00  0.00    -0.079 C  
HETATM   49  H1  UNL     1      -5.557   6.136  66.053  1.00  0.00     0.000 HD 
HETATM   50  H2  UNL     1      -4.848   6.160  67.571  1.00  0.00     0.000 HD 
HETATM   51  O   UNL     1      -9.343   2.781  66.271  1.00  0.00    -0.313 OA 
HETATM   52  C   UNL     1      -7.564   4.382  66.618  1.00  0.00    -0.089 C  
HETATM   53  H   UNL     1      -9.232   2.845  65.330  1.00  0.00     0.000 HD 
HETATM   54  O   UNL     1      -7.307   4.442  65.204  1.00  0.00    -0.070 OA 
HETATM   55  N   UNL     1      -5.709   5.989  67.051  1.00  0.00    -0.016 NA 
HETATM   56  C   UNL     1      -6.265   4.660  67.391  1.00  0.00    -0.039 C  
HETATM   57  H   UNL     1      -6.963   5.299  64.980  1.00  0.00     0.000 HD 
BRANCH  47  58
HETATM   58  C   UNL     1      -8.751   1.490  68.918  1.00  0.00    -0.064 C  
HETATM   59  O   UNL     1      -9.668   1.571  70.012  1.00  0.00    -0.060 OA 
HETATM   60  H   UNL     1      -9.947   0.701  70.273  1.00  0.00     0.000 HD 
ENDBRANCH  47  58
ENDBRANCH  44  45
ENDBRANCH  40  44
ENDBRANCH  29  30
ENDBRANCH  22  29
ENDBRANCH  18  19
ENDBRANCH   7  18
ENDBRANCH   2   5
TORSDOF 9
ENDMDL
MODEL      293
REMARK 921   NORMALIZED FREE ENERGY PREDICTED BY IDOCK:    2.87 KCAL/MOL
REMARK 922        TOTAL FREE ENERGY PREDICTED BY IDOCK:    2.33 KCAL/MOL
REMARK 923 INTER-LIGAND FREE ENERGY PREDICTED BY IDOCK:   -7.02 KCAL/MOL
REMARK 924 INTRA-LIGAND FREE ENERGY PREDICTED BY IDOCK:    9.34 KCAL/MOL
REMARK 927      BINDING AFFINITY PREDICTED BY RF-SCORE:    0.00 PKD
ROOT
HETATM    1  N   UNL     1      -5.394   6.944  72.420  1.00  0.00    -0.036 NA 
HETATM    2  C   UNL     1      -5.981   5.739  71.800  1.00  0.00    -0.034 C  
HETATM    3  H1  UNL     1      -4.735   6.672  73.150  1.00  0.00     0.000 HD 
HETATM    4  H2  UNL     1      -6.109   7.583  72.767  1.00  0.00     0.000 HD 
ENDROOT
BRANCH   2   5
HETATM    5  C   UNL     1      -6.974   6.149  70.699  1.00  0.00    -0.064 C  
HETATM    6  O   UNL     1      -6.600   7.468  70.261  1.00  0.00    -0.038 OA 
HETATM    7  C   UNL     1      -7.324   7.874  69.102  1.00  0.00    -0.083 C  
HETATM    8  C   UNL     1      -8.823   8.046  69.485  1.00  0.00    -0.144 C  
HETATM    9  O   UNL     1      -8.559   6.916  72.375  1.00  0.00    -0.122 OA 
HETATM   10  H   UNL     1      -9.464   6.914  72.666  1.00  0.00     0.000 HD 
HETATM   11  N   UNL     1      -8.993   9.147  70.479  1.00  0.00    -0.213 NA 
HETATM   12  C   UNL     1      -9.355   6.711  70.055  1.00  0.00    -0.158 C  
HETATM   13  H2  UNL     1      -8.586  10.022  70.147  1.00  0.00     0.000 HD 
HETATM   14  O   UNL     1      -9.551   5.746  69.013  1.00  0.00    -0.127 OA 
HETATM   15  C   UNL     1      -8.443   6.147  71.170  1.00  0.00    -0.125 C  
HETATM   16  H1  UNL     1      -9.975   9.260  70.730  1.00  0.00     0.000 HD 
HETATM   17  H   UNL     1      -9.878   4.926  69.364  1.00  0.00     0.000 HD 
BRANCH   7  18
HETATM   18  O   UNL     1      -6.835   9.120  68.597  1.00  0.00    -0.061 OA 
BRANCH  18  19
HETATM   19  C   UNL     1      -7.846   9.940  67.986  1.00  0.00    -0.086 C  
HETATM   20  O   UNL     1      -7.710  11.467  69.930  1.00  0.00    -0.175 OA 
HETATM   21  C   UNL     1      -7.423  10.134  66.531  1.00  0.00    -0.109 C  
HETATM   22  C   UNL     1      -6.834  12.076  67.678  1.00  0.00    -0.115 C  
HETATM   23  H   UNL     1      -7.748  12.356  70.262  1.00  0.00     0.000 HD 
HETATM   24  O   UNL     1      -6.645  11.339  66.469  1.00  0.00    -0.134 OA 
HETATM   25  C   UNL     1      -7.906  11.363  68.517  1.00  0.00    -0.140 C  
BRANCH  21  26
HETATM   26  C   UNL     1      -8.594  10.266  65.557  1.00  0.00    -0.164 C  
HETATM   27  H   UNL     1     -10.067   9.135  64.884  1.00  0.00     0.000 HD 
HETATM   28  O   UNL     1      -9.339   9.053  65.488  1.00  0.00    -0.230 OA 
ENDBRANCH  21  26
BRANCH  22  29
HETATM   29  O   UNL     1      -7.282  13.399  67.398  1.00  0.00    -0.163 OA 
BRANCH  29  30
HETATM   30  C   UNL     1      -8.661  13.726  67.654  1.00  0.00    -0.185 C  
HETATM   31  C   UNL     1      -9.589  12.698  66.978  1.00  0.00    -0.219 C  
HETATM   32  O   UNL     1      -9.142  11.364  67.259  1.00  0.00    -0.158 OA 
HETATM   33  C   UNL     1     -11.032  12.871  67.467  1.00  0.00    -0.255 C  
HETATM   34  C   UNL     1     -11.528  14.264  67.080  1.00  0.00    -0.377 C  
HETATM   35  N   UNL     1     -11.913  11.832  66.901  1.00  0.00    -0.561 NA 
HETATM   36  H   UNL     1      -9.714  10.730  66.843  1.00  0.00     0.000 HD 
HETATM   37  H1  UNL     1     -12.873  11.947  67.225  1.00  0.00     0.000 HD 
HETATM   38  H2  UNL     1     -11.561  10.895  67.094  1.00  0.00     0.000 HD 
HETATM   39  C   UNL     1     -10.619  15.375  67.635  1.00  0.00    -0.280 C  
HETATM   40  C   UNL     1      -9.089  15.180  67.316  1.00  0.00    -0.198 C  
HETATM   41  N   UNL     1     -11.113  16.676  67.138  1.00  0.00    -0.008 NA 
HETATM   42  H2  UNL     1     -12.098  16.830  67.354  1.00  0.00     0.000 HD 
HETATM   43  H1  UNL     1     -10.510  17.411  67.506  1.00  0.00     0.000 HD 
BRANCH  40  44
HETATM   44  O   UNL     1      -8.382  16.198  68.062  1.00  0.00    -0.160 OA 
BRANCH  44  45
HETATM   45  C   UNL     1      -8.070  17.395  67.334  1.00  0.00    -0.199 C  
HETATM   46  O   UNL     1      -8.992  18.442  67.616  1.00  0.00    -0.269 OA 
HETATM   47  C   UNL     1      -8.938  18.964  68.943  1.00  0.00    -0.230 C  
HETATM   48  C   UNL     1      -7.547  19.541  69.219  1.00  0.00    -0.202 C  
HETATM   49  H1  UNL     1      -4.634  17.129  67.494  1.00  0.00     0.000 HD 
HETATM   50  H2  UNL     1      -5.692  16.436  66.394  1.00  0.00     0.000 HD 
HETATM   51  O   UNL     1      -7.422  20.051  70.548  1.00  0.00     0.360 OA 
HETATM   52  C   UNL     1      -6.484  18.458  68.989  1.00  0.00    -0.245 C  
HETATM   53  H   UNL     1      -6.559  20.409  70.719  1.00  0.00     0.000 HD 
HETATM   54  O   UNL     1      -5.174  19.027  69.155  1.00  0.00    -0.190 OA 
HETATM   55  N   UNL     1      -5.593  16.820  67.334  1.00  0.00    -0.141 NA 
HETATM   56  C   UNL     1      -6.614  17.865  67.578  1.00  0.00    -0.172 C  
HETATM   57  H   UNL     1      -4.516  18.356  69.014  1.00  0.00     0.000 HD 
BRANCH  47  58
HETATM   58  C   UNL     1     -10.027  20.040  69.052  1.00  0.00    -0.210 C  
HETATM   59  O   UNL     1     -10.519  20.115  70.393  1.00  0.00    -0.598 OA 
HETATM   60  H   UNL     1     -11.192  20.781  70.460  1.00  0.00     0.000 HD 
ENDBRANCH  47  58
ENDBRANCH  44  45
ENDBRANCH  40  44
ENDBRANCH  29  30
ENDBRANCH  22  29
ENDBRANCH  18  19
ENDBRANCH   7  18
ENDBRANCH   2   5
TORSDOF 9
ENDMDL
MODEL      294
REMARK 921   NORMALIZED FREE ENERGY PREDICTED BY IDOCK:    3.42 KCAL/MOL
REMARK 922        TOTAL FREE ENERGY PREDICTED BY IDOCK:    3.18 KCAL/MOL
REMARK 923 INTER-LIGAND FREE ENERGY PREDICTED BY IDOCK:    0.32 KCAL/MOL
REMARK 924 INTRA-LIGAND FREE ENERGY PREDICTED BY IDOCK:    2.86 KCAL/MOL
REMARK 927      BINDING AFFINITY PREDICTED BY RF-SCORE:    0.00 PKD
ROOT
HETATM    1  N   UNL     1      -7.394  11.849  62.477  1.00  0.00     0.396 NA 
HETATM    2  C   UNL     1      -6.608  10.866  63.250  1.00  0.00     0.386 C  
HETATM    3  H1  UNL     1      -6.814  12.257  61.744  1.00  0.00     0.000 HD 
HETATM    4  H2  UNL     1      -7.813  12.561  63.076  1.00  0.00     0.000 HD 
ENDROOT
BRANCH   2   5
HETATM    5  C   UNL     1      -7.483  10.249  64.354  1.00  0.00    -0.084 C  
HETATM    6  O   UNL     1      -6.964  10.714  65.614  1.00  0.00    -0.136 OA 
HETATM    7  C   UNL     1      -7.817  10.371  66.704  1.00  0.00    -0.120 C  
HETATM    8  C   UNL     1      -7.810   8.824  66.875  1.00  0.00    -0.101 C  
HETATM    9  O   UNL     1      -6.153   8.214  64.309  1.00  0.00    -0.062 OA 
HETATM   10  H   UNL     1      -6.164   7.264  64.293  1.00  0.00     0.000 HD 
HETATM   11  N   UNL     1      -6.449   8.338  67.252  1.00  0.00    -0.057 NA 
HETATM   12  C   UNL     1      -8.275   8.168  65.555  1.00  0.00    -0.144 C  
HETATM   13  H2  UNL     1      -6.096   8.811  68.084  1.00  0.00     0.000 HD 
HETATM   14  O   UNL     1      -9.690   8.318  65.375  1.00  0.00    -0.241 OA 
HETATM   15  C   UNL     1      -7.500   8.706  64.329  1.00  0.00    -0.109 C  
HETATM   16  H1  UNL     1      -6.445   7.324  67.364  1.00  0.00     0.000 HD 
HETATM   17  H   UNL     1      -9.976   7.915  64.563  1.00  0.00     0.000 HD 
BRANCH   7  18
HETATM   18  O   UNL     1      -7.362  10.967  67.922  1.00  0.00    -0.088 OA 
BRANCH  18  19
HETATM   19  C   UNL     1      -8.199  12.037  68.398  1.00  0.00    -0.151 C  
HETATM   20  O   UNL     1      -6.597  12.397  70.250  1.00  0.00    -0.423 OA 
HETATM   21  C   UNL     1      -8.530  12.898  67.181  1.00  0.00    -0.179 C  
HETATM   22  C   UNL     1      -6.831  13.988  68.347  1.00  0.00    -0.099 C  
HETATM   23  H   UNL     1      -6.161  13.007  70.833  1.00  0.00     0.000 HD 
HETATM   24  O   UNL     1      -7.537  13.933  67.106  1.00  0.00    -0.116 OA 
HETATM   25  C   UNL     1      -7.500  13.013  69.329  1.00  0.00     0.308 C  
BRANCH  21  26
HETATM   26  C   UNL     1      -9.909  13.558  67.245  1.00  0.00    -0.237 C  
HETATM   27  H   UNL     1     -11.783  13.059  66.875  1.00  0.00     0.000 HD 
HETATM   28  O   UNL     1     -10.928  12.649  66.835  1.00  0.00    -0.249 OA 
ENDBRANCH  21  26
BRANCH  22  29
HETATM   29  O   UNL     1      -6.883  15.299  68.900  1.00  0.00    -0.111 OA 
BRANCH  29  30
HETATM   30  C   UNL     1      -7.392  16.370  68.081  1.00  0.00    -0.148 C  
HETATM   31  C   UNL     1      -6.331  16.807  67.052  1.00  0.00    -0.187 C  
HETATM   32  O   UNL     1      -5.767  15.660  66.401  1.00  0.00     0.852 OA 
HETATM   33  C   UNL     1      -6.948  17.742  66.006  1.00  0.00    -0.300 C  
HETATM   34  C   UNL     1      -7.462  19.003  66.702  1.00  0.00    -0.240 C  
HETATM   35  N   UNL     1      -5.966  18.092  64.961  1.00  0.00    -0.034 NA 
HETATM   36  H   UNL     1      -5.114  15.929  65.766  1.00  0.00     0.000 HD 
HETATM   37  H1  UNL     1      -6.377  18.714  64.266  1.00  0.00     0.000 HD 
HETATM   38  H2  UNL     1      -5.565  17.260  64.530  1.00  0.00     0.000 HD 
HETATM   39  C   UNL     1      -8.472  18.675  67.815  1.00  0.00    -0.275 C  
HETATM   40  C   UNL     1      -7.975  17.591  68.844  1.00  0.00    -0.180 C  
HETATM   41  N   UNL     1      -8.843  19.933  68.495  1.00  0.00    -0.209 NA 
HETATM   42  H2  UNL     1      -9.189  20.642  67.848  1.00  0.00     0.000 HD 
HETATM   43  H1  UNL     1      -9.513  19.716  69.233  1.00  0.00     0.000 HD 
BRANCH  40  44
HETATM   44  O   UNL     1      -9.106  17.280  69.690  1.00  0.00     0.382 OA 
BRANCH  44  45
HETATM   45  C   UNL     1     -10.372  17.782  69.241  1.00  0.00    -0.065 C  
HETATM   46  O   UNL     1     -10.698  17.308  67.939  1.00  0.00    -0.372 OA 
HETATM   47  C   UNL     1     -10.964  15.910  67.846  1.00  0.00    -0.327 C  
HETATM   48  C   UNL     1     -12.154  15.546  68.737  1.00  0.00    -0.141 C  
HETATM   49  H1  UNL     1     -11.989  17.700  72.288  1.00  0.00     0.000 HD 
HETATM   50  H2  UNL     1     -11.005  18.899  71.653  1.00  0.00     0.000 HD 
HETATM   51  O   UNL     1     -12.448  14.147  68.710  1.00  0.00    -0.542 OA 
HETATM   52  C   UNL     1     -11.867  15.975  70.182  1.00  0.00    -0.240 C  
HETATM   53  H   UNL     1     -13.186  13.922  69.263  1.00  0.00     0.000 HD 
HETATM   54  O   UNL     1     -13.023  15.720  70.999  1.00  0.00    -0.483 OA 
HETATM   55  N   UNL     1     -11.238  17.906  71.629  1.00  0.00     2.162 NA 
HETATM   56  C   UNL     1     -11.514  17.470  70.241  1.00  0.00     2.397 C  
HETATM   57  H   UNL     1     -12.845  15.985  71.893  1.00  0.00     0.000 HD 
BRANCH  47  58
HETATM   58  C   UNL     1     -11.249  15.600  66.369  1.00  0.00    -0.038 C  
HETATM   59  O   UNL     1     -12.464  14.857  66.244  1.00  0.00    -0.075 OA 
HETATM   60  H   UNL     1     -12.641  14.665  65.331  1.00  0.00     0.000 HD 
ENDBRANCH  47  58
ENDBRANCH  44  45
ENDBRANCH  40  44
ENDBRANCH  29  30
ENDBRANCH  22  29
ENDBRANCH  18  19
ENDBRANCH   7  18
ENDBRANCH   2   5
TORSDOF 9
ENDMDL
MODEL      295
REMARK 921   NORMALIZED FREE ENERGY PREDICTED BY IDOCK:    3.51 KCAL/MOL
REMARK 922        TOTAL FREE ENERGY PREDICTED BY IDOCK:    3.32 KCAL/MOL
REMARK 923 INTER-LIGAND FREE ENERGY PREDICTED BY IDOCK:   -3.89 KCAL/MOL
REMARK 924 INTRA-LIGAND FREE ENERGY PREDICTED BY IDOCK:    7.21 KCAL/MOL
REMARK 927      BINDING AFFINITY PREDICTED BY RF-SCORE:    0.00 PKD
ROOT
HETATM    1  N   UNL     1      -8.888  17.361  65.754  1.00  0.00    -0.482 NA 
HETATM    2  C   UNL     1      -9.754  18.286  66.513  1.00  0.00    -0.343 C  
HETATM    3  H1  UNL     1      -8.513  17.834  64.932  1.00  0.00     0.000 HD 
HETATM    4  H2  UNL     1      -9.371  16.496  65.512  1.00  0.00     0.000 HD 
ENDROOT
BRANCH   2   5
HETATM    5  C   UNL     1     -10.320  17.573  67.753  1.00  0.00    -0.367 C  
HETATM    6  O   UNL     1      -9.284  16.709  68.254  1.00  0.00    -0.206 OA 
HETATM    7  C   UNL     1      -9.622  16.146  69.520  1.00  0.00    -0.150 C  
HETATM    8  C   UNL     1     -10.823  15.175  69.330  1.00  0.00    -0.255 C  
HETATM    9  O   UNL     1     -11.352  15.882  66.343  1.00  0.00    -0.007 OA 
HETATM   10  H   UNL     1     -12.136  15.377  66.160  1.00  0.00     0.000 HD 
HETATM   11  N   UNL     1     -10.442  14.023  68.460  1.00  0.00    -0.245 NA 
HETATM   12  C   UNL     1     -12.009  15.952  68.714  1.00  0.00    -0.154 C  
HETATM   13  H2  UNL     1      -9.617  13.538  68.815  1.00  0.00     0.000 HD 
HETATM   14  O   UNL     1     -12.627  16.807  69.686  1.00  0.00     0.505 OA 
HETATM   15  C   UNL     1     -11.594  16.753  67.456  1.00  0.00     0.587 C  
HETATM   16  H1  UNL     1     -11.229  13.387  68.335  1.00  0.00     0.000 HD 
HETATM   17  H   UNL     1     -13.355  17.284  69.307  1.00  0.00     0.000 HD 
BRANCH   7  18
HETATM   18  O   UNL     1      -8.524  15.412  70.068  1.00  0.00    -0.010 OA 
BRANCH  18  19
HETATM   19  C   UNL     1      -7.590  14.934  69.083  1.00  0.00    -0.160 C  
HETATM   20  O   UNL     1      -6.581  13.485  70.818  1.00  0.00    -0.387 OA 
HETATM   21  C   UNL     1      -8.412  14.585  67.844  1.00  0.00    -0.161 C  
HETATM   22  C   UNL     1      -7.957  12.582  68.946  1.00  0.00     0.165 C  
HETATM   23  H   UNL     1      -6.166  12.659  71.038  1.00  0.00     0.000 HD 
HETATM   24  O   UNL     1      -8.764  13.197  67.940  1.00  0.00    -0.171 OA 
HETATM   25  C   UNL     1      -6.927  13.613  69.436  1.00  0.00     0.021 C  
BRANCH  21  26
HETATM   26  C   UNL     1      -7.668  14.803  66.525  1.00  0.00     0.908 C  
HETATM   27  H   UNL     1      -6.355  16.079  65.785  1.00  0.00     0.000 HD 
HETATM   28  O   UNL     1      -6.817  15.944  66.603  1.00  0.00    -0.204 OA 
ENDBRANCH  21  26
BRANCH  22  29
HETATM   29  O   UNL     1      -7.260  11.459  68.416  1.00  0.00    -0.076 OA 
BRANCH  29  30
HETATM   30  C   UNL     1      -7.979  10.540  67.572  1.00  0.00    -0.107 C  
HETATM   31  C   UNL     1      -8.295  11.196  66.214  1.00  0.00    -0.163 C  
HETATM   32  O   UNL     1      -7.123  11.832  65.685  1.00  0.00     0.220 OA 
HETATM   33  C   UNL     1      -8.809  10.151  65.217  1.00  0.00    -0.178 C  
HETATM   34  C   UNL     1     -10.108   9.547  65.750  1.00  0.00    -0.223 C  
HETATM   35  N   UNL     1      -9.024  10.748  63.885  1.00  0.00    -0.264 NA 
HETATM   36  H   UNL     1      -7.317  12.236  64.848  1.00  0.00     0.000 HD 
HETATM   37  H1  UNL     1      -9.366  10.054  63.222  1.00  0.00     0.000 HD 
HETATM   38  H2  UNL     1      -8.184  11.213  63.542  1.00  0.00     0.000 HD 
HETATM   39  C   UNL     1      -9.926   8.933  67.149  1.00  0.00    -0.226 C  
HETATM   40  C   UNL     1      -9.247   9.895  68.196  1.00  0.00    -0.128 C  
HETATM   41  N   UNL     1     -11.243   8.460  67.627  1.00  0.00    -0.148 NA 
HETATM   42  H2  UNL     1     -11.689   7.818  66.972  1.00  0.00     0.000 HD 
HETATM   43  H1  UNL     1     -11.122   8.054  68.554  1.00  0.00     0.000 HD 
BRANCH  40  44
HETATM   44  O   UNL     1      -8.992   9.100  69.377  1.00  0.00    -0.139 OA 
BRANCH  44  45
HETATM   45  C   UNL     1      -9.766   7.897  69.493  1.00  0.00    -0.173 C  
HETATM   46  O   UNL     1      -9.333   6.898  68.577  1.00  0.00    -0.136 OA 
HETATM   47  C   UNL     1      -8.036   6.358  68.829  1.00  0.00    -0.114 C  
HETATM   48  C   UNL     1      -8.005   5.704  70.212  1.00  0.00    -0.103 C  
HETATM   49  H1  UNL     1     -10.198   7.975  72.916  1.00  0.00     0.000 HD 
HETATM   50  H2  UNL     1     -11.098   8.738  71.725  1.00  0.00     0.000 HD 
HETATM   51  O   UNL     1      -6.719   5.172  70.535  1.00  0.00    -0.037 OA 
HETATM   52  C   UNL     1      -8.411   6.730  71.278  1.00  0.00    -0.120 C  
HETATM   53  H   UNL     1      -6.700   4.765  71.393  1.00  0.00     0.000 HD 
HETATM   54  O   UNL     1      -8.474   6.089  72.564  1.00  0.00    -0.119 OA 
HETATM   55  N   UNL     1     -10.190   8.337  71.962  1.00  0.00    -0.242 NA 
HETATM   56  C   UNL     1      -9.778   7.347  70.942  1.00  0.00    -0.169 C  
HETATM   57  H   UNL     1      -8.725   6.725  73.224  1.00  0.00     0.000 HD 
BRANCH  47  58
HETATM   58  C   UNL     1      -7.745   5.341  67.716  1.00  0.00    -0.091 C  
HETATM   59  O   UNL     1      -6.335   5.219  67.512  1.00  0.00    -0.037 OA 
HETATM   60  H   UNL     1      -6.155   4.590  66.824  1.00  0.00     0.000 HD 
ENDBRANCH  47  58
ENDBRANCH  44  45
ENDBRANCH  40  44
ENDBRANCH  29  30
ENDBRANCH  22  29
ENDBRANCH  18  19
ENDBRANCH   7  18
ENDBRANCH   2   5
TORSDOF 9
ENDMDL
MODEL      296
REMARK 921   NORMALIZED FREE ENERGY PREDICTED BY IDOCK:    3.62 KCAL/MOL
REMARK 922        TOTAL FREE ENERGY PREDICTED BY IDOCK:    3.49 KCAL/MOL
REMARK 923 INTER-LIGAND FREE ENERGY PREDICTED BY IDOCK:   -2.54 KCAL/MOL
REMARK 924 INTRA-LIGAND FREE ENERGY PREDICTED BY IDOCK:    6.02 KCAL/MOL
REMARK 927      BINDING AFFINITY PREDICTED BY RF-SCORE:    0.00 PKD
ROOT
HETATM    1  N   UNL     1      -7.874  19.278  70.975  1.00  0.00     2.631 NA 
HETATM    2  C   UNL     1      -8.165  19.962  69.699  1.00  0.00     0.559 C  
HETATM    3  H1  UNL     1      -7.847  19.958  71.735  1.00  0.00     0.000 HD 
HETATM    4  H2  UNL     1      -7.020  18.723  70.927  1.00  0.00     0.000 HD 
ENDROOT
BRANCH   2   5
HETATM    5  C   UNL     1      -8.206  18.936  68.554  1.00  0.00    -0.353 C  
HETATM    6  O   UNL     1      -8.396  17.640  69.152  1.00  0.00    -0.089 OA 
HETATM    7  C   UNL     1      -8.652  16.632  68.177  1.00  0.00    -0.200 C  
HETATM    8  C   UNL     1      -7.371  16.433  67.317  1.00  0.00    -0.175 C  
HETATM    9  O   UNL     1      -5.778  18.815  68.538  1.00  0.00    -0.196 OA 
HETATM   10  H   UNL     1      -4.991  18.814  68.006  1.00  0.00     0.000 HD 
HETATM   11  N   UNL     1      -6.246  15.917  68.152  1.00  0.00    -0.112 NA 
HETATM   12  C   UNL     1      -6.988  17.780  66.662  1.00  0.00    -0.213 C  
HETATM   13  H2  UNL     1      -6.504  15.064  68.648  1.00  0.00     0.000 HD 
HETATM   14  O   UNL     1      -7.876  18.099  65.582  1.00  0.00    -0.520 OA 
HETATM   15  C   UNL     1      -6.928  18.935  67.690  1.00  0.00    -0.206 C  
HETATM   16  H1  UNL     1      -5.405  15.787  67.589  1.00  0.00     0.000 HD 
HETATM   17  H   UNL     1      -7.641  18.927  65.179  1.00  0.00     0.000 HD 
BRANCH   7  18
HETATM   18  O   UNL     1      -8.984  15.387  68.798  1.00  0.00    -0.173 OA 
BRANCH  18  19
HETATM   19  C   UNL     1      -8.783  14.240  67.952  1.00  0.00    -0.178 C  
HETATM   20  O   UNL     1      -6.825  13.627  69.336  1.00  0.00    -0.201 OA 
HETATM   21  C   UNL     1     -10.148  13.572  67.801  1.00  0.00    -0.236 C  
HETATM   22  C   UNL     1      -8.962  12.348  69.390  1.00  0.00     1.255 C  
HETATM   23  H   UNL     1      -6.293  12.942  69.723  1.00  0.00     0.000 HD 
HETATM   24  O   UNL     1     -10.257  12.581  68.833  1.00  0.00    -0.131 OA 
HETATM   25  C   UNL     1      -7.933  13.144  68.572  1.00  0.00    -0.094 C  
BRANCH  21  26
HETATM   26  C   UNL     1     -10.355  12.884  66.450  1.00  0.00    -0.268 C  
HETATM   27  H   UNL     1     -11.867  12.210  65.373  1.00  0.00     0.000 HD 
HETATM   28  O   UNL     1     -11.739  12.636  66.211  1.00  0.00    -0.363 OA 
ENDBRANCH  21  26
BRANCH  22  29
HETATM   29  O   UNL     1      -8.626  10.965  69.323  1.00  0.00    -0.103 OA 
BRANCH  29  30
HETATM   30  C   UNL     1      -8.026  10.463  68.113  1.00  0.00    -0.110 C  
HETATM   31  C   UNL     1      -7.020  11.486  67.550  1.00  0.00    -0.102 C  
HETATM   32  O   UNL     1      -6.157  11.960  68.592  1.00  0.00    -0.050 OA 
HETATM   33  C   UNL     1      -6.181  10.856  66.431  1.00  0.00    -0.130 C  
HETATM   34  C   UNL     1      -7.105  10.439  65.287  1.00  0.00    -0.098 C  
HETATM   35  N   UNL     1      -5.151  11.795  65.949  1.00  0.00    -0.435 NA 
HETATM   36  H   UNL     1      -5.537  12.590  68.245  1.00  0.00     0.000 HD 
HETATM   37  H1  UNL     1      -4.593  11.377  65.205  1.00  0.00     0.000 HD 
HETATM   38  H2  UNL     1      -4.565  12.135  66.711  1.00  0.00     0.000 HD 
HETATM   39  C   UNL     1      -8.208   9.476  65.759  1.00  0.00    -0.116 C  
HETATM   40  C   UNL     1      -9.013   9.978  67.016  1.00  0.00    -0.138 C  
HETATM   41  N   UNL     1      -9.107   9.200  64.618  1.00  0.00    -0.428 NA 
HETATM   42  H2  UNL     1      -8.606   8.853  63.800  1.00  0.00     0.000 HD 
HETATM   43  H1  UNL     1      -9.838   8.562  64.931  1.00  0.00     0.000 HD 
BRANCH  40  44
HETATM   44  O   UNL     1      -9.864   8.881  67.422  1.00  0.00    -0.169 OA 
BRANCH  44  45
HETATM   45  C   UNL     1      -9.233   7.593  67.471  1.00  0.00    -0.132 C  
HETATM   46  O   UNL     1      -8.007   7.631  68.192  1.00  0.00    -0.119 OA 
HETATM   47  C   UNL     1      -8.128   7.876  69.592  1.00  0.00    -0.117 C  
HETATM   48  C   UNL     1      -8.966   6.773  70.243  1.00  0.00    -0.152 C  
HETATM   49  H1  UNL     1     -12.107   5.702  67.740  1.00  0.00     0.000 HD 
HETATM   50  H2  UNL     1     -11.363   6.292  66.359  1.00  0.00     0.000 HD 
HETATM   51  O   UNL     1      -9.149   6.983  71.645  1.00  0.00    -0.139 OA 
HETATM   52  C   UNL     1     -10.337   6.695  69.559  1.00  0.00    -0.202 C  
HETATM   53  H   UNL     1      -9.669   6.298  72.049  1.00  0.00     0.000 HD 
HETATM   54  O   UNL     1     -11.087   5.596  70.107  1.00  0.00    -0.296 OA 
HETATM   55  N   UNL     1     -11.487   6.419  67.364  1.00  0.00     0.018 NA 
HETATM   56  C   UNL     1     -10.174   6.503  68.043  1.00  0.00    -0.164 C  
HETATM   57  H   UNL     1     -11.936   5.548  69.683  1.00  0.00     0.000 HD 
BRANCH  47  58
HETATM   58  C   UNL     1      -6.706   7.919  70.169  1.00  0.00    -0.038 C  
HETATM   59  O   UNL     1      -6.512   9.119  70.922  1.00  0.00    -0.058 OA 
HETATM   60  H   UNL     1      -5.632   9.146  71.279  1.00  0.00     0.000 HD 
ENDBRANCH  47  58
ENDBRANCH  44  45
ENDBRANCH  40  44
ENDBRANCH  29  30
ENDBRANCH  22  29
ENDBRANCH  18  19
ENDBRANCH   7  18
ENDBRANCH   2   5
TORSDOF 9
ENDMDL
MODEL      297
REMARK 921   NORMALIZED FREE ENERGY PREDICTED BY IDOCK:    4.44 KCAL/MOL
REMARK 922        TOTAL FREE ENERGY PREDICTED BY IDOCK:    4.73 KCAL/MOL
REMARK 923 INTER-LIGAND FREE ENERGY PREDICTED BY IDOCK:   -5.57 KCAL/MOL
REMARK 924 INTRA-LIGAND FREE ENERGY PREDICTED BY IDOCK:   10.30 KCAL/MOL
REMARK 927      BINDING AFFINITY PREDICTED BY RF-SCORE:    0.00 PKD
ROOT
HETATM    1  N   UNL     1      -8.400   8.815  72.885  1.00  0.00    -0.377 NA 
HETATM    2  C   UNL     1      -9.526   9.064  71.962  1.00  0.00    -0.018 C  
HETATM    3  H1  UNL     1      -7.859   9.671  73.010  1.00  0.00     0.000 HD 
HETATM    4  H2  UNL     1      -7.818   8.035  72.577  1.00  0.00     0.000 HD 
ENDROOT
BRANCH   2   5
HETATM    5  C   UNL     1     -10.342   7.774  71.774  1.00  0.00    -0.199 C  
HETATM    6  O   UNL     1      -9.723   7.034  70.705  1.00  0.00    -0.169 OA 
HETATM    7  C   UNL     1     -10.271   5.725  70.572  1.00  0.00    -0.221 C  
HETATM    8  C   UNL     1     -11.749   5.848  70.100  1.00  0.00     0.429 C  
HETATM    9  O   UNL     1     -11.918   8.949  70.342  1.00  0.00    -0.477 OA 
HETATM   10  H   UNL     1     -12.832   9.109  70.139  1.00  0.00     0.000 HD 
HETATM   11  N   UNL     1     -11.822   6.461  68.740  1.00  0.00    -0.161 NA 
HETATM   12  C   UNL     1     -12.538   6.698  71.122  1.00  0.00    -0.135 C  
HETATM   13  H2  UNL     1     -11.252   5.951  68.065  1.00  0.00     0.000 HD 
HETATM   14  O   UNL     1     -12.798   5.954  72.320  1.00  0.00    -0.265 OA 
HETATM   15  C   UNL     1     -11.827   8.035  71.443  1.00  0.00    -0.295 C  
HETATM   16  H1  UNL     1     -12.791   6.542  68.430  1.00  0.00     0.000 HD 
HETATM   17  H   UNL     1     -13.282   6.477  72.949  1.00  0.00     0.000 HD 
BRANCH   7  18
HETATM   18  O   UNL     1      -9.546   4.957  69.608  1.00  0.00    -0.139 OA 
BRANCH  18  19
HETATM   19  C   UNL     1      -8.668   5.739  68.778  1.00  0.00    -0.108 C  
HETATM   20  O   UNL     1      -9.688   4.676  66.789  1.00  0.00    -0.165 OA 
HETATM   21  C   UNL     1      -8.749   7.173  69.297  1.00  0.00    -0.136 C  
HETATM   22  C   UNL     1     -10.099   7.057  67.401  1.00  0.00    -0.195 C  
HETATM   23  H   UNL     1      -9.972   4.759  65.886  1.00  0.00     0.000 HD 
HETATM   24  O   UNL     1      -9.776   7.841  68.550  1.00  0.00    -0.154 OA 
HETATM   25  C   UNL     1      -9.123   5.871  67.334  1.00  0.00    -0.110 C  
BRANCH  21  26
HETATM   26  C   UNL     1      -7.448   7.963  69.140  1.00  0.00    -0.093 C  
HETATM   27  H   UNL     1      -5.931   8.515  70.276  1.00  0.00     0.000 HD 
HETATM   28  O   UNL     1      -6.738   8.025  70.374  1.00  0.00    -0.037 OA 
ENDBRANCH  21  26
BRANCH  22  29
HETATM   29  O   UNL     1      -9.962   7.826  66.210  1.00  0.00    -0.138 OA 
BRANCH  29  30
HETATM   30  C   UNL     1      -8.726   8.530  65.985  1.00  0.00    -0.161 C  
HETATM   31  C   UNL     1      -7.549   7.537  65.920  1.00  0.00    -0.088 C  
HETATM   32  O   UNL     1      -7.873   6.438  65.057  1.00  0.00    -0.099 OA 
HETATM   33  C   UNL     1      -6.283   8.235  65.411  1.00  0.00    -0.045 C  
HETATM   34  C   UNL     1      -5.896   9.345  66.389  1.00  0.00    -0.058 C  
HETATM   35  N   UNL     1      -5.174   7.275  65.253  1.00  0.00    -0.028 NA 
HETATM   36  H   UNL     1      -7.148   5.826  65.017  1.00  0.00     0.000 HD 
HETATM   37  H1  UNL     1      -4.331   7.739  64.915  1.00  0.00     0.000 HD 
HETATM   38  H2  UNL     1      -5.437   6.492  64.655  1.00  0.00     0.000 HD 
HETATM   39  C   UNL     1      -7.038  10.355  66.596  1.00  0.00    -0.112 C  
HETATM   40  C   UNL     1      -8.423   9.700  66.961  1.00  0.00    -0.124 C  
HETATM   41  N   UNL     1      -6.617  11.333  67.621  1.00  0.00    -0.068 NA 
HETATM   42  H2  UNL     1      -5.731  11.784  67.391  1.00  0.00     0.000 HD 
HETATM   43  H1  UNL     1      -7.374  12.002  67.757  1.00  0.00     0.000 HD 
BRANCH  40  44
HETATM   44  O   UNL     1      -9.400  10.767  66.933  1.00  0.00    -0.158 OA 
BRANCH  44  45
HETATM   45  C   UNL     1      -9.094  11.908  67.748  1.00  0.00    -0.180 C  
HETATM   46  O   UNL     1      -9.439  13.128  67.101  1.00  0.00    -0.222 OA 
HETATM   47  C   UNL     1     -10.837  13.349  66.919  1.00  0.00    -0.277 C  
HETATM   48  C   UNL     1     -11.541  13.378  68.278  1.00  0.00    -0.344 C  
HETATM   49  H1  UNL     1      -9.900  10.507  70.796  1.00  0.00     0.000 HD 
HETATM   50  H2  UNL     1      -8.460  10.413  69.945  1.00  0.00     0.000 HD 
HETATM   51  O   UNL     1     -12.953  13.564  68.156  1.00  0.00     0.636 OA 
HETATM   52  C   UNL     1     -11.266  12.068  69.029  1.00  0.00    -0.258 C  
HETATM   53  H   UNL     1     -13.390  13.582  68.999  1.00  0.00     0.000 HD 
HETATM   54  O   UNL     1     -11.848  12.136  70.343  1.00  0.00    -0.482 OA 
HETATM   55  N   UNL     1      -9.466  10.564  69.875  1.00  0.00     0.088 NA 
HETATM   56  C   UNL     1      -9.753  11.821  69.147  1.00  0.00     0.266 C  
HETATM   57  H   UNL     1     -11.677  11.326  70.808  1.00  0.00     0.000 HD 
BRANCH  47  58
HETATM   58  C   UNL     1     -10.991  14.683  66.175  1.00  0.00    -0.329 C  
HETATM   59  O   UNL     1      -9.774  15.021  65.504  1.00  0.00    -0.360 OA 
HETATM   60  H   UNL     1      -9.869  15.846  65.044  1.00  0.00     0.000 HD 
ENDBRANCH  47  58
ENDBRANCH  44  45
ENDBRANCH  40  44
ENDBRANCH  29  30
ENDBRANCH  22  29
ENDBRANCH  18  19
ENDBRANCH   7  18
ENDBRANCH   2   5
TORSDOF 9
ENDMDL
MODEL      298
REMARK 921   NORMALIZED FREE ENERGY PREDICTED BY IDOCK:    4.52 KCAL/MOL
REMARK 922        TOTAL FREE ENERGY PREDICTED BY IDOCK:    4.85 KCAL/MOL
REMARK 923 INTER-LIGAND FREE ENERGY PREDICTED BY IDOCK:    2.83 KCAL/MOL
REMARK 924 INTRA-LIGAND FREE ENERGY PREDICTED BY IDOCK:    2.02 KCAL/MOL
REMARK 927      BINDING AFFINITY PREDICTED BY RF-SCORE:    0.00 PKD
ROOT
HETATM    1  N   UNL     1      -9.551  16.720  72.082  1.00  0.00     7.994 NA 
HETATM    2  C   UNL     1     -10.952  16.274  72.226  1.00  0.00     1.255 C  
HETATM    3  H1  UNL     1      -9.382  17.530  72.679  1.00  0.00     0.000 HD 
HETATM    4  H2  UNL     1      -9.305  16.902  71.109  1.00  0.00     0.000 HD 
ENDROOT
BRANCH   2   5
HETATM    5  C   UNL     1     -11.207  15.053  71.327  1.00  0.00    -0.214 C  
HETATM    6  O   UNL     1     -10.339  15.178  70.185  1.00  0.00    -0.224 OA 
HETATM    7  C   UNL     1     -10.339  14.002  69.379  1.00  0.00     0.136 C  
HETATM    8  C   UNL     1     -11.745  13.843  68.731  1.00  0.00    -0.357 C  
HETATM    9  O   UNL     1     -13.097  16.177  70.289  1.00  0.00    -0.522 OA 
HETATM   10  H   UNL     1     -14.000  16.103  70.003  1.00  0.00     0.000 HD 
HETATM   11  N   UNL     1     -12.033  14.975  67.801  1.00  0.00    -0.478 NA 
HETATM   12  C   UNL     1     -12.812  13.772  69.848  1.00  0.00     0.246 C  
HETATM   13  H2  UNL     1     -11.303  15.080  67.097  1.00  0.00     0.000 HD 
HETATM   14  O   UNL     1     -12.780  12.502  70.513  1.00  0.00    -0.128 OA 
HETATM   15  C   UNL     1     -12.674  14.932  70.863  1.00  0.00    -0.360 C  
HETATM   16  H1  UNL     1     -12.955  14.871  67.376  1.00  0.00     0.000 HD 
HETATM   17  H   UNL     1     -13.435  12.459  71.199  1.00  0.00     0.000 HD 
BRANCH   7  18
HETATM   18  O   UNL     1      -9.363  14.091  68.337  1.00  0.00    -0.207 OA 
BRANCH  18  19
HETATM   19  C   UNL     1      -9.357  12.962  67.444  1.00  0.00    -0.194 C  
HETATM   20  O   UNL     1      -6.892  13.139  67.320  1.00  0.00    -0.295 OA 
HETATM   21  C   UNL     1     -10.253  11.902  68.083  1.00  0.00    -0.199 C  
HETATM   22  C   UNL     1      -8.048  11.294  68.533  1.00  0.00    -0.148 C  
HETATM   23  H   UNL     1      -6.053  12.698  67.251  1.00  0.00     0.000 HD 
HETATM   24  O   UNL     1      -9.412  11.059  68.885  1.00  0.00    -0.195 OA 
HETATM   25  C   UNL     1      -8.016  12.256  67.334  1.00  0.00    -0.171 C  
BRANCH  21  26
HETATM   26  C   UNL     1     -10.991  11.024  67.072  1.00  0.00    -0.272 C  
HETATM   27  H   UNL     1     -11.121  10.853  65.109  1.00  0.00     0.000 HD 
HETATM   28  O   UNL     1     -10.663  11.399  65.736  1.00  0.00    -0.267 OA 
ENDBRANCH  21  26
BRANCH  22  29
HETATM   29  O   UNL     1      -7.406  10.079  68.158  1.00  0.00    -0.081 OA 
BRANCH  29  30
HETATM   30  C   UNL     1      -7.064   9.136  69.192  1.00  0.00    -0.062 C  
HETATM   31  C   UNL     1      -6.267   9.835  70.311  1.00  0.00    -0.074 C  
HETATM   32  O   UNL     1      -6.911  11.059  70.691  1.00  0.00    -0.460 OA 
HETATM   33  C   UNL     1      -6.138   8.919  71.533  1.00  0.00    -0.063 C  
HETATM   34  C   UNL     1      -5.368   7.659  71.136  1.00  0.00    -0.027 C  
HETATM   35  N   UNL     1      -5.459   9.611  72.646  1.00  0.00    -0.263 NA 
HETATM   36  H   UNL     1      -6.420  11.489  71.380  1.00  0.00     0.000 HD 
HETATM   37  H1  UNL     1      -5.373   9.002  73.459  1.00  0.00     0.000 HD 
HETATM   38  H2  UNL     1      -5.923  10.488  72.881  1.00  0.00     0.000 HD 
HETATM   39  C   UNL     1      -6.035   6.923  69.962  1.00  0.00    -0.024 C  
HETATM   40  C   UNL     1      -6.355   7.838  68.720  1.00  0.00    -0.043 C  
HETATM   41  N   UNL     1      -5.181   5.778  69.582  1.00  0.00    -0.004 NA 
HETATM   42  H2  UNL     1      -4.981   5.160  70.369  1.00  0.00     0.000 HD 
HETATM   43  H1  UNL     1      -5.624   5.290  68.804  1.00  0.00     0.000 HD 
BRANCH  40  44
HETATM   44  O   UNL     1      -7.135   7.031  67.807  1.00  0.00    -0.080 OA 
BRANCH  44  45
HETATM   45  C   UNL     1      -8.171   7.725  67.097  1.00  0.00    -0.118 C  
HETATM   46  O   UNL     1      -7.641   8.706  66.213  1.00  0.00    -0.091 OA 
HETATM   47  C   UNL     1      -6.908   8.195  65.100  1.00  0.00    -0.058 C  
HETATM   48  C   UNL     1      -7.814   7.303  64.247  1.00  0.00    -0.125 C  
HETATM   49  H1  UNL     1     -10.303   5.043  66.690  1.00  0.00     0.000 HD 
HETATM   50  H2  UNL     1     -10.158   6.081  67.998  1.00  0.00     0.000 HD 
HETATM   51  O   UNL     1      -7.123   6.735  63.132  1.00  0.00    -0.052 OA 
HETATM   52  C   UNL     1      -8.392   6.176  65.113  1.00  0.00    -0.129 C  
HETATM   53  H   UNL     1      -7.685   6.181  62.602  1.00  0.00     0.000 HD 
HETATM   54  O   UNL     1      -9.316   5.396  64.334  1.00  0.00    -0.340 OA 
HETATM   55  N   UNL     1      -9.683   5.682  67.187  1.00  0.00    -0.130 NA 
HETATM   56  C   UNL     1      -9.113   6.754  66.341  1.00  0.00    -0.152 C  
HETATM   57  H   UNL     1      -9.674   4.698  64.870  1.00  0.00     0.000 HD 
BRANCH  47  58
HETATM   58  C   UNL     1      -6.393   9.403  64.304  1.00  0.00    -0.089 C  
HETATM   59  O   UNL     1      -7.265   9.680  63.205  1.00  0.00    -0.106 OA 
HETATM   60  H   UNL     1      -6.947  10.427  62.712  1.00  0.00     0.000 HD 
ENDBRANCH  47  58
ENDBRANCH  44  45
ENDBRANCH  40  44
ENDBRANCH  29  30
ENDBRANCH  22  29
ENDBRANCH  18  19
ENDBRANCH   7  18
ENDBRANCH   2   5
TORSDOF 9
ENDMDL
MODEL      299
REMARK 921   NORMALIZED FREE ENERGY PREDICTED BY IDOCK:    5.05 KCAL/MOL
REMARK 922        TOTAL FREE ENERGY PREDICTED BY IDOCK:    5.66 KCAL/MOL
REMARK 923 INTER-LIGAND FREE ENERGY PREDICTED BY IDOCK:   -3.75 KCAL/MOL
REMARK 924 INTRA-LIGAND FREE ENERGY PREDICTED BY IDOCK:    9.41 KCAL/MOL
REMARK 927      BINDING AFFINITY PREDICTED BY RF-SCORE:    0.00 PKD
ROOT
HETATM    1  N   UNL     1     -13.426  11.229  63.370  1.00  0.00     0.164 NA 
HETATM    2  C   UNL     1     -13.355  12.148  64.524  1.00  0.00     0.877 C  
HETATM    3  H1  UNL     1     -14.328  10.753  63.360  1.00  0.00     0.000 HD 
HETATM    4  H2  UNL     1     -12.645  10.572  63.355  1.00  0.00     0.000 HD 
ENDROOT
BRANCH   2   5
HETATM    5  C   UNL     1     -11.995  12.866  64.538  1.00  0.00    -0.395 C  
HETATM    6  O   UNL     1     -10.987  11.859  64.743  1.00  0.00    -0.295 OA 
HETATM    7  C   UNL     1      -9.669  12.378  64.573  1.00  0.00     0.038 C  
HETATM    8  C   UNL     1      -9.383  13.395  65.716  1.00  0.00     0.172 C  
HETATM    9  O   UNL     1     -12.265  13.388  66.898  1.00  0.00    -0.365 OA 
HETATM   10  H   UNL     1     -12.200  14.055  67.571  1.00  0.00     0.000 HD 
HETATM   11  N   UNL     1      -9.386  12.715  67.045  1.00  0.00    -0.213 NA 
HETATM   12  C   UNL     1     -10.449  14.514  65.676  1.00  0.00    -0.336 C  
HETATM   13  H2  UNL     1      -8.736  11.929  67.068  1.00  0.00     0.000 HD 
HETATM   14  O   UNL     1     -10.215  15.410  64.581  1.00  0.00    -0.468 OA 
HETATM   15  C   UNL     1     -11.889  13.949  65.632  1.00  0.00    -0.371 C  
HETATM   16  H1  UNL     1      -9.198  13.382  67.794  1.00  0.00     0.000 HD 
HETATM   17  H   UNL     1     -10.871  16.098  64.556  1.00  0.00     0.000 HD 
BRANCH   7  18
HETATM   18  O   UNL     1      -8.692  11.335  64.634  1.00  0.00     0.049 OA 
BRANCH  18  19
HETATM   19  C   UNL     1      -9.196  10.092  65.154  1.00  0.00    -0.222 C  
HETATM   20  O   UNL     1      -7.177   8.965  64.270  1.00  0.00    -0.089 OA 
HETATM   21  C   UNL     1      -9.637  10.371  66.589  1.00  0.00    -0.177 C  
HETATM   22  C   UNL     1      -7.552   9.336  66.705  1.00  0.00    -0.090 C  
HETATM   23  H   UNL     1      -6.518   8.288  64.377  1.00  0.00     0.000 HD 
HETATM   24  O   UNL     1      -8.521  10.082  67.444  1.00  0.00    -0.121 OA 
HETATM   25  C   UNL     1      -8.142   9.010  65.324  1.00  0.00    -0.126 C  
BRANCH  21  26
HETATM   26  C   UNL     1     -10.826   9.524  67.047  1.00  0.00    -0.055 C  
HETATM   27  H   UNL     1     -12.568   9.814  67.931  1.00  0.00     0.000 HD 
HETATM   28  O   UNL     1     -11.830  10.340  67.647  1.00  0.00    -0.012 OA 
ENDBRANCH  21  26
BRANCH  22  29
HETATM   29  O   UNL     1      -7.244   8.113  67.369  1.00  0.00    -0.084 OA 
BRANCH  29  30
HETATM   30  C   UNL     1      -8.325   7.216  67.692  1.00  0.00    -0.117 C  
HETATM   31  C   UNL     1      -9.326   7.143  66.523  1.00  0.00    -0.164 C  
HETATM   32  O   UNL     1      -8.631   6.954  65.282  1.00  0.00    -0.296 OA 
HETATM   33  C   UNL     1     -10.321   5.996  66.737  1.00  0.00    -0.238 C  
HETATM   34  C   UNL     1     -11.120   6.258  68.014  1.00  0.00    -0.365 C  
HETATM   35  N   UNL     1     -11.226   5.855  65.580  1.00  0.00     0.494 NA 
HETATM   36  H   UNL     1      -9.248   6.908  64.563  1.00  0.00     0.000 HD 
HETATM   37  H1  UNL     1     -11.888   5.093  65.722  1.00  0.00     0.000 HD 
HETATM   38  H2  UNL     1     -10.707   5.745  64.709  1.00  0.00     0.000 HD 
HETATM   39  C   UNL     1     -10.206   6.433  69.239  1.00  0.00    -0.192 C  
HETATM   40  C   UNL     1      -9.048   7.482  69.040  1.00  0.00    -0.140 C  
HETATM   41  N   UNL     1     -11.048   6.775  70.405  1.00  0.00    -0.286 NA 
HETATM   42  H2  UNL     1     -11.792   6.095  70.564  1.00  0.00     0.000 HD 
HETATM   43  H1  UNL     1     -10.443   6.891  71.217  1.00  0.00     0.000 HD 
BRANCH  40  44
HETATM   44  O   UNL     1      -8.196   7.377  70.204  1.00  0.00    -0.128 OA 
BRANCH  44  45
HETATM   45  C   UNL     1      -8.448   8.334  71.244  1.00  0.00    -0.136 C  
HETATM   46  O   UNL     1      -7.241   8.836  71.806  1.00  0.00    -0.168 OA 
HETATM   47  C   UNL     1      -6.453   9.649  70.937  1.00  0.00    -0.083 C  
HETATM   48  C   UNL     1      -7.258  10.876  70.502  1.00  0.00     1.035 C  
HETATM   49  H1  UNL     1     -11.220   9.817  69.821  1.00  0.00     0.000 HD 
HETATM   50  H2  UNL     1     -11.136   8.435  70.766  1.00  0.00     0.000 HD 
HETATM   51  O   UNL     1      -6.530  11.714  69.602  1.00  0.00    -0.118 OA 
HETATM   52  C   UNL     1      -8.564  10.426  69.832  1.00  0.00     0.154 C  
HETATM   53  H   UNL     1      -7.030  12.476  69.332  1.00  0.00     0.000 HD 
HETATM   54  O   UNL     1      -9.362  11.579  69.510  1.00  0.00    -0.146 OA 
HETATM   55  N   UNL     1     -10.622   9.053  70.137  1.00  0.00    -0.216 NA 
HETATM   56  C   UNL     1      -9.355   9.494  70.763  1.00  0.00    -0.150 C  
HETATM   57  H   UNL     1     -10.170  11.300  69.096  1.00  0.00     0.000 HD 
BRANCH  47  58
HETATM   58  C   UNL     1      -5.190  10.048  71.712  1.00  0.00    -0.057 C  
HETATM   59  O   UNL     1      -5.485  10.183  73.105  1.00  0.00    -0.317 OA 
HETATM   60  H   UNL     1      -4.703  10.430  73.585  1.00  0.00     0.000 HD 
ENDBRANCH  47  58
ENDBRANCH  44  45
ENDBRANCH  40  44
ENDBRANCH  29  30
ENDBRANCH  22  29
ENDBRANCH  18  19
ENDBRANCH   7  18
ENDBRANCH   2   5
TORSDOF 9
ENDMDL
MODEL      300
REMARK 921   NORMALIZED FREE ENERGY PREDICTED BY IDOCK:    5.24 KCAL/MOL
REMARK 922        TOTAL FREE ENERGY PREDICTED BY IDOCK:    5.96 KCAL/MOL
REMARK 923 INTER-LIGAND FREE ENERGY PREDICTED BY IDOCK:   -6.17 KCAL/MOL
REMARK 924 INTRA-LIGAND FREE ENERGY PREDICTED BY IDOCK:   12.13 KCAL/MOL
REMARK 927      BINDING AFFINITY PREDICTED BY RF-SCORE:    0.00 PKD
ROOT
HETATM    1  N   UNL     1     -11.909   6.445  66.181  1.00  0.00     1.023 NA 
HETATM    2  C   UNL     1     -11.767   6.441  67.651  1.00  0.00     1.157 C  
HETATM    3  H1  UNL     1     -12.795   6.876  65.919  1.00  0.00     0.000 HD 
HETATM    4  H2  UNL     1     -11.804   5.510  65.784  1.00  0.00     0.000 HD 
ENDROOT
BRANCH   2   5
HETATM    5  C   UNL     1     -10.430   5.792  68.046  1.00  0.00    -0.225 C  
HETATM    6  O   UNL     1      -9.395   6.755  67.777  1.00  0.00    -0.119 OA 
HETATM    7  C   UNL     1      -8.131   6.342  68.291  1.00  0.00    -0.112 C  
HETATM    8  C   UNL     1      -7.655   5.090  67.498  1.00  0.00    -0.087 C  
HETATM    9  O   UNL     1     -10.286   4.705  65.875  1.00  0.00    -0.267 OA 
HETATM   10  H   UNL     1     -10.108   3.898  65.406  1.00  0.00     0.000 HD 
HETATM   11  N   UNL     1      -7.422   5.428  66.062  1.00  0.00    -0.081 NA 
HETATM   12  C   UNL     1      -8.719   3.975  67.627  1.00  0.00    -0.105 C  
HETATM   13  H2  UNL     1      -6.773   6.209  65.959  1.00  0.00     0.000 HD 
HETATM   14  O   UNL     1      -8.686   3.380  68.931  1.00  0.00    -0.081 OA 
HETATM   15  C   UNL     1     -10.141   4.481  67.284  1.00  0.00    -0.087 C  
HETATM   16  H1  UNL     1      -7.110   4.608  65.542  1.00  0.00     0.000 HD 
HETATM   17  H   UNL     1      -9.340   2.695  69.010  1.00  0.00     0.000 HD 
BRANCH   7  18
HETATM   18  O   UNL     1      -7.152   7.374  68.145  1.00  0.00    -0.079 OA 
BRANCH  18  19
HETATM   19  C   UNL     1      -7.563   8.452  67.285  1.00  0.00    -0.097 C  
HETATM   20  O   UNL     1      -9.838   7.480  67.238  1.00  0.00    -0.152 OA 
HETATM   21  C   UNL     1      -7.037   9.736  67.923  1.00  0.00    -0.083 C  
HETATM   22  C   UNL     1      -9.300   9.582  68.463  1.00  0.00    -0.137 C  
HETATM   23  H   UNL     1     -10.777   7.623  67.209  1.00  0.00     0.000 HD 
HETATM   24  O   UNL     1      -8.074  10.246  68.776  1.00  0.00    -0.105 OA 
HETATM   25  C   UNL     1      -9.064   8.681  67.239  1.00  0.00    -0.133 C  
BRANCH  21  26
HETATM   26  C   UNL     1      -6.668  10.824  66.913  1.00  0.00    -0.099 C  
HETATM   27  H   UNL     1      -5.138  11.273  65.747  1.00  0.00     0.000 HD 
HETATM   28  O   UNL     1      -5.367  10.598  66.374  1.00  0.00    -0.051 OA 
ENDBRANCH  21  26
BRANCH  22  29
HETATM   29  O   UNL     1     -10.318  10.526  68.144  1.00  0.00    -0.158 OA 
BRANCH  29  30
HETATM   30  C   UNL     1     -10.976  11.217  69.223  1.00  0.00    -0.243 C  
HETATM   31  C   UNL     1     -12.088  10.336  69.823  1.00  0.00    -0.056 C  
HETATM   32  O   UNL     1     -11.598   9.009  70.063  1.00  0.00    -0.453 OA 
HETATM   33  C   UNL     1     -12.605  10.939  71.135  1.00  0.00    -0.428 C  
HETATM   34  C   UNL     1     -13.209  12.314  70.850  1.00  0.00     0.271 C  
HETATM   35  N   UNL     1     -13.603  10.056  71.768  1.00  0.00    -0.290 NA 
HETATM   36  H   UNL     1     -12.283   8.466  70.433  1.00  0.00     0.000 HD 
HETATM   37  H1  UNL     1     -13.947  10.457  72.640  1.00  0.00     0.000 HD 
HETATM   38  H2  UNL     1     -13.237   9.114  71.906  1.00  0.00     0.000 HD 
HETATM   39  C   UNL     1     -12.202  13.256  70.167  1.00  0.00    -0.306 C  
HETATM   40  C   UNL     1     -11.499  12.643  68.898  1.00  0.00    -0.306 C  
HETATM   41  N   UNL     1     -12.891  14.522  69.843  1.00  0.00    -0.529 NA 
HETATM   42  H2  UNL     1     -13.335  14.946  70.658  1.00  0.00     0.000 HD 
HETATM   43  H1  UNL     1     -12.223  15.146  69.391  1.00  0.00     0.000 HD 
BRANCH  40  44
HETATM   44  O   UNL     1     -10.469  13.581  68.508  1.00  0.00    -0.238 OA 
BRANCH  44  45
HETATM   45  C   UNL     1      -9.633  13.166  67.418  1.00  0.00    -0.219 C  
HETATM   46  O   UNL     1     -10.387  12.557  66.375  1.00  0.00    -0.237 OA 
HETATM   47  C   UNL     1     -11.265  13.429  65.666  1.00  0.00    -0.292 C  
HETATM   48  C   UNL     1     -10.462  14.552  65.006  1.00  0.00    -0.429 C  
HETATM   49  H1  UNL     1      -7.408  15.800  67.534  1.00  0.00     0.000 HD 
HETATM   50  H2  UNL     1      -7.397  14.375  68.416  1.00  0.00     0.000 HD 
HETATM   51  O   UNL     1     -11.295  15.479  64.305  1.00  0.00    -0.714 OA 
HETATM   52  C   UNL     1      -9.653  15.304  66.071  1.00  0.00    -0.338 C  
HETATM   53  H   UNL     1     -10.796  16.176  63.895  1.00  0.00     0.000 HD 
HETATM   54  O   UNL     1      -8.826  16.296  65.437  1.00  0.00    -0.104 OA 
HETATM   55  N   UNL     1      -7.976  15.035  67.897  1.00  0.00    -0.129 NA 
HETATM   56  C   UNL     1      -8.770  14.328  66.866  1.00  0.00    -0.179 C  
HETATM   57  H   UNL     1      -8.326  16.761  66.097  1.00  0.00     0.000 HD 
BRANCH  47  58
HETATM   58  C   UNL     1     -12.006  12.578  64.625  1.00  0.00    -0.404 C  
HETATM   59  O   UNL     1     -13.383  12.959  64.561  1.00  0.00    -0.465 OA 
HETATM   60  H   UNL     1     -13.841  12.433  63.917  1.00  0.00     0.000 HD 
ENDBRANCH  47  58
ENDBRANCH  44  45
ENDBRANCH  40  44
ENDBRANCH  29  30
ENDBRANCH  22  29
ENDBRANCH  18  19
ENDBRANCH   7  18
ENDBRANCH   2   5
TORSDOF 9
ENDMDL
MODEL      301
REMARK 921   NORMALIZED FREE ENERGY PREDICTED BY IDOCK:    5.64 KCAL/MOL
REMARK 922        TOTAL FREE ENERGY PREDICTED BY IDOCK:    6.56 KCAL/MOL
REMARK 923 INTER-LIGAND FREE ENERGY PREDICTED BY IDOCK:   -3.30 KCAL/MOL
REMARK 924 INTRA-LIGAND FREE ENERGY PREDICTED BY IDOCK:    9.86 KCAL/MOL
REMARK 927      BINDING AFFINITY PREDICTED BY RF-SCORE:    0.00 PKD
ROOT
HETATM    1  N   UNL     1      -9.758   6.684  72.570  1.00  0.00    -0.158 NA 
HETATM    2  C   UNL     1      -9.281   7.787  71.712  1.00  0.00    -0.141 C  
HETATM    3  H1  UNL     1     -10.707   6.879  72.890  1.00  0.00     0.000 HD 
HETATM    4  H2  UNL     1      -9.122   6.498  73.346  1.00  0.00     0.000 HD 
ENDROOT
BRANCH   2   5
HETATM    5  C   UNL     1      -7.851   7.491  71.229  1.00  0.00    -0.094 C  
HETATM    6  O   UNL     1      -7.638   8.268  70.035  1.00  0.00    -0.070 OA 
HETATM    7  C   UNL     1      -6.278   8.231  69.607  1.00  0.00    -0.032 C  
HETATM    8  C   UNL     1      -5.939   6.784  69.146  1.00  0.00    -0.022 C  
HETATM    9  O   UNL     1      -8.627   5.504  70.061  1.00  0.00    -0.116 OA 
HETATM   10  H   UNL     1      -8.474   4.584  69.882  1.00  0.00     0.000 HD 
HETATM   11  N   UNL     1      -6.752   6.403  67.954  1.00  0.00    -0.062 NA 
HETATM   12  C   UNL     1      -6.198   5.807  70.316  1.00  0.00    -0.027 C  
HETATM   13  H2  UNL     1      -6.647   7.075  67.194  1.00  0.00     0.000 HD 
HETATM   14  O   UNL     1      -5.175   5.917  71.316  1.00  0.00    -0.012 OA 
HETATM   15  C   UNL     1      -7.603   5.996  70.936  1.00  0.00    -0.096 C  
HETATM   16  H1  UNL     1      -6.530   5.454  67.651  1.00  0.00     0.000 HD 
HETATM   17  H   UNL     1      -5.335   5.317  72.035  1.00  0.00     0.000 HD 
BRANCH   7  18
HETATM   18  O   UNL     1      -6.058   9.124  68.512  1.00  0.00    -0.045 OA 
BRANCH  18  19
HETATM   19  C   UNL     1      -7.109  10.088  68.322  1.00  0.00    -0.072 C  
HETATM   20  O   UNL     1      -6.940   9.716  65.881  1.00  0.00    -0.091 OA 
HETATM   21  C   UNL     1      -8.212   9.724  69.315  1.00  0.00    -0.132 C  
HETATM   22  C   UNL     1      -8.870   8.907  67.233  1.00  0.00    -0.128 C  
HETATM   23  H   UNL     1      -7.380   9.657  65.041  1.00  0.00     0.000 HD 
HETATM   24  O   UNL     1      -9.124   8.847  68.638  1.00  0.00    -0.137 OA 
HETATM   25  C   UNL     1      -7.813   9.994  66.979  1.00  0.00    -0.102 C  
BRANCH  21  26
HETATM   26  C   UNL     1      -8.999  10.928  69.835  1.00  0.00     0.857 C  
HETATM   27  H   UNL     1      -8.671  12.844  70.187  1.00  0.00     0.000 HD 
HETATM   28  O   UNL     1      -8.182  12.096  69.865  1.00  0.00     1.577 OA 
ENDBRANCH  21  26
BRANCH  22  29
HETATM   29  O   UNL     1     -10.055   9.249  66.521  1.00  0.00    -0.258 OA 
BRANCH  29  30
HETATM   30  C   UNL     1      -9.925   9.951  65.269  1.00  0.00    -0.249 C  
HETATM   31  C   UNL     1      -8.659   9.486  64.524  1.00  0.00    -0.187 C  
HETATM   32  O   UNL     1      -8.587   8.053  64.512  1.00  0.00    -0.381 OA 
HETATM   33  C   UNL     1      -8.657  10.015  63.085  1.00  0.00    -0.197 C  
HETATM   34  C   UNL     1      -8.640  11.543  63.113  1.00  0.00     0.309 C  
HETATM   35  N   UNL     1      -7.497   9.498  62.332  1.00  0.00    -0.104 NA 
HETATM   36  H   UNL     1      -7.807   7.767  64.052  1.00  0.00     0.000 HD 
HETATM   37  H1  UNL     1      -7.495   9.850  61.375  1.00  0.00     0.000 HD 
HETATM   38  H2  UNL     1      -7.456   8.480  62.358  1.00  0.00     0.000 HD 
HETATM   39  C   UNL     1      -9.823  12.118  63.911  1.00  0.00    -0.214 C  
HETATM   40  C   UNL     1      -9.996  11.500  65.349  1.00  0.00    -0.248 C  
HETATM   41  N   UNL     1      -9.679  13.587  63.968  1.00  0.00    -0.294 NA 
HETATM   42  H2  UNL     1      -9.588  14.008  63.044  1.00  0.00     0.000 HD 
HETATM   43  H1  UNL     1     -10.464  13.968  64.497  1.00  0.00     0.000 HD 
BRANCH  40  44
HETATM   44  O   UNL     1     -11.245  12.014  65.868  1.00  0.00    -0.317 OA 
BRANCH  44  45
HETATM   45  C   UNL     1     -11.163  12.673  67.140  1.00  0.00    -0.300 C  
HETATM   46  O   UNL     1      -9.832  12.691  67.642  1.00  0.00    -0.202 OA 
HETATM   47  C   UNL     1      -8.913  13.500  66.910  1.00  0.00    -0.209 C  
HETATM   48  C   UNL     1      -9.385  14.956  66.912  1.00  0.00    -0.241 C  
HETATM   49  H1  UNL     1     -13.520  15.117  66.526  1.00  0.00     0.000 HD 
HETATM   50  H2  UNL     1     -13.750  13.549  67.071  1.00  0.00     0.000 HD 
HETATM   51  O   UNL     1      -8.518  15.811  66.164  1.00  0.00    -0.340 OA 
HETATM   52  C   UNL     1     -10.803  15.040  66.333  1.00  0.00    -0.326 C  
HETATM   53  H   UNL     1      -8.810  16.715  66.165  1.00  0.00     0.000 HD 
HETATM   54  O   UNL     1     -11.281  16.394  66.424  1.00  0.00     0.087 OA 
HETATM   55  N   UNL     1     -13.131  14.175  66.555  1.00  0.00     0.427 NA 
HETATM   56  C   UNL     1     -11.754  14.105  67.096  1.00  0.00    -0.403 C  
HETATM   57  H   UNL     1     -12.159  16.446  66.065  1.00  0.00     0.000 HD 
BRANCH  47  58
HETATM   58  C   UNL     1      -7.541  13.350  67.583  1.00  0.00    -0.174 C  
HETATM   59  O   UNL     1      -6.648  14.367  67.121  1.00  0.00    -0.374 OA 
HETATM   60  H   UNL     1      -5.800  14.274  67.538  1.00  0.00     0.000 HD 
ENDBRANCH  47  58
ENDBRANCH  44  45
ENDBRANCH  40  44
ENDBRANCH  29  30
ENDBRANCH  22  29
ENDBRANCH  18  19
ENDBRANCH   7  18
ENDBRANCH   2   5
TORSDOF 9
ENDMDL
MODEL      302
REMARK 921   NORMALIZED FREE ENERGY PREDICTED BY IDOCK:    5.67 KCAL/MOL
REMARK 922        TOTAL FREE ENERGY PREDICTED BY IDOCK:    6.60 KCAL/MOL
REMARK 923 INTER-LIGAND FREE ENERGY PREDICTED BY IDOCK:    1.01 KCAL/MOL
REMARK 924 INTRA-LIGAND FREE ENERGY PREDICTED BY IDOCK:    5.59 KCAL/MOL
REMARK 927      BINDING AFFINITY PREDICTED BY RF-SCORE:    0.00 PKD
ROOT
HETATM    1  N   UNL     1     -13.957   6.085  72.129  1.00  0.00     0.017 NA 
HETATM    2  C   UNL     1     -12.861   7.016  72.466  1.00  0.00     0.419 C  
HETATM    3  H1  UNL     1     -14.791   6.612  71.867  1.00  0.00     0.000 HD 
HETATM    4  H2  UNL     1     -14.143   5.423  72.883  1.00  0.00     0.000 HD 
ENDROOT
BRANCH   2   5
HETATM    5  C   UNL     1     -11.604   6.223  72.861  1.00  0.00    -0.013 C  
HETATM    6  O   UNL     1     -10.597   6.506  71.873  1.00  0.00    -0.206 OA 
HETATM    7  C   UNL     1      -9.322   5.984  72.242  1.00  0.00    -0.143 C  
HETATM    8  C   UNL     1      -9.395   4.430  72.228  1.00  0.00    -0.128 C  
HETATM    9  O   UNL     1     -12.465   4.247  71.735  1.00  0.00     3.673 OA 
HETATM   10  H   UNL     1     -12.614   3.310  71.788  1.00  0.00     0.000 HD 
HETATM   11  N   UNL     1      -9.659   3.923  70.849  1.00  0.00    -0.177 NA 
HETATM   12  C   UNL     1     -10.507   3.968  73.199  1.00  0.00    -0.175 C  
HETATM   13  H2  UNL     1      -8.974   4.274  70.180  1.00  0.00     0.000 HD 
HETATM   14  O   UNL     1     -10.092   4.112  74.564  1.00  0.00    -0.158 OA 
HETATM   15  C   UNL     1     -11.846   4.701  72.946  1.00  0.00     0.111 C  
HETATM   16  H1  UNL     1      -9.708   2.904  70.840  1.00  0.00     0.000 HD 
HETATM   17  H   UNL     1     -10.775   3.828  75.161  1.00  0.00     0.000 HD 
BRANCH   7  18
HETATM   18  O   UNL     1      -8.308   6.402  71.324  1.00  0.00    -0.121 OA 
BRANCH  18  19
HETATM   19  C   UNL     1      -8.335   5.704  70.066  1.00  0.00    -0.121 C  
HETATM   20  O   UNL     1      -9.647   7.576  69.115  1.00  0.00    -0.157 OA 
HETATM   21  C   UNL     1      -6.903   5.248  69.795  1.00  0.00    -0.056 C  
HETATM   22  C   UNL     1      -7.267   7.157  68.507  1.00  0.00    -0.094 C  
HETATM   23  H   UNL     1      -9.842   8.126  68.365  1.00  0.00     0.000 HD 
HETATM   24  O   UNL     1      -6.266   6.276  69.020  1.00  0.00    -0.030 OA 
HETATM   25  C   UNL     1      -8.647   6.584  68.867  1.00  0.00    -0.125 C  
BRANCH  21  26
HETATM   26  C   UNL     1      -6.808   3.933  69.020  1.00  0.00    -0.046 C  
HETATM   27  H   UNL     1      -5.940   3.268  67.375  1.00  0.00     0.000 HD 
HETATM   28  O   UNL     1      -5.999   4.085  67.856  1.00  0.00    -0.025 OA 
ENDBRANCH  21  26
BRANCH  22  29
HETATM   29  O   UNL     1      -7.171   7.259  67.090  1.00  0.00    -0.087 OA 
BRANCH  29  30
HETATM   30  C   UNL     1      -7.292   8.562  66.485  1.00  0.00    -0.084 C  
HETATM   31  C   UNL     1      -6.182   8.770  65.437  1.00  0.00    -0.059 C  
HETATM   32  O   UNL     1      -6.089   7.625  64.577  1.00  0.00    -0.041 OA 
HETATM   33  C   UNL     1      -6.461  10.023  64.599  1.00  0.00    -0.125 C  
HETATM   34  C   UNL     1      -6.465  11.247  65.516  1.00  0.00     0.495 C  
HETATM   35  N   UNL     1      -5.456  10.181  63.530  1.00  0.00    -0.111 NA 
HETATM   36  H   UNL     1      -5.406   7.754  63.931  1.00  0.00     0.000 HD 
HETATM   37  H1  UNL     1      -5.641  11.015  62.973  1.00  0.00     0.000 HD 
HETATM   38  H2  UNL     1      -5.394   9.346  62.947  1.00  0.00     0.000 HD 
HETATM   39  C   UNL     1      -7.486  11.108  66.658  1.00  0.00    -0.146 C  
HETATM   40  C   UNL     1      -7.373   9.761  67.468  1.00  0.00    -0.090 C  
HETATM   41  N   UNL     1      -7.358  12.283  67.545  1.00  0.00    -0.126 NA 
HETATM   42  H2  UNL     1      -7.451  13.165  67.042  1.00  0.00     0.000 HD 
HETATM   43  H1  UNL     1      -8.035  12.190  68.302  1.00  0.00     0.000 HD 
BRANCH  40  44
HETATM   44  O   UNL     1      -8.510   9.725  68.362  1.00  0.00    -0.112 OA 
BRANCH  44  45
HETATM   45  C   UNL     1      -8.548  10.756  69.358  1.00  0.00     0.034 C  
HETATM   46  O   UNL     1      -8.789  12.037  68.787  1.00  0.00    -0.064 OA 
HETATM   47  C   UNL     1     -10.087  12.220  68.223  1.00  0.00    -0.218 C  
HETATM   48  C   UNL     1     -11.155  12.032  69.304  1.00  0.00    -0.185 C  
HETATM   49  H1  UNL     1     -10.086   8.918  71.841  1.00  0.00     0.000 HD 
HETATM   50  H2  UNL     1      -8.458   9.004  71.453  1.00  0.00     0.000 HD 
HETATM   51  O   UNL     1     -12.481  12.172  68.790  1.00  0.00    -0.022 OA 
HETATM   52  C   UNL     1     -11.004  10.645  69.944  1.00  0.00    -0.274 C  
HETATM   53  H   UNL     1     -13.144  12.056  69.461  1.00  0.00     0.000 HD 
HETATM   54  O   UNL     1     -11.945  10.508  71.022  1.00  0.00    -0.343 OA 
HETATM   55  N   UNL     1      -9.410   9.119  71.104  1.00  0.00    -0.259 NA 
HETATM   56  C   UNL     1      -9.575  10.451  70.477  1.00  0.00     0.885 C  
HETATM   57  H   UNL     1     -11.851   9.650  71.419  1.00  0.00     0.000 HD 
BRANCH  47  58
HETATM   58  C   UNL     1     -10.128  13.635  67.630  1.00  0.00    -0.242 C  
HETATM   59  O   UNL     1     -11.231  14.368  68.169  1.00  0.00    -0.260 OA 
HETATM   60  H   UNL     1     -11.256  15.243  67.802  1.00  0.00     0.000 HD 
ENDBRANCH  47  58
ENDBRANCH  44  45
ENDBRANCH  40  44
ENDBRANCH  29  30
ENDBRANCH  22  29
ENDBRANCH  18  19
ENDBRANCH   7  18
ENDBRANCH   2   5
TORSDOF 9
ENDMDL
MODEL      303
REMARK 921   NORMALIZED FREE ENERGY PREDICTED BY IDOCK:    5.79 KCAL/MOL
REMARK 922        TOTAL FREE ENERGY PREDICTED BY IDOCK:    6.79 KCAL/MOL
REMARK 923 INTER-LIGAND FREE ENERGY PREDICTED BY IDOCK:   -7.23 KCAL/MOL
REMARK 924 INTRA-LIGAND FREE ENERGY PREDICTED BY IDOCK:   14.02 KCAL/MOL
REMARK 927      BINDING AFFINITY PREDICTED BY RF-SCORE:    0.00 PKD
ROOT
HETATM    1  N   UNL     1      -8.620   7.148  72.093  1.00  0.00    -0.111 NA 
HETATM    2  C   UNL     1      -7.191   7.021  71.739  1.00  0.00    -0.078 C  
HETATM    3  H1  UNL     1      -8.721   7.738  72.918  1.00  0.00     0.000 HD 
HETATM    4  H2  UNL     1      -9.067   6.238  72.214  1.00  0.00     0.000 HD 
ENDROOT
BRANCH   2   5
HETATM    5  C   UNL     1      -7.038   6.131  70.494  1.00  0.00    -0.071 C  
HETATM    6  O   UNL     1      -8.306   5.485  70.276  1.00  0.00    -0.106 OA 
HETATM    7  C   UNL     1      -8.347   4.790  69.032  1.00  0.00    -0.081 C  
HETATM    8  C   UNL     1      -7.354   3.593  69.097  1.00  0.00    -0.050 C  
HETATM    9  O   UNL     1      -6.112   4.340  71.854  1.00  0.00    -0.015 OA 
HETATM   10  H   UNL     1      -5.426   3.689  71.940  1.00  0.00     0.000 HD 
HETATM   11  N   UNL     1      -7.780   2.605  70.131  1.00  0.00    -0.043 NA 
HETATM   12  C   UNL     1      -5.937   4.128  69.408  1.00  0.00    -0.023 C  
HETATM   13  H2  UNL     1      -8.740   2.291  69.981  1.00  0.00     0.000 HD 
HETATM   14  O   UNL     1      -5.364   4.770  68.260  1.00  0.00    -0.010 OA 
HETATM   15  C   UNL     1      -5.924   5.072  70.634  1.00  0.00    -0.018 C  
HETATM   16  H1  UNL     1      -7.130   1.820  70.174  1.00  0.00     0.000 HD 
HETATM   17  H   UNL     1      -4.494   5.099  68.452  1.00  0.00     0.000 HD 
BRANCH   7  18
HETATM   18  O   UNL     1      -9.658   4.282  68.767  1.00  0.00    -0.158 OA 
BRANCH  18  19
HETATM   19  C   UNL     1     -10.253   4.798  67.563  1.00  0.00    -0.057 C  
HETATM   20  O   UNL     1     -11.656   6.287  68.957  1.00  0.00    -0.532 OA 
HETATM   21  C   UNL     1      -9.099   5.113  66.613  1.00  0.00    -0.120 C  
HETATM   22  C   UNL     1      -9.771   7.133  67.564  1.00  0.00    -0.142 C  
HETATM   23  H   UNL     1     -12.084   7.129  69.060  1.00  0.00     0.000 HD 
HETATM   24  O   UNL     1      -8.735   6.486  66.822  1.00  0.00    -0.117 OA 
HETATM   25  C   UNL     1     -10.937   6.145  67.729  1.00  0.00    -0.303 C  
BRANCH  21  26
HETATM   26  C   UNL     1      -9.446   4.927  65.135  1.00  0.00    -0.058 C  
HETATM   27  H   UNL     1     -10.245   3.531  63.989  1.00  0.00     0.000 HD 
HETATM   28  O   UNL     1     -10.030   3.646  64.906  1.00  0.00    -0.176 OA 
ENDBRANCH  21  26
BRANCH  22  29
HETATM   29  O   UNL     1     -10.245   8.284  66.871  1.00  0.00    -0.268 OA 
BRANCH  29  30
HETATM   30  C   UNL     1      -9.391   9.442  66.801  1.00  0.00    -0.158 C  
HETATM   31  C   UNL     1      -8.094   9.105  66.040  1.00  0.00    -0.110 C  
HETATM   32  O   UNL     1      -8.397   8.407  64.824  1.00  0.00    -0.163 OA 
HETATM   33  C   UNL     1      -7.310  10.383  65.720  1.00  0.00    -0.147 C  
HETATM   34  C   UNL     1      -6.913  11.068  67.027  1.00  0.00    -0.117 C  
HETATM   35  N   UNL     1      -6.114  10.082  64.909  1.00  0.00    -0.107 NA 
HETATM   36  H   UNL     1      -7.598   8.200  64.355  1.00  0.00     0.000 HD 
HETATM   37  H1  UNL     1      -5.592  10.932  64.696  1.00  0.00     0.000 HD 
HETATM   38  H2  UNL     1      -6.354   9.567  64.063  1.00  0.00     0.000 HD 
HETATM   39  C   UNL     1      -8.134  11.376  67.910  1.00  0.00    -0.126 C  
HETATM   40  C   UNL     1      -9.087  10.145  68.152  1.00  0.00    -0.128 C  
HETATM   41  N   UNL     1      -7.656  11.947  69.187  1.00  0.00    -0.330 NA 
HETATM   42  H2  UNL     1      -7.054  12.759  69.052  1.00  0.00     0.000 HD 
HETATM   43  H1  UNL     1      -8.466  12.151  69.772  1.00  0.00     0.000 HD 
BRANCH  40  44
HETATM   44  O   UNL     1     -10.255  10.659  68.833  1.00  0.00    -0.182 OA 
BRANCH  44  45
HETATM   45  C   UNL     1     -11.330  11.085  67.984  1.00  0.00    -0.306 C  
HETATM   46  O   UNL     1     -11.879  12.328  68.408  1.00  0.00    -0.317 OA 
HETATM   47  C   UNL     1     -11.019  13.457  68.267  1.00  0.00    -0.259 C  
HETATM   48  C   UNL     1     -10.641  13.644  66.796  1.00  0.00    -0.273 C  
HETATM   49  H1  UNL     1     -10.018   9.946  65.002  1.00  0.00     0.000 HD 
HETATM   50  H2  UNL     1     -10.917   9.109  66.143  1.00  0.00     0.000 HD 
HETATM   51  O   UNL     1      -9.751  14.744  66.597  1.00  0.00    -0.245 OA 
HETATM   52  C   UNL     1      -9.987  12.361  66.264  1.00  0.00    -0.246 C  
HETATM   53  H   UNL     1      -9.518  14.860  65.683  1.00  0.00     0.000 HD 
HETATM   54  O   UNL     1      -9.721  12.504  64.858  1.00  0.00    -0.469 OA 
HETATM   55  N   UNL     1     -10.296   9.903  65.983  1.00  0.00    -0.187 NA 
HETATM   56  C   UNL     1     -10.907  11.151  66.494  1.00  0.00    -0.245 C  
HETATM   57  H   UNL     1      -9.316  11.710  64.529  1.00  0.00     0.000 HD 
BRANCH  47  58
HETATM   58  C   UNL     1     -11.777  14.675  68.814  1.00  0.00    -0.324 C  
HETATM   59  O   UNL     1     -10.932  15.829  68.807  1.00  0.00    -0.257 OA 
HETATM   60  H   UNL     1     -11.401  16.582  69.146  1.00  0.00     0.000 HD 
ENDBRANCH  47  58
ENDBRANCH  44  45
ENDBRANCH  40  44
ENDBRANCH  29  30
ENDBRANCH  22  29
ENDBRANCH  18  19
ENDBRANCH   7  18
ENDBRANCH   2   5
TORSDOF 9
ENDMDL
MODEL      304
REMARK 921   NORMALIZED FREE ENERGY PREDICTED BY IDOCK:    6.26 KCAL/MOL
REMARK 922        TOTAL FREE ENERGY PREDICTED BY IDOCK:    7.52 KCAL/MOL
REMARK 923 INTER-LIGAND FREE ENERGY PREDICTED BY IDOCK:   -0.12 KCAL/MOL
REMARK 924 INTRA-LIGAND FREE ENERGY PREDICTED BY IDOCK:    7.63 KCAL/MOL
REMARK 927      BINDING AFFINITY PREDICTED BY RF-SCORE:    0.00 PKD
ROOT
HETATM    1  N   UNL     1     -10.073  10.297  65.512  1.00  0.00    -0.293 NA 
HETATM    2  C   UNL     1     -11.204  11.144  65.942  1.00  0.00     0.055 C  
HETATM    3  H1  UNL     1     -10.030   9.458  66.090  1.00  0.00     0.000 HD 
HETATM    4  H2  UNL     1      -9.190  10.808  65.513  1.00  0.00     0.000 HD 
ENDROOT
BRANCH   2   5
HETATM    5  C   UNL     1     -11.269  12.410  65.070  1.00  0.00    -0.312 C  
HETATM    6  O   UNL     1     -10.219  13.287  65.518  1.00  0.00    -0.289 OA 
HETATM    7  C   UNL     1     -10.051  14.408  64.653  1.00  0.00     0.094 C  
HETATM    8  C   UNL     1     -11.319  15.306  64.749  1.00  0.00    -0.391 C  
HETATM    9  O   UNL     1     -12.977  13.354  66.522  1.00  0.00    -0.019 OA 
HETATM   10  H   UNL     1     -13.814  13.799  66.569  1.00  0.00     0.000 HD 
HETATM   11  N   UNL     1     -11.468  15.870  66.123  1.00  0.00     0.229 NA 
HETATM   12  C   UNL     1     -12.561  14.469  64.367  1.00  0.00    -0.153 C  
HETATM   13  H2  UNL     1     -10.629  16.369  66.420  1.00  0.00     0.000 HD 
HETATM   14  O   UNL     1     -12.615  14.239  62.952  1.00  0.00    -0.727 OA 
HETATM   15  C   UNL     1     -12.630  13.134  65.148  1.00  0.00    -0.465 C  
HETATM   16  H1  UNL     1     -12.299  16.458  66.186  1.00  0.00     0.000 HD 
HETATM   17  H   UNL     1     -13.378  13.725  62.718  1.00  0.00     0.000 HD 
BRANCH   7  18
HETATM   18  O   UNL     1      -8.912  15.185  65.031  1.00  0.00     1.203 OA 
BRANCH  18  19
HETATM   19  C   UNL     1      -8.894  15.560  66.420  1.00  0.00    -0.324 C  
HETATM   20  O   UNL     1      -9.818  13.333  66.980  1.00  0.00    -0.231 OA 
HETATM   21  C   UNL     1      -7.517  16.167  66.685  1.00  0.00    -0.165 C  
HETATM   22  C   UNL     1      -7.466  13.979  67.489  1.00  0.00    -0.170 C  
HETATM   23  H   UNL     1      -9.849  12.601  67.585  1.00  0.00     0.000 HD 
HETATM   24  O   UNL     1      -6.661  15.105  67.134  1.00  0.00    -0.279 OA 
HETATM   25  C   UNL     1      -8.944  14.389  67.387  1.00  0.00    -0.199 C  
BRANCH  21  26
HETATM   26  C   UNL     1      -7.519  17.266  67.749  1.00  0.00    -0.176 C  
HETATM   27  H   UNL     1      -7.053  19.182  67.867  1.00  0.00     0.000 HD 
HETATM   28  O   UNL     1      -7.052  18.499  67.207  1.00  0.00    -0.202 OA 
ENDBRANCH  21  26
BRANCH  22  29
HETATM   29  O   UNL     1      -7.198  13.570  68.827  1.00  0.00    -0.101 OA 
BRANCH  29  30
HETATM   30  C   UNL     1      -7.977  12.494  69.385  1.00  0.00     0.830 C  
HETATM   31  C   UNL     1      -7.655  11.171  68.663  1.00  0.00    -0.127 C  
HETATM   32  O   UNL     1      -6.235  10.998  68.551  1.00  0.00    -0.043 OA 
HETATM   33  C   UNL     1      -8.261   9.983  69.419  1.00  0.00    -0.155 C  
HETATM   34  C   UNL     1      -9.782  10.133  69.450  1.00  0.00    -0.247 C  
HETATM   35  N   UNL     1      -7.879   8.703  68.790  1.00  0.00    -0.104 NA 
HETATM   36  H   UNL     1      -6.036  10.183  68.107  1.00  0.00     0.000 HD 
HETATM   37  H1  UNL     1      -8.283   7.913  69.293  1.00  0.00     0.000 HD 
HETATM   38  H2  UNL     1      -6.867   8.615  68.702  1.00  0.00     0.000 HD 
HETATM   39  C   UNL     1     -10.217  11.468  70.078  1.00  0.00     1.251 C  
HETATM   40  C   UNL     1      -9.509  12.734  69.465  1.00  0.00     1.511 C  
HETATM   41  N   UNL     1     -11.688  11.572  69.982  1.00  0.00    -0.380 NA 
HETATM   42  H2  UNL     1     -12.165  10.771  70.394  1.00  0.00     0.000 HD 
HETATM   43  H1  UNL     1     -11.976  12.457  70.399  1.00  0.00     0.000 HD 
BRANCH  40  44
HETATM   44  O   UNL     1      -9.894  13.858  70.290  1.00  0.00     1.603 OA 
BRANCH  44  45
HETATM   45  C   UNL     1     -11.121  14.505  69.923  1.00  0.00    -0.163 C  
HETATM   46  O   UNL     1     -12.207  14.083  70.741  1.00  0.00    -0.329 OA 
HETATM   47  C   UNL     1     -12.138  14.488  72.107  1.00  0.00    -0.165 C  
HETATM   48  C   UNL     1     -12.112  16.016  72.196  1.00  0.00    -0.526 C  
HETATM   49  H1  UNL     1      -9.781  17.585  69.133  1.00  0.00     0.000 HD 
HETATM   50  H2  UNL     1      -9.919  16.220  68.169  1.00  0.00     0.000 HD 
HETATM   51  O   UNL     1     -12.011  16.482  73.543  1.00  0.00    -0.453 OA 
HETATM   52  C   UNL     1     -10.932  16.561  71.380  1.00  0.00     0.617 C  
HETATM   53  H   UNL     1     -11.995  17.430  73.598  1.00  0.00     0.000 HD 
HETATM   54  O   UNL     1     -10.965  17.999  71.386  1.00  0.00     1.052 OA 
HETATM   55  N   UNL     1      -9.865  16.568  69.127  1.00  0.00    -0.264 NA 
HETATM   56  C   UNL     1     -10.994  16.049  69.932  1.00  0.00    -0.353 C  
HETATM   57  H   UNL     1     -10.234  18.336  70.882  1.00  0.00     0.000 HD 
BRANCH  47  58
HETATM   58  C   UNL     1     -13.367  13.902  72.816  1.00  0.00    -0.462 C  
HETATM   59  O   UNL     1     -14.395  13.608  71.865  1.00  0.00    -0.300 OA 
HETATM   60  H   UNL     1     -15.155  13.245  72.304  1.00  0.00     0.000 HD 
ENDBRANCH  47  58
ENDBRANCH  44  45
ENDBRANCH  40  44
ENDBRANCH  29  30
ENDBRANCH  22  29
ENDBRANCH  18  19
ENDBRANCH   7  18
ENDBRANCH   2   5
TORSDOF 9
ENDMDL
MODEL      305
REMARK 921   NORMALIZED FREE ENERGY PREDICTED BY IDOCK:    6.52 KCAL/MOL
REMARK 922        TOTAL FREE ENERGY PREDICTED BY IDOCK:    7.91 KCAL/MOL
REMARK 923 INTER-LIGAND FREE ENERGY PREDICTED BY IDOCK:   -1.82 KCAL/MOL
REMARK 924 INTRA-LIGAND FREE ENERGY PREDICTED BY IDOCK:    9.73 KCAL/MOL
REMARK 927      BINDING AFFINITY PREDICTED BY RF-SCORE:    0.00 PKD
ROOT
HETATM    1  N   UNL     1     -11.822  12.108  70.643  1.00  0.00    -0.466 NA 
HETATM    2  C   UNL     1     -12.270  12.255  69.244  1.00  0.00    -0.044 C  
HETATM    3  H1  UNL     1     -11.785  11.119  70.893  1.00  0.00     0.000 HD 
HETATM    4  H2  UNL     1     -12.401  12.645  71.289  1.00  0.00     0.000 HD 
ENDROOT
BRANCH   2   5
HETATM    5  C   UNL     1     -12.326  13.745  68.867  1.00  0.00    -0.032 C  
HETATM    6  O   UNL     1     -11.806  13.864  67.530  1.00  0.00    -0.356 OA 
HETATM    7  C   UNL     1     -11.993  15.172  66.996  1.00  0.00     0.108 C  
HETATM    8  C   UNL     1     -11.113  16.171  67.802  1.00  0.00    -0.254 C  
HETATM    9  O   UNL     1     -10.192  14.131  69.967  1.00  0.00    -0.117 OA 
HETATM   10  H   UNL     1      -9.698  14.686  70.559  1.00  0.00     0.000 HD 
HETATM   11  N   UNL     1      -9.663  15.863  67.626  1.00  0.00    -0.223 NA 
HETATM   12  C   UNL     1     -11.506  16.100  69.295  1.00  0.00    -0.304 C  
HETATM   13  H2  UNL     1      -9.399  15.838  66.640  1.00  0.00     0.000 HD 
HETATM   14  O   UNL     1     -12.765  16.747  69.529  1.00  0.00     0.551 OA 
HETATM   15  C   UNL     1     -11.523  14.647  69.828  1.00  0.00    -0.282 C  
HETATM   16  H1  UNL     1      -9.086  16.518  68.154  1.00  0.00     0.000 HD 
HETATM   17  H   UNL     1     -13.006  16.703  70.447  1.00  0.00     0.000 HD 
BRANCH   7  18
HETATM   18  O   UNL     1     -11.606  15.229  65.620  1.00  0.00    -0.205 OA 
BRANCH  18  19
HETATM   19  C   UNL     1     -11.680  13.963  64.939  1.00  0.00    -0.368 C  
HETATM   20  O   UNL     1      -9.215  13.998  64.714  1.00  0.00     0.343 OA 
HETATM   21  C   UNL     1     -12.595  13.075  65.780  1.00  0.00    -0.201 C  
HETATM   22  C   UNL     1     -10.402  12.449  66.264  1.00  0.00    -0.244 C  
HETATM   23  H   UNL     1      -8.399  13.512  64.699  1.00  0.00     0.000 HD 
HETATM   24  O   UNL     1     -11.761  12.344  66.692  1.00  0.00    -0.397 OA 
HETATM   25  C   UNL     1     -10.375  13.186  64.915  1.00  0.00    -0.334 C  
BRANCH  21  26
HETATM   26  C   UNL     1     -13.407  12.070  64.960  1.00  0.00     2.224 C  
HETATM   27  H   UNL     1     -13.621  11.571  63.062  1.00  0.00     0.000 HD 
HETATM   28  O   UNL     1     -13.117  12.195  63.570  1.00  0.00    -0.785 OA 
ENDBRANCH  21  26
BRANCH  22  29
HETATM   29  O   UNL     1      -9.827  11.158  66.090  1.00  0.00    -0.210 OA 
BRANCH  29  30
HETATM   30  C   UNL     1      -8.444  10.969  66.449  1.00  0.00    -0.164 C  
HETATM   31  C   UNL     1      -7.819  12.305  66.894  1.00  0.00    -0.044 C  
HETATM   32  O   UNL     1      -8.680  12.971  67.828  1.00  0.00    -0.166 OA 
HETATM   33  C   UNL     1      -6.446  12.070  67.535  1.00  0.00    -0.124 C  
HETATM   34  C   UNL     1      -5.511  11.445  66.500  1.00  0.00    -0.137 C  
HETATM   35  N   UNL     1      -5.879  13.331  68.051  1.00  0.00    -0.107 NA 
HETATM   36  H   UNL     1      -8.295  13.794  68.103  1.00  0.00     0.000 HD 
HETATM   37  H1  UNL     1      -4.966  13.175  68.477  1.00  0.00     0.000 HD 
HETATM   38  H2  UNL     1      -6.519  13.795  68.695  1.00  0.00     0.000 HD 
HETATM   39  C   UNL     1      -6.081  10.139  65.922  1.00  0.00    -0.087 C  
HETATM   40  C   UNL     1      -7.559  10.256  65.390  1.00  0.00    -0.146 C  
HETATM   41  N   UNL     1      -5.165   9.655  64.868  1.00  0.00    -0.048 NA 
HETATM   42  H2  UNL     1      -4.206   9.551  65.199  1.00  0.00     0.000 HD 
HETATM   43  H1  UNL     1      -5.544   8.788  64.485  1.00  0.00     0.000 HD 
BRANCH  40  44
HETATM   44  O   UNL     1      -7.985   8.912  65.064  1.00  0.00    -0.112 OA 
BRANCH  44  45
HETATM   45  C   UNL     1      -8.997   8.359  65.917  1.00  0.00    -0.178 C  
HETATM   46  O   UNL     1      -9.687   7.283  65.292  1.00  0.00     0.963 OA 
HETATM   47  C   UNL     1      -8.911   6.106  65.069  1.00  0.00     0.260 C  
HETATM   48  C   UNL     1      -8.400   5.560  66.404  1.00  0.00    -0.111 C  
HETATM   49  H1  UNL     1      -7.296   8.694  68.901  1.00  0.00     0.000 HD 
HETATM   50  H2  UNL     1      -8.237   9.823  68.095  1.00  0.00     0.000 HD 
HETATM   51  O   UNL     1      -7.587   4.396  66.241  1.00  0.00    -0.084 OA 
HETATM   52  C   UNL     1      -7.593   6.644  67.131  1.00  0.00    -0.096 C  
HETATM   53  H   UNL     1      -7.270   4.056  67.070  1.00  0.00     0.000 HD 
HETATM   54  O   UNL     1      -7.195   6.161  68.426  1.00  0.00    -0.079 OA 
HETATM   55  N   UNL     1      -7.669   8.981  67.996  1.00  0.00    -0.096 NA 
HETATM   56  C   UNL     1      -8.429   7.923  67.292  1.00  0.00    -0.121 C  
HETATM   57  H   UNL     1      -6.695   6.832  68.875  1.00  0.00     0.000 HD 
BRANCH  47  58
HETATM   58  C   UNL     1      -9.818   5.094  64.355  1.00  0.00     0.685 C  
HETATM   59  O   UNL     1      -9.187   4.616  63.164  1.00  0.00    -0.235 OA 
HETATM   60  H   UNL     1      -9.748   3.990  62.723  1.00  0.00     0.000 HD 
ENDBRANCH  47  58
ENDBRANCH  44  45
ENDBRANCH  40  44
ENDBRANCH  29  30
ENDBRANCH  22  29
ENDBRANCH  18  19
ENDBRANCH   7  18
ENDBRANCH   2   5
TORSDOF 9
ENDMDL
MODEL      306
REMARK 921   NORMALIZED FREE ENERGY PREDICTED BY IDOCK:    6.71 KCAL/MOL
REMARK 922        TOTAL FREE ENERGY PREDICTED BY IDOCK:    8.20 KCAL/MOL
REMARK 923 INTER-LIGAND FREE ENERGY PREDICTED BY IDOCK:   -3.98 KCAL/MOL
REMARK 924 INTRA-LIGAND FREE ENERGY PREDICTED BY IDOCK:   12.19 KCAL/MOL
REMARK 927      BINDING AFFINITY PREDICTED BY RF-SCORE:    0.00 PKD
ROOT
HETATM    1  N   UNL     1      -8.351  14.024  65.932  1.00  0.00     0.888 NA 
HETATM    2  C   UNL     1      -8.934  15.222  66.571  1.00  0.00    -0.305 C  
HETATM    3  H1  UNL     1      -7.649  14.303  65.248  1.00  0.00     0.000 HD 
HETATM    4  H2  UNL     1      -9.066  13.422  65.524  1.00  0.00     0.000 HD 
ENDROOT
BRANCH   2   5
HETATM    5  C   UNL     1      -9.993  14.800  67.604  1.00  0.00    -0.226 C  
HETATM    6  O   UNL     1      -9.900  13.371  67.747  1.00  0.00    -0.221 OA 
HETATM    7  C   UNL     1     -10.696  12.887  68.826  1.00  0.00    -0.218 C  
HETATM    8  C   UNL     1     -12.197  13.104  68.476  1.00  0.00    -0.032 C  
HETATM    9  O   UNL     1     -11.697  14.735  65.870  1.00  0.00    -0.336 OA 
HETATM   10  H   UNL     1     -12.580  14.980  65.622  1.00  0.00     0.000 HD 
HETATM   11  N   UNL     1     -12.587  12.293  67.285  1.00  0.00     0.586 NA 
HETATM   12  C   UNL     1     -12.441  14.608  68.212  1.00  0.00     0.270 C  
HETATM   13  H2  UNL     1     -12.369  11.304  67.415  1.00  0.00     0.000 HD 
HETATM   14  O   UNL     1     -12.437  15.355  69.437  1.00  0.00    -0.588 OA 
HETATM   15  C   UNL     1     -11.429  15.197  67.201  1.00  0.00    -0.250 C  
HETATM   16  H1  UNL     1     -13.570  12.435  67.056  1.00  0.00     0.000 HD 
HETATM   17  H   UNL     1     -12.587  16.278  69.275  1.00  0.00     0.000 HD 
BRANCH   7  18
HETATM   18  O   UNL     1     -10.475  11.491  69.045  1.00  0.00    -0.203 OA 
BRANCH  18  19
HETATM   19  C   UNL     1      -9.415  10.934  68.247  1.00  0.00    -0.168 C  
HETATM   20  O   UNL     1      -8.047  10.731  70.300  1.00  0.00    -0.203 OA 
HETATM   21  C   UNL     1     -10.056   9.867  67.364  1.00  0.00    -0.205 C  
HETATM   22  C   UNL     1      -9.024   8.757  69.135  1.00  0.00    -0.137 C  
HETATM   23  H   UNL     1      -7.400  10.241  70.794  1.00  0.00     0.000 HD 
HETATM   24  O   UNL     1      -9.959   8.617  68.063  1.00  0.00    -0.167 OA 
HETATM   25  C   UNL     1      -8.381  10.150  69.037  1.00  0.00    -0.138 C  
BRANCH  21  26
HETATM   26  C   UNL     1      -9.385   9.707  65.998  1.00  0.00    -0.207 C  
HETATM   27  H   UNL     1      -9.921   9.731  64.098  1.00  0.00     0.000 HD 
HETATM   28  O   UNL     1     -10.338   9.829  64.945  1.00  0.00     0.082 OA 
ENDBRANCH  21  26
BRANCH  22  29
HETATM   29  O   UNL     1      -7.998   7.774  69.042  1.00  0.00    -0.118 OA 
BRANCH  29  30
HETATM   30  C   UNL     1      -8.078   6.795  67.988  1.00  0.00    -0.114 C  
HETATM   31  C   UNL     1      -7.529   7.381  66.672  1.00  0.00    -0.088 C  
HETATM   32  O   UNL     1      -6.272   8.031  66.903  1.00  0.00    -0.051 OA 
HETATM   33  C   UNL     1      -7.353   6.276  65.624  1.00  0.00    -0.080 C  
HETATM   34  C   UNL     1      -8.715   5.654  65.318  1.00  0.00    -0.120 C  
HETATM   35  N   UNL     1      -6.739   6.807  64.391  1.00  0.00    -0.041 NA 
HETATM   36  H   UNL     1      -5.933   8.392  66.093  1.00  0.00     0.000 HD 
HETATM   37  H1  UNL     1      -6.622   6.073  63.694  1.00  0.00     0.000 HD 
HETATM   38  H2  UNL     1      -5.859   7.284  64.586  1.00  0.00     0.000 HD 
HETATM   39  C   UNL     1      -9.397   5.109  66.585  1.00  0.00    -0.137 C  
HETATM   40  C   UNL     1      -9.469   6.137  67.776  1.00  0.00    -0.115 C  
HETATM   41  N   UNL     1     -10.740   4.614  66.218  1.00  0.00    -0.492 NA 
HETATM   42  H2  UNL     1     -10.712   3.929  65.462  1.00  0.00     0.000 HD 
HETATM   43  H1  UNL     1     -11.191   4.253  67.058  1.00  0.00     0.000 HD 
BRANCH  40  44
HETATM   44  O   UNL     1      -9.962   5.404  68.921  1.00  0.00    -0.152 OA 
BRANCH  44  45
HETATM   45  C   UNL     1      -9.182   4.264  69.309  1.00  0.00    -0.145 C  
HETATM   46  O   UNL     1      -8.371   3.788  68.241  1.00  0.00    -0.088 OA 
HETATM   47  C   UNL     1      -7.314   4.659  67.841  1.00  0.00    -0.066 C  
HETATM   48  C   UNL     1      -6.364   4.899  69.018  1.00  0.00    -0.032 C  
HETATM   49  H1  UNL     1      -8.528   5.256  72.549  1.00  0.00     0.000 HD 
HETATM   50  H2  UNL     1      -9.868   4.449  71.947  1.00  0.00     0.000 HD 
HETATM   51  O   UNL     1      -5.300   5.793  68.685  1.00  0.00    -0.003 OA 
HETATM   52  C   UNL     1      -7.150   5.467  70.208  1.00  0.00    -0.062 C  
HETATM   53  H   UNL     1      -4.711   5.942  69.415  1.00  0.00     0.000 HD 
HETATM   54  O   UNL     1      -6.275   5.602  71.341  1.00  0.00    -0.032 OA 
HETATM   55  N   UNL     1      -9.092   5.072  71.720  1.00  0.00    -0.136 NA 
HETATM   56  C   UNL     1      -8.324   4.544  70.569  1.00  0.00    -0.078 C  
HETATM   57  H   UNL     1      -6.761   5.953  72.078  1.00  0.00     0.000 HD 
BRANCH  47  58
HETATM   58  C   UNL     1      -6.595   3.988  66.663  1.00  0.00    -0.046 C  
HETATM   59  O   UNL     1      -5.374   4.674  66.371  1.00  0.00    -0.008 OA 
HETATM   60  H   UNL     1      -4.929   4.258  65.642  1.00  0.00     0.000 HD 
ENDBRANCH  47  58
ENDBRANCH  44  45
ENDBRANCH  40  44
ENDBRANCH  29  30
ENDBRANCH  22  29
ENDBRANCH  18  19
ENDBRANCH   7  18
ENDBRANCH   2   5
TORSDOF 9
ENDMDL
MODEL      307
REMARK 921   NORMALIZED FREE ENERGY PREDICTED BY IDOCK:    7.03 KCAL/MOL
REMARK 922        TOTAL FREE ENERGY PREDICTED BY IDOCK:    8.69 KCAL/MOL
REMARK 923 INTER-LIGAND FREE ENERGY PREDICTED BY IDOCK:    2.47 KCAL/MOL
REMARK 924 INTRA-LIGAND FREE ENERGY PREDICTED BY IDOCK:    6.22 KCAL/MOL
REMARK 927      BINDING AFFINITY PREDICTED BY RF-SCORE:    0.00 PKD
ROOT
HETATM    1  N   UNL     1      -8.008  10.363  69.479  1.00  0.00    -0.236 NA 
HETATM    2  C   UNL     1      -8.337   9.585  70.691  1.00  0.00    -0.112 C  
HETATM    3  H1  UNL     1      -7.030  10.651  69.507  1.00  0.00     0.000 HD 
HETATM    4  H2  UNL     1      -8.638  11.155  69.349  1.00  0.00     0.000 HD 
ENDROOT
BRANCH   2   5
HETATM    5  C   UNL     1      -9.812   9.150  70.648  1.00  0.00    -0.249 C  
HETATM    6  O   UNL     1     -10.603  10.346  70.523  1.00  0.00    -0.184 OA 
HETATM    7  C   UNL     1     -11.976  10.057  70.271  1.00  0.00    -0.187 C  
HETATM    8  C   UNL     1     -12.581   9.371  71.531  1.00  0.00    -0.362 C  
HETATM    9  O   UNL     1      -9.892   9.089  73.078  1.00  0.00     0.394 OA 
HETATM   10  H   UNL     1     -10.161   8.601  73.847  1.00  0.00     0.000 HD 
HETATM   11  N   UNL     1     -12.567  10.300  72.699  1.00  0.00     0.307 NA 
HETATM   12  C   UNL     1     -11.773   8.090  71.845  1.00  0.00    -0.303 C  
HETATM   13  H2  UNL     1     -13.037  11.180  72.488  1.00  0.00     0.000 HD 
HETATM   14  O   UNL     1     -12.080   7.045  70.911  1.00  0.00    -0.353 OA 
HETATM   15  C   UNL     1     -10.250   8.357  71.898  1.00  0.00    -0.270 C  
HETATM   16  H1  UNL     1     -12.963   9.850  73.525  1.00  0.00     0.000 HD 
HETATM   17  H   UNL     1     -11.584   6.258  71.105  1.00  0.00     0.000 HD 
BRANCH   7  18
HETATM   18  O   UNL     1     -12.715  11.252  70.004  1.00  0.00    -0.146 OA 
BRANCH  18  19
HETATM   19  C   UNL     1     -12.483  11.802  68.694  1.00  0.00     0.663 C  
HETATM   20  O   UNL     1     -11.122  13.586  69.741  1.00  0.00    -0.461 OA 
HETATM   21  C   UNL     1     -12.079  10.632  67.800  1.00  0.00     1.253 C  
HETATM   22  C   UNL     1     -10.119  11.748  68.389  1.00  0.00    -0.201 C  
HETATM   23  H   UNL     1     -10.371  14.165  69.687  1.00  0.00     0.000 HD 
HETATM   24  O   UNL     1     -10.647  10.543  67.833  1.00  0.00    -0.197 OA 
HETATM   25  C   UNL     1     -11.282  12.730  68.607  1.00  0.00    -0.282 C  
BRANCH  21  26
HETATM   26  C   UNL     1     -12.519  10.785  66.343  1.00  0.00     4.800 C  
HETATM   27  H   UNL     1     -12.467  12.176  64.942  1.00  0.00     0.000 HD 
HETATM   28  O   UNL     1     -12.194  12.081  65.847  1.00  0.00    -0.531 OA 
ENDBRANCH  21  26
BRANCH  22  29
HETATM   29  O   UNL     1      -9.180  12.346  67.501  1.00  0.00    -0.172 OA 
BRANCH  29  30
HETATM   30  C   UNL     1      -8.887  11.675  66.259  1.00  0.00    -0.164 C  
HETATM   31  C   UNL     1      -9.562  12.408  65.083  1.00  0.00     0.046 C  
HETATM   32  O   UNL     1      -9.319  13.819  65.170  1.00  0.00    -0.289 OA 
HETATM   33  C   UNL     1      -9.038  11.875  63.745  1.00  0.00     0.405 C  
HETATM   34  C   UNL     1      -9.386  10.391  63.626  1.00  0.00    -0.329 C  
HETATM   35  N   UNL     1      -9.606  12.632  62.613  1.00  0.00     0.898 NA 
HETATM   36  H   UNL     1      -9.734  14.270  64.446  1.00  0.00     0.000 HD 
HETATM   37  H1  UNL     1      -9.258  12.278  61.723  1.00  0.00     0.000 HD 
HETATM   38  H2  UNL     1      -9.439  13.634  62.710  1.00  0.00     0.000 HD 
HETATM   39  C   UNL     1      -8.829   9.572  64.803  1.00  0.00    -0.207 C  
HETATM   40  C   UNL     1      -9.186  10.152  66.223  1.00  0.00    -0.157 C  
HETATM   41  N   UNL     1      -9.289   8.175  64.659  1.00  0.00     0.380 NA 
HETATM   42  H2  UNL     1      -9.048   7.774  63.753  1.00  0.00     0.000 HD 
HETATM   43  H1  UNL     1      -8.919   7.632  65.440  1.00  0.00     0.000 HD 
BRANCH  40  44
HETATM   44  O   UNL     1      -8.435   9.373  67.184  1.00  0.00    -0.126 OA 
BRANCH  44  45
HETATM   45  C   UNL     1      -8.143   8.024  66.794  1.00  0.00    -0.107 C  
HETATM   46  O   UNL     1      -6.874   7.597  67.275  1.00  0.00    -0.065 OA 
HETATM   47  C   UNL     1      -6.774   7.450  68.691  1.00  0.00    -0.057 C  
HETATM   48  C   UNL     1      -7.782   6.407  69.179  1.00  0.00    -0.101 C  
HETATM   49  H1  UNL     1     -11.348   6.777  67.075  1.00  0.00     0.000 HD 
HETATM   50  H2  UNL     1     -10.639   7.570  65.780  1.00  0.00     0.000 HD 
HETATM   51  O   UNL     1      -7.751   6.240  70.598  1.00  0.00    -0.100 OA 
HETATM   52  C   UNL     1      -9.197   6.816  68.747  1.00  0.00    -0.130 C  
HETATM   53  H   UNL     1      -8.377   5.592  70.900  1.00  0.00     0.000 HD 
HETATM   54  O   UNL     1     -10.131   5.788  69.123  1.00  0.00    -0.165 OA 
HETATM   55  N   UNL     1     -10.616   7.427  66.790  1.00  0.00    -0.286 NA 
HETATM   56  C   UNL     1      -9.256   7.036  67.228  1.00  0.00    -0.129 C  
HETATM   57  H   UNL     1     -11.007   6.041  68.856  1.00  0.00     0.000 HD 
BRANCH  47  58
HETATM   58  C   UNL     1      -5.331   7.028  69.002  1.00  0.00    -0.014 C  
HETATM   59  O   UNL     1      -5.235   5.603  69.076  1.00  0.00    -0.003 OA 
HETATM   60  H   UNL     1      -4.343   5.342  69.269  1.00  0.00     0.000 HD 
ENDBRANCH  47  58
ENDBRANCH  44  45
ENDBRANCH  40  44
ENDBRANCH  29  30
ENDBRANCH  22  29
ENDBRANCH  18  19
ENDBRANCH   7  18
ENDBRANCH   2   5
TORSDOF 9
ENDMDL
MODEL      308
REMARK 921   NORMALIZED FREE ENERGY PREDICTED BY IDOCK:    7.12 KCAL/MOL
REMARK 922        TOTAL FREE ENERGY PREDICTED BY IDOCK:    8.82 KCAL/MOL
REMARK 923 INTER-LIGAND FREE ENERGY PREDICTED BY IDOCK:   -4.44 KCAL/MOL
REMARK 924 INTRA-LIGAND FREE ENERGY PREDICTED BY IDOCK:   13.26 KCAL/MOL
REMARK 927      BINDING AFFINITY PREDICTED BY RF-SCORE:    0.00 PKD
ROOT
HETATM    1  N   UNL     1     -11.401   7.401  68.030  1.00  0.00    -0.225 NA 
HETATM    2  C   UNL     1     -11.742   7.157  69.446  1.00  0.00     0.341 C  
HETATM    3  H1  UNL     1     -12.160   7.078  67.430  1.00  0.00     0.000 HD 
HETATM    4  H2  UNL     1     -10.506   6.985  67.775  1.00  0.00     0.000 HD 
ENDROOT
BRANCH   2   5
HETATM    5  C   UNL     1     -10.599   7.644  70.351  1.00  0.00    -0.230 C  
HETATM    6  O   UNL     1      -9.539   6.675  70.254  1.00  0.00    -0.162 OA 
HETATM    7  C   UNL     1      -8.344   7.121  70.893  1.00  0.00    -0.121 C  
HETATM    8  C   UNL     1      -8.599   7.204  72.426  1.00  0.00    -0.119 C  
HETATM    9  O   UNL     1     -11.656   6.618  72.286  1.00  0.00    -0.272 OA 
HETATM   10  H   UNL     1     -11.915   6.726  73.194  1.00  0.00     0.000 HD 
HETATM   11  N   UNL     1      -8.884   5.852  72.991  1.00  0.00    -0.123 NA 
HETATM   12  C   UNL     1      -9.783   8.164  72.690  1.00  0.00    -0.290 C  
HETATM   13  H2  UNL     1      -8.145   5.186  72.767  1.00  0.00     0.000 HD 
HETATM   14  O   UNL     1      -9.391   9.530  72.503  1.00  0.00     0.820 OA 
HETATM   15  C   UNL     1     -11.020   7.819  71.826  1.00  0.00    -0.239 C  
HETATM   16  H1  UNL     1      -9.052   5.906  73.996  1.00  0.00     0.000 HD 
HETATM   17  H   UNL     1     -10.118  10.120  72.665  1.00  0.00     0.000 HD 
BRANCH   7  18
HETATM   18  O   UNL     1      -7.264   6.213  70.658  1.00  0.00    -0.072 OA 
BRANCH  18  19
HETATM   19  C   UNL     1      -6.945   6.031  69.267  1.00  0.00    -0.064 C  
HETATM   20  O   UNL     1      -8.956   4.603  69.047  1.00  0.00    -0.101 OA 
HETATM   21  C   UNL     1      -6.639   7.419  68.709  1.00  0.00    -0.048 C  
HETATM   22  C   UNL     1      -8.816   6.889  68.066  1.00  0.00    -0.123 C  
HETATM   23  H   UNL     1      -9.685   4.314  68.512  1.00  0.00     0.000 HD 
HETATM   24  O   UNL     1      -7.866   7.950  68.185  1.00  0.00    -0.121 OA 
HETATM   25  C   UNL     1      -8.112   5.567  68.412  1.00  0.00    -0.099 C  
BRANCH  21  26
HETATM   26  C   UNL     1      -5.597   7.421  67.589  1.00  0.00    -0.033 C  
HETATM   27  H   UNL     1      -5.381   8.227  65.799  1.00  0.00     0.000 HD 
HETATM   28  O   UNL     1      -6.028   8.225  66.494  1.00  0.00    -0.043 OA 
ENDBRANCH  21  26
BRANCH  22  29
HETATM   29  O   UNL     1      -9.314   6.806  66.734  1.00  0.00    -0.149 OA 
BRANCH  29  30
HETATM   30  C   UNL     1      -8.634   7.543  65.699  1.00  0.00    -0.114 C  
HETATM   31  C   UNL     1      -7.379   6.779  65.234  1.00  0.00    -0.084 C  
HETATM   32  O   UNL     1      -7.695   5.401  64.993  1.00  0.00    -0.080 OA 
HETATM   33  C   UNL     1      -6.807   7.409  63.959  1.00  0.00    -0.056 C  
HETATM   34  C   UNL     1      -6.388   8.849  64.255  1.00  0.00    -0.071 C  
HETATM   35  N   UNL     1      -5.661   6.630  63.451  1.00  0.00    -0.033 NA 
HETATM   36  H   UNL     1      -6.922   4.931  64.707  1.00  0.00     0.000 HD 
HETATM   37  H1  UNL     1      -5.281   7.049  62.602  1.00  0.00     0.000 HD 
HETATM   38  H2  UNL     1      -5.906   5.651  63.309  1.00  0.00     0.000 HD 
HETATM   39  C   UNL     1      -7.554   9.686  64.809  1.00  0.00    -0.122 C  
HETATM   40  C   UNL     1      -8.305   9.025  66.026  1.00  0.00    -0.123 C  
HETATM   41  N   UNL     1      -7.043  11.028  65.155  1.00  0.00    -0.274 NA 
HETATM   42  H2  UNL     1      -6.571  11.482  64.373  1.00  0.00     0.000 HD 
HETATM   43  H1  UNL     1      -7.816  11.583  65.522  1.00  0.00     0.000 HD 
BRANCH  40  44
HETATM   44  O   UNL     1      -9.465   9.850  66.287  1.00  0.00    -0.171 OA 
BRANCH  44  45
HETATM   45  C   UNL     1      -9.772  10.066  67.672  1.00  0.00    -0.158 C  
HETATM   46  O   UNL     1      -8.625   9.906  68.500  1.00  0.00    -0.113 OA 
HETATM   47  C   UNL     1      -7.610  10.896  68.336  1.00  0.00    -0.104 C  
HETATM   48  C   UNL     1      -8.176  12.280  68.662  1.00  0.00    -0.017 C  
HETATM   49  H1  UNL     1     -12.064  12.606  67.228  1.00  0.00     0.000 HD 
HETATM   50  H2  UNL     1     -12.308  10.949  67.173  1.00  0.00     0.000 HD 
HETATM   51  O   UNL     1      -7.211  13.319  68.484  1.00  0.00    -0.099 OA 
HETATM   52  C   UNL     1      -9.394  12.562  67.772  1.00  0.00    -0.198 C  
HETATM   53  H   UNL     1      -7.562  14.178  68.687  1.00  0.00     0.000 HD 
HETATM   54  O   UNL     1      -9.982  13.821  68.146  1.00  0.00    -0.228 OA 
HETATM   55  N   UNL     1     -11.625  11.700  67.068  1.00  0.00    -0.547 NA 
HETATM   56  C   UNL     1     -10.438  11.443  67.916  1.00  0.00    -0.184 C  
HETATM   57  H   UNL     1     -10.736  13.996  67.595  1.00  0.00     0.000 HD 
BRANCH  47  58
HETATM   58  C   UNL     1      -6.457  10.521  69.278  1.00  0.00    -0.055 C  
HETATM   59  O   UNL     1      -6.966   9.915  70.469  1.00  0.00    -0.135 OA 
HETATM   60  H   UNL     1      -6.253   9.683  71.051  1.00  0.00     0.000 HD 
ENDBRANCH  47  58
ENDBRANCH  44  45
ENDBRANCH  40  44
ENDBRANCH  29  30
ENDBRANCH  22  29
ENDBRANCH  18  19
ENDBRANCH   7  18
ENDBRANCH   2   5
TORSDOF 9
ENDMDL
MODEL      309
REMARK 921   NORMALIZED FREE ENERGY PREDICTED BY IDOCK:    7.30 KCAL/MOL
REMARK 922        TOTAL FREE ENERGY PREDICTED BY IDOCK:    9.09 KCAL/MOL
REMARK 923 INTER-LIGAND FREE ENERGY PREDICTED BY IDOCK:   -4.13 KCAL/MOL
REMARK 924 INTRA-LIGAND FREE ENERGY PREDICTED BY IDOCK:   13.23 KCAL/MOL
REMARK 927      BINDING AFFINITY PREDICTED BY RF-SCORE:    0.00 PKD
ROOT
HETATM    1  N   UNL     1     -10.150   7.361  73.639  1.00  0.00    -0.334 NA 
HETATM    2  C   UNL     1     -10.516   6.692  72.375  1.00  0.00    -0.207 C  
HETATM    3  H1  UNL     1     -10.840   7.144  74.359  1.00  0.00     0.000 HD 
HETATM    4  H2  UNL     1     -10.025   8.367  73.519  1.00  0.00     0.000 HD 
ENDROOT
BRANCH   2   5
HETATM    5  C   UNL     1      -9.475   7.019  71.290  1.00  0.00    -0.164 C  
HETATM    6  O   UNL     1      -9.510   5.946  70.332  1.00  0.00    -0.158 OA 
HETATM    7  C   UNL     1      -8.731   6.236  69.173  1.00  0.00    -0.123 C  
HETATM    8  C   UNL     1      -7.230   6.289  69.582  1.00  0.00    -0.078 C  
HETATM    9  O   UNL     1      -7.711   6.042  72.649  1.00  0.00    -0.098 OA 
HETATM   10  H   UNL     1      -6.831   6.143  72.992  1.00  0.00     0.000 HD 
HETATM   11  N   UNL     1      -6.763   4.955  70.064  1.00  0.00    -0.036 NA 
HETATM   12  C   UNL     1      -7.043   7.360  70.681  1.00  0.00    -0.060 C  
HETATM   13  H2  UNL     1      -6.942   4.222  69.377  1.00  0.00     0.000 HD 
HETATM   14  O   UNL     1      -7.123   8.683  70.132  1.00  0.00    -0.041 OA 
HETATM   15  C   UNL     1      -8.045   7.183  71.847  1.00  0.00    -0.097 C  
HETATM   16  H1  UNL     1      -5.780   4.990  70.332  1.00  0.00     0.000 HD 
HETATM   17  H   UNL     1      -7.008   9.341  70.808  1.00  0.00     0.000 HD 
BRANCH   7  18
HETATM   18  O   UNL     1      -8.897   5.227  68.174  1.00  0.00    -0.105 OA 
BRANCH  18  19
HETATM   19  C   UNL     1      -9.248   5.741  66.876  1.00  0.00    -0.122 C  
HETATM   20  O   UNL     1     -11.547   6.125  67.708  1.00  0.00    -0.403 OA 
HETATM   21  C   UNL     1      -8.146   6.726  66.491  1.00  0.00    -0.108 C  
HETATM   22  C   UNL     1      -9.955   7.986  67.249  1.00  0.00    -0.217 C  
HETATM   23  H   UNL     1     -12.330   6.664  67.698  1.00  0.00     0.000 HD 
HETATM   24  O   UNL     1      -8.562   8.027  66.933  1.00  0.00    -0.123 OA 
HETATM   25  C   UNL     1     -10.499   6.602  66.860  1.00  0.00    -0.279 C  
BRANCH  21  26
HETATM   26  C   UNL     1      -7.874   6.793  64.987  1.00  0.00    -0.118 C  
HETATM   27  H   UNL     1      -8.442   7.895  63.450  1.00  0.00     0.000 HD 
HETATM   28  O   UNL     1      -8.611   7.853  64.383  1.00  0.00     0.037 OA 
ENDBRANCH  21  26
BRANCH  22  29
HETATM   29  O   UNL     1     -10.668   8.978  66.517  1.00  0.00    -0.113 OA 
BRANCH  29  30
HETATM   30  C   UNL     1     -10.101  10.299  66.418  1.00  0.00    -0.234 C  
HETATM   31  C   UNL     1     -10.199  10.816  64.969  1.00  0.00    -0.306 C  
HETATM   32  O   UNL     1     -11.519  10.601  64.453  1.00  0.00     0.392 OA 
HETATM   33  C   UNL     1      -9.856  12.308  64.906  1.00  0.00    -0.118 C  
HETATM   34  C   UNL     1      -8.414  12.512  65.372  1.00  0.00     1.593 C  
HETATM   35  N   UNL     1     -10.038  12.837  63.540  1.00  0.00    -0.680 NA 
HETATM   36  H   UNL     1     -11.580  10.920  63.560  1.00  0.00     0.000 HD 
HETATM   37  H1  UNL     1      -9.810  13.830  63.498  1.00  0.00     0.000 HD 
HETATM   38  H2  UNL     1     -10.977  12.652  63.188  1.00  0.00     0.000 HD 
HETATM   39  C   UNL     1      -8.181  11.951  66.786  1.00  0.00    -0.129 C  
HETATM   40  C   UNL     1      -8.663  10.464  66.981  1.00  0.00    -0.130 C  
HETATM   41  N   UNL     1      -6.749  12.102  67.118  1.00  0.00    -0.244 NA 
HETATM   42  H2  UNL     1      -6.423  13.064  67.019  1.00  0.00     0.000 HD 
HETATM   43  H1  UNL     1      -6.595  11.731  68.055  1.00  0.00     0.000 HD 
BRANCH  40  44
HETATM   44  O   UNL     1      -8.538  10.176  68.393  1.00  0.00    -0.114 OA 
BRANCH  44  45
HETATM   45  C   UNL     1      -9.044  11.185  69.278  1.00  0.00     0.178 C  
HETATM   46  O   UNL     1      -9.227  12.430  68.613  1.00  0.00    -0.119 OA 
HETATM   47  C   UNL     1     -10.262  12.452  67.631  1.00  0.00    -0.207 C  
HETATM   48  C   UNL     1     -11.607  12.120  68.284  1.00  0.00    -0.325 C  
HETATM   49  H1  UNL     1     -11.109   9.145  71.144  1.00  0.00     0.000 HD 
HETATM   50  H2  UNL     1      -9.471   9.441  71.337  1.00  0.00     0.000 HD 
HETATM   51  O   UNL     1     -12.680  12.095  67.341  1.00  0.00     0.741 OA 
HETATM   52  C   UNL     1     -11.518  10.759  68.987  1.00  0.00    -0.298 C  
HETATM   53  H   UNL     1     -13.514  11.890  67.746  1.00  0.00     0.000 HD 
HETATM   54  O   UNL     1     -12.750  10.493  69.680  1.00  0.00    -0.604 OA 
HETATM   55  N   UNL     1     -10.250   9.437  70.678  1.00  0.00    -0.267 NA 
HETATM   56  C   UNL     1     -10.350  10.742  69.986  1.00  0.00     0.195 C  
HETATM   57  H   UNL     1     -12.694   9.650  70.115  1.00  0.00     0.000 HD 
BRANCH  47  58
HETATM   58  C   UNL     1     -10.268  13.855  67.010  1.00  0.00    -0.254 C  
HETATM   59  O   UNL     1     -10.880  14.790  67.902  1.00  0.00    -0.258 OA 
HETATM   60  H   UNL     1     -10.884  15.659  67.517  1.00  0.00     0.000 HD 
ENDBRANCH  47  58
ENDBRANCH  44  45
ENDBRANCH  40  44
ENDBRANCH  29  30
ENDBRANCH  22  29
ENDBRANCH  18  19
ENDBRANCH   7  18
ENDBRANCH   2   5
TORSDOF 9
ENDMDL
MODEL      310
REMARK 921   NORMALIZED FREE ENERGY PREDICTED BY IDOCK:    7.93 KCAL/MOL
REMARK 922        TOTAL FREE ENERGY PREDICTED BY IDOCK:   10.06 KCAL/MOL
REMARK 923 INTER-LIGAND FREE ENERGY PREDICTED BY IDOCK:   -2.71 KCAL/MOL
REMARK 924 INTRA-LIGAND FREE ENERGY PREDICTED BY IDOCK:   12.77 KCAL/MOL
REMARK 927      BINDING AFFINITY PREDICTED BY RF-SCORE:    0.00 PKD
ROOT
HETATM    1  N   UNL     1     -10.507  18.776  64.983  1.00  0.00     0.224 NA 
HETATM    2  C   UNL     1      -9.524  19.703  65.581  1.00  0.00     0.212 C  
HETATM    3  H1  UNL     1     -10.592  18.959  63.983  1.00  0.00     0.000 HD 
HETATM    4  H2  UNL     1     -11.408  18.815  65.459  1.00  0.00     0.000 HD 
ENDROOT
BRANCH   2   5
HETATM    5  C   UNL     1      -9.395  19.427  67.088  1.00  0.00    -0.320 C  
HETATM    6  O   UNL     1      -8.857  18.100  67.231  1.00  0.00    -0.246 OA 
HETATM    7  C   UNL     1      -8.504  17.807  68.581  1.00  0.00    -0.269 C  
HETATM    8  C   UNL     1      -9.803  17.750  69.436  1.00  0.00     0.082 C  
HETATM    9  O   UNL     1     -11.723  18.732  67.188  1.00  0.00     0.931 OA 
HETATM   10  H   UNL     1     -12.548  18.801  67.654  1.00  0.00     0.000 HD 
HETATM   11  N   UNL     1     -10.682  16.628  68.992  1.00  0.00    -0.333 NA 
HETATM   12  C   UNL     1     -10.546  19.101  69.318  1.00  0.00     0.666 C  
HETATM   13  H2  UNL     1     -10.188  15.736  68.998  1.00  0.00     0.000 HD 
HETATM   14  O   UNL     1      -9.882  20.122  70.075  1.00  0.00     0.009 OA 
HETATM   15  C   UNL     1     -10.735  19.538  67.845  1.00  0.00    -0.295 C  
HETATM   16  H1  UNL     1     -11.534  16.591  69.552  1.00  0.00     0.000 HD 
HETATM   17  H   UNL     1     -10.338  20.953  70.002  1.00  0.00     0.000 HD 
BRANCH   7  18
HETATM   18  O   UNL     1      -7.838  16.545  68.679  1.00  0.00    -0.201 OA 
BRANCH  18  19
HETATM   19  C   UNL     1      -7.602  15.909  67.410  1.00  0.00    -0.179 C  
HETATM   20  O   UNL     1      -6.087  14.317  68.548  1.00  0.00    -0.080 OA 
HETATM   21  C   UNL     1      -8.974  15.701  66.771  1.00  0.00    -0.261 C  
HETATM   22  C   UNL     1      -8.328  13.655  67.682  1.00  0.00    -0.182 C  
HETATM   23  H   UNL     1      -5.743  13.433  68.609  1.00  0.00     0.000 HD 
HETATM   24  O   UNL     1      -9.430  14.394  67.152  1.00  0.00    -0.208 OA 
HETATM   25  C   UNL     1      -7.053  14.496  67.509  1.00  0.00    -0.175 C  
BRANCH  21  26
HETATM   26  C   UNL     1      -8.965  15.780  65.244  1.00  0.00     1.280 C  
HETATM   27  H   UNL     1     -10.194  15.367  63.754  1.00  0.00     0.000 HD 
HETATM   28  O   UNL     1     -10.200  15.317  64.702  1.00  0.00    -0.191 OA 
ENDBRANCH  21  26
BRANCH  22  29
HETATM   29  O   UNL     1      -8.161  12.425  66.982  1.00  0.00    -0.174 OA 
BRANCH  29  30
HETATM   30  C   UNL     1      -8.635  11.213  67.601  1.00  0.00    -0.126 C  
HETATM   31  C   UNL     1      -9.366  11.536  68.919  1.00  0.00     0.007 C  
HETATM   32  O   UNL     1     -10.297  12.609  68.721  1.00  0.00    -0.343 OA 
HETATM   33  C   UNL     1     -10.108  10.299  69.439  1.00  0.00    -0.235 C  
HETATM   34  C   UNL     1      -9.093   9.194  69.733  1.00  0.00    -0.173 C  
HETATM   35  N   UNL     1     -10.889  10.620  70.649  1.00  0.00    -0.312 NA 
HETATM   36  H   UNL     1     -10.748  12.808  69.533  1.00  0.00     0.000 HD 
HETATM   37  H1  UNL     1     -11.382   9.798  70.996  1.00  0.00     0.000 HD 
HETATM   38  H2  UNL     1     -11.526  11.400  70.489  1.00  0.00     0.000 HD 
HETATM   39  C   UNL     1      -8.243   8.849  68.498  1.00  0.00    -0.116 C  
HETATM   40  C   UNL     1      -7.577  10.094  67.801  1.00  0.00    -0.090 C  
HETATM   41  N   UNL     1      -7.232   7.846  68.893  1.00  0.00    -0.074 NA 
HETATM   42  H2  UNL     1      -7.646   7.021  69.327  1.00  0.00     0.000 HD 
HETATM   43  H1  UNL     1      -6.668   7.618  68.074  1.00  0.00     0.000 HD 
BRANCH  40  44
HETATM   44  O   UNL     1      -6.984   9.608  66.575  1.00  0.00    -0.083 OA 
BRANCH  44  45
HETATM   45  C   UNL     1      -7.900   9.362  65.499  1.00  0.00    -0.103 C  
HETATM   46  O   UNL     1      -7.444   8.320  64.643  1.00  0.00    -0.089 OA 
HETATM   47  C   UNL     1      -7.423   7.017  65.224  1.00  0.00    -0.092 C  
HETATM   48  C   UNL     1      -8.836   6.618  65.660  1.00  0.00    -0.033 C  
HETATM   49  H1  UNL     1     -10.815   9.903  67.264  1.00  0.00     0.000 HD 
HETATM   50  H2  UNL     1      -9.826  11.020  66.501  1.00  0.00     0.000 HD 
HETATM   51  O   UNL     1      -8.872   5.331  66.281  1.00  0.00    -0.124 OA 
HETATM   52  C   UNL     1      -9.391   7.667  66.633  1.00  0.00    -0.190 C  
HETATM   53  H   UNL     1      -9.749   5.084  66.550  1.00  0.00     0.000 HD 
HETATM   54  O   UNL     1     -10.752   7.341  66.966  1.00  0.00    -0.332 OA 
HETATM   55  N   UNL     1      -9.871  10.095  66.929  1.00  0.00    -0.187 NA 
HETATM   56  C   UNL     1      -9.334   9.069  66.007  1.00  0.00    -0.242 C  
HETATM   57  H   UNL     1     -11.095   7.990  67.569  1.00  0.00     0.000 HD 
BRANCH  47  58
HETATM   58  C   UNL     1      -6.868   6.056  64.164  1.00  0.00    -0.046 C  
HETATM   59  O   UNL     1      -5.617   5.512  64.594  1.00  0.00    -0.016 OA 
HETATM   60  H   UNL     1      -5.273   4.918  63.937  1.00  0.00     0.000 HD 
ENDBRANCH  47  58
ENDBRANCH  44  45
ENDBRANCH  40  44
ENDBRANCH  29  30
ENDBRANCH  22  29
ENDBRANCH  18  19
ENDBRANCH   7  18
ENDBRANCH   2   5
TORSDOF 9
ENDMDL
MODEL      311
REMARK 921   NORMALIZED FREE ENERGY PREDICTED BY IDOCK:    8.13 KCAL/MOL
REMARK 922        TOTAL FREE ENERGY PREDICTED BY IDOCK:   10.37 KCAL/MOL
REMARK 923 INTER-LIGAND FREE ENERGY PREDICTED BY IDOCK:    3.12 KCAL/MOL
REMARK 924 INTRA-LIGAND FREE ENERGY PREDICTED BY IDOCK:    7.25 KCAL/MOL
REMARK 927      BINDING AFFINITY PREDICTED BY RF-SCORE:    0.00 PKD
ROOT
HETATM    1  N   UNL     1     -13.986   6.069  72.121  1.00  0.00     0.017 NA 
HETATM    2  C   UNL     1     -12.858   6.917  72.556  1.00  0.00     0.424 C  
HETATM    3  H1  UNL     1     -14.781   6.654  71.863  1.00  0.00     0.000 HD 
HETATM    4  H2  UNL     1     -14.234   5.371  72.823  1.00  0.00     0.000 HD 
ENDROOT
BRANCH   2   5
HETATM    5  C   UNL     1     -11.659   6.035  72.944  1.00  0.00    -0.078 C  
HETATM    6  O   UNL     1     -10.583   6.364  72.046  1.00  0.00    -0.206 OA 
HETATM    7  C   UNL     1      -9.355   5.755  72.435  1.00  0.00    -0.143 C  
HETATM    8  C   UNL     1      -9.487   4.213  72.268  1.00  0.00    -0.133 C  
HETATM    9  O   UNL     1     -12.526   4.213  71.586  1.00  0.00     4.521 OA 
HETATM   10  H   UNL     1     -12.715   3.283  71.540  1.00  0.00     0.000 HD 
HETATM   11  N   UNL     1      -9.687   3.850  70.834  1.00  0.00    -0.188 NA 
HETATM   12  C   UNL     1     -10.673   3.712  73.125  1.00  0.00    -0.175 C  
HETATM   13  H2  UNL     1      -8.948   4.231  70.242  1.00  0.00     0.000 HD 
HETATM   14  O   UNL     1     -10.336   3.709  74.520  1.00  0.00    -0.179 OA 
HETATM   15  C   UNL     1     -11.965   4.524  72.869  1.00  0.00     0.280 C  
HETATM   16  H1  UNL     1      -9.774   2.840  70.724  1.00  0.00     0.000 HD 
HETATM   17  H   UNL     1     -11.065   3.401  75.046  1.00  0.00     0.000 HD 
BRANCH   7  18
HETATM   18  O   UNL     1      -8.271   6.211  71.621  1.00  0.00    -0.116 OA 
BRANCH  18  19
HETATM   19  C   UNL     1      -8.256   5.646  70.297  1.00  0.00    -0.104 C  
HETATM   20  O   UNL     1      -9.491   7.634  69.491  1.00  0.00    -0.153 OA 
HETATM   21  C   UNL     1      -6.822   5.188  70.041  1.00  0.00    -0.052 C  
HETATM   22  C   UNL     1      -7.095   7.225  68.942  1.00  0.00    -0.084 C  
HETATM   23  H   UNL     1      -9.643   8.262  68.794  1.00  0.00     0.000 HD 
HETATM   24  O   UNL     1      -6.134   6.274  69.403  1.00  0.00    -0.027 OA 
HETATM   25  C   UNL     1      -8.500   6.650  69.183  1.00  0.00    -0.124 C  
BRANCH  21  26
HETATM   26  C   UNL     1      -6.718   3.956  69.140  1.00  0.00    -0.045 C  
HETATM   27  H   UNL     1      -6.977   2.005  69.301  1.00  0.00     0.000 HD 
HETATM   28  O   UNL     1      -7.042   2.769  69.860  1.00  0.00    -0.034 OA 
ENDBRANCH  21  26
BRANCH  22  29
HETATM   29  O   UNL     1      -6.936   7.469  67.548  1.00  0.00    -0.075 OA 
BRANCH  29  30
HETATM   30  C   UNL     1      -7.126   8.811  67.059  1.00  0.00    -0.078 C  
HETATM   31  C   UNL     1      -5.937   9.231  66.172  1.00  0.00    -0.059 C  
HETATM   32  O   UNL     1      -5.634   8.198  65.225  1.00  0.00    -0.042 OA 
HETATM   33  C   UNL     1      -6.254  10.535  65.430  1.00  0.00    -0.110 C  
HETATM   34  C   UNL     1      -6.484  11.649  66.451  1.00  0.00     0.109 C  
HETATM   35  N   UNL     1      -5.162  10.897  64.506  1.00  0.00    -0.400 NA 
HETATM   36  H   UNL     1      -4.902   8.457  64.678  1.00  0.00     0.000 HD 
HETATM   37  H1  UNL     1      -5.372  11.764  64.012  1.00  0.00     0.000 HD 
HETATM   38  H2  UNL     1      -4.951  10.138  63.858  1.00  0.00     0.000 HD 
HETATM   39  C   UNL     1      -7.601  11.296  67.448  1.00  0.00    -0.120 C  
HETATM   40  C   UNL     1      -7.436   9.888  68.135  1.00  0.00    -0.080 C  
HETATM   41  N   UNL     1      -7.693  12.377  68.450  1.00  0.00    -0.140 NA 
HETATM   42  H2  UNL     1      -7.822  13.296  68.026  1.00  0.00     0.000 HD 
HETATM   43  H1  UNL     1      -8.434  12.143  69.111  1.00  0.00     0.000 HD 
BRANCH  40  44
HETATM   44  O   UNL     1      -8.653   9.651  68.881  1.00  0.00    -0.119 OA 
BRANCH  44  45
HETATM   45  C   UNL     1      -9.873   9.958  68.191  1.00  0.00    -0.147 C  
HETATM   46  O   UNL     1     -10.091   9.085  67.089  1.00  0.00    -0.202 OA 
HETATM   47  C   UNL     1     -10.360   7.725  67.430  1.00  0.00    -0.284 C  
HETATM   48  C   UNL     1     -11.624   7.645  68.289  1.00  0.00     1.305 C  
HETATM   49  H1  UNL     1     -11.741  10.830  70.958  1.00  0.00     0.000 HD 
HETATM   50  H2  UNL     1     -10.697  11.779  70.054  1.00  0.00     0.000 HD 
HETATM   51  O   UNL     1     -11.926   6.307  68.690  1.00  0.00    -0.053 OA 
HETATM   52  C   UNL     1     -11.456   8.522  69.538  1.00  0.00     0.438 C  
HETATM   53  H   UNL     1     -12.711   6.257  69.223  1.00  0.00     0.000 HD 
HETATM   54  O   UNL     1     -12.679   8.520  70.295  1.00  0.00     0.041 OA 
HETATM   55  N   UNL     1     -10.936  10.827  70.332  1.00  0.00    -0.119 NA 
HETATM   56  C   UNL     1     -11.097   9.962  69.141  1.00  0.00    -0.159 C  
HETATM   57  H   UNL     1     -12.575   9.063  71.068  1.00  0.00     0.000 HD 
BRANCH  47  58
HETATM   58  C   UNL     1     -10.523   6.952  66.114  1.00  0.00     0.661 C  
HETATM   59  O   UNL     1     -11.474   5.896  66.273  1.00  0.00    -0.648 OA 
HETATM   60  H   UNL     1     -11.575   5.418  65.458  1.00  0.00     0.000 HD 
ENDBRANCH  47  58
ENDBRANCH  44  45
ENDBRANCH  40  44
ENDBRANCH  29  30
ENDBRANCH  22  29
ENDBRANCH  18  19
ENDBRANCH   7  18
ENDBRANCH   2   5
TORSDOF 9
ENDMDL
MODEL      312
REMARK 921   NORMALIZED FREE ENERGY PREDICTED BY IDOCK:    8.80 KCAL/MOL
REMARK 922        TOTAL FREE ENERGY PREDICTED BY IDOCK:   11.38 KCAL/MOL
REMARK 923 INTER-LIGAND FREE ENERGY PREDICTED BY IDOCK:   -4.95 KCAL/MOL
REMARK 924 INTRA-LIGAND FREE ENERGY PREDICTED BY IDOCK:   16.33 KCAL/MOL
REMARK 927      BINDING AFFINITY PREDICTED BY RF-SCORE:    0.00 PKD
ROOT
HETATM    1  N   UNL     1     -12.059  11.314  68.893  1.00  0.00    -0.502 NA 
HETATM    2  C   UNL     1     -11.266  12.259  69.705  1.00  0.00     0.030 C  
HETATM    3  H1  UNL     1     -11.725  10.362  69.045  1.00  0.00     0.000 HD 
HETATM    4  H2  UNL     1     -12.061  11.567  67.904  1.00  0.00     0.000 HD 
ENDROOT
BRANCH   2   5
HETATM    5  C   UNL     1     -11.769  13.694  69.476  1.00  0.00    -0.322 C  
HETATM    6  O   UNL     1     -10.749  14.387  68.733  1.00  0.00    -0.239 OA 
HETATM    7  C   UNL     1     -11.188  15.669  68.287  1.00  0.00    -0.353 C  
HETATM    8  C   UNL     1     -11.398  16.585  69.528  1.00  0.00    -0.087 C  
HETATM    9  O   UNL     1     -10.939  14.363  71.662  1.00  0.00     0.194 OA 
HETATM   10  H   UNL     1     -11.126  14.828  72.469  1.00  0.00     0.000 HD 
HETATM   11  N   UNL     1     -10.106  16.820  70.238  1.00  0.00     0.620 NA 
HETATM   12  C   UNL     1     -12.426  15.924  70.475  1.00  0.00    -0.203 C  
HETATM   13  H2  UNL     1      -9.393  17.192  69.610  1.00  0.00     0.000 HD 
HETATM   14  O   UNL     1     -13.756  16.034  69.950  1.00  0.00     0.232 OA 
HETATM   15  C   UNL     1     -12.072  14.451  70.787  1.00  0.00    -0.338 C  
HETATM   16  H1  UNL     1     -10.243  17.421  71.051  1.00  0.00     0.000 HD 
HETATM   17  H   UNL     1     -14.388  15.628  70.532  1.00  0.00     0.000 HD 
BRANCH   7  18
HETATM   18  O   UNL     1     -10.219  16.276  67.429  1.00  0.00    -0.262 OA 
BRANCH  18  19
HETATM   19  C   UNL     1      -9.829  15.456  66.313  1.00  0.00    -0.297 C  
HETATM   20  O   UNL     1      -7.466  16.015  66.794  1.00  0.00    -0.225 OA 
HETATM   21  C   UNL     1     -10.595  14.142  66.456  1.00  0.00    -0.282 C  
HETATM   22  C   UNL     1      -8.429  13.758  67.228  1.00  0.00    -0.194 C  
HETATM   23  H   UNL     1      -6.558  15.736  66.809  1.00  0.00     0.000 HD 
HETATM   24  O   UNL     1      -9.759  13.238  67.196  1.00  0.00    -0.225 OA 
HETATM   25  C   UNL     1      -8.376  15.011  66.339  1.00  0.00     0.189 C  
BRANCH  21  26
HETATM   26  C   UNL     1     -10.951  13.484  65.122  1.00  0.00    -0.320 C  
HETATM   27  H   UNL     1     -11.358  14.056  63.276  1.00  0.00     0.000 HD 
HETATM   28  O   UNL     1     -11.137  14.465  64.104  1.00  0.00    -0.133 OA 
ENDBRANCH  21  26
BRANCH  22  29
HETATM   29  O   UNL     1      -7.502  12.802  66.722  1.00  0.00     0.108 OA 
BRANCH  29  30
HETATM   30  C   UNL     1      -7.778  11.402  66.928  1.00  0.00    -0.155 C  
HETATM   31  C   UNL     1      -8.461  10.804  65.683  1.00  0.00    -0.163 C  
HETATM   32  O   UNL     1      -7.759  11.192  64.494  1.00  0.00    -0.127 OA 
HETATM   33  C   UNL     1      -8.508   9.274  65.778  1.00  0.00    -0.135 C  
HETATM   34  C   UNL     1      -9.338   8.874  66.998  1.00  0.00    -0.194 C  
HETATM   35  N   UNL     1      -9.075   8.684  64.550  1.00  0.00    -0.357 NA 
HETATM   36  H   UNL     1      -8.180  10.823  63.728  1.00  0.00     0.000 HD 
HETATM   37  H1  UNL     1      -9.107   7.667  64.613  1.00  0.00     0.000 HD 
HETATM   38  H2  UNL     1      -8.572   8.993  63.718  1.00  0.00     0.000 HD 
HETATM   39  C   UNL     1      -8.790   9.491  68.296  1.00  0.00    -0.124 C  
HETATM   40  C   UNL     1      -8.554  11.047  68.225  1.00  0.00    -0.143 C  
HETATM   41  N   UNL     1      -9.699   9.133  69.404  1.00  0.00    -0.166 NA 
HETATM   42  H2  UNL     1      -9.847   8.127  69.481  1.00  0.00     0.000 HD 
HETATM   43  H1  UNL     1      -9.335   9.542  70.265  1.00  0.00     0.000 HD 
BRANCH  40  44
HETATM   44  O   UNL     1      -7.873  11.414  69.447  1.00  0.00     0.024 OA 
BRANCH  44  45
HETATM   45  C   UNL     1      -6.509  10.982  69.550  1.00  0.00    -0.109 C  
HETATM   46  O   UNL     1      -6.225  10.423  70.827  1.00  0.00    -0.227 OA 
HETATM   47  C   UNL     1      -6.875   9.185  71.111  1.00  0.00    -0.086 C  
HETATM   48  C   UNL     1      -6.455   8.129  70.086  1.00  0.00    -0.036 C  
HETATM   49  H1  UNL     1      -6.158   9.845  66.311  1.00  0.00     0.000 HD 
HETATM   50  H2  UNL     1      -5.974  11.401  66.904  1.00  0.00     0.000 HD 
HETATM   51  O   UNL     1      -7.101   6.873  70.301  1.00  0.00    -0.064 OA 
HETATM   52  C   UNL     1      -6.775   8.628  68.670  1.00  0.00    -0.059 C  
HETATM   53  H   UNL     1      -6.840   6.218  69.664  1.00  0.00     0.000 HD 
HETATM   54  O   UNL     1      -6.293   7.678  67.704  1.00  0.00    -0.047 OA 
HETATM   55  N   UNL     1      -6.413  10.493  67.056  1.00  0.00    -0.072 NA 
HETATM   56  C   UNL     1      -6.121   9.996  68.419  1.00  0.00    -0.045 C  
HETATM   57  H   UNL     1      -6.491   7.987  66.828  1.00  0.00     0.000 HD 
BRANCH  47  58
HETATM   58  C   UNL     1      -6.474   8.779  72.536  1.00  0.00    -0.005 C  
HETATM   59  O   UNL     1      -6.169   7.382  72.587  1.00  0.00    -0.050 OA 
HETATM   60  H   UNL     1      -5.920   7.131  73.468  1.00  0.00     0.000 HD 
ENDBRANCH  47  58
ENDBRANCH  44  45
ENDBRANCH  40  44
ENDBRANCH  29  30
ENDBRANCH  22  29
ENDBRANCH  18  19
ENDBRANCH   7  18
ENDBRANCH   2   5
TORSDOF 9
ENDMDL
MODEL      313
REMARK 921   NORMALIZED FREE ENERGY PREDICTED BY IDOCK:    9.13 KCAL/MOL
REMARK 922        TOTAL FREE ENERGY PREDICTED BY IDOCK:   11.89 KCAL/MOL
REMARK 923 INTER-LIGAND FREE ENERGY PREDICTED BY IDOCK:    2.02 KCAL/MOL
REMARK 924 INTRA-LIGAND FREE ENERGY PREDICTED BY IDOCK:    9.87 KCAL/MOL
REMARK 927      BINDING AFFINITY PREDICTED BY RF-SCORE:    0.00 PKD
ROOT
HETATM    1  N   UNL     1     -10.676   9.747  65.502  1.00  0.00     0.332 NA 
HETATM    2  C   UNL     1     -11.477  10.863  66.045  1.00  0.00     0.609 C  
HETATM    3  H1  UNL     1     -10.646   8.982  66.176  1.00  0.00     0.000 HD 
HETATM    4  H2  UNL     1      -9.743  10.047  65.220  1.00  0.00     0.000 HD 
ENDROOT
BRANCH   2   5
HETATM    5  C   UNL     1     -11.523  12.016  65.028  1.00  0.00    -0.286 C  
HETATM    6  O   UNL     1     -10.412  12.883  65.321  1.00  0.00    -0.285 OA 
HETATM    7  C   UNL     1     -10.232  13.881  64.318  1.00  0.00     0.379 C  
HETATM    8  C   UNL     1     -11.448  14.851  64.356  1.00  0.00    -0.247 C  
HETATM    9  O   UNL     1     -13.111  13.219  66.424  1.00  0.00     0.150 OA 
HETATM   10  H   UNL     1     -13.923  13.711  66.451  1.00  0.00     0.000 HD 
HETATM   11  N   UNL     1     -11.503  15.584  65.656  1.00  0.00    -0.056 NA 
HETATM   12  C   UNL     1     -12.747  14.042  64.133  1.00  0.00     0.117 C  
HETATM   13  H2  UNL     1     -10.628  16.069  65.853  1.00  0.00     0.000 HD 
HETATM   14  O   UNL     1     -12.880  13.648  62.760  1.00  0.00    -0.452 OA 
HETATM   15  C   UNL     1     -12.842  12.817  65.074  1.00  0.00    -0.233 C  
HETATM   16  H1  UNL     1     -12.301  16.219  65.681  1.00  0.00     0.000 HD 
HETATM   17  H   UNL     1     -13.677  13.150  62.624  1.00  0.00     0.000 HD 
BRANCH   7  18
HETATM   18  O   UNL     1      -9.039  14.636  64.549  1.00  0.00     1.953 OA 
BRANCH  18  19
HETATM   19  C   UNL     1      -9.143  15.577  65.633  1.00  0.00     0.107 C  
HETATM   20  O   UNL     1     -10.269  13.829  66.975  1.00  0.00    -0.250 OA 
HETATM   21  C   UNL     1      -7.764  16.218  65.780  1.00  0.00     1.248 C  
HETATM   22  C   UNL     1      -7.946  14.597  67.446  1.00  0.00    -0.201 C  
HETATM   23  H   UNL     1     -10.413  13.433  67.827  1.00  0.00     0.000 HD 
HETATM   24  O   UNL     1      -7.034  15.445  66.744  1.00  0.00    -0.130 OA 
HETATM   25  C   UNL     1      -9.374  14.944  66.994  1.00  0.00    -0.227 C  
BRANCH  21  26
HETATM   26  C   UNL     1      -7.804  17.670  66.259  1.00  0.00    -0.273 C  
HETATM   27  H   UNL     1      -7.186  19.434  65.620  1.00  0.00     0.000 HD 
HETATM   28  O   UNL     1      -7.161  18.532  65.323  1.00  0.00    -0.521 OA 
ENDBRANCH  21  26
BRANCH  22  29
HETATM   29  O   UNL     1      -7.849  14.807  68.852  1.00  0.00    -0.138 OA 
BRANCH  29  30
HETATM   30  C   UNL     1      -8.956  15.433  69.530  1.00  0.00    -0.229 C  
HETATM   31  C   UNL     1     -10.202  14.527  69.470  1.00  0.00     0.040 C  
HETATM   32  O   UNL     1      -9.856  13.182  69.828  1.00  0.00     0.607 OA 
HETATM   33  C   UNL     1     -11.292  15.048  70.414  1.00  0.00    -0.270 C  
HETATM   34  C   UNL     1     -11.716  16.447  69.965  1.00  0.00     0.110 C  
HETATM   35  N   UNL     1     -12.453  14.138  70.437  1.00  0.00    -0.349 NA 
HETATM   36  H   UNL     1     -10.624  12.624  69.792  1.00  0.00     0.000 HD 
HETATM   37  H1  UNL     1     -13.178  14.484  71.064  1.00  0.00     0.000 HD 
HETATM   38  H2  UNL     1     -12.177  13.184  70.672  1.00  0.00     0.000 HD 
HETATM   39  C   UNL     1     -10.525  17.419  69.906  1.00  0.00     0.404 C  
HETATM   40  C   UNL     1      -9.290  16.884  69.088  1.00  0.00    -0.121 C  
HETATM   41  N   UNL     1     -11.004  18.713  69.375  1.00  0.00     0.831 NA 
HETATM   42  H2  UNL     1     -11.790  19.087  69.906  1.00  0.00     0.000 HD 
HETATM   43  H1  UNL     1     -10.214  19.357  69.337  1.00  0.00     0.000 HD 
BRANCH  40  44
HETATM   44  O   UNL     1      -8.219  17.833  69.296  1.00  0.00     0.020 OA 
BRANCH  44  45
HETATM   45  C   UNL     1      -8.629  19.172  69.606  1.00  0.00     0.533 C  
HETATM   46  O   UNL     1      -7.773  19.779  70.567  1.00  0.00     0.649 OA 
HETATM   47  C   UNL     1      -6.444  20.048  70.120  1.00  0.00    -0.289 C  
HETATM   48  C   UNL     1      -6.481  21.003  68.924  1.00  0.00     0.306 C  
HETATM   49  H1  UNL     1      -9.678  20.059  66.441  1.00  0.00     0.000 HD 
HETATM   50  H2  UNL     1     -10.526  19.253  67.641  1.00  0.00     0.000 HD 
HETATM   51  O   UNL     1      -5.177  21.284  68.410  1.00  0.00    -0.406 OA 
HETATM   52  C   UNL     1      -7.346  20.400  67.808  1.00  0.00    -0.281 C  
HETATM   53  H   UNL     1      -5.200  21.877  67.669  1.00  0.00     0.000 HD 
HETATM   54  O   UNL     1      -7.458  21.340  66.725  1.00  0.00    -0.702 OA 
HETATM   55  N   UNL     1      -9.600  19.478  67.275  1.00  0.00    -0.323 NA 
HETATM   56  C   UNL     1      -8.747  20.056  68.339  1.00  0.00    -0.075 C  
HETATM   57  H   UNL     1      -7.993  20.967  66.035  1.00  0.00     0.000 HD 
BRANCH  47  58
HETATM   58  C   UNL     1      -5.682  20.656  71.305  1.00  0.00    -0.055 C  
HETATM   59  O   UNL     1      -6.569  20.879  72.404  1.00  0.00     0.025 OA 
HETATM   60  H   UNL     1      -6.097  21.255  73.137  1.00  0.00     0.000 HD 
ENDBRANCH  47  58
ENDBRANCH  44  45
ENDBRANCH  40  44
ENDBRANCH  29  30
ENDBRANCH  22  29
ENDBRANCH  18  19
ENDBRANCH   7  18
ENDBRANCH   2   5
TORSDOF 9
ENDMDL
MODEL      314
REMARK 921   NORMALIZED FREE ENERGY PREDICTED BY IDOCK:    9.18 KCAL/MOL
REMARK 922        TOTAL FREE ENERGY PREDICTED BY IDOCK:   11.97 KCAL/MOL
REMARK 923 INTER-LIGAND FREE ENERGY PREDICTED BY IDOCK:    6.78 KCAL/MOL
REMARK 924 INTRA-LIGAND FREE ENERGY PREDICTED BY IDOCK:    5.18 KCAL/MOL
REMARK 927      BINDING AFFINITY PREDICTED BY RF-SCORE:    0.00 PKD
ROOT
HETATM    1  N   UNL     1      -8.031   9.148  72.339  1.00  0.00    -0.050 NA 
HETATM    2  C   UNL     1      -9.396   9.641  72.068  1.00  0.00     1.994 C  
HETATM    3  H1  UNL     1      -7.644   9.628  73.152  1.00  0.00     0.000 HD 
HETATM    4  H2  UNL     1      -7.425   9.228  71.522  1.00  0.00     0.000 HD 
ENDROOT
BRANCH   2   5
HETATM    5  C   UNL     1      -9.980   8.917  70.843  1.00  0.00    -0.242 C  
HETATM    6  O   UNL     1      -9.596   9.674  69.681  1.00  0.00    -0.181 OA 
HETATM    7  C   UNL     1      -9.909   8.992  68.469  1.00  0.00    -0.169 C  
HETATM    8  C   UNL     1     -11.456   8.903  68.330  1.00  0.00     0.958 C  
HETATM    9  O   UNL     1     -12.108  10.052  71.151  1.00  0.00    -0.322 OA 
HETATM   10  H   UNL     1     -13.053   9.963  71.183  1.00  0.00     0.000 HD 
HETATM   11  N   UNL     1     -12.056  10.264  68.199  1.00  0.00    -0.231 NA 
HETATM   12  C   UNL     1     -12.033   8.172  69.565  1.00  0.00     1.289 C  
HETATM   13  H2  UNL     1     -11.638  10.788  67.430  1.00  0.00     0.000 HD 
HETATM   14  O   UNL     1     -11.770   6.764  69.500  1.00  0.00    -0.614 OA 
HETATM   15  C   UNL     1     -11.515   8.772  70.895  1.00  0.00    -0.284 C  
HETATM   16  H1  UNL     1     -13.071  10.206  68.109  1.00  0.00     0.000 HD 
HETATM   17  H   UNL     1     -12.124   6.315  70.259  1.00  0.00     0.000 HD 
BRANCH   7  18
HETATM   18  O   UNL     1      -9.388   9.690  67.334  1.00  0.00    -0.133 OA 
BRANCH  18  19
HETATM   19  C   UNL     1      -7.955   9.819  67.334  1.00  0.00    -0.102 C  
HETATM   20  O   UNL     1      -7.846   8.040  69.051  1.00  0.00    -0.105 OA 
HETATM   21  C   UNL     1      -7.523   9.823  65.869  1.00  0.00    -0.103 C  
HETATM   22  C   UNL     1      -7.121   7.680  66.694  1.00  0.00    -0.079 C  
HETATM   23  H   UNL     1      -7.384   7.290  69.409  1.00  0.00     0.000 HD 
HETATM   24  O   UNL     1      -7.232   8.465  65.505  1.00  0.00    -0.076 OA 
HETATM   25  C   UNL     1      -7.217   8.621  67.906  1.00  0.00    -0.088 C  
BRANCH  21  26
HETATM   26  C   UNL     1      -6.281  10.672  65.592  1.00  0.00    -0.115 C  
HETATM   27  H   UNL     1      -5.289  12.136  66.470  1.00  0.00     0.000 HD 
HETATM   28  O   UNL     1      -6.060  11.610  66.642  1.00  0.00    -0.149 OA 
ENDBRANCH  21  26
BRANCH  22  29
HETATM   29  O   UNL     1      -5.867   7.006  66.739  1.00  0.00    -0.024 OA 
BRANCH  29  30
HETATM   30  C   UNL     1      -5.864   5.568  66.838  1.00  0.00    -0.018 C  
HETATM   31  C   UNL     1      -6.033   4.935  65.443  1.00  0.00    -0.022 C  
HETATM   32  O   UNL     1      -5.144   5.556  64.504  1.00  0.00    -0.009 OA 
HETATM   33  C   UNL     1      -5.756   3.429  65.498  1.00  0.00    -0.018 C  
HETATM   34  C   UNL     1      -6.770   2.767  66.431  1.00  0.00    -0.043 C  
HETATM   35  N   UNL     1      -5.822   2.828  64.152  1.00  0.00    -0.010 NA 
HETATM   36  H   UNL     1      -5.248   5.166  63.644  1.00  0.00     0.000 HD 
HETATM   37  H1  UNL     1      -5.638   1.825  64.188  1.00  0.00     0.000 HD 
HETATM   38  H2  UNL     1      -5.198   3.301  63.498  1.00  0.00     0.000 HD 
HETATM   39  C   UNL     1      -6.746   3.385  67.840  1.00  0.00    -0.045 C  
HETATM   40  C   UNL     1      -6.859   4.956  67.861  1.00  0.00    -0.060 C  
HETATM   41  N   UNL     1      -7.814   2.756  68.644  1.00  0.00    -0.054 NA 
HETATM   42  H2  UNL     1      -7.745   1.739  68.661  1.00  0.00     0.000 HD 
HETATM   43  H1  UNL     1      -7.798   3.166  69.578  1.00  0.00     0.000 HD 
BRANCH  40  44
HETATM   44  O   UNL     1      -6.634   5.364  69.230  1.00  0.00    -0.043 OA 
BRANCH  44  45
HETATM   45  C   UNL     1      -7.564   6.324  69.751  1.00  0.00    -0.086 C  
HETATM   46  O   UNL     1      -8.899   6.039  69.351  1.00  0.00    -0.120 OA 
HETATM   47  C   UNL     1      -9.464   4.853  69.907  1.00  0.00    -0.160 C  
HETATM   48  C   UNL     1      -9.494   4.958  71.434  1.00  0.00    -0.155 C  
HETATM   49  H1  UNL     1      -6.036   6.811  72.806  1.00  0.00     0.000 HD 
HETATM   50  H2  UNL     1      -5.709   7.550  71.338  1.00  0.00     0.000 HD 
HETATM   51  O   UNL     1     -10.022   3.781  72.051  1.00  0.00    -0.168 OA 
HETATM   52  C   UNL     1      -8.076   5.214  71.962  1.00  0.00    -0.113 C  
HETATM   53  H   UNL     1     -10.041   3.846  72.998  1.00  0.00     0.000 HD 
HETATM   54  O   UNL     1      -8.121   5.407  73.387  1.00  0.00    -0.110 OA 
HETATM   55  N   UNL     1      -6.100   6.724  71.792  1.00  0.00    -0.038 NA 
HETATM   56  C   UNL     1      -7.467   6.456  71.292  1.00  0.00    -0.089 C  
HETATM   57  H   UNL     1      -7.243   5.566  73.713  1.00  0.00     0.000 HD 
BRANCH  47  58
HETATM   58  C   UNL     1     -10.877   4.707  69.324  1.00  0.00     1.412 C  
HETATM   59  O   UNL     1     -11.771   4.190  70.313  1.00  0.00     5.556 OA 
HETATM   60  H   UNL     1     -12.645   4.100  69.952  1.00  0.00     0.000 HD 
ENDBRANCH  47  58
ENDBRANCH  44  45
ENDBRANCH  40  44
ENDBRANCH  29  30
ENDBRANCH  22  29
ENDBRANCH  18  19
ENDBRANCH   7  18
ENDBRANCH   2   5
TORSDOF 9
ENDMDL
MODEL      315
REMARK 921   NORMALIZED FREE ENERGY PREDICTED BY IDOCK:    9.32 KCAL/MOL
REMARK 922        TOTAL FREE ENERGY PREDICTED BY IDOCK:   12.17 KCAL/MOL
REMARK 923 INTER-LIGAND FREE ENERGY PREDICTED BY IDOCK:   -7.98 KCAL/MOL
REMARK 924 INTRA-LIGAND FREE ENERGY PREDICTED BY IDOCK:   20.15 KCAL/MOL
REMARK 927      BINDING AFFINITY PREDICTED BY RF-SCORE:    0.00 PKD
ROOT
HETATM    1  N   UNL     1      -7.842  14.200  69.306  1.00  0.00    -0.346 NA 
HETATM    2  C   UNL     1      -8.941  15.165  69.096  1.00  0.00    -0.219 C  
HETATM    3  H1  UNL     1      -7.070  14.655  69.792  1.00  0.00     0.000 HD 
HETATM    4  H2  UNL     1      -7.543  13.765  68.433  1.00  0.00     0.000 HD 
ENDROOT
BRANCH   2   5
HETATM    5  C   UNL     1     -10.106  14.479  68.363  1.00  0.00    -0.241 C  
HETATM    6  O   UNL     1      -9.762  13.087  68.230  1.00  0.00    -0.222 OA 
HETATM    7  C   UNL     1     -10.854  12.309  67.745  1.00  0.00    -0.221 C  
HETATM    8  C   UNL     1     -11.156  12.734  66.278  1.00  0.00    -0.288 C  
HETATM    9  O   UNL     1      -9.177  15.138  66.214  1.00  0.00    -0.282 OA 
HETATM   10  H   UNL     1      -9.354  15.512  65.359  1.00  0.00     0.000 HD 
HETATM   11  N   UNL     1     -10.002  12.418  65.386  1.00  0.00    -0.333 NA 
HETATM   12  C   UNL     1     -11.471  14.247  66.245  1.00  0.00    -0.357 C  
HETATM   13  H2  UNL     1      -9.735  11.436  65.447  1.00  0.00     0.000 HD 
HETATM   14  O   UNL     1     -12.776  14.514  66.778  1.00  0.00    -0.422 OA 
HETATM   15  C   UNL     1     -10.393  15.085  66.973  1.00  0.00    -0.269 C  
HETATM   16  H1  UNL     1     -10.200  12.697  64.425  1.00  0.00     0.000 HD 
HETATM   17  H   UNL     1     -12.969  15.444  66.757  1.00  0.00     0.000 HD 
BRANCH   7  18
HETATM   18  O   UNL     1     -10.541  10.914  67.761  1.00  0.00    -0.190 OA 
BRANCH  18  19
HETATM   19  C   UNL     1      -9.130  10.631  67.796  1.00  0.00    -0.143 C  
HETATM   20  O   UNL     1      -9.235  10.672  70.268  1.00  0.00     0.013 OA 
HETATM   21  C   UNL     1      -8.898   9.476  66.824  1.00  0.00    -0.131 C  
HETATM   22  C   UNL     1      -8.921   8.568  68.970  1.00  0.00    -0.146 C  
HETATM   23  H   UNL     1      -8.925  10.322  71.095  1.00  0.00     0.000 HD 
HETATM   24  O   UNL     1      -8.990   8.258  67.577  1.00  0.00    -0.133 OA 
HETATM   25  C   UNL     1      -8.634  10.071  69.118  1.00  0.00    -0.158 C  
BRANCH  21  26
HETATM   26  C   UNL     1      -7.534   9.513  66.132  1.00  0.00    -0.100 C  
HETATM   27  H   UNL     1      -5.634   9.613  66.660  1.00  0.00     0.000 HD 
HETATM   28  O   UNL     1      -6.480   9.590  67.089  1.00  0.00    -0.065 OA 
ENDBRANCH  21  26
BRANCH  22  29
HETATM   29  O   UNL     1      -7.870   7.840  69.598  1.00  0.00    -0.103 OA 
BRANCH  29  30
HETATM   30  C   UNL     1      -8.102   7.294  70.911  1.00  0.00    -0.106 C  
HETATM   31  C   UNL     1      -7.267   8.052  71.962  1.00  0.00    -0.082 C  
HETATM   32  O   UNL     1      -7.403   9.468  71.779  1.00  0.00    -0.232 OA 
HETATM   33  C   UNL     1      -7.708   7.669  73.379  1.00  0.00    -0.112 C  
HETATM   34  C   UNL     1      -7.470   6.174  73.591  1.00  0.00    -0.091 C  
HETATM   35  N   UNL     1      -6.981   8.458  74.392  1.00  0.00    -0.165 NA 
HETATM   36  H   UNL     1      -6.889   9.934  72.426  1.00  0.00     0.000 HD 
HETATM   37  H1  UNL     1      -7.274   8.203  75.335  1.00  0.00     0.000 HD 
HETATM   38  H2  UNL     1      -7.076   9.459  74.227  1.00  0.00     0.000 HD 
HETATM   39  C   UNL     1      -8.196   5.320  72.537  1.00  0.00    -0.114 C  
HETATM   40  C   UNL     1      -7.924   5.757  71.049  1.00  0.00    -0.115 C  
HETATM   41  N   UNL     1      -7.838   3.903  72.757  1.00  0.00    -0.073 NA 
HETATM   42  H2  UNL     1      -8.027   3.594  73.710  1.00  0.00     0.000 HD 
HETATM   43  H1  UNL     1      -8.319   3.337  72.058  1.00  0.00     0.000 HD 
BRANCH  40  44
HETATM   44  O   UNL     1      -8.818   4.977  70.222  1.00  0.00    -0.110 OA 
BRANCH  44  45
HETATM   45  C   UNL     1     -10.194   4.977  70.627  1.00  0.00    -0.235 C  
HETATM   46  O   UNL     1     -10.345   4.602  71.992  1.00  0.00    -0.194 OA 
HETATM   47  C   UNL     1      -9.829   5.533  72.943  1.00  0.00    -0.163 C  
HETATM   48  C   UNL     1     -10.544   6.878  72.794  1.00  0.00    -0.240 C  
HETATM   49  H1  UNL     1     -11.202   7.708  68.774  1.00  0.00     0.000 HD 
HETATM   50  H2  UNL     1     -11.081   6.104  68.302  1.00  0.00     0.000 HD 
HETATM   51  O   UNL     1     -10.046   7.864  73.701  1.00  0.00    -0.285 OA 
HETATM   52  C   UNL     1     -10.388   7.389  71.355  1.00  0.00    -0.194 C  
HETATM   53  H   UNL     1     -10.489   8.698  73.609  1.00  0.00     0.000 HD 
HETATM   54  O   UNL     1     -11.140   8.605  71.192  1.00  0.00    -0.242 OA 
HETATM   55  N   UNL     1     -10.748   6.813  68.956  1.00  0.00    -0.232 NA 
HETATM   56  C   UNL     1     -10.885   6.337  70.352  1.00  0.00    -0.299 C  
HETATM   57  H   UNL     1     -11.043   8.921  70.301  1.00  0.00     0.000 HD 
BRANCH  47  58
HETATM   58  C   UNL     1     -10.051   4.927  74.336  1.00  0.00    -0.235 C  
HETATM   59  O   UNL     1      -9.776   3.524  74.316  1.00  0.00    -0.100 OA 
HETATM   60  H   UNL     1      -9.913   3.149  75.178  1.00  0.00     0.000 HD 
ENDBRANCH  47  58
ENDBRANCH  44  45
ENDBRANCH  40  44
ENDBRANCH  29  30
ENDBRANCH  22  29
ENDBRANCH  18  19
ENDBRANCH   7  18
ENDBRANCH   2   5
TORSDOF 9
ENDMDL
MODEL      316
REMARK 921   NORMALIZED FREE ENERGY PREDICTED BY IDOCK:    9.59 KCAL/MOL
REMARK 922        TOTAL FREE ENERGY PREDICTED BY IDOCK:   12.59 KCAL/MOL
REMARK 923 INTER-LIGAND FREE ENERGY PREDICTED BY IDOCK:    4.39 KCAL/MOL
REMARK 924 INTRA-LIGAND FREE ENERGY PREDICTED BY IDOCK:    8.20 KCAL/MOL
REMARK 927      BINDING AFFINITY PREDICTED BY RF-SCORE:    0.00 PKD
ROOT
HETATM    1  N   UNL     1      -7.729  14.610  69.849  1.00  0.00    -0.391 NA 
HETATM    2  C   UNL     1      -8.684  15.604  70.382  1.00  0.00     1.308 C  
HETATM    3  H1  UNL     1      -6.773  14.927  70.010  1.00  0.00     0.000 HD 
HETATM    4  H2  UNL     1      -7.903  14.400  68.866  1.00  0.00     0.000 HD 
ENDROOT
BRANCH   2   5
HETATM    5  C   UNL     1     -10.125  15.125  70.140  1.00  0.00    -0.018 C  
HETATM    6  O   UNL     1     -10.059  13.722  69.827  1.00  0.00     0.559 OA 
HETATM    7  C   UNL     1     -11.351  13.121  69.781  1.00  0.00    -0.049 C  
HETATM    8  C   UNL     1     -12.132  13.710  68.570  1.00  0.00    -0.286 C  
HETATM    9  O   UNL     1     -10.013  15.869  67.827  1.00  0.00    -0.225 OA 
HETATM   10  H   UNL     1     -10.451  16.337  67.126  1.00  0.00     0.000 HD 
HETATM   11  N   UNL     1     -11.467  13.349  67.283  1.00  0.00    -0.322 NA 
HETATM   12  C   UNL     1     -12.219  15.247  68.724  1.00  0.00    -0.049 C  
HETATM   13  H2  UNL     1     -11.339  12.340  67.195  1.00  0.00     0.000 HD 
HETATM   14  O   UNL     1     -13.166  15.611  69.737  1.00  0.00    -0.426 OA 
HETATM   15  C   UNL     1     -10.837  15.886  69.001  1.00  0.00    -0.266 C  
HETATM   16  H1  UNL     1     -11.979  13.735  66.489  1.00  0.00     0.000 HD 
HETATM   17  H   UNL     1     -13.219  16.555  69.832  1.00  0.00     0.000 HD 
BRANCH   7  18
HETATM   18  O   UNL     1     -11.256  11.704  69.617  1.00  0.00    -0.242 OA 
BRANCH  18  19
HETATM   19  C   UNL     1      -9.972  11.159  69.969  1.00  0.00     1.014 C  
HETATM   20  O   UNL     1     -10.888   8.891  69.592  1.00  0.00    -0.269 OA 
HETATM   21  C   UNL     1      -8.934  11.961  69.186  1.00  0.00     0.488 C  
HETATM   22  C   UNL     1      -9.243   9.950  68.048  1.00  0.00    -0.124 C  
HETATM   23  H   UNL     1     -10.743   8.001  69.292  1.00  0.00     0.000 HD 
HETATM   24  O   UNL     1      -8.702  11.268  67.950  1.00  0.00    -0.130 OA 
HETATM   25  C   UNL     1      -9.740   9.737  69.488  1.00  0.00    -0.212 C  
BRANCH  21  26
HETATM   26  C   UNL     1      -7.596  12.116  69.909  1.00  0.00     1.412 C  
HETATM   27  H   UNL     1      -6.273  10.948  70.796  1.00  0.00     0.000 HD 
HETATM   28  O   UNL     1      -7.104  10.851  70.347  1.00  0.00    -0.137 OA 
ENDBRANCH  21  26
BRANCH  22  29
HETATM   29  O   UNL     1      -8.248   8.972  67.761  1.00  0.00    -0.109 OA 
BRANCH  29  30
HETATM   30  C   UNL     1      -8.674   7.650  67.379  1.00  0.00    -0.124 C  
HETATM   31  C   UNL     1      -7.772   6.587  68.035  1.00  0.00    -0.105 C  
HETATM   32  O   UNL     1      -7.601   6.871  69.430  1.00  0.00    -0.095 OA 
HETATM   33  C   UNL     1      -8.375   5.188  67.863  1.00  0.00    -0.097 C  
HETATM   34  C   UNL     1      -8.465   4.861  66.373  1.00  0.00    -0.111 C  
HETATM   35  N   UNL     1      -7.570   4.172  68.568  1.00  0.00    -0.062 NA 
HETATM   36  H   UNL     1      -7.045   6.216  69.834  1.00  0.00     0.000 HD 
HETATM   37  H1  UNL     1      -7.971   3.242  68.454  1.00  0.00     0.000 HD 
HETATM   38  H2  UNL     1      -7.444   4.409  69.552  1.00  0.00     0.000 HD 
HETATM   39  C   UNL     1      -9.280   5.913  65.600  1.00  0.00     0.015 C  
HETATM   40  C   UNL     1      -8.826   7.399  65.854  1.00  0.00    -0.120 C  
HETATM   41  N   UNL     1      -9.237   5.573  64.162  1.00  0.00    -0.180 NA 
HETATM   42  H2  UNL     1      -9.549   4.620  63.975  1.00  0.00     0.000 HD 
HETATM   43  H1  UNL     1      -9.778   6.271  63.651  1.00  0.00     0.000 HD 
BRANCH  40  44
HETATM   44  O   UNL     1      -9.806   8.243  65.205  1.00  0.00     0.681 OA 
BRANCH  44  45
HETATM   45  C   UNL     1      -9.800   9.620  65.608  1.00  0.00    -0.299 C  
HETATM   46  O   UNL     1      -8.500  10.056  65.987  1.00  0.00    -0.126 OA 
HETATM   47  C   UNL     1      -7.545  10.126  64.929  1.00  0.00    -0.138 C  
HETATM   48  C   UNL     1      -8.025  11.111  63.860  1.00  0.00     0.686 C  
HETATM   49  H1  UNL     1     -12.132  10.757  63.333  1.00  0.00     0.000 HD 
HETATM   50  H2  UNL     1     -12.384  10.058  64.835  1.00  0.00     0.000 HD 
HETATM   51  O   UNL     1      -7.122  11.199  62.756  1.00  0.00    -0.349 OA 
HETATM   52  C   UNL     1      -9.409  10.686  63.350  1.00  0.00    -0.297 C  
HETATM   53  H   UNL     1      -7.419  11.811  62.093  1.00  0.00     0.000 HD 
HETATM   54  O   UNL     1      -9.899  11.665  62.417  1.00  0.00    -0.356 OA 
HETATM   55  N   UNL     1     -11.740  10.145  64.048  1.00  0.00     4.322 NA 
HETATM   56  C   UNL     1     -10.396  10.549  64.520  1.00  0.00    -0.205 C  
HETATM   57  H   UNL     1     -10.755  11.402  62.101  1.00  0.00     0.000 HD 
BRANCH  47  58
HETATM   58  C   UNL     1      -6.213  10.571  65.550  1.00  0.00    -0.118 C  
HETATM   59  O   UNL     1      -6.092  10.063  66.881  1.00  0.00    -0.054 OA 
HETATM   60  H   UNL     1      -5.268  10.338  67.265  1.00  0.00     0.000 HD 
ENDBRANCH  47  58
ENDBRANCH  44  45
ENDBRANCH  40  44
ENDBRANCH  29  30
ENDBRANCH  22  29
ENDBRANCH  18  19
ENDBRANCH   7  18
ENDBRANCH   2   5
TORSDOF 9
ENDMDL
MODEL      317
REMARK 921   NORMALIZED FREE ENERGY PREDICTED BY IDOCK:   10.18 KCAL/MOL
REMARK 922        TOTAL FREE ENERGY PREDICTED BY IDOCK:   13.50 KCAL/MOL
REMARK 923 INTER-LIGAND FREE ENERGY PREDICTED BY IDOCK:   -4.58 KCAL/MOL
REMARK 924 INTRA-LIGAND FREE ENERGY PREDICTED BY IDOCK:   18.08 KCAL/MOL
REMARK 927      BINDING AFFINITY PREDICTED BY RF-SCORE:    0.00 PKD
ROOT
HETATM    1  N   UNL     1      -7.363  13.248  66.125  1.00  0.00     1.459 NA 
HETATM    2  C   UNL     1      -6.985  12.700  67.443  1.00  0.00    -0.142 C  
HETATM    3  H1  UNL     1      -7.474  14.260  66.189  1.00  0.00     0.000 HD 
HETATM    4  H2  UNL     1      -8.194  12.794  65.745  1.00  0.00     0.000 HD 
ENDROOT
BRANCH   2   5
HETATM    5  C   UNL     1      -6.817  11.174  67.346  1.00  0.00    -0.089 C  
HETATM    6  O   UNL     1      -8.089  10.633  66.942  1.00  0.00    -0.118 OA 
HETATM    7  C   UNL     1      -8.004   9.246  66.623  1.00  0.00    -0.108 C  
HETATM    8  C   UNL     1      -7.686   8.453  67.924  1.00  0.00    -0.103 C  
HETATM    9  O   UNL     1      -7.233  10.949  69.731  1.00  0.00    -0.263 OA 
HETATM   10  H   UNL     1      -6.954  10.550  70.547  1.00  0.00     0.000 HD 
HETATM   11  N   UNL     1      -8.802   8.578  68.908  1.00  0.00    -0.138 NA 
HETATM   12  C   UNL     1      -6.366   8.984  68.529  1.00  0.00    -0.054 C  
HETATM   13  H2  UNL     1      -9.696   8.297  68.503  1.00  0.00     0.000 HD 
HETATM   14  O   UNL     1      -5.234   8.537  67.771  1.00  0.00    -0.033 OA 
HETATM   15  C   UNL     1      -6.365  10.525  68.671  1.00  0.00    -0.047 C  
HETATM   16  H1  UNL     1      -8.594   8.059  69.760  1.00  0.00     0.000 HD 
HETATM   17  H   UNL     1      -4.423   8.863  68.143  1.00  0.00     0.000 HD 
BRANCH   7  18
HETATM   18  O   UNL     1      -9.238   8.764  66.084  1.00  0.00    -0.184 OA 
BRANCH  18  19
HETATM   19  C   UNL     1     -10.247   9.778  65.936  1.00  0.00    -0.174 C  
HETATM   20  O   UNL     1     -10.664   9.647  68.372  1.00  0.00    -0.234 OA 
HETATM   21  C   UNL     1      -9.625  10.884  65.086  1.00  0.00    -0.243 C  
HETATM   22  C   UNL     1      -9.533  11.594  67.305  1.00  0.00    -0.168 C  
HETATM   23  H   UNL     1     -10.889  10.097  69.178  1.00  0.00     0.000 HD 
HETATM   24  O   UNL     1      -9.038  11.837  65.986  1.00  0.00    -0.212 OA 
HETATM   25  C   UNL     1     -10.608  10.498  67.225  1.00  0.00    -0.264 C  
BRANCH  21  26
HETATM   26  C   UNL     1     -10.628  11.619  64.195  1.00  0.00    -0.357 C  
HETATM   27  H   UNL     1     -10.599  13.074  62.859  1.00  0.00     0.000 HD 
HETATM   28  O   UNL     1      -9.977  12.618  63.412  1.00  0.00    -0.329 OA 
ENDBRANCH  21  26
BRANCH  22  29
HETATM   29  O   UNL     1     -10.123  12.771  67.847  1.00  0.00    -0.218 OA 
BRANCH  29  30
HETATM   30  C   UNL     1     -10.976  13.565  67.000  1.00  0.00    -0.288 C  
HETATM   31  C   UNL     1     -11.968  12.661  66.242  1.00  0.00    -0.374 C  
HETATM   32  O   UNL     1     -12.580  11.729  67.144  1.00  0.00     0.614 OA 
HETATM   33  C   UNL     1     -13.050  13.504  65.558  1.00  0.00    -0.021 C  
HETATM   34  C   UNL     1     -12.392  14.428  64.533  1.00  0.00    -0.440 C  
HETATM   35  N   UNL     1     -14.059  12.645  64.909  1.00  0.00     1.570 NA 
HETATM   36  H   UNL     1     -13.191  11.172  66.677  1.00  0.00     0.000 HD 
HETATM   37  H1  UNL     1     -14.779  13.206  64.453  1.00  0.00     0.000 HD 
HETATM   38  H2  UNL     1     -14.463  11.977  65.565  1.00  0.00     0.000 HD 
HETATM   39  C   UNL     1     -11.316  15.323  65.172  1.00  0.00    -0.321 C  
HETATM   40  C   UNL     1     -10.254  14.544  66.035  1.00  0.00    -0.315 C  
HETATM   41  N   UNL     1     -10.669  16.111  64.102  1.00  0.00    -0.605 NA 
HETATM   42  H2  UNL     1     -11.340  16.640  63.544  1.00  0.00     0.000 HD 
HETATM   43  H1  UNL     1      -9.956  16.704  64.525  1.00  0.00     0.000 HD 
BRANCH  40  44
HETATM   44  O   UNL     1      -9.449  15.548  66.696  1.00  0.00    -0.229 OA 
BRANCH  44  45
HETATM   45  C   UNL     1      -9.702  15.720  68.098  1.00  0.00    -0.211 C  
HETATM   46  O   UNL     1      -8.833  14.922  68.895  1.00  0.00    -0.180 OA 
HETATM   47  C   UNL     1      -7.457  15.299  68.865  1.00  0.00    -0.147 C  
HETATM   48  C   UNL     1      -7.300  16.734  69.377  1.00  0.00    -0.067 C  
HETATM   49  H1  UNL     1     -10.439  19.089  68.008  1.00  0.00     0.000 HD 
HETATM   50  H2  UNL     1     -11.452  17.784  67.728  1.00  0.00     0.000 HD 
HETATM   51  O   UNL     1      -5.943  17.180  69.340  1.00  0.00    -0.194 OA 
HETATM   52  C   UNL     1      -8.168  17.680  68.536  1.00  0.00    -0.292 C  
HETATM   53  H   UNL     1      -5.846  18.070  69.658  1.00  0.00     0.000 HD 
HETATM   54  O   UNL     1      -8.093  19.010  69.078  1.00  0.00    -0.300 OA 
HETATM   55  N   UNL     1     -10.486  18.110  67.725  1.00  0.00    -0.397 NA 
HETATM   56  C   UNL     1      -9.630  17.207  68.528  1.00  0.00    -0.288 C  
HETATM   57  H   UNL     1      -8.631  19.596  68.557  1.00  0.00     0.000 HD 
BRANCH  47  58
HETATM   58  C   UNL     1      -6.694  14.299  69.745  1.00  0.00    -0.095 C  
HETATM   59  O   UNL     1      -6.953  14.557  71.128  1.00  0.00     0.015 OA 
HETATM   60  H   UNL     1      -6.481  13.938  71.673  1.00  0.00     0.000 HD 
ENDBRANCH  47  58
ENDBRANCH  44  45
ENDBRANCH  40  44
ENDBRANCH  29  30
ENDBRANCH  22  29
ENDBRANCH  18  19
ENDBRANCH   7  18
ENDBRANCH   2   5
TORSDOF 9
ENDMDL
MODEL      318
REMARK 921   NORMALIZED FREE ENERGY PREDICTED BY IDOCK:   10.93 KCAL/MOL
REMARK 922        TOTAL FREE ENERGY PREDICTED BY IDOCK:   14.64 KCAL/MOL
REMARK 923 INTER-LIGAND FREE ENERGY PREDICTED BY IDOCK:   -3.08 KCAL/MOL
REMARK 924 INTRA-LIGAND FREE ENERGY PREDICTED BY IDOCK:   17.72 KCAL/MOL
REMARK 927      BINDING AFFINITY PREDICTED BY RF-SCORE:    0.00 PKD
ROOT
HETATM    1  N   UNL     1      -9.814   7.237  68.651  1.00  0.00    -0.157 NA 
HETATM    2  C   UNL     1      -9.647   5.780  68.477  1.00  0.00    -0.126 C  
HETATM    3  H1  UNL     1     -10.781   7.500  68.464  1.00  0.00     0.000 HD 
HETATM    4  H2  UNL     1      -9.155   7.768  68.081  1.00  0.00     0.000 HD 
ENDROOT
BRANCH   2   5
HETATM    5  C   UNL     1      -8.189   5.383  68.759  1.00  0.00    -0.094 C  
HETATM    6  O   UNL     1      -7.489   6.582  69.139  1.00  0.00    -0.090 OA 
HETATM    7  C   UNL     1      -6.175   6.307  69.619  1.00  0.00    -0.033 C  
HETATM    8  C   UNL     1      -5.317   5.762  68.441  1.00  0.00    -0.004 C  
HETATM    9  O   UNL     1      -7.655   5.558  66.393  1.00  0.00    -0.089 OA 
HETATM   10  H   UNL     1      -7.226   5.153  65.649  1.00  0.00     0.000 HD 
HETATM   11  N   UNL     1      -5.154   6.798  67.378  1.00  0.00    -0.008 NA 
HETATM   12  C   UNL     1      -5.993   4.496  67.867  1.00  0.00    -0.027 C  
HETATM   13  H2  UNL     1      -4.772   7.667  67.753  1.00  0.00     0.000 HD 
HETATM   14  O   UNL     1      -5.820   3.375  68.744  1.00  0.00    -0.022 OA 
HETATM   15  C   UNL     1      -7.491   4.726  67.550  1.00  0.00    -0.079 C  
HETATM   16  H1  UNL     1      -4.592   6.441  66.606  1.00  0.00     0.000 HD 
HETATM   17  H   UNL     1      -6.236   2.597  68.391  1.00  0.00     0.000 HD 
BRANCH   7  18
HETATM   18  O   UNL     1      -5.553   7.491  70.128  1.00  0.00    -0.023 OA 
BRANCH  18  19
HETATM   19  C   UNL     1      -6.381   8.244  71.032  1.00  0.00    -0.038 C  
HETATM   20  O   UNL     1      -5.829  10.289  69.751  1.00  0.00    -0.041 OA 
HETATM   21  C   UNL     1      -7.691   7.470  71.163  1.00  0.00    -0.089 C  
HETATM   22  C   UNL     1      -8.080   9.223  69.676  1.00  0.00    -0.116 C  
HETATM   23  H   UNL     1      -6.111  11.132  69.415  1.00  0.00     0.000 HD 
HETATM   24  O   UNL     1      -8.594   7.986  70.173  1.00  0.00    -0.127 OA 
HETATM   25  C   UNL     1      -6.832   9.592  70.494  1.00  0.00    -0.126 C  
BRANCH  21  26
HETATM   26  C   UNL     1      -8.355   7.603  72.534  1.00  0.00    -0.119 C  
HETATM   27  H   UNL     1     -10.164   7.937  73.253  1.00  0.00     0.000 HD 
HETATM   28  O   UNL     1      -9.752   7.855  72.402  1.00  0.00    -0.177 OA 
ENDBRANCH  21  26
BRANCH  22  29
HETATM   29  O   UNL     1      -9.042  10.263  69.818  1.00  0.00    -0.175 OA 
BRANCH  29  30
HETATM   30  C   UNL     1      -9.264  11.150  68.705  1.00  0.00    -0.171 C  
HETATM   31  C   UNL     1      -8.189  10.931  67.623  1.00  0.00    -0.116 C  
HETATM   32  O   UNL     1      -8.029   9.531  67.357  1.00  0.00    -0.105 OA 
HETATM   33  C   UNL     1      -8.569  11.662  66.330  1.00  0.00    -0.143 C  
HETATM   34  C   UNL     1      -8.645  13.163  66.607  1.00  0.00     0.042 C  
HETATM   35  N   UNL     1      -7.595  11.382  65.257  1.00  0.00     0.050 NA 
HETATM   36  H   UNL     1      -7.367   9.396  66.691  1.00  0.00     0.000 HD 
HETATM   37  H1  UNL     1      -7.847  11.868  64.397  1.00  0.00     0.000 HD 
HETATM   38  H2  UNL     1      -7.483  10.380  65.103  1.00  0.00     0.000 HD 
HETATM   39  C   UNL     1      -9.635  13.491  67.738  1.00  0.00    -0.219 C  
HETATM   40  C   UNL     1      -9.414  12.656  69.055  1.00  0.00     0.435 C  
HETATM   41  N   UNL     1      -9.576  14.944  68.005  1.00  0.00    -0.204 NA 
HETATM   42  H2  UNL     1      -9.739  15.502  67.167  1.00  0.00     0.000 HD 
HETATM   43  H1  UNL     1     -10.233  15.160  68.754  1.00  0.00     0.000 HD 
BRANCH  40  44
HETATM   44  O   UNL     1     -10.531  12.958  69.924  1.00  0.00     0.766 OA 
BRANCH  44  45
HETATM   45  C   UNL     1     -11.829  12.664  69.388  1.00  0.00    -0.296 C  
HETATM   46  O   UNL     1     -11.796  12.512  67.973  1.00  0.00    -0.346 OA 
HETATM   47  C   UNL     1     -11.091  11.366  67.498  1.00  0.00    -0.281 C  
HETATM   48  C   UNL     1     -11.740  10.092  68.044  1.00  0.00     0.624 C  
HETATM   49  H1  UNL     1     -12.941  10.677  71.980  1.00  0.00     0.000 HD 
HETATM   50  H2  UNL     1     -12.985  12.347  71.843  1.00  0.00     0.000 HD 
HETATM   51  O   UNL     1     -11.055   8.909  67.626  1.00  0.00    -0.478 OA 
HETATM   52  C   UNL     1     -11.771  10.145  69.578  1.00  0.00    -0.061 C  
HETATM   53  H   UNL     1     -11.458   8.119  67.965  1.00  0.00     0.000 HD 
HETATM   54  O   UNL     1     -12.466   8.993  70.085  1.00  0.00    -0.154 OA 
HETATM   55  N   UNL     1     -12.518  11.493  71.538  1.00  0.00    -0.225 NA 
HETATM   56  C   UNL     1     -12.473  11.425  70.059  1.00  0.00    -0.154 C  
HETATM   57  H   UNL     1     -12.485   9.026  71.034  1.00  0.00     0.000 HD 
BRANCH  47  58
HETATM   58  C   UNL     1     -11.137  11.410  65.964  1.00  0.00    -0.173 C  
HETATM   59  O   UNL     1     -10.631  10.189  65.417  1.00  0.00    -0.108 OA 
HETATM   60  H   UNL     1     -10.660  10.216  64.468  1.00  0.00     0.000 HD 
ENDBRANCH  47  58
ENDBRANCH  44  45
ENDBRANCH  40  44
ENDBRANCH  29  30
ENDBRANCH  22  29
ENDBRANCH  18  19
ENDBRANCH   7  18
ENDBRANCH   2   5
TORSDOF 9
ENDMDL
MODEL      319
REMARK 921   NORMALIZED FREE ENERGY PREDICTED BY IDOCK:   11.09 KCAL/MOL
REMARK 922        TOTAL FREE ENERGY PREDICTED BY IDOCK:   14.89 KCAL/MOL
REMARK 923 INTER-LIGAND FREE ENERGY PREDICTED BY IDOCK:    7.23 KCAL/MOL
REMARK 924 INTRA-LIGAND FREE ENERGY PREDICTED BY IDOCK:    7.66 KCAL/MOL
REMARK 927      BINDING AFFINITY PREDICTED BY RF-SCORE:    0.00 PKD
ROOT
HETATM    1  N   UNL     1     -12.341  13.125  69.412  1.00  0.00    -0.111 NA 
HETATM    2  C   UNL     1     -12.524  12.769  67.991  1.00  0.00     0.657 C  
HETATM    3  H1  UNL     1     -13.203  13.525  69.783  1.00  0.00     0.000 HD 
HETATM    4  H2  UNL     1     -11.541  13.743  69.553  1.00  0.00     0.000 HD 
ENDROOT
BRANCH   2   5
HETATM    5  C   UNL     1     -11.223  12.166  67.432  1.00  0.00    -0.302 C  
HETATM    6  O   UNL     1     -10.443  13.256  66.908  1.00  0.00    -0.258 OA 
HETATM    7  C   UNL     1      -9.126  12.846  66.544  1.00  0.00    -0.132 C  
HETATM    8  C   UNL     1      -9.224  11.873  65.333  1.00  0.00     0.047 C  
HETATM    9  O   UNL     1     -12.331  11.659  65.328  1.00  0.00    -0.061 OA 
HETATM   10  H   UNL     1     -12.479  11.010  64.650  1.00  0.00     0.000 HD 
HETATM   11  N   UNL     1      -9.780  12.571  64.135  1.00  0.00    -0.580 NA 
HETATM   12  C   UNL     1     -10.112  10.669  65.722  1.00  0.00    -0.266 C  
HETATM   13  H2  UNL     1      -9.245  13.409  63.904  1.00  0.00     0.000 HD 
HETATM   14  O   UNL     1      -9.417   9.779  66.606  1.00  0.00    -0.158 OA 
HETATM   15  C   UNL     1     -11.464  11.112  66.331  1.00  0.00     0.243 C  
HETATM   16  H1  UNL     1      -9.844  11.933  63.341  1.00  0.00     0.000 HD 
HETATM   17  H   UNL     1      -9.963   9.039  66.844  1.00  0.00     0.000 HD 
BRANCH   7  18
HETATM   18  O   UNL     1      -8.323  13.967  66.166  1.00  0.00     0.694 OA 
BRANCH  18  19
HETATM   19  C   UNL     1      -8.062  14.888  67.240  1.00  0.00    -0.208 C  
HETATM   20  O   UNL     1      -8.193  16.746  65.609  1.00  0.00    -0.279 OA 
HETATM   21  C   UNL     1      -8.996  14.494  68.382  1.00  0.00    -0.186 C  
HETATM   22  C   UNL     1      -9.959  16.330  67.317  1.00  0.00    -0.250 C  
HETATM   23  H   UNL     1      -8.445  17.643  65.426  1.00  0.00     0.000 HD 
HETATM   24  O   UNL     1     -10.199  15.264  68.237  1.00  0.00    -0.222 OA 
HETATM   25  C   UNL     1      -8.467  16.323  66.947  1.00  0.00    -0.224 C  
BRANCH  21  26
HETATM   26  C   UNL     1      -8.420  14.760  69.774  1.00  0.00     0.294 C  
HETATM   27  H   UNL     1      -6.751  14.378  70.759  1.00  0.00     0.000 HD 
HETATM   28  O   UNL     1      -7.109  14.213  69.895  1.00  0.00     0.010 OA 
ENDBRANCH  21  26
BRANCH  22  29
HETATM   29  O   UNL     1     -10.276  17.587  67.907  1.00  0.00    -0.315 OA 
BRANCH  29  30
HETATM   30  C   UNL     1      -9.893  18.789  67.211  1.00  0.00    -0.317 C  
HETATM   31  C   UNL     1     -10.767  18.982  65.956  1.00  0.00    -0.337 C  
HETATM   32  O   UNL     1     -12.151  18.795  66.281  1.00  0.00     2.889 OA 
HETATM   33  C   UNL     1     -10.560  20.381  65.366  1.00  0.00     0.242 C  
HETATM   34  C   UNL     1      -9.100  20.534  64.939  1.00  0.00     1.720 C  
HETATM   35  N   UNL     1     -11.461  20.613  64.221  1.00  0.00     0.762 NA 
HETATM   36  H   UNL     1     -12.690  18.914  65.508  1.00  0.00     0.000 HD 
HETATM   37  H1  UNL     1     -11.324  21.543  63.828  1.00  0.00     0.000 HD 
HETATM   38  H2  UNL     1     -12.436  20.451  64.472  1.00  0.00     0.000 HD 
HETATM   39  C   UNL     1      -8.129  20.277  66.105  1.00  0.00    -0.123 C  
HETATM   40  C   UNL     1      -8.383  18.927  66.874  1.00  0.00    -0.280 C  
HETATM   41  N   UNL     1      -6.747  20.351  65.586  1.00  0.00    -0.295 NA 
HETATM   42  H2  UNL     1      -6.556  21.229  65.103  1.00  0.00     0.000 HD 
HETATM   43  H1  UNL     1      -6.104  20.181  66.359  1.00  0.00     0.000 HD 
BRANCH  40  44
HETATM   44  O   UNL     1      -7.513  18.944  68.030  1.00  0.00    -0.242 OA 
BRANCH  44  45
HETATM   45  C   UNL     1      -8.038  18.319  69.210  1.00  0.00     0.206 C  
HETATM   46  O   UNL     1      -7.002  17.856  70.069  1.00  0.00     0.334 OA 
HETATM   47  C   UNL     1      -6.217  18.875  70.685  1.00  0.00     0.242 C  
HETATM   48  C   UNL     1      -7.111  19.772  71.546  1.00  0.00     1.220 C  
HETATM   49  H1  UNL     1     -10.754  20.402  69.647  1.00  0.00     0.000 HD 
HETATM   50  H2  UNL     1     -10.619  19.040  68.679  1.00  0.00     0.000 HD 
HETATM   51  O   UNL     1      -6.382  20.834  72.164  1.00  0.00    -0.673 OA 
HETATM   52  C   UNL     1      -8.234  20.362  70.683  1.00  0.00     1.895 C  
HETATM   53  H   UNL     1      -6.937  21.390  72.699  1.00  0.00     0.000 HD 
HETATM   54  O   UNL     1      -9.127  21.126  71.513  1.00  0.00     0.819 OA 
HETATM   55  N   UNL     1     -10.110  19.793  69.142  1.00  0.00    -0.388 NA 
HETATM   56  C   UNL     1      -9.016  19.244  69.976  1.00  0.00     1.105 C  
HETATM   57  H   UNL     1      -9.822  21.491  70.978  1.00  0.00     0.000 HD 
BRANCH  47  58
HETATM   58  C   UNL     1      -5.143  18.173  71.527  1.00  0.00    -0.070 C  
HETATM   59  O   UNL     1      -5.419  16.772  71.615  1.00  0.00     0.124 OA 
HETATM   60  H   UNL     1      -4.754  16.338  72.136  1.00  0.00     0.000 HD 
ENDBRANCH  47  58
ENDBRANCH  44  45
ENDBRANCH  40  44
ENDBRANCH  29  30
ENDBRANCH  22  29
ENDBRANCH  18  19
ENDBRANCH   7  18
ENDBRANCH   2   5
TORSDOF 9
ENDMDL
MODEL      320
REMARK 921   NORMALIZED FREE ENERGY PREDICTED BY IDOCK:   11.33 KCAL/MOL
REMARK 922        TOTAL FREE ENERGY PREDICTED BY IDOCK:   15.25 KCAL/MOL
REMARK 923 INTER-LIGAND FREE ENERGY PREDICTED BY IDOCK:    5.22 KCAL/MOL
REMARK 924 INTRA-LIGAND FREE ENERGY PREDICTED BY IDOCK:   10.03 KCAL/MOL
REMARK 927      BINDING AFFINITY PREDICTED BY RF-SCORE:    0.00 PKD
ROOT
HETATM    1  N   UNL     1     -12.265   2.967  71.390  1.00  0.00     7.308 NA 
HETATM    2  C   UNL     1     -11.412   2.832  72.588  1.00  0.00     0.772 C  
HETATM    3  H1  UNL     1     -13.014   2.275  71.418  1.00  0.00     0.000 HD 
HETATM    4  H2  UNL     1     -11.725   2.912  70.526  1.00  0.00     0.000 HD 
ENDROOT
BRANCH   2   5
HETATM    5  C   UNL     1     -10.283   3.876  72.545  1.00  0.00    -0.164 C  
HETATM    6  O   UNL     1     -10.531   4.722  71.408  1.00  0.00    -0.159 OA 
HETATM    7  C   UNL     1      -9.662   5.853  71.380  1.00  0.00    -0.166 C  
HETATM    8  C   UNL     1      -8.207   5.358  71.135  1.00  0.00    -0.119 C  
HETATM    9  O   UNL     1      -8.850   2.317  71.350  1.00  0.00    -0.065 OA 
HETATM   10  H   UNL     1      -7.984   1.931  71.285  1.00  0.00     0.000 HD 
HETATM   11  N   UNL     1      -8.084   4.716  69.792  1.00  0.00    -0.067 NA 
HETATM   12  C   UNL     1      -7.817   4.362  72.251  1.00  0.00    -0.091 C  
HETATM   13  H2  UNL     1      -8.403   5.335  69.047  1.00  0.00     0.000 HD 
HETATM   14  O   UNL     1      -7.564   5.045  73.487  1.00  0.00    -0.090 OA 
HETATM   15  C   UNL     1      -8.877   3.249  72.440  1.00  0.00    -0.084 C  
HETATM   16  H1  UNL     1      -7.131   4.391  69.632  1.00  0.00     0.000 HD 
HETATM   17  H   UNL     1      -7.325   4.432  74.173  1.00  0.00     0.000 HD 
BRANCH   7  18
HETATM   18  O   UNL     1     -10.022   6.754  70.330  1.00  0.00    -0.178 OA 
BRANCH  18  19
HETATM   19  C   UNL     1      -8.896   7.327  69.640  1.00  0.00    -0.141 C  
HETATM   20  O   UNL     1     -10.223   7.288  67.551  1.00  0.00    -0.183 OA 
HETATM   21  C   UNL     1      -8.414   8.496  70.497  1.00  0.00    -0.137 C  
HETATM   22  C   UNL     1      -9.675   9.399  68.757  1.00  0.00    -0.156 C  
HETATM   23  H   UNL     1     -10.439   7.703  66.724  1.00  0.00     0.000 HD 
HETATM   24  O   UNL     1      -9.087   9.675  70.029  1.00  0.00    -0.208 OA 
HETATM   25  C   UNL     1      -9.242   7.991  68.318  1.00  0.00    -0.134 C  
BRANCH  21  26
HETATM   26  C   UNL     1      -6.906   8.740  70.421  1.00  0.00    -0.045 C  
HETATM   27  H   UNL     1      -5.491   8.704  69.044  1.00  0.00     0.000 HD 
HETATM   28  O   UNL     1      -6.427   8.552  69.092  1.00  0.00    -0.042 OA 
ENDBRANCH  21  26
BRANCH  22  29
HETATM   29  O   UNL     1      -9.231  10.337  67.781  1.00  0.00    -0.140 OA 
BRANCH  29  30
HETATM   30  C   UNL     1     -10.055  10.563  66.621  1.00  0.00    -0.222 C  
HETATM   31  C   UNL     1      -9.375   9.992  65.362  1.00  0.00    -0.229 C  
HETATM   32  O   UNL     1      -8.901   8.661  65.612  1.00  0.00    -0.175 OA 
HETATM   33  C   UNL     1     -10.352   9.978  64.181  1.00  0.00     0.839 C  
HETATM   34  C   UNL     1     -10.777  11.412  63.865  1.00  0.00    -0.462 C  
HETATM   35  N   UNL     1      -9.742   9.346  62.995  1.00  0.00    -0.238 NA 
HETATM   36  H   UNL     1      -8.482   8.309  64.837  1.00  0.00     0.000 HD 
HETATM   37  H1  UNL     1     -10.392   9.337  62.209  1.00  0.00     0.000 HD 
HETATM   38  H2  UNL     1      -9.394   8.411  63.205  1.00  0.00     0.000 HD 
HETATM   39  C   UNL     1     -11.397  12.111  65.087  1.00  0.00    -0.327 C  
HETATM   40  C   UNL     1     -10.524  12.026  66.395  1.00  0.00    -0.233 C  
HETATM   41  N   UNL     1     -11.690  13.513  64.725  1.00  0.00    -0.355 NA 
HETATM   42  H2  UNL     1     -12.274  13.589  63.891  1.00  0.00     0.000 HD 
HETATM   43  H1  UNL     1     -12.102  13.976  65.535  1.00  0.00     0.000 HD 
BRANCH  40  44
HETATM   44  O   UNL     1     -11.336  12.564  67.465  1.00  0.00    -0.273 OA 
BRANCH  44  45
HETATM   45  C   UNL     1     -11.318  13.993  67.598  1.00  0.00    -0.312 C  
HETATM   46  O   UNL     1     -10.888  14.399  68.893  1.00  0.00    -0.242 OA 
HETATM   47  C   UNL     1      -9.521  14.126  69.197  1.00  0.00     0.173 C  
HETATM   48  C   UNL     1      -8.612  14.854  68.204  1.00  0.00    -0.159 C  
HETATM   49  H1  UNL     1     -10.268  14.724  64.394  1.00  0.00     0.000 HD 
HETATM   50  H2  UNL     1     -11.823  14.440  64.951  1.00  0.00     0.000 HD 
HETATM   51  O   UNL     1      -7.227  14.592  68.440  1.00  0.00    -0.104 OA 
HETATM   52  C   UNL     1      -8.971  14.433  66.772  1.00  0.00    -0.233 C  
HETATM   53  H   UNL     1      -6.663  15.044  67.824  1.00  0.00     0.000 HD 
HETATM   54  O   UNL     1      -8.181  15.189  65.837  1.00  0.00     0.129 OA 
HETATM   55  N   UNL     1     -10.829  14.277  65.118  1.00  0.00    -0.353 NA 
HETATM   56  C   UNL     1     -10.464  14.672  66.498  1.00  0.00    -0.290 C  
HETATM   57  H   UNL     1      -8.403  14.929  64.951  1.00  0.00     0.000 HD 
BRANCH  47  58
HETATM   58  C   UNL     1      -9.276  14.598  70.638  1.00  0.00     2.123 C  
HETATM   59  O   UNL     1      -7.924  15.040  70.791  1.00  0.00     0.454 OA 
HETATM   60  H   UNL     1      -7.772  15.332  71.682  1.00  0.00     0.000 HD 
ENDBRANCH  47  58
ENDBRANCH  44  45
ENDBRANCH  40  44
ENDBRANCH  29  30
ENDBRANCH  22  29
ENDBRANCH  18  19
ENDBRANCH   7  18
ENDBRANCH   2   5
TORSDOF 9
ENDMDL
MODEL      321
REMARK 921   NORMALIZED FREE ENERGY PREDICTED BY IDOCK:   12.61 KCAL/MOL
REMARK 922        TOTAL FREE ENERGY PREDICTED BY IDOCK:   17.20 KCAL/MOL
REMARK 923 INTER-LIGAND FREE ENERGY PREDICTED BY IDOCK:    1.42 KCAL/MOL
REMARK 924 INTRA-LIGAND FREE ENERGY PREDICTED BY IDOCK:   15.78 KCAL/MOL
REMARK 927      BINDING AFFINITY PREDICTED BY RF-SCORE:    0.00 PKD
ROOT
HETATM    1  N   UNL     1     -10.546   9.955  65.267  1.00  0.00     0.125 NA 
HETATM    2  C   UNL     1     -10.363   9.271  66.563  1.00  0.00    -0.200 C  
HETATM    3  H1  UNL     1     -10.068   9.436  64.531  1.00  0.00     0.000 HD 
HETATM    4  H2  UNL     1     -10.250  10.930  65.303  1.00  0.00     0.000 HD 
ENDROOT
BRANCH   2   5
HETATM    5  C   UNL     1     -11.086  10.053  67.673  1.00  0.00    -0.153 C  
HETATM    6  O   UNL     1     -10.072  10.701  68.463  1.00  0.00    -0.159 OA 
HETATM    7  C   UNL     1     -10.629  11.618  69.402  1.00  0.00     0.039 C  
HETATM    8  C   UNL     1     -11.437  10.817  70.463  1.00  0.00    -0.275 C  
HETATM    9  O   UNL     1     -11.191   8.052  69.051  1.00  0.00    -0.409 OA 
HETATM   10  H   UNL     1     -11.733   7.502  69.606  1.00  0.00     0.000 HD 
HETATM   11  N   UNL     1     -10.539   9.923  71.251  1.00  0.00    -0.201 NA 
HETATM   12  C   UNL     1     -12.533   9.994  69.748  1.00  0.00     0.343 C  
HETATM   13  H2  UNL     1      -9.769  10.440  71.675  1.00  0.00     0.000 HD 
HETATM   14  O   UNL     1     -13.607  10.836  69.308  1.00  0.00     0.720 OA 
HETATM   15  C   UNL     1     -11.966   9.160  68.574  1.00  0.00     2.227 C  
HETATM   16  H1  UNL     1     -11.069   9.397  71.947  1.00  0.00     0.000 HD 
HETATM   17  H   UNL     1     -14.280  10.330  68.868  1.00  0.00     0.000 HD 
BRANCH   7  18
HETATM   18  O   UNL     1      -9.604  12.358  70.071  1.00  0.00     2.290 OA 
BRANCH  18  19
HETATM   19  C   UNL     1      -8.288  12.164  69.521  1.00  0.00     1.257 C  
HETATM   20  O   UNL     1      -8.207   9.952  70.629  1.00  0.00    -0.389 OA 
HETATM   21  C   UNL     1      -8.380  12.538  68.043  1.00  0.00    -0.171 C  
HETATM   22  C   UNL     1      -8.447  10.211  68.163  1.00  0.00    -0.118 C  
HETATM   23  H   UNL     1      -7.922   9.046  70.603  1.00  0.00     0.000 HD 
HETATM   24  O   UNL     1      -8.679  11.338  67.315  1.00  0.00    -0.140 OA 
HETATM   25  C   UNL     1      -7.833  10.715  69.479  1.00  0.00    -0.083 C  
BRANCH  21  26
HETATM   26  C   UNL     1      -7.093  13.138  67.475  1.00  0.00    -0.150 C  
HETATM   27  H   UNL     1      -6.110  14.848  67.580  1.00  0.00     0.000 HD 
HETATM   28  O   UNL     1      -6.909  14.476  67.932  1.00  0.00    -0.131 OA 
ENDBRANCH  21  26
BRANCH  22  29
HETATM   29  O   UNL     1      -7.535   9.301  67.554  1.00  0.00    -0.087 OA 
BRANCH  29  30
HETATM   30  C   UNL     1      -7.907   7.912  67.469  1.00  0.00    -0.122 C  
HETATM   31  C   UNL     1      -8.049   7.485  65.995  1.00  0.00    -0.123 C  
HETATM   32  O   UNL     1      -6.919   7.936  65.236  1.00  0.00    -0.057 OA 
HETATM   33  C   UNL     1      -8.170   5.961  65.885  1.00  0.00    -0.127 C  
HETATM   34  C   UNL     1      -9.429   5.504  66.621  1.00  0.00    -0.154 C  
HETATM   35  N   UNL     1      -8.211   5.532  64.474  1.00  0.00    -0.128 NA 
HETATM   36  H   UNL     1      -7.006   7.673  64.328  1.00  0.00     0.000 HD 
HETATM   37  H1  UNL     1      -8.292   4.519  64.400  1.00  0.00     0.000 HD 
HETATM   38  H2  UNL     1      -7.409   5.884  63.951  1.00  0.00     0.000 HD 
HETATM   39  C   UNL     1      -9.432   5.953  68.092  1.00  0.00    -0.115 C  
HETATM   40  C   UNL     1      -9.148   7.488  68.302  1.00  0.00    -0.132 C  
HETATM   41  N   UNL     1     -10.719   5.555  68.700  1.00  0.00    -0.166 NA 
HETATM   42  H2  UNL     1     -10.912   4.559  68.594  1.00  0.00     0.000 HD 
HETATM   43  H1  UNL     1     -10.721   5.853  69.675  1.00  0.00     0.000 HD 
BRANCH  40  44
HETATM   44  O   UNL     1      -9.006   7.687  69.728  1.00  0.00    -0.140 OA 
BRANCH  44  45
HETATM   45  C   UNL     1      -9.151   6.510  70.535  1.00  0.00    -0.152 C  
HETATM   46  O   UNL     1      -7.894   6.020  70.988  1.00  0.00    -0.106 OA 
HETATM   47  C   UNL     1      -7.215   6.854  71.926  1.00  0.00    -0.079 C  
HETATM   48  C   UNL     1      -8.074   7.035  73.179  1.00  0.00    -0.101 C  
HETATM   49  H1  UNL     1     -12.076   7.420  72.124  1.00  0.00     0.000 HD 
HETATM   50  H2  UNL     1     -11.876   6.678  70.634  1.00  0.00     0.000 HD 
HETATM   51  O   UNL     1      -7.457   7.891  74.144  1.00  0.00    -0.133 OA 
HETATM   52  C   UNL     1      -9.441   7.614  72.789  1.00  0.00    -0.188 C  
HETATM   53  H   UNL     1      -7.990   8.002  74.922  1.00  0.00     0.000 HD 
HETATM   54  O   UNL     1     -10.280   7.694  73.955  1.00  0.00    -0.367 OA 
HETATM   55  N   UNL     1     -11.440   7.272  71.340  1.00  0.00    -0.258 NA 
HETATM   56  C   UNL     1     -10.116   6.733  71.726  1.00  0.00    -0.182 C  
HETATM   57  H   UNL     1     -11.126   8.052  73.713  1.00  0.00     0.000 HD 
BRANCH  47  58
HETATM   58  C   UNL     1      -5.878   6.174  72.251  1.00  0.00    -0.037 C  
HETATM   59  O   UNL     1      -5.841   5.784  73.627  1.00  0.00    -0.048 OA 
HETATM   60  H   UNL     1      -5.014   5.364  73.829  1.00  0.00     0.000 HD 
ENDBRANCH  47  58
ENDBRANCH  44  45
ENDBRANCH  40  44
ENDBRANCH  29  30
ENDBRANCH  22  29
ENDBRANCH  18  19
ENDBRANCH   7  18
ENDBRANCH   2   5
TORSDOF 9
ENDMDL
MODEL      322
REMARK 921   NORMALIZED FREE ENERGY PREDICTED BY IDOCK:   13.26 KCAL/MOL
REMARK 922        TOTAL FREE ENERGY PREDICTED BY IDOCK:   18.20 KCAL/MOL
REMARK 923 INTER-LIGAND FREE ENERGY PREDICTED BY IDOCK:   -0.48 KCAL/MOL
REMARK 924 INTRA-LIGAND FREE ENERGY PREDICTED BY IDOCK:   18.68 KCAL/MOL
REMARK 927      BINDING AFFINITY PREDICTED BY RF-SCORE:    0.00 PKD
ROOT
HETATM    1  N   UNL     1      -6.750  14.936  66.709  1.00  0.00    -0.019 NA 
HETATM    2  C   UNL     1      -6.667  14.721  68.168  1.00  0.00    -0.129 C  
HETATM    3  H1  UNL     1      -6.863  15.930  66.510  1.00  0.00     0.000 HD 
HETATM    4  H2  UNL     1      -7.485  14.373  66.280  1.00  0.00     0.000 HD 
ENDROOT
BRANCH   2   5
HETATM    5  C   UNL     1      -6.496  13.222  68.467  1.00  0.00    -0.085 C  
HETATM    6  O   UNL     1      -7.601  12.538  67.848  1.00  0.00    -0.109 OA 
HETATM    7  C   UNL     1      -7.444  11.122  67.885  1.00  0.00    -0.094 C  
HETATM    8  C   UNL     1      -7.527  10.649  69.366  1.00  0.00    -0.135 C  
HETATM    9  O   UNL     1      -7.589  13.500  70.621  1.00  0.00     1.397 OA 
HETATM   10  H   UNL     1      -7.564  13.303  71.550  1.00  0.00     0.000 HD 
HETATM   11  N   UNL     1      -8.880  10.925  69.936  1.00  0.00     0.032 NA 
HETATM   12  C   UNL     1      -6.434  11.370  70.189  1.00  0.00    -0.038 C  
HETATM   13  H2  UNL     1      -9.620  10.514  69.366  1.00  0.00     0.000 HD 
HETATM   14  O   UNL     1      -5.136  10.830  69.906  1.00  0.00    -0.041 OA 
HETATM   15  C   UNL     1      -6.456  12.902  69.976  1.00  0.00     0.101 C  
HETATM   16  H1  UNL     1      -8.935  10.616  70.906  1.00  0.00     0.000 HD 
HETATM   17  H   UNL     1      -4.464  11.273  70.411  1.00  0.00     0.000 HD 
BRANCH   7  18
HETATM   18  O   UNL     1      -8.473  10.468  67.139  1.00  0.00    -0.126 OA 
BRANCH  18  19
HETATM   19  C   UNL     1      -9.572  11.326  66.782  1.00  0.00    -0.193 C  
HETATM   20  O   UNL     1      -9.857  11.871  69.180  1.00  0.00    -0.412 OA 
HETATM   21  C   UNL     1      -9.089  12.182  65.613  1.00  0.00     0.140 C  
HETATM   22  C   UNL     1      -8.950  13.503  67.529  1.00  0.00    -0.210 C  
HETATM   23  H   UNL     1     -10.081  12.516  69.840  1.00  0.00     0.000 HD 
HETATM   24  O   UNL     1      -8.543  13.390  66.164  1.00  0.00     0.361 OA 
HETATM   25  C   UNL     1      -9.930  12.359  67.838  1.00  0.00    -0.204 C  
BRANCH  21  26
HETATM   26  C   UNL     1     -10.193  12.560  64.624  1.00  0.00    -0.290 C  
HETATM   27  H   UNL     1     -10.788  12.011  62.823  1.00  0.00     0.000 HD 
HETATM   28  O   UNL     1     -10.103  11.777  63.437  1.00  0.00    -0.388 OA 
ENDBRANCH  21  26
BRANCH  22  29
HETATM   29  O   UNL     1      -9.612  14.743  67.759  1.00  0.00    -0.205 OA 
BRANCH  29  30
HETATM   30  C   UNL     1     -10.675  15.129  66.866  1.00  0.00    -0.308 C  
HETATM   31  C   UNL     1     -11.639  13.948  66.640  1.00  0.00    -0.374 C  
HETATM   32  O   UNL     1     -11.987  13.343  67.893  1.00  0.00    -0.351 OA 
HETATM   33  C   UNL     1     -12.910  14.420  65.924  1.00  0.00    -0.074 C  
HETATM   34  C   UNL     1     -12.534  14.978  64.552  1.00  0.00    -0.161 C  
HETATM   35  N   UNL     1     -13.881  13.318  65.787  1.00  0.00     0.921 NA 
HETATM   36  H   UNL     1     -12.581  12.616  67.754  1.00  0.00     0.000 HD 
HETATM   37  H1  UNL     1     -14.727  13.631  65.310  1.00  0.00     0.000 HD 
HETATM   38  H2  UNL     1     -14.095  12.891  66.688  1.00  0.00     0.000 HD 
HETATM   39  C   UNL     1     -11.503  16.115  64.654  1.00  0.00    -0.224 C  
HETATM   40  C   UNL     1     -10.234  15.764  65.519  1.00  0.00    -0.378 C  
HETATM   41  N   UNL     1     -11.126  16.529  63.287  1.00  0.00     1.463 NA 
HETATM   42  H2  UNL     1     -11.933  16.782  62.717  1.00  0.00     0.000 HD 
HETATM   43  H1  UNL     1     -10.443  17.283  63.355  1.00  0.00     0.000 HD 
BRANCH  40  44
HETATM   44  O   UNL     1      -9.480  16.991  65.657  1.00  0.00    -0.526 OA 
BRANCH  44  45
HETATM   45  C   UNL     1     -10.093  18.007  66.464  1.00  0.00    -0.379 C  
HETATM   46  O   UNL     1     -10.096  17.658  67.843  1.00  0.00    -0.311 OA 
HETATM   47  C   UNL     1      -8.813  17.617  68.467  1.00  0.00    -0.285 C  
HETATM   48  C   UNL     1      -8.150  18.994  68.382  1.00  0.00    -0.346 C  
HETATM   49  H1  UNL     1      -8.942  20.735  64.692  1.00  0.00     0.000 HD 
HETATM   50  H2  UNL     1     -10.297  19.792  64.405  1.00  0.00     0.000 HD 
HETATM   51  O   UNL     1      -6.844  19.006  68.963  1.00  0.00    -0.297 OA 
HETATM   52  C   UNL     1      -8.055  19.432  66.914  1.00  0.00    -0.277 C  
HETATM   53  H   UNL     1      -6.433  19.861  68.911  1.00  0.00     0.000 HD 
HETATM   54  O   UNL     1      -7.519  20.765  66.843  1.00  0.00    -0.451 OA 
HETATM   55  N   UNL     1      -9.371  19.821  64.833  1.00  0.00     1.340 NA 
HETATM   56  C   UNL     1      -9.440  19.396  66.250  1.00  0.00    -0.368 C  
HETATM   57  H   UNL     1      -7.460  21.035  65.934  1.00  0.00     0.000 HD 
BRANCH  47  58
HETATM   58  C   UNL     1      -9.031  17.184  69.924  1.00  0.00     1.438 C  
HETATM   59  O   UNL     1     -10.428  17.165  70.232  1.00  0.00     0.104 OA 
HETATM   60  H   UNL     1     -10.563  16.898  71.133  1.00  0.00     0.000 HD 
ENDBRANCH  47  58
ENDBRANCH  44  45
ENDBRANCH  40  44
ENDBRANCH  29  30
ENDBRANCH  22  29
ENDBRANCH  18  19
ENDBRANCH   7  18
ENDBRANCH   2   5
TORSDOF 9
ENDMDL
MODEL      323
REMARK 921   NORMALIZED FREE ENERGY PREDICTED BY IDOCK:   13.52 KCAL/MOL
REMARK 922        TOTAL FREE ENERGY PREDICTED BY IDOCK:   18.58 KCAL/MOL
REMARK 923 INTER-LIGAND FREE ENERGY PREDICTED BY IDOCK:    5.15 KCAL/MOL
REMARK 924 INTRA-LIGAND FREE ENERGY PREDICTED BY IDOCK:   13.43 KCAL/MOL
REMARK 927      BINDING AFFINITY PREDICTED BY RF-SCORE:    0.00 PKD
ROOT
HETATM    1  N   UNL     1     -11.647  19.514  67.500  1.00  0.00     0.510 NA 
HETATM    2  C   UNL     1     -10.387  18.910  67.979  1.00  0.00    -0.389 C  
HETATM    3  H1  UNL     1     -11.501  20.501  67.289  1.00  0.00     0.000 HD 
HETATM    4  H2  UNL     1     -12.414  19.372  68.157  1.00  0.00     0.000 HD 
ENDROOT
BRANCH   2   5
HETATM    5  C   UNL     1     -10.608  17.422  68.296  1.00  0.00    -0.366 C  
HETATM    6  O   UNL     1      -9.539  16.691  67.667  1.00  0.00    -0.235 OA 
HETATM    7  C   UNL     1      -9.523  15.320  68.058  1.00  0.00    -0.198 C  
HETATM    8  C   UNL     1     -10.797  14.626  67.495  1.00  0.00    -0.286 C  
HETATM    9  O   UNL     1     -12.142  17.222  66.420  1.00  0.00     2.674 OA 
HETATM   10  H   UNL     1     -12.981  16.894  66.117  1.00  0.00     0.000 HD 
HETATM   11  N   UNL     1     -10.784  14.625  66.002  1.00  0.00    -0.302 NA 
HETATM   12  C   UNL     1     -12.050  15.360  68.027  1.00  0.00     0.191 C  
HETATM   13  H2  UNL     1      -9.931  14.205  65.632  1.00  0.00     0.000 HD 
HETATM   14  O   UNL     1     -12.279  15.053  69.409  1.00  0.00    -0.472 OA 
HETATM   15  C   UNL     1     -11.971  16.889  67.804  1.00  0.00     1.288 C  
HETATM   16  H1  UNL     1     -11.619  14.170  65.632  1.00  0.00     0.000 HD 
HETATM   17  H   UNL     1     -13.049  15.504  69.735  1.00  0.00     0.000 HD 
BRANCH   7  18
HETATM   18  O   UNL     1      -8.371  14.649  67.542  1.00  0.00    -0.163 OA 
BRANCH  18  19
HETATM   19  C   UNL     1      -8.484  13.215  67.534  1.00  0.00    -0.198 C  
HETATM   20  O   UNL     1      -8.801  13.304  65.081  1.00  0.00     0.683 OA 
HETATM   21  C   UNL     1      -7.322  12.687  68.373  1.00  0.00    -0.118 C  
HETATM   22  C   UNL     1      -6.714  12.443  66.136  1.00  0.00     1.914 C  
HETATM   23  H   UNL     1      -8.652  12.903  64.233  1.00  0.00     0.000 HD 
HETATM   24  O   UNL     1      -6.227  12.438  67.479  1.00  0.00    -0.117 OA 
HETATM   25  C   UNL     1      -8.246  12.574  66.177  1.00  0.00     0.701 C  
BRANCH  21  26
HETATM   26  C   UNL     1      -7.637  11.390  69.121  1.00  0.00    -0.038 C  
HETATM   27  H   UNL     1      -6.638   9.865  69.881  1.00  0.00     0.000 HD 
HETATM   28  O   UNL     1      -6.442  10.670  69.416  1.00  0.00    -0.051 OA 
ENDBRANCH  21  26
BRANCH  22  29
HETATM   29  O   UNL     1      -6.379  11.228  65.472  1.00  0.00     0.155 OA 
BRANCH  29  30
HETATM   30  C   UNL     1      -7.127  10.040  65.796  1.00  0.00    -0.117 C  
HETATM   31  C   UNL     1      -6.169   8.871  66.099  1.00  0.00    -0.063 C  
HETATM   32  O   UNL     1      -5.138   9.294  67.001  1.00  0.00    -0.034 OA 
HETATM   33  C   UNL     1      -6.936   7.691  66.707  1.00  0.00    -0.079 C  
HETATM   34  C   UNL     1      -7.969   7.191  65.697  1.00  0.00    -0.126 C  
HETATM   35  N   UNL     1      -6.016   6.602  67.089  1.00  0.00    -0.020 NA 
HETATM   36  H   UNL     1      -4.548   8.573  67.188  1.00  0.00     0.000 HD 
HETATM   37  H1  UNL     1      -6.526   5.816  67.493  1.00  0.00     0.000 HD 
HETATM   38  H2  UNL     1      -5.280   6.933  67.712  1.00  0.00     0.000 HD 
HETATM   39  C   UNL     1      -8.932   8.307  65.258  1.00  0.00     0.045 C  
HETATM   40  C   UNL     1      -8.219   9.625  64.772  1.00  0.00    -0.142 C  
HETATM   41  N   UNL     1      -9.831   7.766  64.217  1.00  0.00     2.752 NA 
HETATM   42  H2  UNL     1     -10.320   6.924  64.521  1.00  0.00     0.000 HD 
HETATM   43  H1  UNL     1     -10.470   8.506  63.926  1.00  0.00     0.000 HD 
BRANCH  40  44
HETATM   44  O   UNL     1      -9.262  10.609  64.581  1.00  0.00    -0.201 OA 
BRANCH  44  45
HETATM   45  C   UNL     1     -10.567  10.224  65.038  1.00  0.00     0.197 C  
HETATM   46  O   UNL     1     -10.506   9.157  65.977  1.00  0.00    -0.067 OA 
HETATM   47  C   UNL     1      -9.914   9.482  67.234  1.00  0.00    -0.189 C  
HETATM   48  C   UNL     1     -10.713  10.597  67.913  1.00  0.00    -0.248 C  
HETATM   49  H1  UNL     1     -11.966  13.378  65.090  1.00  0.00     0.000 HD 
HETATM   50  H2  UNL     1     -11.826  12.312  63.804  1.00  0.00     0.000 HD 
HETATM   51  O   UNL     1     -10.147  10.988  69.166  1.00  0.00    -0.287 OA 
HETATM   52  C   UNL     1     -10.785  11.818  66.986  1.00  0.00    -0.246 C  
HETATM   53  H   UNL     1     -10.643  11.680  69.587  1.00  0.00     0.000 HD 
HETATM   54  O   UNL     1     -11.616  12.828  67.585  1.00  0.00    -0.315 OA 
HETATM   55  N   UNL     1     -11.444  12.589  64.709  1.00  0.00    -0.312 NA 
HETATM   56  C   UNL     1     -11.360  11.423  65.617  1.00  0.00     0.001 C  
HETATM   57  H   UNL     1     -11.661  13.584  67.012  1.00  0.00     0.000 HD 
BRANCH  47  58
HETATM   58  C   UNL     1      -9.908   8.198  68.077  1.00  0.00    -0.168 C  
HETATM   59  O   UNL     1     -11.123   8.089  68.823  1.00  0.00    -0.415 OA 
HETATM   60  H   UNL     1     -11.119   7.295  69.344  1.00  0.00     0.000 HD 
ENDBRANCH  47  58
ENDBRANCH  44  45
ENDBRANCH  40  44
ENDBRANCH  29  30
ENDBRANCH  22  29
ENDBRANCH  18  19
ENDBRANCH   7  18
ENDBRANCH   2   5
TORSDOF 9
ENDMDL
MODEL      324
REMARK 921   NORMALIZED FREE ENERGY PREDICTED BY IDOCK:   14.07 KCAL/MOL
REMARK 922        TOTAL FREE ENERGY PREDICTED BY IDOCK:   19.43 KCAL/MOL
REMARK 923 INTER-LIGAND FREE ENERGY PREDICTED BY IDOCK:    6.69 KCAL/MOL
REMARK 924 INTRA-LIGAND FREE ENERGY PREDICTED BY IDOCK:   12.75 KCAL/MOL
REMARK 927      BINDING AFFINITY PREDICTED BY RF-SCORE:    0.00 PKD
ROOT
HETATM    1  N   UNL     1     -10.883  10.239  64.996  1.00  0.00     0.282 NA 
HETATM    2  C   UNL     1     -11.536  11.383  65.663  1.00  0.00     0.245 C  
HETATM    3  H1  UNL     1     -10.869   9.435  65.623  1.00  0.00     0.000 HD 
HETATM    4  H2  UNL     1      -9.951  10.476  64.655  1.00  0.00     0.000 HD 
ENDROOT
BRANCH   2   5
HETATM    5  C   UNL     1     -11.558  12.597  64.718  1.00  0.00    -0.331 C  
HETATM    6  O   UNL     1     -10.472  13.457  65.108  1.00  0.00    -0.315 OA 
HETATM    7  C   UNL     1     -10.266  14.517  64.177  1.00  0.00     1.409 C  
HETATM    8  C   UNL     1     -11.497  15.468  64.224  1.00  0.00    -0.180 C  
HETATM    9  O   UNL     1     -13.217  13.692  66.119  1.00  0.00    -0.176 OA 
HETATM   10  H   UNL     1     -14.037  14.172  66.143  1.00  0.00     0.000 HD 
HETATM   11  N   UNL     1     -11.615  16.118  65.563  1.00  0.00     0.385 NA 
HETATM   12  C   UNL     1     -12.774  14.659  63.899  1.00  0.00     0.533 C  
HETATM   13  H2  UNL     1     -10.755  16.601  65.825  1.00  0.00     0.000 HD 
HETATM   14  O   UNL     1     -12.846  14.348  62.501  1.00  0.00     0.465 OA 
HETATM   15  C   UNL     1     -12.889  13.377  64.759  1.00  0.00    -0.157 C  
HETATM   16  H1  UNL     1     -12.422  16.742  65.594  1.00  0.00     0.000 HD 
HETATM   17  H   UNL     1     -13.631  13.851  62.301  1.00  0.00     0.000 HD 
BRANCH   7  18
HETATM   18  O   UNL     1      -9.095  15.270  64.502  1.00  0.00     1.919 OA 
BRANCH  18  19
HETATM   19  C   UNL     1      -9.123  15.859  65.815  1.00  0.00    -0.153 C  
HETATM   20  O   UNL     1     -10.459  13.926  66.596  1.00  0.00    -0.268 OA 
HETATM   21  C   UNL     1      -7.689  16.276  66.131  1.00  0.00     0.180 C  
HETATM   22  C   UNL     1      -8.079  14.268  67.250  1.00  0.00    -0.178 C  
HETATM   23  H   UNL     1     -10.664  13.317  67.295  1.00  0.00     0.000 HD 
HETATM   24  O   UNL     1      -7.067  15.180  66.820  1.00  0.00    -0.039 OA 
HETATM   25  C   UNL     1      -9.451  14.883  66.933  1.00  0.00    -0.237 C  
BRANCH  21  26
HETATM   26  C   UNL     1      -7.586  17.520  67.015  1.00  0.00    -0.207 C  
HETATM   27  H   UNL     1      -6.207  18.842  67.518  1.00  0.00     0.000 HD 
HETATM   28  O   UNL     1      -6.271  18.069  66.970  1.00  0.00    -0.154 OA 
ENDBRANCH  21  26
BRANCH  22  29
HETATM   29  O   UNL     1      -7.993  14.046  68.655  1.00  0.00    -0.138 OA 
BRANCH  29  30
HETATM   30  C   UNL     1      -9.209  13.790  69.384  1.00  0.00     0.788 C  
HETATM   31  C   UNL     1      -9.831  12.453  68.935  1.00  0.00     0.122 C  
HETATM   32  O   UNL     1      -8.830  11.426  68.896  1.00  0.00    -0.329 OA 
HETATM   33  C   UNL     1     -10.960  12.038  69.885  1.00  0.00     0.357 C  
HETATM   34  C   UNL     1     -12.062  13.096  69.846  1.00  0.00    -0.357 C  
HETATM   35  N   UNL     1     -11.500  10.714  69.521  1.00  0.00    -0.269 NA 
HETATM   36  H   UNL     1      -9.213  10.603  68.620  1.00  0.00     0.000 HD 
HETATM   37  H1  UNL     1     -12.251  10.437  70.153  1.00  0.00     0.000 HD 
HETATM   38  H2  UNL     1     -10.766  10.007  69.479  1.00  0.00     0.000 HD 
HETATM   39  C   UNL     1     -11.530  14.496  70.199  1.00  0.00    -0.242 C  
HETATM   40  C   UNL     1     -10.260  14.933  69.376  1.00  0.00    -0.171 C  
HETATM   41  N   UNL     1     -12.633  15.468  70.045  1.00  0.00    -0.589 NA 
HETATM   42  H2  UNL     1     -13.458  15.213  70.588  1.00  0.00     0.000 HD 
HETATM   43  H1  UNL     1     -12.280  16.395  70.279  1.00  0.00     0.000 HD 
BRANCH  40  44
HETATM   44  O   UNL     1      -9.798  16.172  69.963  1.00  0.00    -0.054 OA 
BRANCH  44  45
HETATM   45  C   UNL     1     -10.767  17.229  70.020  1.00  0.00     0.501 C  
HETATM   46  O   UNL     1     -10.239  18.398  70.637  1.00  0.00     1.470 OA 
HETATM   47  C   UNL     1      -9.216  19.068  69.902  1.00  0.00     0.926 C  
HETATM   48  C   UNL     1      -9.761  19.517  68.544  1.00  0.00    -0.419 C  
HETATM   49  H1  UNL     1     -12.284  16.606  66.985  1.00  0.00     0.000 HD 
HETATM   50  H2  UNL     1     -12.590  15.905  68.476  1.00  0.00     0.000 HD 
HETATM   51  O   UNL     1      -8.768  20.168  67.747  1.00  0.00    -0.312 OA 
HETATM   52  C   UNL     1     -10.307  18.303  67.780  1.00  0.00    -0.401 C  
HETATM   53  H   UNL     1      -9.107  20.447  66.904  1.00  0.00     0.000 HD 
HETATM   54  O   UNL     1     -10.904  18.740  66.546  1.00  0.00    -0.312 OA 
HETATM   55  N   UNL     1     -11.898  16.388  67.903  1.00  0.00     0.270 NA 
HETATM   56  C   UNL     1     -11.354  17.560  68.625  1.00  0.00     0.723 C  
HETATM   57  H   UNL     1     -11.242  17.989  66.073  1.00  0.00     0.000 HD 
BRANCH  47  58
HETATM   58  C   UNL     1      -8.759  20.264  70.750  1.00  0.00     1.884 C  
HETATM   59  O   UNL     1      -7.337  20.407  70.680  1.00  0.00     0.215 OA 
HETATM   60  H   UNL     1      -7.054  21.146  71.204  1.00  0.00     0.000 HD 
ENDBRANCH  47  58
ENDBRANCH  44  45
ENDBRANCH  40  44
ENDBRANCH  29  30
ENDBRANCH  22  29
ENDBRANCH  18  19
ENDBRANCH   7  18
ENDBRANCH   2   5
TORSDOF 9
ENDMDL
MODEL      325
REMARK 921   NORMALIZED FREE ENERGY PREDICTED BY IDOCK:   14.57 KCAL/MOL
REMARK 922        TOTAL FREE ENERGY PREDICTED BY IDOCK:   20.19 KCAL/MOL
REMARK 923 INTER-LIGAND FREE ENERGY PREDICTED BY IDOCK:   -3.80 KCAL/MOL
REMARK 924 INTRA-LIGAND FREE ENERGY PREDICTED BY IDOCK:   23.99 KCAL/MOL
REMARK 927      BINDING AFFINITY PREDICTED BY RF-SCORE:    0.00 PKD
ROOT
HETATM    1  N   UNL     1      -9.031   6.757  71.686  1.00  0.00    -0.137 NA 
HETATM    2  C   UNL     1      -7.730   7.454  71.740  1.00  0.00    -0.086 C  
HETATM    3  H1  UNL     1      -9.367   6.577  72.632  1.00  0.00     0.000 HD 
HETATM    4  H2  UNL     1      -8.986   5.905  71.127  1.00  0.00     0.000 HD 
ENDROOT
BRANCH   2   5
HETATM    5  C   UNL     1      -7.223   7.726  70.314  1.00  0.00    -0.062 C  
HETATM    6  O   UNL     1      -8.057   6.969  69.417  1.00  0.00    -0.125 OA 
HETATM    7  C   UNL     1      -7.811   7.297  68.051  1.00  0.00    -0.118 C  
HETATM    8  C   UNL     1      -6.377   6.825  67.674  1.00  0.00    -0.044 C  
HETATM    9  O   UNL     1      -5.534   5.994  70.556  1.00  0.00    -0.012 OA 
HETATM   10  H   UNL     1      -4.622   5.757  70.430  1.00  0.00     0.000 HD 
HETATM   11  N   UNL     1      -6.267   5.339  67.763  1.00  0.00    -0.036 NA 
HETATM   12  C   UNL     1      -5.357   7.503  68.619  1.00  0.00    -0.022 C  
HETATM   13  H2  UNL     1      -6.977   4.873  67.199  1.00  0.00     0.000 HD 
HETATM   14  O   UNL     1      -5.181   8.885  68.282  1.00  0.00    -0.034 OA 
HETATM   15  C   UNL     1      -5.743   7.340  70.109  1.00  0.00    -0.024 C  
HETATM   16  H1  UNL     1      -5.326   5.029  67.517  1.00  0.00     0.000 HD 
HETATM   17  H   UNL     1      -4.555   9.302  68.862  1.00  0.00     0.000 HD 
BRANCH   7  18
HETATM   18  O   UNL     1      -8.747   6.647  67.188  1.00  0.00    -0.111 OA 
BRANCH  18  19
HETATM   19  C   UNL     1      -8.866   7.255  65.889  1.00  0.00    -0.109 C  
HETATM   20  O   UNL     1     -11.190   7.891  66.456  1.00  0.00     0.158 OA 
HETATM   21  C   UNL     1      -7.614   8.109  65.697  1.00  0.00    -0.083 C  
HETATM   22  C   UNL     1      -9.341   9.554  66.302  1.00  0.00    -0.188 C  
HETATM   23  H   UNL     1     -11.894   8.524  66.381  1.00  0.00     0.000 HD 
HETATM   24  O   UNL     1      -7.924   9.432  66.160  1.00  0.00    -0.108 OA 
HETATM   25  C   UNL     1      -9.993   8.267  65.770  1.00  0.00     0.537 C  
BRANCH  21  26
HETATM   26  C   UNL     1      -7.146   8.205  64.244  1.00  0.00    -0.078 C  
HETATM   27  H   UNL     1      -6.804   6.974  62.738  1.00  0.00     0.000 HD 
HETATM   28  O   UNL     1      -7.094   6.915  63.640  1.00  0.00    -0.053 OA 
ENDBRANCH  21  26
BRANCH  22  29
HETATM   29  O   UNL     1      -9.831  10.658  65.547  1.00  0.00    -0.226 OA 
BRANCH  29  30
HETATM   30  C   UNL     1      -9.699  11.981  66.102  1.00  0.00    -0.238 C  
HETATM   31  C   UNL     1     -10.401  13.013  65.197  1.00  0.00    -0.304 C  
HETATM   32  O   UNL     1     -11.711  12.551  64.839  1.00  0.00    -0.330 OA 
HETATM   33  C   UNL     1     -10.507  14.367  65.907  1.00  0.00    -0.308 C  
HETATM   34  C   UNL     1      -9.102  14.891  66.200  1.00  0.00    -0.202 C  
HETATM   35  N   UNL     1     -11.261  15.337  65.088  1.00  0.00    -0.376 NA 
HETATM   36  H   UNL     1     -12.143  13.187  64.281  1.00  0.00     0.000 HD 
HETATM   37  H1  UNL     1     -11.332  16.238  65.560  1.00  0.00     0.000 HD 
HETATM   38  H2  UNL     1     -12.179  14.976  64.828  1.00  0.00     0.000 HD 
HETATM   39  C   UNL     1      -8.277  13.895  67.033  1.00  0.00    -0.046 C  
HETATM   40  C   UNL     1      -8.255  12.430  66.455  1.00  0.00     0.169 C  
HETATM   41  N   UNL     1      -6.910  14.434  67.188  1.00  0.00    -0.373 NA 
HETATM   42  H2  UNL     1      -6.903  15.375  67.582  1.00  0.00     0.000 HD 
HETATM   43  H1  UNL     1      -6.364  13.773  67.741  1.00  0.00     0.000 HD 
BRANCH  40  44
HETATM   44  O   UNL     1      -7.602  11.607  67.450  1.00  0.00    -0.122 OA 
BRANCH  44  45
HETATM   45  C   UNL     1      -8.211  11.606  68.749  1.00  0.00    -0.055 C  
HETATM   46  O   UNL     1      -7.949  12.812  69.458  1.00  0.00     0.683 OA 
HETATM   47  C   UNL     1      -8.564  13.983  68.922  1.00  0.00     0.053 C  
HETATM   48  C   UNL     1     -10.085  13.817  68.920  1.00  0.00    -0.066 C  
HETATM   49  H1  UNL     1     -11.094   9.919  67.887  1.00  0.00     0.000 HD 
HETATM   50  H2  UNL     1      -9.598   9.294  68.311  1.00  0.00     0.000 HD 
HETATM   51  O   UNL     1     -10.756  14.948  68.362  1.00  0.00    -0.235 OA 
HETATM   52  C   UNL     1     -10.466  12.559  68.126  1.00  0.00    -0.229 C  
HETATM   53  H   UNL     1     -11.701  14.845  68.361  1.00  0.00     0.000 HD 
HETATM   54  O   UNL     1     -11.888  12.353  68.206  1.00  0.00    -0.326 OA 
HETATM   55  N   UNL     1     -10.092  10.102  67.932  1.00  0.00    -0.169 NA 
HETATM   56  C   UNL     1      -9.734  11.328  68.681  1.00  0.00    -0.195 C  
HETATM   57  H   UNL     1     -12.123  11.574  67.715  1.00  0.00     0.000 HD 
BRANCH  47  58
HETATM   58  C   UNL     1      -8.126  15.166  69.797  1.00  0.00     0.009 C  
HETATM   59  O   UNL     1      -8.783  16.364  69.375  1.00  0.00    -0.174 OA 
HETATM   60  H   UNL     1      -8.513  17.096  69.917  1.00  0.00     0.000 HD 
ENDBRANCH  47  58
ENDBRANCH  44  45
ENDBRANCH  40  44
ENDBRANCH  29  30
ENDBRANCH  22  29
ENDBRANCH  18  19
ENDBRANCH   7  18
ENDBRANCH   2   5
TORSDOF 9
ENDMDL
MODEL      326
REMARK 921   NORMALIZED FREE ENERGY PREDICTED BY IDOCK:   14.60 KCAL/MOL
REMARK 922        TOTAL FREE ENERGY PREDICTED BY IDOCK:   20.24 KCAL/MOL
REMARK 923 INTER-LIGAND FREE ENERGY PREDICTED BY IDOCK:   -1.44 KCAL/MOL
REMARK 924 INTRA-LIGAND FREE ENERGY PREDICTED BY IDOCK:   21.67 KCAL/MOL
REMARK 927      BINDING AFFINITY PREDICTED BY RF-SCORE:    0.00 PKD
ROOT
HETATM    1  N   UNL     1      -9.119   5.988  71.549  1.00  0.00    -0.143 NA 
HETATM    2  C   UNL     1      -7.729   6.485  71.592  1.00  0.00    -0.099 C  
HETATM    3  H1  UNL     1      -9.330   5.472  72.403  1.00  0.00     0.000 HD 
HETATM    4  H2  UNL     1      -9.303   5.435  70.711  1.00  0.00     0.000 HD 
ENDROOT
BRANCH   2   5
HETATM    5  C   UNL     1      -7.412   7.264  70.305  1.00  0.00    -0.084 C  
HETATM    6  O   UNL     1      -7.897   6.476  69.202  1.00  0.00    -0.106 OA 
HETATM    7  C   UNL     1      -7.840   7.188  67.968  1.00  0.00    -0.118 C  
HETATM    8  C   UNL     1      -6.348   7.424  67.596  1.00  0.00    -0.052 C  
HETATM    9  O   UNL     1      -5.165   6.335  70.264  1.00  0.00    -0.013 OA 
HETATM   10  H   UNL     1      -4.238   6.514  70.153  1.00  0.00     0.000 HD 
HETATM   11  N   UNL     1      -5.650   6.126  67.351  1.00  0.00    -0.008 NA 
HETATM   12  C   UNL     1      -5.659   8.204  68.740  1.00  0.00    -0.035 C  
HETATM   13  H2  UNL     1      -6.130   5.567  66.647  1.00  0.00     0.000 HD 
HETATM   14  O   UNL     1      -6.060   9.581  68.740  1.00  0.00    -0.043 OA 
HETATM   15  C   UNL     1      -5.907   7.554  70.123  1.00  0.00    -0.024 C  
HETATM   16  H1  UNL     1      -4.671   6.281  67.108  1.00  0.00     0.000 HD 
HETATM   17  H   UNL     1      -5.637  10.059  69.443  1.00  0.00     0.000 HD 
BRANCH   7  18
HETATM   18  O   UNL     1      -8.461   6.446  66.915  1.00  0.00    -0.109 OA 
BRANCH  18  19
HETATM   19  C   UNL     1      -8.555   7.162  65.671  1.00  0.00    -0.107 C  
HETATM   20  O   UNL     1     -10.911   7.693  66.213  1.00  0.00     0.197 OA 
HETATM   21  C   UNL     1      -7.320   8.058  65.596  1.00  0.00    -0.079 C  
HETATM   22  C   UNL     1      -9.101   9.405  66.265  1.00  0.00    -0.163 C  
HETATM   23  H   UNL     1     -11.629   8.313  66.170  1.00  0.00     0.000 HD 
HETATM   24  O   UNL     1      -7.678   9.328  66.160  1.00  0.00    -0.095 OA 
HETATM   25  C   UNL     1      -9.703   8.155  65.603  1.00  0.00     0.463 C  
BRANCH  21  26
HETATM   26  C   UNL     1      -6.809   8.291  64.173  1.00  0.00    -0.067 C  
HETATM   27  H   UNL     1      -6.377   7.204  62.582  1.00  0.00     0.000 HD 
HETATM   28  O   UNL     1      -6.693   7.059  63.465  1.00  0.00    -0.042 OA 
ENDBRANCH  21  26
BRANCH  22  29
HETATM   29  O   UNL     1      -9.596  10.559  65.593  1.00  0.00    -0.198 OA 
BRANCH  29  30
HETATM   30  C   UNL     1      -9.693  11.794  66.330  1.00  0.00    -0.222 C  
HETATM   31  C   UNL     1      -8.288  12.368  66.598  1.00  0.00     0.016 C  
HETATM   32  O   UNL     1      -7.506  12.351  65.396  1.00  0.00     1.784 OA 
HETATM   33  C   UNL     1      -8.386  13.802  67.130  1.00  0.00    -0.137 C  
HETATM   34  C   UNL     1      -9.142  13.793  68.459  1.00  0.00    -0.133 C  
HETATM   35  N   UNL     1      -7.046  14.397  67.301  1.00  0.00    -0.346 NA 
HETATM   36  H   UNL     1      -6.641  12.706  65.561  1.00  0.00     0.000 HD 
HETATM   37  H1  UNL     1      -7.110  15.351  67.655  1.00  0.00     0.000 HD 
HETATM   38  H2  UNL     1      -6.503  14.352  66.439  1.00  0.00     0.000 HD 
HETATM   39  C   UNL     1     -10.536  13.158  68.324  1.00  0.00    -0.248 C  
HETATM   40  C   UNL     1     -10.541  11.744  67.630  1.00  0.00    -0.205 C  
HETATM   41  N   UNL     1     -11.157  13.103  69.664  1.00  0.00    -0.467 NA 
HETATM   42  H2  UNL     1     -11.183  14.015  70.121  1.00  0.00     0.000 HD 
HETATM   43  H1  UNL     1     -12.081  12.683  69.574  1.00  0.00     0.000 HD 
BRANCH  40  44
HETATM   44  O   UNL     1     -11.929  11.393  67.424  1.00  0.00    -0.606 OA 
BRANCH  44  45
HETATM   45  C   UNL     1     -12.720  12.375  66.739  1.00  0.00     1.755 C  
HETATM   46  O   UNL     1     -13.029  13.484  67.576  1.00  0.00     0.849 OA 
HETATM   47  C   UNL     1     -11.920  14.303  67.940  1.00  0.00    -0.329 C  
HETATM   48  C   UNL     1     -11.272  14.890  66.683  1.00  0.00    -0.340 C  
HETATM   49  H1  UNL     1     -11.236  12.059  63.640  1.00  0.00     0.000 HD 
HETATM   50  H2  UNL     1     -12.480  11.155  64.307  1.00  0.00     0.000 HD 
HETATM   51  O   UNL     1     -10.131  15.697  66.984  1.00  0.00    -0.244 OA 
HETATM   52  C   UNL     1     -10.855  13.755  65.739  1.00  0.00    -0.277 C  
HETATM   53  H   UNL     1      -9.730  16.061  66.204  1.00  0.00     0.000 HD 
HETATM   54  O   UNL     1     -10.335  14.311  64.518  1.00  0.00    -0.548 OA 
HETATM   55  N   UNL     1     -11.674  11.748  64.507  1.00  0.00    -0.241 NA 
HETATM   56  C   UNL     1     -12.055  12.848  65.422  1.00  0.00    -0.454 C  
HETATM   57  H   UNL     1     -10.077  13.608  63.934  1.00  0.00     0.000 HD 
BRANCH  47  58
HETATM   58  C   UNL     1     -12.454  15.404  68.866  1.00  0.00     0.210 C  
HETATM   59  O   UNL     1     -11.370  16.135  69.446  1.00  0.00    -0.328 OA 
HETATM   60  H   UNL     1     -11.700  16.816  70.019  1.00  0.00     0.000 HD 
ENDBRANCH  47  58
ENDBRANCH  44  45
ENDBRANCH  40  44
ENDBRANCH  29  30
ENDBRANCH  22  29
ENDBRANCH  18  19
ENDBRANCH   7  18
ENDBRANCH   2   5
TORSDOF 9
ENDMDL
MODEL      327
REMARK 921   NORMALIZED FREE ENERGY PREDICTED BY IDOCK:   14.90 KCAL/MOL
REMARK 922        TOTAL FREE ENERGY PREDICTED BY IDOCK:   20.69 KCAL/MOL
REMARK 923 INTER-LIGAND FREE ENERGY PREDICTED BY IDOCK:    2.87 KCAL/MOL
REMARK 924 INTRA-LIGAND FREE ENERGY PREDICTED BY IDOCK:   17.82 KCAL/MOL
REMARK 927      BINDING AFFINITY PREDICTED BY RF-SCORE:    0.00 PKD
ROOT
HETATM    1  N   UNL     1      -6.909  10.040  66.355  1.00  0.00    -0.089 NA 
HETATM    2  C   UNL     1      -7.456   9.367  67.551  1.00  0.00    -0.091 C  
HETATM    3  H1  UNL     1      -7.386   9.702  65.519  1.00  0.00     0.000 HD 
HETATM    4  H2  UNL     1      -5.896   9.936  66.287  1.00  0.00     0.000 HD 
ENDROOT
BRANCH   2   5
HETATM    5  C   UNL     1      -6.736   9.876  68.812  1.00  0.00    -0.050 C  
HETATM    6  O   UNL     1      -6.426   8.724  69.617  1.00  0.00    -0.038 OA 
HETATM    7  C   UNL     1      -5.580   9.051  70.717  1.00  0.00    -0.034 C  
HETATM    8  C   UNL     1      -6.370   9.961  71.702  1.00  0.00     0.370 C  
HETATM    9  O   UNL     1      -8.873  10.323  69.883  1.00  0.00    -0.367 OA 
HETATM   10  H   UNL     1      -9.390  10.942  70.386  1.00  0.00     0.000 HD 
HETATM   11  N   UNL     1      -7.533   9.229  72.285  1.00  0.00    -0.021 NA 
HETATM   12  C   UNL     1      -6.847  11.226  70.949  1.00  0.00     1.786 C  
HETATM   13  H2  UNL     1      -7.246   8.355  72.727  1.00  0.00     0.000 HD 
HETATM   14  O   UNL     1      -5.756  12.127  70.714  1.00  0.00    -0.246 OA 
HETATM   15  C   UNL     1      -7.576  10.881  69.629  1.00  0.00     0.023 C  
HETATM   16  H1  UNL     1      -8.051   9.825  72.930  1.00  0.00     0.000 HD 
HETATM   17  H   UNL     1      -6.049  12.904  70.251  1.00  0.00     0.000 HD 
BRANCH   7  18
HETATM   18  O   UNL     1      -5.165   7.875  71.416  1.00  0.00    -0.030 OA 
BRANCH  18  19
HETATM   19  C   UNL     1      -6.250   7.022  71.823  1.00  0.00    -0.038 C  
HETATM   20  O   UNL     1      -7.787   8.426  70.483  1.00  0.00    -0.080 OA 
HETATM   21  C   UNL     1      -5.772   5.587  71.616  1.00  0.00    -0.020 C  
HETATM   22  C   UNL     1      -7.141   6.117  69.805  1.00  0.00    -0.072 C  
HETATM   23  H   UNL     1      -8.555   8.478  69.927  1.00  0.00     0.000 HD 
HETATM   24  O   UNL     1      -6.174   5.187  70.297  1.00  0.00    -0.020 OA 
HETATM   25  C   UNL     1      -7.480   7.105  70.933  1.00  0.00    -0.080 C  
BRANCH  21  26
HETATM   26  C   UNL     1      -6.353   4.589  72.618  1.00  0.00    -0.025 C  
HETATM   27  H   UNL     1      -6.085   2.696  73.116  1.00  0.00     0.000 HD 
HETATM   28  O   UNL     1      -5.724   3.316  72.493  1.00  0.00    -0.007 OA 
ENDBRANCH  21  26
BRANCH  22  29
HETATM   29  O   UNL     1      -8.334   5.445  69.414  1.00  0.00    -0.095 OA 
BRANCH  29  30
HETATM   30  C   UNL     1      -8.734   5.504  68.031  1.00  0.00    -0.106 C  
HETATM   31  C   UNL     1      -7.959   4.459  67.205  1.00  0.00    -0.101 C  
HETATM   32  O   UNL     1      -7.981   3.187  67.866  1.00  0.00    -0.073 OA 
HETATM   33  C   UNL     1      -8.566   4.323  65.804  1.00  0.00    -0.114 C  
HETATM   34  C   UNL     1      -8.452   5.662  65.076  1.00  0.00    -0.135 C  
HETATM   35  N   UNL     1      -7.893   3.257  65.036  1.00  0.00    -0.081 NA 
HETATM   36  H   UNL     1      -7.504   2.543  67.357  1.00  0.00     0.000 HD 
HETATM   37  H1  UNL     1      -8.296   3.167  64.103  1.00  0.00     0.000 HD 
HETATM   38  H2  UNL     1      -7.902   2.370  65.537  1.00  0.00     0.000 HD 
HETATM   39  C   UNL     1      -9.124   6.803  65.860  1.00  0.00    -0.016 C  
HETATM   40  C   UNL     1      -8.674   6.907  67.366  1.00  0.00    -0.119 C  
HETATM   41  N   UNL     1      -8.886   8.070  65.138  1.00  0.00    -0.389 NA 
HETATM   42  H2  UNL     1      -9.191   8.030  64.165  1.00  0.00     0.000 HD 
HETATM   43  H1  UNL     1      -9.331   8.826  65.658  1.00  0.00     0.000 HD 
BRANCH  40  44
HETATM   44  O   UNL     1      -9.531   7.896  67.982  1.00  0.00    -0.147 OA 
BRANCH  44  45
HETATM   45  C   UNL     1     -10.789   8.119  67.328  1.00  0.00    -0.060 C  
HETATM   46  O   UNL     1     -11.869   8.153  68.254  1.00  0.00     1.731 OA 
HETATM   47  C   UNL     1     -11.876   9.268  69.144  1.00  0.00     0.988 C  
HETATM   48  C   UNL     1     -11.964  10.571  68.345  1.00  0.00     0.327 C  
HETATM   49  H1  UNL     1      -9.649  10.294  64.904  1.00  0.00     0.000 HD 
HETATM   50  H2  UNL     1      -9.655   8.618  64.893  1.00  0.00     0.000 HD 
HETATM   51  O   UNL     1     -11.942  11.728  69.184  1.00  0.00    -0.314 OA 
HETATM   52  C   UNL     1     -10.799  10.646  67.349  1.00  0.00    -0.296 C  
HETATM   53  H   UNL     1     -11.997  12.536  68.688  1.00  0.00     0.000 HD 
HETATM   54  O   UNL     1     -10.937  11.823  66.534  1.00  0.00    -0.270 OA 
HETATM   55  N   UNL     1      -9.659   9.452  65.480  1.00  0.00    -0.275 NA 
HETATM   56  C   UNL     1     -10.774   9.397  66.453  1.00  0.00     0.148 C  
HETATM   57  H   UNL     1     -10.215  11.869  65.918  1.00  0.00     0.000 HD 
BRANCH  47  58
HETATM   58  C   UNL     1     -13.083   9.096  70.077  1.00  0.00     1.636 C  
HETATM   59  O   UNL     1     -13.605  10.373  70.454  1.00  0.00    -0.243 OA 
HETATM   60  H   UNL     1     -14.352  10.266  71.031  1.00  0.00     0.000 HD 
ENDBRANCH  47  58
ENDBRANCH  44  45
ENDBRANCH  40  44
ENDBRANCH  29  30
ENDBRANCH  22  29
ENDBRANCH  18  19
ENDBRANCH   7  18
ENDBRANCH   2   5
TORSDOF 9
ENDMDL
MODEL      328
REMARK 921   NORMALIZED FREE ENERGY PREDICTED BY IDOCK:   15.51 KCAL/MOL
REMARK 922        TOTAL FREE ENERGY PREDICTED BY IDOCK:   21.63 KCAL/MOL
REMARK 923 INTER-LIGAND FREE ENERGY PREDICTED BY IDOCK:    7.00 KCAL/MOL
REMARK 924 INTRA-LIGAND FREE ENERGY PREDICTED BY IDOCK:   14.63 KCAL/MOL
REMARK 927      BINDING AFFINITY PREDICTED BY RF-SCORE:    0.00 PKD
ROOT
HETATM    1  N   UNL     1      -9.114   5.914  68.431  1.00  0.00    -0.115 NA 
HETATM    2  C   UNL     1      -9.627   4.798  69.251  1.00  0.00    -0.173 C  
HETATM    3  H1  UNL     1      -9.115   5.650  67.446  1.00  0.00     0.000 HD 
HETATM    4  H2  UNL     1      -8.195   6.229  68.744  1.00  0.00     0.000 HD 
ENDROOT
BRANCH   2   5
HETATM    5  C   UNL     1      -9.627   5.198  70.736  1.00  0.00    -0.179 C  
HETATM    6  O   UNL     1      -9.689   6.635  70.789  1.00  0.00    -0.178 OA 
HETATM    7  C   UNL     1      -9.898   7.115  72.115  1.00  0.00    -0.153 C  
HETATM    8  C   UNL     1      -8.636   6.791  72.967  1.00  0.00    -0.119 C  
HETATM    9  O   UNL     1      -7.198   5.083  70.795  1.00  0.00    -0.056 OA 
HETATM   10  H   UNL     1      -6.434   4.774  71.266  1.00  0.00     0.000 HD 
HETATM   11  N   UNL     1      -7.444   7.525  72.450  1.00  0.00    -0.072 NA 
HETATM   12  C   UNL     1      -8.388   5.265  72.942  1.00  0.00    -0.112 C  
HETATM   13  H2  UNL     1      -7.614   8.529  72.395  1.00  0.00     0.000 HD 
HETATM   14  O   UNL     1      -9.338   4.574  73.765  1.00  0.00    -0.116 OA 
HETATM   15  C   UNL     1      -8.384   4.696  71.503  1.00  0.00    -0.104 C  
HETATM   16  H1  UNL     1      -6.617   7.313  73.008  1.00  0.00     0.000 HD 
HETATM   17  H   UNL     1      -9.185   3.636  73.749  1.00  0.00     0.000 HD 
BRANCH   7  18
HETATM   18  O   UNL     1     -10.105   8.530  72.125  1.00  0.00    -0.276 OA 
BRANCH  18  19
HETATM   19  C   UNL     1     -10.165   9.122  70.815  1.00  0.00    -0.260 C  
HETATM   20  O   UNL     1      -7.764   9.689  71.018  1.00  0.00    -0.323 OA 
HETATM   21  C   UNL     1     -10.882   8.114  69.919  1.00  0.00    -0.215 C  
HETATM   22  C   UNL     1      -8.599   7.904  69.493  1.00  0.00    -0.137 C  
HETATM   23  H   UNL     1      -6.920   9.790  70.594  1.00  0.00     0.000 HD 
HETATM   24  O   UNL     1      -9.875   7.286  69.316  1.00  0.00    -0.163 OA 
HETATM   25  C   UNL     1      -8.815   9.283  70.137  1.00  0.00    -0.213 C  
BRANCH  21  26
HETATM   26  C   UNL     1     -11.710   8.755  68.804  1.00  0.00     1.476 C  
HETATM   27  H   UNL     1     -13.330   9.874  68.650  1.00  0.00     0.000 HD 
HETATM   28  O   UNL     1     -12.816   9.476  69.342  1.00  0.00     1.438 OA 
ENDBRANCH  21  26
BRANCH  22  29
HETATM   29  O   UNL     1      -7.947   8.084  68.239  1.00  0.00    -0.123 OA 
BRANCH  29  30
HETATM   30  C   UNL     1      -8.685   8.695  67.163  1.00  0.00    -0.128 C  
HETATM   31  C   UNL     1      -8.887   7.688  66.013  1.00  0.00    -0.155 C  
HETATM   32  O   UNL     1      -9.347   6.431  66.528  1.00  0.00    -0.151 OA 
HETATM   33  C   UNL     1      -9.896   8.229  64.994  1.00  0.00     1.760 C  
HETATM   34  C   UNL     1      -9.349   9.521  64.386  1.00  0.00    -0.120 C  
HETATM   35  N   UNL     1     -10.169   7.235  63.939  1.00  0.00     5.768 NA 
HETATM   36  H   UNL     1      -9.472   5.811  65.820  1.00  0.00     0.000 HD 
HETATM   37  H1  UNL     1     -10.840   7.594  63.260  1.00  0.00     0.000 HD 
HETATM   38  H2  UNL     1     -10.473   6.344  64.331  1.00  0.00     0.000 HD 
HETATM   39  C   UNL     1      -9.031  10.574  65.460  1.00  0.00    -0.183 C  
HETATM   40  C   UNL     1      -8.129  10.047  66.639  1.00  0.00    -0.118 C  
HETATM   41  N   UNL     1      -8.423  11.748  64.799  1.00  0.00     0.266 NA 
HETATM   42  H2  UNL     1      -9.003  12.118  64.046  1.00  0.00     0.000 HD 
HETATM   43  H1  UNL     1      -8.212  12.446  65.512  1.00  0.00     0.000 HD 
BRANCH  40  44
HETATM   44  O   UNL     1      -8.091  11.100  67.629  1.00  0.00    -0.113 OA 
BRANCH  44  45
HETATM   45  C   UNL     1      -6.874  11.859  67.680  1.00  0.00    -0.112 C  
HETATM   46  O   UNL     1      -7.097  13.237  67.399  1.00  0.00    -0.159 OA 
HETATM   47  C   UNL     1      -7.848  13.948  68.382  1.00  0.00    -0.138 C  
HETATM   48  C   UNL     1      -7.117  13.904  69.726  1.00  0.00     0.224 C  
HETATM   49  H1  UNL     1      -5.400  10.162  70.297  1.00  0.00     0.000 HD 
HETATM   50  H2  UNL     1      -5.393   9.786  68.664  1.00  0.00     0.000 HD 
HETATM   51  O   UNL     1      -7.840  14.574  70.761  1.00  0.00     0.698 OA 
HETATM   52  C   UNL     1      -6.880  12.445  70.138  1.00  0.00     0.732 C  
HETATM   53  H   UNL     1      -7.386  14.547  71.596  1.00  0.00     0.000 HD 
HETATM   54  O   UNL     1      -6.109  12.406  71.352  1.00  0.00    -0.338 OA 
HETATM   55  N   UNL     1      -5.888  10.276  69.409  1.00  0.00    -0.037 NA 
HETATM   56  C   UNL     1      -6.133  11.686  69.029  1.00  0.00    -0.057 C  
HETATM   57  H   UNL     1      -5.962  11.503  71.606  1.00  0.00     0.000 HD 
BRANCH  47  58
HETATM   58  C   UNL     1      -8.010  15.387  67.874  1.00  0.00    -0.135 C  
HETATM   59  O   UNL     1      -8.306  15.390  66.475  1.00  0.00    -0.330 OA 
HETATM   60  H   UNL     1      -8.406  16.280  66.161  1.00  0.00     0.000 HD 
ENDBRANCH  47  58
ENDBRANCH  44  45
ENDBRANCH  40  44
ENDBRANCH  29  30
ENDBRANCH  22  29
ENDBRANCH  18  19
ENDBRANCH   7  18
ENDBRANCH   2   5
TORSDOF 9
ENDMDL
MODEL      329
REMARK 921   NORMALIZED FREE ENERGY PREDICTED BY IDOCK:   16.68 KCAL/MOL
REMARK 922        TOTAL FREE ENERGY PREDICTED BY IDOCK:   23.42 KCAL/MOL
REMARK 923 INTER-LIGAND FREE ENERGY PREDICTED BY IDOCK:   -1.46 KCAL/MOL
REMARK 924 INTRA-LIGAND FREE ENERGY PREDICTED BY IDOCK:   24.88 KCAL/MOL
REMARK 927      BINDING AFFINITY PREDICTED BY RF-SCORE:    0.00 PKD
ROOT
HETATM    1  N   UNL     1      -8.944   8.461  74.360  1.00  0.00     0.086 NA 
HETATM    2  C   UNL     1      -9.984   8.839  73.382  1.00  0.00     1.487 C  
HETATM    3  H1  UNL     1      -8.287   9.232  74.483  1.00  0.00     0.000 HD 
HETATM    4  H2  UNL     1      -8.472   7.593  74.102  1.00  0.00     0.000 HD 
ENDROOT
BRANCH   2   5
HETATM    5  C   UNL     1     -10.974   7.676  73.197  1.00  0.00    -0.353 C  
HETATM    6  O   UNL     1     -10.213   6.538  72.753  1.00  0.00    -0.177 OA 
HETATM    7  C   UNL     1     -10.992   5.344  72.740  1.00  0.00    -0.277 C  
HETATM    8  C   UNL     1     -12.091   5.476  71.646  1.00  0.00     0.883 C  
HETATM    9  O   UNL     1     -11.520   8.461  70.961  1.00  0.00    -0.263 OA 
HETATM   10  H   UNL     1     -12.211   8.653  70.338  1.00  0.00     0.000 HD 
HETATM   11  N   UNL     1     -11.478   5.578  70.288  1.00  0.00     0.375 NA 
HETATM   12  C   UNL     1     -12.956   6.722  71.946  1.00  0.00    -0.178 C  
HETATM   13  H2  UNL     1     -10.849   4.798  70.098  1.00  0.00     0.000 HD 
HETATM   14  O   UNL     1     -13.838   6.483  73.052  1.00  0.00     0.560 OA 
HETATM   15  C   UNL     1     -12.097   7.987  72.185  1.00  0.00    -0.343 C  
HETATM   16  H1  UNL     1     -12.198   5.665  69.571  1.00  0.00     0.000 HD 
HETATM   17  H   UNL     1     -14.369   7.249  73.236  1.00  0.00     0.000 HD 
BRANCH   7  18
HETATM   18  O   UNL     1     -10.183   4.203  72.440  1.00  0.00    -0.171 OA 
BRANCH  18  19
HETATM   19  C   UNL     1      -9.070   4.488  71.574  1.00  0.00    -0.131 C  
HETATM   20  O   UNL     1     -10.358   3.531  69.689  1.00  0.00     0.731 OA 
HETATM   21  C   UNL     1      -8.650   5.926  71.870  1.00  0.00    -0.137 C  
HETATM   22  C   UNL     1      -9.916   5.973  69.913  1.00  0.00    -0.176 C  
HETATM   23  H   UNL     1     -10.576   3.557  68.765  1.00  0.00     0.000 HD 
HETATM   24  O   UNL     1      -9.361   6.776  70.956  1.00  0.00    -0.160 OA 
HETATM   25  C   UNL     1      -9.419   4.530  70.096  1.00  0.00    -0.167 C  
BRANCH  21  26
HETATM   26  C   UNL     1      -7.152   6.182  71.698  1.00  0.00    -0.082 C  
HETATM   27  H   UNL     1      -5.852   7.596  72.158  1.00  0.00     0.000 HD 
HETATM   28  O   UNL     1      -6.782   7.437  72.265  1.00  0.00    -0.057 OA 
ENDBRANCH  21  26
BRANCH  22  29
HETATM   29  O   UNL     1      -9.493   6.442  68.636  1.00  0.00    -0.124 OA 
BRANCH  29  30
HETATM   30  C   UNL     1      -8.092   6.373  68.309  1.00  0.00    -0.113 C  
HETATM   31  C   UNL     1      -7.326   5.597  69.399  1.00  0.00    -0.070 C  
HETATM   32  O   UNL     1      -8.012   4.379  69.718  1.00  0.00    -0.057 OA 
HETATM   33  C   UNL     1      -5.900   5.280  68.933  1.00  0.00    -0.020 C  
HETATM   34  C   UNL     1      -5.151   6.590  68.685  1.00  0.00    -0.004 C  
HETATM   35  N   UNL     1      -5.187   4.456  69.928  1.00  0.00    -0.003 NA 
HETATM   36  H   UNL     1      -7.539   3.901  70.389  1.00  0.00     0.000 HD 
HETATM   37  H1  UNL     1      -4.239   4.246  69.618  1.00  0.00     0.000 HD 
HETATM   38  H2  UNL     1      -5.706   3.608  70.154  1.00  0.00     0.000 HD 
HETATM   39  C   UNL     1      -5.878   7.486  67.668  1.00  0.00    -0.036 C  
HETATM   40  C   UNL     1      -7.402   7.726  67.988  1.00  0.00    -0.102 C  
HETATM   41  N   UNL     1      -5.142   8.763  67.560  1.00  0.00    -0.033 NA 
HETATM   42  H2  UNL     1      -4.157   8.629  67.331  1.00  0.00     0.000 HD 
HETATM   43  H1  UNL     1      -5.624   9.357  66.886  1.00  0.00     0.000 HD 
BRANCH  40  44
HETATM   44  O   UNL     1      -7.955   8.422  66.847  1.00  0.00    -0.097 OA 
BRANCH  44  45
HETATM   45  C   UNL     1      -7.830   9.851  66.873  1.00  0.00    -0.102 C  
HETATM   46  O   UNL     1      -7.428  10.371  65.610  1.00  0.00    -0.144 OA 
HETATM   47  C   UNL     1      -8.389  10.247  64.563  1.00  0.00    -0.168 C  
HETATM   48  C   UNL     1      -9.668  10.998  64.940  1.00  0.00    -0.254 C  
HETATM   49  H1  UNL     1     -10.483  10.491  68.984  1.00  0.00     0.000 HD 
HETATM   50  H2  UNL     1      -8.902  10.095  69.374  1.00  0.00     0.000 HD 
HETATM   51  O   UNL     1     -10.683  10.883  63.940  1.00  0.00    -0.510 OA 
HETATM   52  C   UNL     1     -10.207  10.463  66.274  1.00  0.00    -0.222 C  
HETATM   53  H   UNL     1     -11.477  11.349  64.174  1.00  0.00     0.000 HD 
HETATM   54  O   UNL     1     -11.354  11.235  66.673  1.00  0.00    -0.338 OA 
HETATM   55  N   UNL     1      -9.630  10.036  68.661  1.00  0.00    -0.151 NA 
HETATM   56  C   UNL     1      -9.127  10.543  67.364  1.00  0.00    -0.139 C  
HETATM   57  H   UNL     1     -11.688  10.904  67.499  1.00  0.00     0.000 HD 
BRANCH  47  58
HETATM   58  C   UNL     1      -7.750  10.822  63.291  1.00  0.00     0.165 C  
HETATM   59  O   UNL     1      -8.762  11.302  62.402  1.00  0.00    -0.385 OA 
HETATM   60  H   UNL     1      -8.367  11.658  61.615  1.00  0.00     0.000 HD 
ENDBRANCH  47  58
ENDBRANCH  44  45
ENDBRANCH  40  44
ENDBRANCH  29  30
ENDBRANCH  22  29
ENDBRANCH  18  19
ENDBRANCH   7  18
ENDBRANCH   2   5
TORSDOF 9
ENDMDL
MODEL      330
REMARK 921   NORMALIZED FREE ENERGY PREDICTED BY IDOCK:   17.04 KCAL/MOL
REMARK 922        TOTAL FREE ENERGY PREDICTED BY IDOCK:   23.96 KCAL/MOL
REMARK 923 INTER-LIGAND FREE ENERGY PREDICTED BY IDOCK:    9.34 KCAL/MOL
REMARK 924 INTRA-LIGAND FREE ENERGY PREDICTED BY IDOCK:   14.62 KCAL/MOL
REMARK 927      BINDING AFFINITY PREDICTED BY RF-SCORE:    0.00 PKD
ROOT
HETATM    1  N   UNL     1     -10.320   8.107  71.645  1.00  0.00    -0.212 NA 
HETATM    2  C   UNL     1     -10.389   9.539  72.001  1.00  0.00     0.720 C  
HETATM    3  H1  UNL     1     -11.152   7.625  71.986  1.00  0.00     0.000 HD 
HETATM    4  H2  UNL     1      -9.461   7.670  71.979  1.00  0.00     0.000 HD 
ENDROOT
BRANCH   2   5
HETATM    5  C   UNL     1      -9.135  10.266  71.487  1.00  0.00     3.864 C  
HETATM    6  O   UNL     1      -9.148  10.170  70.051  1.00  0.00    -0.161 OA 
HETATM    7  C   UNL     1      -8.140  10.981  69.451  1.00  0.00     0.076 C  
HETATM    8  C   UNL     1      -6.745  10.400  69.825  1.00  0.00    -0.117 C  
HETATM    9  O   UNL     1      -7.801   8.261  71.827  1.00  0.00    -0.099 OA 
HETATM   10  H   UNL     1      -6.992   7.900  72.169  1.00  0.00     0.000 HD 
HETATM   11  N   UNL     1      -6.566   9.034  69.250  1.00  0.00    -0.048 NA 
HETATM   12  C   UNL     1      -6.609  10.364  71.365  1.00  0.00     0.922 C  
HETATM   13  H2  UNL     1      -6.720   9.026  68.241  1.00  0.00     0.000 HD 
HETATM   14  O   UNL     1      -6.400  11.680  71.895  1.00  0.00     1.116 OA 
HETATM   15  C   UNL     1      -7.820   9.679  72.043  1.00  0.00     1.689 C  
HETATM   16  H1  UNL     1      -5.652   8.654  69.495  1.00  0.00     0.000 HD 
HETATM   17  H   UNL     1      -6.317  11.657  72.841  1.00  0.00     0.000 HD 
BRANCH   7  18
HETATM   18  O   UNL     1      -8.264  10.988  68.026  1.00  0.00    -0.115 OA 
BRANCH  18  19
HETATM   19  C   UNL     1      -9.460  11.629  67.547  1.00  0.00    -0.171 C  
HETATM   20  O   UNL     1     -10.375  11.525  69.844  1.00  0.00    -0.195 OA 
HETATM   21  C   UNL     1      -9.003  12.819  66.706  1.00  0.00    -0.188 C  
HETATM   22  C   UNL     1      -9.637  13.657  68.787  1.00  0.00    -0.011 C  
HETATM   23  H   UNL     1     -10.902  11.931  70.522  1.00  0.00     0.000 HD 
HETATM   24  O   UNL     1      -8.942  13.959  67.576  1.00  0.00    -0.178 OA 
HETATM   25  C   UNL     1     -10.302  12.279  68.632  1.00  0.00    -0.188 C  
BRANCH  21  26
HETATM   26  C   UNL     1      -9.939  13.152  65.542  1.00  0.00    -0.207 C  
HETATM   27  H   UNL     1     -10.134  12.656  63.641  1.00  0.00     0.000 HD 
HETATM   28  O   UNL     1      -9.553  12.450  64.362  1.00  0.00    -0.019 OA 
ENDBRANCH  21  26
BRANCH  22  29
HETATM   29  O   UNL     1     -10.651  14.625  69.042  1.00  0.00    -0.237 OA 
BRANCH  29  30
HETATM   30  C   UNL     1     -10.810  15.714  68.112  1.00  0.00    -0.301 C  
HETATM   31  C   UNL     1     -11.167  15.174  66.713  1.00  0.00    -0.285 C  
HETATM   32  O   UNL     1     -12.216  14.200  66.808  1.00  0.00    -0.447 OA 
HETATM   33  C   UNL     1     -11.607  16.317  65.791  1.00  0.00     0.752 C  
HETATM   34  C   UNL     1     -10.448  17.300  65.624  1.00  0.00    -0.191 C  
HETATM   35  N   UNL     1     -12.042  15.802  64.478  1.00  0.00    -0.178 NA 
HETATM   36  H   UNL     1     -12.436  13.868  65.946  1.00  0.00     0.000 HD 
HETATM   37  H1  UNL     1     -12.334  16.562  63.865  1.00  0.00     0.000 HD 
HETATM   38  H2  UNL     1     -12.771  15.096  64.575  1.00  0.00     0.000 HD 
HETATM   39  C   UNL     1      -9.953  17.841  66.977  1.00  0.00    -0.322 C  
HETATM   40  C   UNL     1      -9.635  16.726  68.043  1.00  0.00    -0.234 C  
HETATM   41  N   UNL     1      -8.778  18.704  66.733  1.00  0.00    -0.283 NA 
HETATM   42  H2  UNL     1      -8.970  19.447  66.060  1.00  0.00     0.000 HD 
HETATM   43  H1  UNL     1      -8.450  19.062  67.629  1.00  0.00     0.000 HD 
BRANCH  40  44
HETATM   44  O   UNL     1      -9.368  17.415  69.287  1.00  0.00    -0.067 OA 
BRANCH  44  45
HETATM   45  C   UNL     1      -7.991  17.734  69.535  1.00  0.00     0.578 C  
HETATM   46  O   UNL     1      -7.468  17.003  70.638  1.00  0.00     2.504 OA 
HETATM   47  C   UNL     1      -7.339  15.596  70.433  1.00  0.00     0.810 C  
HETATM   48  C   UNL     1      -6.394  15.326  69.260  1.00  0.00    -0.126 C  
HETATM   49  H1  UNL     1      -7.025  18.117  66.245  1.00  0.00     0.000 HD 
HETATM   50  H2  UNL     1      -7.731  19.239  67.270  1.00  0.00     0.000 HD 
HETATM   51  O   UNL     1      -6.252  13.930  68.986  1.00  0.00    -0.084 OA 
HETATM   52  C   UNL     1      -6.913  16.038  68.003  1.00  0.00    -0.127 C  
HETATM   53  H   UNL     1      -5.665  13.762  68.258  1.00  0.00     0.000 HD 
HETATM   54  O   UNL     1      -5.975  15.862  66.928  1.00  0.00    -0.298 OA 
HETATM   55  N   UNL     1      -7.605  18.246  67.074  1.00  0.00    -0.214 NA 
HETATM   56  C   UNL     1      -7.109  17.538  68.276  1.00  0.00    -0.210 C  
HETATM   57  H   UNL     1      -6.296  16.303  66.150  1.00  0.00     0.000 HD 
BRANCH  47  58
HETATM   58  C   UNL     1      -6.804  14.995  71.740  1.00  0.00     1.906 C  
HETATM   59  O   UNL     1      -5.376  15.078  71.775  1.00  0.00    -0.089 OA 
HETATM   60  H   UNL     1      -5.044  14.706  72.584  1.00  0.00     0.000 HD 
ENDBRANCH  47  58
ENDBRANCH  44  45
ENDBRANCH  40  44
ENDBRANCH  29  30
ENDBRANCH  22  29
ENDBRANCH  18  19
ENDBRANCH   7  18
ENDBRANCH   2   5
TORSDOF 9
ENDMDL
MODEL      331
REMARK 921   NORMALIZED FREE ENERGY PREDICTED BY IDOCK:   17.37 KCAL/MOL
REMARK 922        TOTAL FREE ENERGY PREDICTED BY IDOCK:   24.47 KCAL/MOL
REMARK 923 INTER-LIGAND FREE ENERGY PREDICTED BY IDOCK:   -2.67 KCAL/MOL
REMARK 924 INTRA-LIGAND FREE ENERGY PREDICTED BY IDOCK:   27.14 KCAL/MOL
REMARK 927      BINDING AFFINITY PREDICTED BY RF-SCORE:    0.00 PKD
ROOT
HETATM    1  N   UNL     1      -8.188  14.000  66.216  1.00  0.00     0.254 NA 
HETATM    2  C   UNL     1      -8.700  15.225  66.862  1.00  0.00    -0.258 C  
HETATM    3  H1  UNL     1      -7.465  14.242  65.538  1.00  0.00     0.000 HD 
HETATM    4  H2  UNL     1      -8.936  13.446  65.798  1.00  0.00     0.000 HD 
ENDROOT
BRANCH   2   5
HETATM    5  C   UNL     1      -9.790  14.861  67.885  1.00  0.00    -0.214 C  
HETATM    6  O   UNL     1      -9.921  13.427  67.870  1.00  0.00    -0.223 OA 
HETATM    7  C   UNL     1     -10.760  12.955  68.922  1.00  0.00    -0.160 C  
HETATM    8  C   UNL     1     -12.215  13.441  68.657  1.00  0.00    -0.108 C  
HETATM    9  O   UNL     1     -11.520  15.256  66.223  1.00  0.00    -0.233 OA 
HETATM   10  H   UNL     1     -12.359  15.661  66.038  1.00  0.00     0.000 HD 
HETATM   11  N   UNL     1     -12.755  12.838  67.403  1.00  0.00     0.617 NA 
HETATM   12  C   UNL     1     -12.223  14.984  68.566  1.00  0.00    -0.028 C  
HETATM   13  H2  UNL     1     -12.694  11.820  67.416  1.00  0.00     0.000 HD 
HETATM   14  O   UNL     1     -12.074  15.579  69.862  1.00  0.00    -0.341 OA 
HETATM   15  C   UNL     1     -11.153  15.519  67.584  1.00  0.00    -0.311 C  
HETATM   16  H1  UNL     1     -13.709  13.156  67.229  1.00  0.00     0.000 HD 
HETATM   17  H   UNL     1     -12.079  16.527  69.806  1.00  0.00     0.000 HD 
BRANCH   7  18
HETATM   18  O   UNL     1     -10.759  11.526  68.981  1.00  0.00    -0.208 OA 
BRANCH  18  19
HETATM   19  C   UNL     1      -9.852  10.903  68.054  1.00  0.00    -0.171 C  
HETATM   20  O   UNL     1      -8.650   9.911  69.977  1.00  0.00    -0.220 OA 
HETATM   21  C   UNL     1     -10.716  10.256  66.974  1.00  0.00    -0.216 C  
HETATM   22  C   UNL     1     -10.063   8.559  68.432  1.00  0.00    -0.194 C  
HETATM   23  H   UNL     1      -8.168   9.175  70.335  1.00  0.00     0.000 HD 
HETATM   24  O   UNL     1     -10.966   8.902  67.380  1.00  0.00    -0.125 OA 
HETATM   25  C   UNL     1      -9.080   9.726  68.627  1.00  0.00    -0.130 C  
BRANCH  21  26
HETATM   26  C   UNL     1     -10.063  10.231  65.591  1.00  0.00    -0.271 C  
HETATM   27  H   UNL     1      -8.327   9.710  64.806  1.00  0.00     0.000 HD 
HETATM   28  O   UNL     1      -8.732   9.726  65.665  1.00  0.00    -0.137 OA 
ENDBRANCH  21  26
BRANCH  22  29
HETATM   29  O   UNL     1      -9.321   7.390  68.100  1.00  0.00    -0.136 OA 
BRANCH  29  30
HETATM   30  C   UNL     1      -8.439   7.436  66.962  1.00  0.00    -0.118 C  
HETATM   31  C   UNL     1      -7.431   8.592  67.113  1.00  0.00    -0.085 C  
HETATM   32  O   UNL     1      -6.850   8.577  68.424  1.00  0.00    -0.063 OA 
HETATM   33  C   UNL     1      -6.325   8.482  66.057  1.00  0.00    -0.053 C  
HETATM   34  C   UNL     1      -6.948   8.593  64.665  1.00  0.00    -0.073 C  
HETATM   35  N   UNL     1      -5.301   9.528  66.250  1.00  0.00    -0.043 NA 
HETATM   36  H   UNL     1      -6.228   9.289  68.517  1.00  0.00     0.000 HD 
HETATM   37  H1  UNL     1      -4.566   9.456  65.548  1.00  0.00     0.000 HD 
HETATM   38  H2  UNL     1      -4.921   9.510  67.196  1.00  0.00     0.000 HD 
HETATM   39  C   UNL     1      -8.037   7.531  64.436  1.00  0.00    -0.074 C  
HETATM   40  C   UNL     1      -9.128   7.466  65.570  1.00  0.00     0.211 C  
HETATM   41  N   UNL     1      -8.649   7.768  63.112  1.00  0.00    -0.364 NA 
HETATM   42  H2  UNL     1      -7.960   7.792  62.360  1.00  0.00     0.000 HD 
HETATM   43  H1  UNL     1      -9.371   7.064  62.960  1.00  0.00     0.000 HD 
BRANCH  40  44
HETATM   44  O   UNL     1      -9.947   6.308  65.285  1.00  0.00     0.883 OA 
BRANCH  44  45
HETATM   45  C   UNL     1      -9.288   5.039  65.408  1.00  0.00    -0.113 C  
HETATM   46  O   UNL     1      -7.950   5.088  64.926  1.00  0.00    -0.091 OA 
HETATM   47  C   UNL     1      -7.051   5.884  65.698  1.00  0.00    -0.069 C  
HETATM   48  C   UNL     1      -6.967   5.338  67.125  1.00  0.00    -0.065 C  
HETATM   49  H1  UNL     1     -10.720   4.084  68.398  1.00  0.00     0.000 HD 
HETATM   50  H2  UNL     1     -11.318   3.906  66.843  1.00  0.00     0.000 HD 
HETATM   51  O   UNL     1      -6.104   6.116  67.957  1.00  0.00    -0.022 OA 
HETATM   52  C   UNL     1      -8.370   5.299  67.747  1.00  0.00    -0.098 C  
HETATM   53  H   UNL     1      -6.051   5.777  68.842  1.00  0.00     0.000 HD 
HETATM   54  O   UNL     1      -8.301   4.697  69.052  1.00  0.00    -0.080 OA 
HETATM   55  N   UNL     1     -10.691   4.441  67.444  1.00  0.00     0.655 NA 
HETATM   56  C   UNL     1      -9.332   4.495  66.858  1.00  0.00    -0.145 C  
HETATM   57  H   UNL     1      -9.169   4.673  69.436  1.00  0.00     0.000 HD 
BRANCH  47  58
HETATM   58  C   UNL     1      -5.688   5.838  64.994  1.00  0.00    -0.024 C  
HETATM   59  O   UNL     1      -5.357   7.126  64.468  1.00  0.00    -0.028 OA 
HETATM   60  H   UNL     1      -4.514   7.098  64.033  1.00  0.00     0.000 HD 
ENDBRANCH  47  58
ENDBRANCH  44  45
ENDBRANCH  40  44
ENDBRANCH  29  30
ENDBRANCH  22  29
ENDBRANCH  18  19
ENDBRANCH   7  18
ENDBRANCH   2   5
TORSDOF 9
ENDMDL
MODEL      332
REMARK 921   NORMALIZED FREE ENERGY PREDICTED BY IDOCK:   17.79 KCAL/MOL
REMARK 922        TOTAL FREE ENERGY PREDICTED BY IDOCK:   25.10 KCAL/MOL
REMARK 923 INTER-LIGAND FREE ENERGY PREDICTED BY IDOCK:   18.31 KCAL/MOL
REMARK 924 INTRA-LIGAND FREE ENERGY PREDICTED BY IDOCK:    6.79 KCAL/MOL
REMARK 927      BINDING AFFINITY PREDICTED BY RF-SCORE:    0.00 PKD
ROOT
HETATM    1  N   UNL     1     -12.820   2.932  70.738  1.00  0.00    16.285 NA 
HETATM    2  C   UNL     1     -11.986   2.570  71.902  1.00  0.00     3.957 C  
HETATM    3  H1  UNL     1     -13.639   2.325  70.696  1.00  0.00     0.000 HD 
HETATM    4  H2  UNL     1     -12.288   2.919  69.867  1.00  0.00     0.000 HD 
ENDROOT
BRANCH   2   5
HETATM    5  C   UNL     1     -10.751   3.484  71.966  1.00  0.00     0.448 C  
HETATM    6  O   UNL     1     -10.911   4.483  70.941  1.00  0.00     0.301 OA 
HETATM    7  C   UNL     1      -9.925   5.509  71.034  1.00  0.00    -0.194 C  
HETATM    8  C   UNL     1      -8.533   4.894  70.707  1.00  0.00    -0.110 C  
HETATM    9  O   UNL     1      -9.500   1.937  70.569  1.00  0.00    -0.114 OA 
HETATM   10  H   UNL     1      -8.681   1.471  70.444  1.00  0.00     0.000 HD 
HETATM   11  N   UNL     1      -8.485   4.409  69.296  1.00  0.00    -0.077 NA 
HETATM   12  C   UNL     1      -8.249   3.735  71.690  1.00  0.00    -0.073 C  
HETATM   13  H2  UNL     1      -8.738   5.144  68.635  1.00  0.00     0.000 HD 
HETATM   14  O   UNL     1      -7.919   4.234  72.994  1.00  0.00    -0.087 OA 
HETATM   15  C   UNL     1      -9.421   2.728  71.762  1.00  0.00    -0.136 C  
HETATM   16  H1  UNL     1      -7.573   4.006  69.081  1.00  0.00     0.000 HD 
HETATM   17  H   UNL     1      -7.744   3.521  73.598  1.00  0.00     0.000 HD 
BRANCH   7  18
HETATM   18  O   UNL     1     -10.188   6.564  70.105  1.00  0.00    -0.185 OA 
BRANCH  18  19
HETATM   19  C   UNL     1      -9.103   6.828  69.198  1.00  0.00    -0.138 C  
HETATM   20  O   UNL     1     -10.766   7.453  67.474  1.00  0.00    -0.347 OA 
HETATM   21  C   UNL     1      -8.095   7.678  69.968  1.00  0.00    -0.120 C  
HETATM   22  C   UNL     1      -9.311   9.128  68.608  1.00  0.00    -0.135 C  
HETATM   23  H   UNL     1     -10.996   8.009  66.738  1.00  0.00     0.000 HD 
HETATM   24  O   UNL     1      -8.417   9.055  69.720  1.00  0.00    -0.118 OA 
HETATM   25  C   UNL     1      -9.472   7.717  68.021  1.00  0.00    -0.143 C  
BRANCH  21  26
HETATM   26  C   UNL     1      -6.641   7.441  69.555  1.00  0.00    -0.037 C  
HETATM   27  H   UNL     1      -5.640   7.068  67.894  1.00  0.00     0.000 HD 
HETATM   28  O   UNL     1      -6.542   7.214  68.151  1.00  0.00    -0.046 OA 
ENDBRANCH  21  26
BRANCH  22  29
HETATM   29  O   UNL     1      -8.790   9.986  67.597  1.00  0.00    -0.122 OA 
BRANCH  29  30
HETATM   30  C   UNL     1      -9.701  10.858  66.900  1.00  0.00    -0.181 C  
HETATM   31  C   UNL     1      -9.873  10.396  65.440  1.00  0.00    -0.283 C  
HETATM   32  O   UNL     1     -10.111   8.983  65.390  1.00  0.00    -0.315 OA 
HETATM   33  C   UNL     1     -11.037  11.139  64.774  1.00  0.00    -0.066 C  
HETATM   34  C   UNL     1     -10.727  12.636  64.751  1.00  0.00    -0.335 C  
HETATM   35  N   UNL     1     -11.272  10.639  63.406  1.00  0.00     0.216 NA 
HETATM   36  H   UNL     1     -10.218   8.698  64.491  1.00  0.00     0.000 HD 
HETATM   37  H1  UNL     1     -12.046  11.133  62.962  1.00  0.00     0.000 HD 
HETATM   38  H2  UNL     1     -11.416   9.629  63.395  1.00  0.00     0.000 HD 
HETATM   39  C   UNL     1     -10.453  13.190  66.160  1.00  0.00    -0.281 C  
HETATM   40  C   UNL     1      -9.381  12.376  66.979  1.00  0.00    -0.204 C  
HETATM   41  N   UNL     1     -10.071  14.612  66.037  1.00  0.00    -0.295 NA 
HETATM   42  H2  UNL     1     -10.764  15.161  65.528  1.00  0.00     0.000 HD 
HETATM   43  H1  UNL     1      -9.890  14.979  66.971  1.00  0.00     0.000 HD 
BRANCH  40  44
HETATM   44  O   UNL     1      -9.392  12.919  68.320  1.00  0.00    -0.209 OA 
BRANCH  44  45
HETATM   45  C   UNL     1      -8.137  13.430  68.791  1.00  0.00     0.043 C  
HETATM   46  O   UNL     1      -7.545  12.572  69.760  1.00  0.00     0.728 OA 
HETATM   47  C   UNL     1      -7.104  11.307  69.269  1.00  0.00    -0.112 C  
HETATM   48  C   UNL     1      -6.044  11.511  68.183  1.00  0.00    -0.045 C  
HETATM   49  H1  UNL     1      -7.050  14.764  65.800  1.00  0.00     0.000 HD 
HETATM   50  H2  UNL     1      -8.050  15.452  66.956  1.00  0.00     0.000 HD 
HETATM   51  O   UNL     1      -5.587  10.276  67.629  1.00  0.00    -0.044 OA 
HETATM   52  C   UNL     1      -6.616  12.389  67.062  1.00  0.00     0.005 C  
HETATM   53  H   UNL     1      -4.929  10.402  66.956  1.00  0.00     0.000 HD 
HETATM   54  O   UNL     1      -5.589  12.658  66.091  1.00  0.00     0.509 OA 
HETATM   55  N   UNL     1      -7.700  14.578  66.563  1.00  0.00     0.608 NA 
HETATM   56  C   UNL     1      -7.148  13.713  67.631  1.00  0.00    -0.170 C  
HETATM   57  H   UNL     1      -5.943  13.201  65.397  1.00  0.00     0.000 HD 
BRANCH  47  58
HETATM   58  C   UNL     1      -6.543  10.527  70.466  1.00  0.00    -0.032 C  
HETATM   59  O   UNL     1      -5.567   9.579  70.027  1.00  0.00    -0.034 OA 
HETATM   60  H   UNL     1      -5.220   9.096  70.767  1.00  0.00     0.000 HD 
ENDBRANCH  47  58
ENDBRANCH  44  45
ENDBRANCH  40  44
ENDBRANCH  29  30
ENDBRANCH  22  29
ENDBRANCH  18  19
ENDBRANCH   7  18
ENDBRANCH   2   5
TORSDOF 9
ENDMDL
MODEL      333
REMARK 921   NORMALIZED FREE ENERGY PREDICTED BY IDOCK:   18.20 KCAL/MOL
REMARK 922        TOTAL FREE ENERGY PREDICTED BY IDOCK:   25.73 KCAL/MOL
REMARK 923 INTER-LIGAND FREE ENERGY PREDICTED BY IDOCK:   -3.99 KCAL/MOL
REMARK 924 INTRA-LIGAND FREE ENERGY PREDICTED BY IDOCK:   29.72 KCAL/MOL
REMARK 927      BINDING AFFINITY PREDICTED BY RF-SCORE:    0.00 PKD
ROOT
HETATM    1  N   UNL     1      -5.227   7.034  73.495  1.00  0.00    -0.041 NA 
HETATM    2  C   UNL     1      -6.168   5.965  73.887  1.00  0.00    -0.064 C  
HETATM    3  H1  UNL     1      -4.322   6.880  73.941  1.00  0.00     0.000 HD 
HETATM    4  H2  UNL     1      -5.598   7.963  73.692  1.00  0.00     0.000 HD 
ENDROOT
BRANCH   2   5
HETATM    5  C   UNL     1      -7.531   6.197  73.214  1.00  0.00    -0.092 C  
HETATM    6  O   UNL     1      -7.279   6.870  71.967  1.00  0.00    -0.080 OA 
HETATM    7  C   UNL     1      -8.451   6.959  71.159  1.00  0.00    -0.123 C  
HETATM    8  C   UNL     1      -9.471   7.901  71.862  1.00  0.00    -0.168 C  
HETATM    9  O   UNL     1      -7.851   8.235  74.501  1.00  0.00    -0.233 OA 
HETATM   10  H   UNL     1      -8.449   8.748  75.032  1.00  0.00     0.000 HD 
HETATM   11  N   UNL     1      -8.934   9.291  71.956  1.00  0.00    -0.118 NA 
HETATM   12  C   UNL     1      -9.786   7.344  73.270  1.00  0.00    -0.272 C  
HETATM   13  H2  UNL     1      -8.656   9.650  71.043  1.00  0.00     0.000 HD 
HETATM   14  O   UNL     1     -10.637   6.192  73.190  1.00  0.00    -0.221 OA 
HETATM   15  C   UNL     1      -8.503   7.031  74.076  1.00  0.00    -0.153 C  
HETATM   16  H1  UNL     1      -9.602   9.908  72.417  1.00  0.00     0.000 HD 
HETATM   17  H   UNL     1     -10.830   5.850  74.055  1.00  0.00     0.000 HD 
BRANCH   7  18
HETATM   18  O   UNL     1      -8.149   7.496  69.868  1.00  0.00    -0.123 OA 
BRANCH  18  19
HETATM   19  C   UNL     1      -9.108   8.459  69.396  1.00  0.00    -0.154 C  
HETATM   20  O   UNL     1      -9.032   9.548  71.618  1.00  0.00    -0.233 OA 
HETATM   21  C   UNL     1      -8.607   8.933  68.033  1.00  0.00    -0.130 C  
HETATM   22  C   UNL     1      -8.030  10.577  69.581  1.00  0.00    -0.063 C  
HETATM   23  H   UNL     1      -9.064  10.350  72.125  1.00  0.00     0.000 HD 
HETATM   24  O   UNL     1      -7.798  10.097  68.255  1.00  0.00    -0.091 OA 
HETATM   25  C   UNL     1      -9.159   9.743  70.207  1.00  0.00    -0.157 C  
BRANCH  21  26
HETATM   26  C   UNL     1      -9.725   9.303  67.057  1.00  0.00    -0.185 C  
HETATM   27  H   UNL     1      -9.933   9.568  65.111  1.00  0.00     0.000 HD 
HETATM   28  O   UNL     1      -9.239   9.339  65.717  1.00  0.00    -0.190 OA 
ENDBRANCH  21  26
BRANCH  22  29
HETATM   29  O   UNL     1      -8.430  11.943  69.561  1.00  0.00     0.685 OA 
BRANCH  29  30
HETATM   30  C   UNL     1      -9.824  12.248  69.361  1.00  0.00     0.829 C  
HETATM   31  C   UNL     1     -10.620  10.956  69.091  1.00  0.00    -0.220 C  
HETATM   32  O   UNL     1     -10.274   9.948  70.051  1.00  0.00    -0.244 OA 
HETATM   33  C   UNL     1     -12.127  11.230  69.151  1.00  0.00    -0.279 C  
HETATM   34  C   UNL     1     -12.497  12.236  68.061  1.00  0.00     0.928 C  
HETATM   35  N   UNL     1     -12.900   9.983  68.988  1.00  0.00     0.766 NA 
HETATM   36  H   UNL     1     -10.764   9.152  69.884  1.00  0.00     0.000 HD 
HETATM   37  H1  UNL     1     -13.902  10.164  69.028  1.00  0.00     0.000 HD 
HETATM   38  H2  UNL     1     -12.619   9.276  69.667  1.00  0.00     0.000 HD 
HETATM   39  C   UNL     1     -11.694  13.542  68.186  1.00  0.00    -0.361 C  
HETATM   40  C   UNL     1     -10.136  13.336  68.298  1.00  0.00    -0.250 C  
HETATM   41  N   UNL     1     -12.042  14.416  67.046  1.00  0.00    -0.524 NA 
HETATM   42  H2  UNL     1     -13.046  14.579  66.970  1.00  0.00     0.000 HD 
HETATM   43  H1  UNL     1     -11.509  15.281  67.129  1.00  0.00     0.000 HD 
BRANCH  40  44
HETATM   44  O   UNL     1      -9.571  14.635  68.592  1.00  0.00    -0.211 OA 
BRANCH  44  45
HETATM   45  C   UNL     1      -8.843  15.251  67.520  1.00  0.00    -0.179 C  
HETATM   46  O   UNL     1      -9.309  16.568  67.250  1.00  0.00    -0.218 OA 
HETATM   47  C   UNL     1      -9.056  17.528  68.275  1.00  0.00    -0.274 C  
HETATM   48  C   UNL     1      -7.549  17.654  68.510  1.00  0.00    -0.272 C  
HETATM   49  H1  UNL     1      -5.749  13.915  68.261  1.00  0.00     0.000 HD 
HETATM   50  H2  UNL     1      -6.996  13.244  67.364  1.00  0.00     0.000 HD 
HETATM   51  O   UNL     1      -7.235  18.580  69.551  1.00  0.00    -0.085 OA 
HETATM   52  C   UNL     1      -6.965  16.279  68.861  1.00  0.00    -0.170 C  
HETATM   53  H   UNL     1      -6.299  18.658  69.697  1.00  0.00     0.000 HD 
HETATM   54  O   UNL     1      -5.536  16.381  68.987  1.00  0.00    -0.116 OA 
HETATM   55  N   UNL     1      -6.755  13.916  68.093  1.00  0.00    -0.108 NA 
HETATM   56  C   UNL     1      -7.315  15.250  67.775  1.00  0.00    -0.163 C  
HETATM   57  H   UNL     1      -5.174  15.530  69.205  1.00  0.00     0.000 HD 
BRANCH  47  58
HETATM   58  C   UNL     1      -9.668  18.857  67.811  1.00  0.00    -0.323 C  
HETATM   59  O   UNL     1      -8.636  19.793  67.490  1.00  0.00    -0.307 OA 
HETATM   60  H   UNL     1      -9.014  20.616  67.203  1.00  0.00     0.000 HD 
ENDBRANCH  47  58
ENDBRANCH  44  45
ENDBRANCH  40  44
ENDBRANCH  29  30
ENDBRANCH  22  29
ENDBRANCH  18  19
ENDBRANCH   7  18
ENDBRANCH   2   5
TORSDOF 9
ENDMDL
MODEL      334
REMARK 921   NORMALIZED FREE ENERGY PREDICTED BY IDOCK:   18.54 KCAL/MOL
REMARK 922        TOTAL FREE ENERGY PREDICTED BY IDOCK:   26.25 KCAL/MOL
REMARK 923 INTER-LIGAND FREE ENERGY PREDICTED BY IDOCK:    1.20 KCAL/MOL
REMARK 924 INTRA-LIGAND FREE ENERGY PREDICTED BY IDOCK:   25.06 KCAL/MOL
REMARK 927      BINDING AFFINITY PREDICTED BY RF-SCORE:    0.00 PKD
ROOT
HETATM    1  N   UNL     1      -5.632  19.338  69.791  1.00  0.00    -0.212 NA 
HETATM    2  C   UNL     1      -6.060  18.358  68.772  1.00  0.00    -0.207 C  
HETATM    3  H1  UNL     1      -4.833  18.973  70.310  1.00  0.00     0.000 HD 
HETATM    4  H2  UNL     1      -6.399  19.608  70.408  1.00  0.00     0.000 HD 
ENDROOT
BRANCH   2   5
HETATM    5  C   UNL     1      -7.264  18.909  67.990  1.00  0.00    -0.244 C  
HETATM    6  O   UNL     1      -8.343  17.971  68.158  1.00  0.00    -0.253 OA 
HETATM    7  C   UNL     1      -9.575  18.474  67.645  1.00  0.00    -0.286 C  
HETATM    8  C   UNL     1      -9.458  18.595  66.098  1.00  0.00    -0.174 C  
HETATM    9  O   UNL     1      -6.424  17.910  65.939  1.00  0.00    -0.242 OA 
HETATM   10  H   UNL     1      -6.245  18.037  65.014  1.00  0.00     0.000 HD 
HETATM   11  N   UNL     1      -9.272  17.253  65.472  1.00  0.00    -0.145 NA 
HETATM   12  C   UNL     1      -8.272  19.525  65.752  1.00  0.00    -0.012 C  
HETATM   13  H2  UNL     1     -10.011  16.604  65.745  1.00  0.00     0.000 HD 
HETATM   14  O   UNL     1      -8.598  20.897  66.012  1.00  0.00    -0.069 OA 
HETATM   15  C   UNL     1      -6.974  19.115  66.488  1.00  0.00    -0.208 C  
HETATM   16  H1  UNL     1      -9.196  17.333  64.458  1.00  0.00     0.000 HD 
HETATM   17  H   UNL     1      -7.869  21.468  65.800  1.00  0.00     0.000 HD 
BRANCH   7  18
HETATM   18  O   UNL     1     -10.659  17.594  67.953  1.00  0.00    -0.382 OA 
BRANCH  18  19
HETATM   19  C   UNL     1     -10.329  16.198  67.846  1.00  0.00    -0.277 C  
HETATM   20  O   UNL     1     -11.768  16.065  65.836  1.00  0.00     0.446 OA 
HETATM   21  C   UNL     1      -8.812  16.101  67.997  1.00  0.00    -0.181 C  
HETATM   22  C   UNL     1      -9.282  15.952  65.718  1.00  0.00    -0.206 C  
HETATM   23  H   UNL     1     -11.922  15.690  64.977  1.00  0.00     0.000 HD 
HETATM   24  O   UNL     1      -8.246  16.165  66.679  1.00  0.00    -0.229 OA 
HETATM   25  C   UNL     1     -10.575  15.599  66.471  1.00  0.00    -0.307 C  
BRANCH  21  26
HETATM   26  C   UNL     1      -8.337  14.809  68.663  1.00  0.00    -0.165 C  
HETATM   27  H   UNL     1      -9.043  13.485  69.947  1.00  0.00     0.000 HD 
HETATM   28  O   UNL     1      -9.338  14.287  69.534  1.00  0.00     0.265 OA 
ENDBRANCH  21  26
BRANCH  22  29
HETATM   29  O   UNL     1      -8.951  14.873  64.850  1.00  0.00     1.522 OA 
BRANCH  29  30
HETATM   30  C   UNL     1      -9.906  13.807  64.684  1.00  0.00     0.206 C  
HETATM   31  C   UNL     1     -11.309  14.384  64.410  1.00  0.00    -0.251 C  
HETATM   32  O   UNL     1     -11.241  15.400  63.400  1.00  0.00     0.567 OA 
HETATM   33  C   UNL     1     -12.269  13.275  63.962  1.00  0.00    -0.410 C  
HETATM   34  C   UNL     1     -12.404  12.247  65.085  1.00  0.00    -0.279 C  
HETATM   35  N   UNL     1     -13.589  13.829  63.606  1.00  0.00     2.341 NA 
HETATM   36  H   UNL     1     -12.105  15.755  63.231  1.00  0.00     0.000 HD 
HETATM   37  H1  UNL     1     -14.228  13.092  63.308  1.00  0.00     0.000 HD 
HETATM   38  H2  UNL     1     -13.511  14.564  62.903  1.00  0.00     0.000 HD 
HETATM   39  C   UNL     1     -11.042  11.664  65.500  1.00  0.00    -0.237 C  
HETATM   40  C   UNL     1      -9.943  12.746  65.818  1.00  0.00    -0.251 C  
HETATM   41  N   UNL     1     -11.252  10.755  66.646  1.00  0.00    -0.167 NA 
HETATM   42  H2  UNL     1     -11.945  10.033  66.452  1.00  0.00     0.000 HD 
HETATM   43  H1  UNL     1     -10.349  10.369  66.921  1.00  0.00     0.000 HD 
BRANCH  40  44
HETATM   44  O   UNL     1      -8.702  12.028  66.003  1.00  0.00    -0.050 OA 
BRANCH  44  45
HETATM   45  C   UNL     1      -8.585  11.299  67.233  1.00  0.00    -0.143 C  
HETATM   46  O   UNL     1      -9.684  10.416  67.432  1.00  0.00    -0.159 OA 
HETATM   47  C   UNL     1      -9.757   9.317  66.524  1.00  0.00    -0.240 C  
HETATM   48  C   UNL     1      -8.496   8.457  66.647  1.00  0.00    -0.111 C  
HETATM   49  H1  UNL     1      -5.161  10.879  67.178  1.00  0.00     0.000 HD 
HETATM   50  H2  UNL     1      -6.051  12.182  67.742  1.00  0.00     0.000 HD 
HETATM   51  O   UNL     1      -8.498   7.355  65.736  1.00  0.00    -0.136 OA 
HETATM   52  C   UNL     1      -7.254   9.322  66.393  1.00  0.00    -0.088 C  
HETATM   53  H   UNL     1      -7.716   6.821  65.812  1.00  0.00     0.000 HD 
HETATM   54  O   UNL     1      -6.069   8.535  66.602  1.00  0.00    -0.054 OA 
HETATM   55  N   UNL     1      -6.046  11.381  67.111  1.00  0.00    -0.088 NA 
HETATM   56  C   UNL     1      -7.241  10.536  67.336  1.00  0.00    -0.092 C  
HETATM   57  H   UNL     1      -5.300   9.070  66.445  1.00  0.00     0.000 HD 
BRANCH  47  58
HETATM   58  C   UNL     1     -11.020   8.520  66.879  1.00  0.00     0.348 C  
HETATM   59  O   UNL     1     -11.248   7.495  65.908  1.00  0.00     2.054 OA 
HETATM   60  H   UNL     1     -12.030   7.002  66.128  1.00  0.00     0.000 HD 
ENDBRANCH  47  58
ENDBRANCH  44  45
ENDBRANCH  40  44
ENDBRANCH  29  30
ENDBRANCH  22  29
ENDBRANCH  18  19
ENDBRANCH   7  18
ENDBRANCH   2   5
TORSDOF 9
ENDMDL
MODEL      335
REMARK 921   NORMALIZED FREE ENERGY PREDICTED BY IDOCK:   18.63 KCAL/MOL
REMARK 922        TOTAL FREE ENERGY PREDICTED BY IDOCK:   26.39 KCAL/MOL
REMARK 923 INTER-LIGAND FREE ENERGY PREDICTED BY IDOCK:   18.62 KCAL/MOL
REMARK 924 INTRA-LIGAND FREE ENERGY PREDICTED BY IDOCK:    7.77 KCAL/MOL
REMARK 927      BINDING AFFINITY PREDICTED BY RF-SCORE:    0.00 PKD
ROOT
HETATM    1  N   UNL     1      -5.593  14.562  70.950  1.00  0.00    -0.159 NA 
HETATM    2  C   UNL     1      -7.015  14.296  71.248  1.00  0.00     1.589 C  
HETATM    3  H1  UNL     1      -5.019  13.782  71.271  1.00  0.00     0.000 HD 
HETATM    4  H2  UNL     1      -5.280  15.452  71.337  1.00  0.00     0.000 HD 
ENDROOT
BRANCH   2   5
HETATM    5  C   UNL     1      -7.879  15.473  70.764  1.00  0.00     2.034 C  
HETATM    6  O   UNL     1      -7.990  15.356  69.334  1.00  0.00    -0.216 OA 
HETATM    7  C   UNL     1      -8.935  16.277  68.793  1.00  0.00    -0.243 C  
HETATM    8  C   UNL     1      -8.389  17.722  68.982  1.00  0.00    -0.024 C  
HETATM    9  O   UNL     1      -5.927  16.922  70.714  1.00  0.00     0.157 OA 
HETATM   10  H   UNL     1      -5.567  17.771  70.944  1.00  0.00     0.000 HD 
HETATM   11  N   UNL     1      -7.132  17.921  68.201  1.00  0.00    -0.218 NA 
HETATM   12  C   UNL     1      -8.140  17.974  70.487  1.00  0.00     3.977 C  
HETATM   13  H2  UNL     1      -7.260  17.692  67.216  1.00  0.00     0.000 HD 
HETATM   14  O   UNL     1      -9.376  18.160  71.191  1.00  0.00     5.103 OA 
HETATM   15  C   UNL     1      -7.295  16.852  71.137  1.00  0.00     5.065 C  
HETATM   16  H1  UNL     1      -6.774  18.868  68.326  1.00  0.00     0.000 HD 
HETATM   17  H   UNL     1      -9.222  18.315  72.115  1.00  0.00     0.000 HD 
BRANCH   7  18
HETATM   18  O   UNL     1      -9.139  16.045  67.396  1.00  0.00    -0.196 OA 
BRANCH  18  19
HETATM   19  C   UNL     1     -10.247  15.174  67.103  1.00  0.00    -0.247 C  
HETATM   20  O   UNL     1      -8.989  14.316  65.152  1.00  0.00     0.584 OA 
HETATM   21  C   UNL     1     -10.627  14.503  68.421  1.00  0.00    -0.244 C  
HETATM   22  C   UNL     1      -9.365  12.962  67.210  1.00  0.00    -0.212 C  
HETATM   23  H   UNL     1      -8.773  13.580  64.592  1.00  0.00     0.000 HD 
HETATM   24  O   UNL     1      -9.897  13.270  68.501  1.00  0.00    -0.227 OA 
HETATM   25  C   UNL     1      -9.900  13.997  66.207  1.00  0.00    -0.305 C  
BRANCH  21  26
HETATM   26  C   UNL     1     -12.119  14.187  68.548  1.00  0.00    -0.277 C  
HETATM   27  H   UNL     1     -13.531  14.342  69.920  1.00  0.00     0.000 HD 
HETATM   28  O   UNL     1     -12.605  14.537  69.842  1.00  0.00    -0.296 OA 
ENDBRANCH  21  26
BRANCH  22  29
HETATM   29  O   UNL     1      -9.779  11.666  66.790  1.00  0.00    -0.196 OA 
BRANCH  29  30
HETATM   30  C   UNL     1      -9.730  11.351  65.385  1.00  0.00    -0.230 C  
HETATM   31  C   UNL     1     -10.789  12.165  64.617  1.00  0.00    -0.306 C  
HETATM   32  O   UNL     1     -10.737  13.544  65.009  1.00  0.00    -0.317 OA 
HETATM   33  C   UNL     1     -10.565  12.049  63.105  1.00  0.00    -0.226 C  
HETATM   34  C   UNL     1     -10.715  10.587  62.687  1.00  0.00     1.273 C  
HETATM   35  N   UNL     1     -11.514  12.900  62.362  1.00  0.00     0.926 NA 
HETATM   36  H   UNL     1     -11.389  14.046  64.535  1.00  0.00     0.000 HD 
HETATM   37  H1  UNL     1     -11.366  12.823  61.356  1.00  0.00     0.000 HD 
HETATM   38  H2  UNL     1     -11.473  13.870  62.674  1.00  0.00     0.000 HD 
HETATM   39  C   UNL     1      -9.756   9.665  63.460  1.00  0.00     0.672 C  
HETATM   40  C   UNL     1      -9.806   9.842  65.024  1.00  0.00    -0.252 C  
HETATM   41  N   UNL     1     -10.032   8.268  63.066  1.00  0.00     3.091 NA 
HETATM   42  H2  UNL     1      -9.982   8.128  62.057  1.00  0.00     0.000 HD 
HETATM   43  H1  UNL     1      -9.395   7.657  63.578  1.00  0.00     0.000 HD 
BRANCH  40  44
HETATM   44  O   UNL     1      -8.724   9.045  65.561  1.00  0.00    -0.159 OA 
BRANCH  44  45
HETATM   45  C   UNL     1      -8.368   9.322  66.923  1.00  0.00    -0.123 C  
HETATM   46  O   UNL     1      -9.240   8.672  67.841  1.00  0.00    -0.139 OA 
HETATM   47  C   UNL     1      -9.148   7.249  67.869  1.00  0.00    -0.132 C  
HETATM   48  C   UNL     1      -7.731   6.826  68.262  1.00  0.00    -0.106 C  
HETATM   49  H1  UNL     1      -4.945   9.351  66.490  1.00  0.00     0.000 HD 
HETATM   50  H2  UNL     1      -6.044  10.596  66.260  1.00  0.00     0.000 HD 
HETATM   51  O   UNL     1      -7.569   5.406  68.275  1.00  0.00    -0.079 OA 
HETATM   52  C   UNL     1      -6.719   7.443  67.286  1.00  0.00    -0.069 C  
HETATM   53  H   UNL     1      -6.689   5.144  68.519  1.00  0.00     0.000 HD 
HETATM   54  O   UNL     1      -5.383   7.123  67.713  1.00  0.00    -0.018 OA 
HETATM   55  N   UNL     1      -5.918   9.584  66.292  1.00  0.00    -0.058 NA 
HETATM   56  C   UNL     1      -6.890   8.969  67.224  1.00  0.00    -0.077 C  
HETATM   57  H   UNL     1      -4.757   7.505  67.110  1.00  0.00     0.000 HD 
BRANCH  47  58
HETATM   58  C   UNL     1     -10.188   6.747  68.881  1.00  0.00    -0.175 C  
HETATM   59  O   UNL     1     -11.323   7.617  68.898  1.00  0.00    -0.329 OA 
HETATM   60  H   UNL     1     -11.966   7.307  69.524  1.00  0.00     0.000 HD 
ENDBRANCH  47  58
ENDBRANCH  44  45
ENDBRANCH  40  44
ENDBRANCH  29  30
ENDBRANCH  22  29
ENDBRANCH  18  19
ENDBRANCH   7  18
ENDBRANCH   2   5
TORSDOF 9
ENDMDL
MODEL      336
REMARK 921   NORMALIZED FREE ENERGY PREDICTED BY IDOCK:   19.86 KCAL/MOL
REMARK 922        TOTAL FREE ENERGY PREDICTED BY IDOCK:   28.27 KCAL/MOL
REMARK 923 INTER-LIGAND FREE ENERGY PREDICTED BY IDOCK:    4.67 KCAL/MOL
REMARK 924 INTRA-LIGAND FREE ENERGY PREDICTED BY IDOCK:   23.60 KCAL/MOL
REMARK 927      BINDING AFFINITY PREDICTED BY RF-SCORE:    0.00 PKD
ROOT
HETATM    1  N   UNL     1     -13.519  10.916  71.475  1.00  0.00    -0.157 NA 
HETATM    2  C   UNL     1     -12.721   9.833  72.084  1.00  0.00    -0.326 C  
HETATM    3  H1  UNL     1     -14.305  11.150  72.081  1.00  0.00     0.000 HD 
HETATM    4  H2  UNL     1     -13.820  10.684  70.528  1.00  0.00     0.000 HD 
ENDROOT
BRANCH   2   5
HETATM    5  C   UNL     1     -11.535   9.480  71.170  1.00  0.00    -0.360 C  
HETATM    6  O   UNL     1     -10.805  10.698  70.935  1.00  0.00     0.166 OA 
HETATM    7  C   UNL     1      -9.569  10.461  70.265  1.00  0.00     0.491 C  
HETATM    8  C   UNL     1      -9.871   9.953  68.825  1.00  0.00    -0.171 C  
HETATM    9  O   UNL     1     -12.952   9.692  69.205  1.00  0.00     1.253 OA 
HETATM   10  H   UNL     1     -13.217   9.308  68.378  1.00  0.00     0.000 HD 
HETATM   11  N   UNL     1     -10.572  11.003  68.029  1.00  0.00    -0.192 NA 
HETATM   12  C   UNL     1     -10.731   8.671  68.911  1.00  0.00    -0.082 C  
HETATM   13  H2  UNL     1     -10.051  11.880  68.018  1.00  0.00     0.000 HD 
HETATM   14  O   UNL     1      -9.944   7.549  69.331  1.00  0.00    -0.172 OA 
HETATM   15  C   UNL     1     -11.966   8.856  69.826  1.00  0.00     0.765 C  
HETATM   16  H1  UNL     1     -10.771  10.671  67.085  1.00  0.00     0.000 HD 
HETATM   17  H   UNL     1     -10.473   6.761  69.384  1.00  0.00     0.000 HD 
BRANCH   7  18
HETATM   18  O   UNL     1      -8.793  11.659  70.174  1.00  0.00     2.070 OA 
BRANCH  18  19
HETATM   19  C   UNL     1      -9.554  12.821  69.797  1.00  0.00     2.208 C  
HETATM   20  O   UNL     1      -8.751  12.531  67.474  1.00  0.00    -0.163 OA 
HETATM   21  C   UNL     1     -10.944  12.641  70.404  1.00  0.00     1.532 C  
HETATM   22  C   UNL     1     -11.103  12.064  68.151  1.00  0.00    -0.245 C  
HETATM   23  H   UNL     1      -8.930  12.598  66.544  1.00  0.00     0.000 HD 
HETATM   24  O   UNL     1     -11.761  11.993  69.417  1.00  0.00    -0.297 OA 
HETATM   25  C   UNL     1      -9.841  12.928  68.309  1.00  0.00    -0.228 C  
BRANCH  21  26
HETATM   26  C   UNL     1     -11.621  13.953  70.803  1.00  0.00     0.083 C  
HETATM   27  H   UNL     1     -13.090  15.096  70.144  1.00  0.00     0.000 HD 
HETATM   28  O   UNL     1     -12.670  14.281  69.896  1.00  0.00    -0.262 OA 
ENDBRANCH  21  26
BRANCH  22  29
HETATM   29  O   UNL     1     -11.948  12.666  67.176  1.00  0.00    -0.437 OA 
BRANCH  29  30
HETATM   30  C   UNL     1     -11.364  13.090  65.929  1.00  0.00    -0.313 C  
HETATM   31  C   UNL     1     -12.132  14.300  65.362  1.00  0.00    -0.396 C  
HETATM   32  O   UNL     1     -12.338  15.283  66.387  1.00  0.00     0.275 OA 
HETATM   33  C   UNL     1     -11.362  14.927  64.194  1.00  0.00     0.100 C  
HETATM   34  C   UNL     1     -11.230  13.898  63.072  1.00  0.00     2.265 C  
HETATM   35  N   UNL     1     -12.040  16.144  63.705  1.00  0.00    -1.030 NA 
HETATM   36  H   UNL     1     -12.811  16.028  66.038  1.00  0.00     0.000 HD 
HETATM   37  H1  UNL     1     -11.529  16.561  62.927  1.00  0.00     0.000 HD 
HETATM   38  H2  UNL     1     -12.195  16.815  64.456  1.00  0.00     0.000 HD 
HETATM   39  C   UNL     1     -10.548  12.606  63.552  1.00  0.00    -0.260 C  
HETATM   40  C   UNL     1     -11.180  11.985  64.854  1.00  0.00    -0.320 C  
HETATM   41  N   UNL     1     -10.546  11.636  62.437  1.00  0.00     0.394 NA 
HETATM   42  H2  UNL     1     -10.120  12.013  61.590  1.00  0.00     0.000 HD 
HETATM   43  H1  UNL     1     -10.094  10.779  62.756  1.00  0.00     0.000 HD 
BRANCH  40  44
HETATM   44  O   UNL     1     -10.308  10.902  65.255  1.00  0.00    -0.273 OA 
BRANCH  44  45
HETATM   45  C   UNL     1      -8.902  11.167  65.152  1.00  0.00    -0.046 C  
HETATM   46  O   UNL     1      -8.192  10.713  66.299  1.00  0.00    -0.141 OA 
HETATM   47  C   UNL     1      -8.142   9.297  66.466  1.00  0.00    -0.104 C  
HETATM   48  C   UNL     1      -7.452   8.655  65.260  1.00  0.00    -0.086 C  
HETATM   49  H1  UNL     1      -8.589  10.594  61.764  1.00  0.00     0.000 HD 
HETATM   50  H2  UNL     1      -9.052  11.998  62.554  1.00  0.00     0.000 HD 
HETATM   51  O   UNL     1      -7.402   7.229  65.356  1.00  0.00    -0.073 OA 
HETATM   52  C   UNL     1      -8.189   9.050  63.973  1.00  0.00    -0.167 C  
HETATM   53  H   UNL     1      -6.973   6.831  64.608  1.00  0.00     0.000 HD 
HETATM   54  O   UNL     1      -7.484   8.524  62.834  1.00  0.00    -0.099 OA 
HETATM   55  N   UNL     1      -8.992  10.982  62.617  1.00  0.00    -0.309 NA 
HETATM   56  C   UNL     1      -8.289  10.579  63.856  1.00  0.00    -0.093 C  
HETATM   57  H   UNL     1      -7.939   8.769  62.038  1.00  0.00     0.000 HD 
BRANCH  47  58
HETATM   58  C   UNL     1      -7.376   9.021  67.767  1.00  0.00    -0.084 C  
HETATM   59  O   UNL     1      -6.048   8.578  67.477  1.00  0.00    -0.050 OA 
HETATM   60  H   UNL     1      -5.574   8.407  68.282  1.00  0.00     0.000 HD 
ENDBRANCH  47  58
ENDBRANCH  44  45
ENDBRANCH  40  44
ENDBRANCH  29  30
ENDBRANCH  22  29
ENDBRANCH  18  19
ENDBRANCH   7  18
ENDBRANCH   2   5
TORSDOF 9
ENDMDL
MODEL      337
REMARK 921   NORMALIZED FREE ENERGY PREDICTED BY IDOCK:   20.71 KCAL/MOL
REMARK 922        TOTAL FREE ENERGY PREDICTED BY IDOCK:   29.56 KCAL/MOL
REMARK 923 INTER-LIGAND FREE ENERGY PREDICTED BY IDOCK:   -0.21 KCAL/MOL
REMARK 924 INTRA-LIGAND FREE ENERGY PREDICTED BY IDOCK:   29.77 KCAL/MOL
REMARK 927      BINDING AFFINITY PREDICTED BY RF-SCORE:    0.00 PKD
ROOT
HETATM    1  N   UNL     1      -8.463  12.401  63.430  1.00  0.00     1.317 NA 
HETATM    2  C   UNL     1      -9.866  12.803  63.653  1.00  0.00     0.488 C  
HETATM    3  H1  UNL     1      -8.172  12.665  62.488  1.00  0.00     0.000 HD 
HETATM    4  H2  UNL     1      -8.315  11.408  63.612  1.00  0.00     0.000 HD 
ENDROOT
BRANCH   2   5
HETATM    5  C   UNL     1     -10.305  12.405  65.072  1.00  0.00    -0.293 C  
HETATM    6  O   UNL     1      -9.480  13.143  65.993  1.00  0.00    -0.206 OA 
HETATM    7  C   UNL     1      -9.928  13.009  67.340  1.00  0.00    -0.228 C  
HETATM    8  C   UNL     1      -9.719  11.535  67.791  1.00  0.00    -0.174 C  
HETATM    9  O   UNL     1      -8.858  10.452  65.000  1.00  0.00    -0.174 OA 
HETATM   10  H   UNL     1      -8.781   9.520  65.170  1.00  0.00     0.000 HD 
HETATM   11  N   UNL     1      -8.268  11.185  67.807  1.00  0.00    -0.116 NA 
HETATM   12  C   UNL     1     -10.493  10.599  66.834  1.00  0.00    -0.249 C  
HETATM   13  H2  UNL     1      -7.729  11.834  68.380  1.00  0.00     0.000 HD 
HETATM   14  O   UNL     1     -11.905  10.660  67.082  1.00  0.00    -0.198 OA 
HETATM   15  C   UNL     1     -10.178  10.892  65.348  1.00  0.00    -0.277 C  
HETATM   16  H1  UNL     1      -8.131  10.218  68.103  1.00  0.00     0.000 HD 
HETATM   17  H   UNL     1     -12.380  10.085  66.494  1.00  0.00     0.000 HD 
BRANCH   7  18
HETATM   18  O   UNL     1      -9.189  13.864  68.216  1.00  0.00    -0.199 OA 
BRANCH  18  19
HETATM   19  C   UNL     1      -8.706  13.209  69.403  1.00  0.00     1.184 C  
HETATM   20  O   UNL     1     -11.030  12.521  69.906  1.00  0.00    -0.422 OA 
HETATM   21  C   UNL     1      -7.490  12.388  68.977  1.00  0.00     0.075 C  
HETATM   22  C   UNL     1      -9.287  10.912  69.144  1.00  0.00    -0.078 C  
HETATM   23  H   UNL     1     -11.619  11.864  70.259  1.00  0.00     0.000 HD 
HETATM   24  O   UNL     1      -7.958  11.072  68.643  1.00  0.00    -0.127 OA 
HETATM   25  C   UNL     1      -9.648  12.158  69.967  1.00  0.00     2.920 C  
BRANCH  21  26
HETATM   26  C   UNL     1      -6.420  12.258  70.062  1.00  0.00     0.069 C  
HETATM   27  H   UNL     1      -5.050  10.944  70.609  1.00  0.00     0.000 HD 
HETATM   28  O   UNL     1      -5.714  11.025  69.936  1.00  0.00    -0.053 OA 
ENDBRANCH  21  26
BRANCH  22  29
HETATM   29  O   UNL     1      -9.373   9.768  69.988  1.00  0.00    -0.225 OA 
BRANCH  29  30
HETATM   30  C   UNL     1     -10.660   9.148  70.175  1.00  0.00    -0.228 C  
HETATM   31  C   UNL     1     -11.541  10.013  71.099  1.00  0.00    -0.378 C  
HETATM   32  O   UNL     1     -11.499  11.385  70.685  1.00  0.00    -0.425 OA 
HETATM   33  C   UNL     1     -12.990   9.513  71.084  1.00  0.00    -0.274 C  
HETATM   34  C   UNL     1     -13.031   8.080  71.615  1.00  0.00    -0.351 C  
HETATM   35  N   UNL     1     -13.862  10.389  71.890  1.00  0.00    -0.084 NA 
HETATM   36  H   UNL     1     -12.041  11.918  71.254  1.00  0.00     0.000 HD 
HETATM   37  H1  UNL     1     -14.826  10.057  71.880  1.00  0.00     0.000 HD 
HETATM   38  H2  UNL     1     -13.797  11.362  71.590  1.00  0.00     0.000 HD 
HETATM   39  C   UNL     1     -12.115   7.141  70.812  1.00  0.00    -0.288 C  
HETATM   40  C   UNL     1     -10.640   7.666  70.639  1.00  0.00    -0.221 C  
HETATM   41  N   UNL     1     -12.142   5.807  71.446  1.00  0.00     0.435 NA 
HETATM   42  H2  UNL     1     -13.088   5.440  71.547  1.00  0.00     0.000 HD 
HETATM   43  H1  UNL     1     -11.534   5.185  70.914  1.00  0.00     0.000 HD 
BRANCH  40  44
HETATM   44  O   UNL     1      -9.989   6.762  69.716  1.00  0.00    -0.174 OA 
BRANCH  44  45
HETATM   45  C   UNL     1      -8.764   6.178  70.182  1.00  0.00    -0.141 C  
HETATM   46  O   UNL     1      -8.996   4.999  70.945  1.00  0.00    -0.128 OA 
HETATM   47  C   UNL     1      -9.511   3.888  70.212  1.00  0.00    -0.185 C  
HETATM   48  C   UNL     1      -8.527   3.491  69.109  1.00  0.00    -0.066 C  
HETATM   49  H1  UNL     1      -6.848   6.888  67.402  1.00  0.00     0.000 HD 
HETATM   50  H2  UNL     1      -7.181   7.861  68.726  1.00  0.00     0.000 HD 
HETATM   51  O   UNL     1      -9.005   2.400  68.318  1.00  0.00    -0.105 OA 
HETATM   52  C   UNL     1      -8.257   4.697  68.199  1.00  0.00    -0.091 C  
HETATM   53  H   UNL     1      -8.394   2.154  67.634  1.00  0.00     0.000 HD 
HETATM   54  O   UNL     1      -7.260   4.349  67.222  1.00  0.00    -0.067 OA 
HETATM   55  N   UNL     1      -7.501   7.072  68.164  1.00  0.00    -0.097 NA 
HETATM   56  C   UNL     1      -7.772   5.898  69.025  1.00  0.00    -0.091 C  
HETATM   57  H   UNL     1      -7.093   5.095  66.659  1.00  0.00     0.000 HD 
BRANCH  47  58
HETATM   58  C   UNL     1      -9.727   2.745  71.214  1.00  0.00    -0.133 C  
HETATM   59  O   UNL     1     -10.334   3.242  72.410  1.00  0.00    -0.152 OA 
HETATM   60  H   UNL     1     -10.468   2.535  73.030  1.00  0.00     0.000 HD 
ENDBRANCH  47  58
ENDBRANCH  44  45
ENDBRANCH  40  44
ENDBRANCH  29  30
ENDBRANCH  22  29
ENDBRANCH  18  19
ENDBRANCH   7  18
ENDBRANCH   2   5
TORSDOF 9
ENDMDL
MODEL      338
REMARK 921   NORMALIZED FREE ENERGY PREDICTED BY IDOCK:   20.86 KCAL/MOL
REMARK 922        TOTAL FREE ENERGY PREDICTED BY IDOCK:   29.79 KCAL/MOL
REMARK 923 INTER-LIGAND FREE ENERGY PREDICTED BY IDOCK:   -1.64 KCAL/MOL
REMARK 924 INTRA-LIGAND FREE ENERGY PREDICTED BY IDOCK:   31.43 KCAL/MOL
REMARK 927      BINDING AFFINITY PREDICTED BY RF-SCORE:    0.00 PKD
ROOT
HETATM    1  N   UNL     1     -12.149  11.243  70.709  1.00  0.00    -0.364 NA 
HETATM    2  C   UNL     1     -11.243  12.407  70.793  1.00  0.00     1.823 C  
HETATM    3  H1  UNL     1     -11.621  10.382  70.853  1.00  0.00     0.000 HD 
HETATM    4  H2  UNL     1     -12.674  11.229  69.834  1.00  0.00     0.000 HD 
ENDROOT
BRANCH   2   5
HETATM    5  C   UNL     1     -12.039  13.705  70.577  1.00  0.00    -0.339 C  
HETATM    6  O   UNL     1     -11.246  14.552  69.725  1.00  0.00    -0.255 OA 
HETATM    7  C   UNL     1     -11.967  15.702  69.290  1.00  0.00    -0.320 C  
HETATM    8  C   UNL     1     -12.246  16.611  70.522  1.00  0.00     1.486 C  
HETATM    9  O   UNL     1     -11.173  14.615  72.659  1.00  0.00     0.031 OA 
HETATM   10  H   UNL     1     -11.378  15.069  73.468  1.00  0.00     0.000 HD 
HETATM   11  N   UNL     1     -10.971  17.125  71.103  1.00  0.00     0.353 NA 
HETATM   12  C   UNL     1     -13.037  15.804  71.577  1.00  0.00    -0.400 C  
HETATM   13  H2  UNL     1     -10.403  17.603  70.402  1.00  0.00     0.000 HD 
HETATM   14  O   UNL     1     -14.403  15.628  71.176  1.00  0.00    -0.734 OA 
HETATM   15  C   UNL     1     -12.372  14.442  71.891  1.00  0.00    -0.281 C  
HETATM   16  H1  UNL     1     -11.154  17.721  71.910  1.00  0.00     0.000 HD 
HETATM   17  H   UNL     1     -14.888  15.132  71.824  1.00  0.00     0.000 HD 
BRANCH   7  18
HETATM   18  O   UNL     1     -11.215  16.451  68.331  1.00  0.00    -0.362 OA 
BRANCH  18  19
HETATM   19  C   UNL     1      -9.828  16.076  68.254  1.00  0.00    -0.219 C  
HETATM   20  O   UNL     1     -10.279  14.269  69.884  1.00  0.00    -0.334 OA 
HETATM   21  C   UNL     1      -9.480  16.018  66.768  1.00  0.00    -0.231 C  
HETATM   22  C   UNL     1      -9.818  13.823  67.476  1.00  0.00    -0.230 C  
HETATM   23  H   UNL     1     -10.094  13.386  70.182  1.00  0.00     0.000 HD 
HETATM   24  O   UNL     1      -9.695  14.668  66.330  1.00  0.00    -0.267 OA 
HETATM   25  C   UNL     1      -9.532  14.664  68.731  1.00  0.00    -0.199 C  
BRANCH  21  26
HETATM   26  C   UNL     1      -8.032  16.399  66.456  1.00  0.00    -0.307 C  
HETATM   27  H   UNL     1      -6.912  18.026  66.489  1.00  0.00     0.000 HD 
HETATM   28  O   UNL     1      -7.811  17.790  66.683  1.00  0.00    -0.215 OA 
ENDBRANCH  21  26
BRANCH  22  29
HETATM   29  O   UNL     1      -8.877  12.755  67.420  1.00  0.00    -0.172 OA 
BRANCH  29  30
HETATM   30  C   UNL     1      -9.342  11.416  67.675  1.00  0.00    -0.159 C  
HETATM   31  C   UNL     1     -10.834  11.432  68.061  1.00  0.00    -0.217 C  
HETATM   32  O   UNL     1     -11.577  12.248  67.145  1.00  0.00    -0.334 OA 
HETATM   33  C   UNL     1     -11.405  10.009  68.064  1.00  0.00     0.004 C  
HETATM   34  C   UNL     1     -10.667   9.176  69.111  1.00  0.00    -0.190 C  
HETATM   35  N   UNL     1     -12.855  10.020  68.340  1.00  0.00     2.746 NA 
HETATM   36  H   UNL     1     -12.496  12.258  67.382  1.00  0.00     0.000 HD 
HETATM   37  H1  UNL     1     -13.235   9.074  68.342  1.00  0.00     0.000 HD 
HETATM   38  H2  UNL     1     -13.356  10.625  67.689  1.00  0.00     0.000 HD 
HETATM   39  C   UNL     1      -9.148   9.160  68.869  1.00  0.00    -0.139 C  
HETATM   40  C   UNL     1      -8.506  10.587  68.688  1.00  0.00    -0.138 C  
HETATM   41  N   UNL     1      -8.506   8.416  69.973  1.00  0.00    -0.123 NA 
HETATM   42  H2  UNL     1      -8.893   7.481  70.092  1.00  0.00     0.000 HD 
HETATM   43  H1  UNL     1      -7.499   8.406  69.812  1.00  0.00     0.000 HD 
BRANCH  40  44
HETATM   44  O   UNL     1      -7.132  10.371  68.290  1.00  0.00    -0.076 OA 
BRANCH  44  45
HETATM   45  C   UNL     1      -6.865  10.506  66.887  1.00  0.00    -0.091 C  
HETATM   46  O   UNL     1      -6.042   9.452  66.400  1.00  0.00    -0.058 OA 
HETATM   47  C   UNL     1      -6.645   8.159  66.391  1.00  0.00    -0.051 C  
HETATM   48  C   UNL     1      -7.888   8.172  65.497  1.00  0.00    -0.104 C  
HETATM   49  H1  UNL     1      -9.948  11.751  65.966  1.00  0.00     0.000 HD 
HETATM   50  H2  UNL     1      -8.615  12.578  66.556  1.00  0.00     0.000 HD 
HETATM   51  O   UNL     1      -8.555   6.908  65.474  1.00  0.00    -0.218 OA 
HETATM   52  C   UNL     1      -8.863   9.252  65.984  1.00  0.00    -0.160 C  
HETATM   53  H   UNL     1      -9.326   6.916  64.918  1.00  0.00     0.000 HD 
HETATM   54  O   UNL     1      -9.985   9.327  65.086  1.00  0.00    -0.395 OA 
HETATM   55  N   UNL     1      -9.092  11.677  66.515  1.00  0.00    -0.193 NA 
HETATM   56  C   UNL     1      -8.165  10.619  66.052  1.00  0.00    -0.158 C  
HETATM   57  H   UNL     1     -10.589   9.995  65.388  1.00  0.00     0.000 HD 
BRANCH  47  58
HETATM   58  C   UNL     1      -5.590   7.170  65.877  1.00  0.00    -0.031 C  
HETATM   59  O   UNL     1      -5.929   5.836  66.265  1.00  0.00    -0.021 OA 
HETATM   60  H   UNL     1      -5.277   5.224  65.947  1.00  0.00     0.000 HD 
ENDBRANCH  47  58
ENDBRANCH  44  45
ENDBRANCH  40  44
ENDBRANCH  29  30
ENDBRANCH  22  29
ENDBRANCH  18  19
ENDBRANCH   7  18
ENDBRANCH   2   5
TORSDOF 9
ENDMDL
MODEL      339
REMARK 921   NORMALIZED FREE ENERGY PREDICTED BY IDOCK:   24.21 KCAL/MOL
REMARK 922        TOTAL FREE ENERGY PREDICTED BY IDOCK:   34.91 KCAL/MOL
REMARK 923 INTER-LIGAND FREE ENERGY PREDICTED BY IDOCK:   20.53 KCAL/MOL
REMARK 924 INTRA-LIGAND FREE ENERGY PREDICTED BY IDOCK:   14.38 KCAL/MOL
REMARK 927      BINDING AFFINITY PREDICTED BY RF-SCORE:    0.00 PKD
ROOT
HETATM    1  N   UNL     1     -13.425  10.621  70.117  1.00  0.00    -0.036 NA 
HETATM    2  C   UNL     1     -13.325  10.939  68.678  1.00  0.00     4.810 C  
HETATM    3  H1  UNL     1     -13.991   9.783  70.248  1.00  0.00     0.000 HD 
HETATM    4  H2  UNL     1     -13.775  11.410  70.660  1.00  0.00     0.000 HD 
ENDROOT
BRANCH   2   5
HETATM    5  C   UNL     1     -12.470  12.202  68.480  1.00  0.00     0.769 C  
HETATM    6  O   UNL     1     -12.220  12.327  67.068  1.00  0.00    -0.522 OA 
HETATM    7  C   UNL     1     -11.607  13.571  66.740  1.00  0.00    -0.363 C  
HETATM    8  C   UNL     1     -10.175  13.598  67.350  1.00  0.00    -0.241 C  
HETATM    9  O   UNL     1     -10.446  10.938  68.949  1.00  0.00    -0.185 OA 
HETATM   10  H   UNL     1      -9.624  10.913  69.423  1.00  0.00     0.000 HD 
HETATM   11  N   UNL     1      -9.316  12.544  66.734  1.00  0.00    -0.225 NA 
HETATM   12  C   UNL     1     -10.274  13.393  68.880  1.00  0.00    -0.037 C  
HETATM   13  H2  UNL     1      -9.294  12.622  65.717  1.00  0.00     0.000 HD 
HETATM   14  O   UNL     1     -10.763  14.574  69.528  1.00  0.00    -0.331 OA 
HETATM   15  C   UNL     1     -11.134  12.160  69.250  1.00  0.00    -0.167 C  
HETATM   16  H1  UNL     1      -8.377  12.561  67.134  1.00  0.00     0.000 HD 
HETATM   17  H   UNL     1     -10.824  14.448  70.468  1.00  0.00     0.000 HD 
BRANCH   7  18
HETATM   18  O   UNL     1     -11.502  13.738  65.323  1.00  0.00    -0.303 OA 
BRANCH  18  19
HETATM   19  C   UNL     1     -11.809  12.551  64.571  1.00  0.00    -0.383 C  
HETATM   20  O   UNL     1      -9.414  12.376  63.969  1.00  0.00    -0.519 OA 
HETATM   21  C   UNL     1     -12.679  11.680  65.475  1.00  0.00     2.420 C  
HETATM   22  C   UNL     1     -10.517  10.813  65.566  1.00  0.00    -0.194 C  
HETATM   23  H   UNL     1      -8.665  11.820  63.792  1.00  0.00     0.000 HD 
HETATM   24  O   UNL     1     -11.802  10.797  66.190  1.00  0.00     0.538 OA 
HETATM   25  C   UNL     1     -10.610  11.661  64.287  1.00  0.00    -0.340 C  
BRANCH  21  26
HETATM   26  C   UNL     1     -13.703  10.832  64.719  1.00  0.00     8.449 C  
HETATM   27  H   UNL     1     -14.706  10.927  63.020  1.00  0.00     0.000 HD 
HETATM   28  O   UNL     1     -14.070  11.453  63.489  1.00  0.00     0.733 OA 
ENDBRANCH  21  26
BRANCH  22  29
HETATM   29  O   UNL     1     -10.112   9.495  65.209  1.00  0.00    -0.165 OA 
BRANCH  29  30
HETATM   30  C   UNL     1      -8.703   9.216  65.097  1.00  0.00    -0.195 C  
HETATM   31  C   UNL     1      -7.924  10.511  64.796  1.00  0.00    -0.046 C  
HETATM   32  O   UNL     1      -8.342  11.560  65.680  1.00  0.00    -0.375 OA 
HETATM   33  C   UNL     1      -6.416  10.279  64.947  1.00  0.00    -0.113 C  
HETATM   34  C   UNL     1      -5.967   9.225  63.936  1.00  0.00    -0.080 C  
HETATM   35  N   UNL     1      -5.664  11.534  64.755  1.00  0.00     0.272 NA 
HETATM   36  H   UNL     1      -7.862  12.358  65.494  1.00  0.00     0.000 HD 
HETATM   37  H1  UNL     1      -4.661  11.381  64.855  1.00  0.00     0.000 HD 
HETATM   38  H2  UNL     1      -5.996  12.270  65.378  1.00  0.00     0.000 HD 
HETATM   39  C   UNL     1      -6.746   7.908  64.092  1.00  0.00    -0.061 C  
HETATM   40  C   UNL     1      -8.312   8.079  64.114  1.00  0.00     0.021 C  
HETATM   41  N   UNL     1      -6.320   6.982  63.022  1.00  0.00    -0.044 NA 
HETATM   42  H2  UNL     1      -5.310   6.841  63.005  1.00  0.00     0.000 HD 
HETATM   43  H1  UNL     1      -6.837   6.109  63.126  1.00  0.00     0.000 HD 
BRANCH  40  44
HETATM   44  O   UNL     1      -8.861   6.784  64.450  1.00  0.00     0.396 OA 
BRANCH  44  45
HETATM   45  C   UNL     1      -9.312   6.635  65.804  1.00  0.00     0.178 C  
HETATM   46  O   UNL     1     -10.603   6.040  65.870  1.00  0.00     0.251 OA 
HETATM   47  C   UNL     1     -10.669   4.675  65.459  1.00  0.00    -0.134 C  
HETATM   48  C   UNL     1      -9.763   3.819  66.348  1.00  0.00    -0.122 C  
HETATM   49  H1  UNL     1      -6.254   5.873  67.209  1.00  0.00     0.000 HD 
HETATM   50  H2  UNL     1      -6.917   7.379  66.888  1.00  0.00     0.000 HD 
HETATM   51  O   UNL     1      -9.763   2.443  65.962  1.00  0.00    -0.349 OA 
HETATM   52  C   UNL     1      -8.328   4.360  66.296  1.00  0.00    -0.112 C  
HETATM   53  H   UNL     1      -9.201   1.912  66.515  1.00  0.00     0.000 HD 
HETATM   54  O   UNL     1      -7.500   3.615  67.206  1.00  0.00    -0.069 OA 
HETATM   55  N   UNL     1      -6.921   6.390  66.636  1.00  0.00    -0.066 NA 
HETATM   56  C   UNL     1      -8.299   5.850  66.674  1.00  0.00    -0.110 C  
HETATM   57  H   UNL     1      -6.611   3.950  67.174  1.00  0.00     0.000 HD 
BRANCH  47  58
HETATM   58  C   UNL     1     -12.137   4.240  65.564  1.00  0.00     4.503 C  
HETATM   59  O   UNL     1     -13.003   5.350  65.308  1.00  0.00     3.080 OA 
HETATM   60  H   UNL     1     -13.911   5.081  65.373  1.00  0.00     0.000 HD 
ENDBRANCH  47  58
ENDBRANCH  44  45
ENDBRANCH  40  44
ENDBRANCH  29  30
ENDBRANCH  22  29
ENDBRANCH  18  19
ENDBRANCH   7  18
ENDBRANCH   2   5
TORSDOF 9
ENDMDL
MODEL      340
REMARK 921   NORMALIZED FREE ENERGY PREDICTED BY IDOCK:   24.93 KCAL/MOL
REMARK 922        TOTAL FREE ENERGY PREDICTED BY IDOCK:   36.00 KCAL/MOL
REMARK 923 INTER-LIGAND FREE ENERGY PREDICTED BY IDOCK:   25.56 KCAL/MOL
REMARK 924 INTRA-LIGAND FREE ENERGY PREDICTED BY IDOCK:   10.45 KCAL/MOL
REMARK 927      BINDING AFFINITY PREDICTED BY RF-SCORE:    0.00 PKD
ROOT
HETATM    1  N   UNL     1     -12.165   3.346  67.367  1.00  0.00    14.063 NA 
HETATM    2  C   UNL     1     -10.956   4.161  67.603  1.00  0.00     2.860 C  
HETATM    3  H1  UNL     1     -12.285   3.184  66.367  1.00  0.00     0.000 HD 
HETATM    4  H2  UNL     1     -12.996   3.762  67.790  1.00  0.00     0.000 HD 
ENDROOT
BRANCH   2   5
HETATM    5  C   UNL     1     -10.776   4.405  69.111  1.00  0.00     1.500 C  
HETATM    6  O   UNL     1      -9.443   4.914  69.301  1.00  0.00    -0.118 OA 
HETATM    7  C   UNL     1      -9.228   5.368  70.636  1.00  0.00    -0.148 C  
HETATM    8  C   UNL     1      -9.272   4.142  71.593  1.00  0.00    -0.129 C  
HETATM    9  O   UNL     1     -10.168   2.074  69.443  1.00  0.00     0.597 OA 
HETATM   10  H   UNL     1     -10.295   1.292  69.968  1.00  0.00     0.000 HD 
HETATM   11  N   UNL     1      -8.153   3.198  71.298  1.00  0.00    -0.061 NA 
HETATM   12  C   UNL     1     -10.637   3.432  71.442  1.00  0.00     0.900 C  
HETATM   13  H2  UNL     1      -7.247   3.666  71.325  1.00  0.00     0.000 HD 
HETATM   14  O   UNL     1     -11.683   4.184  72.072  1.00  0.00     1.258 OA 
HETATM   15  C   UNL     1     -10.982   3.135  69.963  1.00  0.00     4.658 C  
HETATM   16  H1  UNL     1      -8.182   2.394  71.925  1.00  0.00     0.000 HD 
HETATM   17  H   UNL     1     -12.521   3.747  71.980  1.00  0.00     0.000 HD 
BRANCH   7  18
HETATM   18  O   UNL     1      -7.954   6.004  70.765  1.00  0.00    -0.109 OA 
BRANCH  18  19
HETATM   19  C   UNL     1      -7.678   6.977  69.741  1.00  0.00    -0.109 C  
HETATM   20  O   UNL     1      -5.264   6.723  70.223  1.00  0.00    -0.017 OA 
HETATM   21  C   UNL     1      -8.504   6.566  68.524  1.00  0.00    -0.124 C  
HETATM   22  C   UNL     1      -6.318   5.851  68.140  1.00  0.00    -0.044 C  
HETATM   23  H   UNL     1      -4.372   6.705  69.893  1.00  0.00     0.000 HD 
HETATM   24  O   UNL     1      -7.675   5.723  67.710  1.00  0.00    -0.094 OA 
HETATM   25  C   UNL     1      -6.253   6.948  69.215  1.00  0.00    -0.030 C  
BRANCH  21  26
HETATM   26  C   UNL     1      -8.976   7.744  67.670  1.00  0.00    -0.127 C  
HETATM   27  H   UNL     1     -10.636   8.782  67.408  1.00  0.00     0.000 HD 
HETATM   28  O   UNL     1     -10.343   8.051  67.937  1.00  0.00    -0.211 OA 
ENDBRANCH  21  26
BRANCH  22  29
HETATM   29  O   UNL     1      -5.477   6.227  67.054  1.00  0.00    -0.008 OA 
BRANCH  29  30
HETATM   30  C   UNL     1      -6.093   6.698  65.840  1.00  0.00    -0.034 C  
HETATM   31  C   UNL     1      -6.045   5.603  64.756  1.00  0.00    -0.025 C  
HETATM   32  O   UNL     1      -6.479   4.347  65.298  1.00  0.00    -0.034 OA 
HETATM   33  C   UNL     1      -6.932   5.984  63.565  1.00  0.00    -0.045 C  
HETATM   34  C   UNL     1      -6.403   7.275  62.941  1.00  0.00    -0.053 C  
HETATM   35  N   UNL     1      -6.970   4.902  62.563  1.00  0.00    -0.030 NA 
HETATM   36  H   UNL     1      -6.450   3.673  64.631  1.00  0.00     0.000 HD 
HETATM   37  H1  UNL     1      -7.559   5.155  61.771  1.00  0.00     0.000 HD 
HETATM   38  H2  UNL     1      -7.259   4.016  62.978  1.00  0.00     0.000 HD 
HETATM   39  C   UNL     1      -6.328   8.422  63.963  1.00  0.00    -0.071 C  
HETATM   40  C   UNL     1      -5.571   8.055  65.295  1.00  0.00    -0.040 C  
HETATM   41  N   UNL     1      -5.720   9.597  63.304  1.00  0.00    -0.089 NA 
HETATM   42  H2  UNL     1      -6.210   9.864  62.451  1.00  0.00     0.000 HD 
HETATM   43  H1  UNL     1      -5.671  10.357  63.983  1.00  0.00     0.000 HD 
BRANCH  40  44
HETATM   44  O   UNL     1      -5.760   9.171  66.195  1.00  0.00    -0.051 OA 
BRANCH  44  45
HETATM   45  C   UNL     1      -6.475  10.290  65.651  1.00  0.00    -0.118 C  
HETATM   46  O   UNL     1      -7.606   9.878  64.892  1.00  0.00    -0.123 OA 
HETATM   47  C   UNL     1      -8.661   9.279  65.643  1.00  0.00    -0.166 C  
HETATM   48  C   UNL     1      -9.190  10.271  66.681  1.00  0.00    -0.155 C  
HETATM   49  H1  UNL     1      -6.041  12.433  68.321  1.00  0.00     0.000 HD 
HETATM   50  H2  UNL     1      -5.013  12.142  67.029  1.00  0.00     0.000 HD 
HETATM   51  O   UNL     1     -10.230   9.714  67.488  1.00  0.00    -0.191 OA 
HETATM   52  C   UNL     1      -8.039  10.733  67.586  1.00  0.00    -0.114 C  
HETATM   53  H   UNL     1     -10.558  10.330  68.132  1.00  0.00     0.000 HD 
HETATM   54  O   UNL     1      -8.518  11.736  68.499  1.00  0.00    -0.165 OA 
HETATM   55  N   UNL     1      -5.769  11.764  67.601  1.00  0.00    -0.058 NA 
HETATM   56  C   UNL     1      -6.888  11.307  66.745  1.00  0.00    -0.140 C  
HETATM   57  H   UNL     1      -7.806  12.022  69.059  1.00  0.00     0.000 HD 
BRANCH  47  58
HETATM   58  C   UNL     1      -9.754   8.872  64.643  1.00  0.00     1.094 C  
HETATM   59  O   UNL     1      -9.573   7.513  64.236  1.00  0.00     1.663 OA 
HETATM   60  H   UNL     1     -10.248   7.262  63.618  1.00  0.00     0.000 HD 
ENDBRANCH  47  58
ENDBRANCH  44  45
ENDBRANCH  40  44
ENDBRANCH  29  30
ENDBRANCH  22  29
ENDBRANCH  18  19
ENDBRANCH   7  18
ENDBRANCH   2   5
TORSDOF 9
ENDMDL
MODEL      341
REMARK 921   NORMALIZED FREE ENERGY PREDICTED BY IDOCK:   25.15 KCAL/MOL
REMARK 922        TOTAL FREE ENERGY PREDICTED BY IDOCK:   36.35 KCAL/MOL
REMARK 923 INTER-LIGAND FREE ENERGY PREDICTED BY IDOCK:    7.63 KCAL/MOL
REMARK 924 INTRA-LIGAND FREE ENERGY PREDICTED BY IDOCK:   28.71 KCAL/MOL
REMARK 927      BINDING AFFINITY PREDICTED BY RF-SCORE:    0.00 PKD
ROOT
HETATM    1  N   UNL     1     -10.975  13.067  65.275  1.00  0.00    -0.280 NA 
HETATM    2  C   UNL     1      -9.510  12.882  65.250  1.00  0.00     0.267 C  
HETATM    3  H1  UNL     1     -11.198  14.043  65.467  1.00  0.00     0.000 HD 
HETATM    4  H2  UNL     1     -11.430  12.432  65.931  1.00  0.00     0.000 HD 
ENDROOT
BRANCH   2   5
HETATM    5  C   UNL     1      -9.174  11.410  64.959  1.00  0.00    -0.076 C  
HETATM    6  O   UNL     1      -9.512  10.656  66.138  1.00  0.00    -0.169 OA 
HETATM    7  C   UNL     1      -9.433   9.250  65.917  1.00  0.00    -0.259 C  
HETATM    8  C   UNL     1      -7.944   8.866  65.675  1.00  0.00    -0.098 C  
HETATM    9  O   UNL     1      -6.857  11.784  65.597  1.00  0.00     0.174 OA 
HETATM   10  H   UNL     1      -5.944  11.645  65.373  1.00  0.00     0.000 HD 
HETATM   11  N   UNL     1      -7.122   9.135  66.892  1.00  0.00    -0.081 NA 
HETATM   12  C   UNL     1      -7.406   9.667  64.467  1.00  0.00    -0.125 C  
HETATM   13  H2  UNL     1      -7.503   8.669  67.715  1.00  0.00     0.000 HD 
HETATM   14  O   UNL     1      -7.923   9.151  63.233  1.00  0.00    -0.131 OA 
HETATM   15  C   UNL     1      -7.690  11.183  64.596  1.00  0.00     0.747 C  
HETATM   16  H1  UNL     1      -6.146   8.884  66.733  1.00  0.00     0.000 HD 
HETATM   17  H   UNL     1      -7.592   9.643  62.491  1.00  0.00     0.000 HD 
BRANCH   7  18
HETATM   18  O   UNL     1      -9.914   8.522  67.050  1.00  0.00    -0.200 OA 
BRANCH  18  19
HETATM   19  C   UNL     1      -9.807   9.237  68.294  1.00  0.00    -0.158 C  
HETATM   20  O   UNL     1      -7.838   7.849  68.863  1.00  0.00    -0.112 OA 
HETATM   21  C   UNL     1      -9.918  10.721  67.948  1.00  0.00    -0.174 C  
HETATM   22  C   UNL     1      -7.654  10.259  68.258  1.00  0.00    -0.091 C  
HETATM   23  H   UNL     1      -6.986   7.789  69.278  1.00  0.00     0.000 HD 
HETATM   24  O   UNL     1      -8.585  11.213  67.744  1.00  0.00    -0.127 OA 
HETATM   25  C   UNL     1      -8.443   9.141  68.957  1.00  0.00    -0.132 C  
BRANCH  21  26
HETATM   26  C   UNL     1     -10.580  11.563  69.040  1.00  0.00    -0.173 C  
HETATM   27  H   UNL     1     -10.730  11.542  71.009  1.00  0.00     0.000 HD 
HETATM   28  O   UNL     1     -10.319  11.018  70.331  1.00  0.00     0.578 OA 
ENDBRANCH  21  26
BRANCH  22  29
HETATM   29  O   UNL     1      -6.784  10.865  69.209  1.00  0.00    -0.065 OA 
BRANCH  29  30
HETATM   30  C   UNL     1      -6.956  10.541  70.602  1.00  0.00     0.404 C  
HETATM   31  C   UNL     1      -6.136  11.504  71.482  1.00  0.00     1.329 C  
HETATM   32  O   UNL     1      -6.350  12.861  71.067  1.00  0.00    -0.449 OA 
HETATM   33  C   UNL     1      -6.523  11.349  72.957  1.00  0.00     5.083 C  
HETATM   34  C   UNL     1      -6.203   9.925  73.411  1.00  0.00     1.051 C  
HETATM   35  N   UNL     1      -5.813  12.332  73.798  1.00  0.00     1.104 NA 
HETATM   36  H   UNL     1      -5.845  13.454  71.609  1.00  0.00     0.000 HD 
HETATM   37  H1  UNL     1      -6.070  12.229  74.779  1.00  0.00     0.000 HD 
HETATM   38  H2  UNL     1      -5.963  13.285  73.469  1.00  0.00     0.000 HD 
HETATM   39  C   UNL     1      -6.909   8.870  72.541  1.00  0.00     0.160 C  
HETATM   40  C   UNL     1      -6.695   9.060  70.992  1.00  0.00    -0.087 C  
HETATM   41  N   UNL     1      -6.473   7.530  72.985  1.00  0.00    -0.060 NA 
HETATM   42  H2  UNL     1      -6.624   7.380  73.983  1.00  0.00     0.000 HD 
HETATM   43  H1  UNL     1      -6.941   6.831  72.408  1.00  0.00     0.000 HD 
BRANCH  40  44
HETATM   44  O   UNL     1      -7.568   8.109  70.339  1.00  0.00    -0.072 OA 
BRANCH  44  45
HETATM   45  C   UNL     1      -7.031   6.789  70.172  1.00  0.00    -0.066 C  
HETATM   46  O   UNL     1      -7.861   5.800  70.773  1.00  0.00    -0.097 OA 
HETATM   47  C   UNL     1      -9.131   5.608  70.152  1.00  0.00    -0.138 C  
HETATM   48  C   UNL     1      -8.938   5.170  68.698  1.00  0.00    -0.105 C  
HETATM   49  H1  UNL     1      -5.750   7.226  66.999  1.00  0.00     0.000 HD 
HETATM   50  H2  UNL     1      -5.049   7.597  68.475  1.00  0.00     0.000 HD 
HETATM   51  O   UNL     1     -10.179   4.992  68.012  1.00  0.00    -0.146 OA 
HETATM   52  C   UNL     1      -8.092   6.211  67.953  1.00  0.00    -0.114 C  
HETATM   53  H   UNL     1     -10.059   4.720  67.110  1.00  0.00     0.000 HD 
HETATM   54  O   UNL     1      -7.831   5.752  66.615  1.00  0.00    -0.099 OA 
HETATM   55  N   UNL     1      -5.928   7.449  67.978  1.00  0.00    -0.033 NA 
HETATM   56  C   UNL     1      -6.762   6.450  68.685  1.00  0.00    -0.061 C  
HETATM   57  H   UNL     1      -7.308   6.397  66.154  1.00  0.00     0.000 HD 
BRANCH  47  58
HETATM   58  C   UNL     1      -9.878   4.543  70.968  1.00  0.00    -0.196 C  
HETATM   59  O   UNL     1     -11.290   4.743  70.868  1.00  0.00     0.913 OA 
HETATM   60  H   UNL     1     -11.752   4.084  71.373  1.00  0.00     0.000 HD 
ENDBRANCH  47  58
ENDBRANCH  44  45
ENDBRANCH  40  44
ENDBRANCH  29  30
ENDBRANCH  22  29
ENDBRANCH  18  19
ENDBRANCH   7  18
ENDBRANCH   2   5
TORSDOF 9
ENDMDL
MODEL      342
REMARK 921   NORMALIZED FREE ENERGY PREDICTED BY IDOCK:   26.06 KCAL/MOL
REMARK 922        TOTAL FREE ENERGY PREDICTED BY IDOCK:   37.72 KCAL/MOL
REMARK 923 INTER-LIGAND FREE ENERGY PREDICTED BY IDOCK:    1.97 KCAL/MOL
REMARK 924 INTRA-LIGAND FREE ENERGY PREDICTED BY IDOCK:   35.75 KCAL/MOL
REMARK 927      BINDING AFFINITY PREDICTED BY RF-SCORE:    0.00 PKD
ROOT
HETATM    1  N   UNL     1      -6.934  10.039  66.351  1.00  0.00    -0.097 NA 
HETATM    2  C   UNL     1      -7.474   9.367  67.551  1.00  0.00    -0.091 C  
HETATM    3  H1  UNL     1      -7.405   9.689  65.517  1.00  0.00     0.000 HD 
HETATM    4  H2  UNL     1      -5.920   9.948  66.286  1.00  0.00     0.000 HD 
ENDROOT
BRANCH   2   5
HETATM    5  C   UNL     1      -6.765   9.895  68.809  1.00  0.00    -0.050 C  
HETATM    6  O   UNL     1      -6.435   8.753  69.620  1.00  0.00    -0.038 OA 
HETATM    7  C   UNL     1      -5.595   9.100  70.719  1.00  0.00    -0.036 C  
HETATM    8  C   UNL     1      -6.402  10.000  71.699  1.00  0.00     0.480 C  
HETATM    9  O   UNL     1      -8.910  10.309  69.877  1.00  0.00    -0.367 OA 
HETATM   10  H   UNL     1      -9.438  10.921  70.377  1.00  0.00     0.000 HD 
HETATM   11  N   UNL     1      -7.552   9.250  72.285  1.00  0.00     0.024 NA 
HETATM   12  C   UNL     1      -6.900  11.252  70.940  1.00  0.00     1.786 C  
HETATM   13  H2  UNL     1      -7.249   8.384  72.731  1.00  0.00     0.000 HD 
HETATM   14  O   UNL     1      -5.826  12.172  70.701  1.00  0.00    -0.239 OA 
HETATM   15  C   UNL     1      -7.623  10.888  69.621  1.00  0.00     0.023 C  
HETATM   16  H1  UNL     1      -8.081   9.840  72.927  1.00  0.00     0.000 HD 
HETATM   17  H   UNL     1      -6.132  12.941  70.235  1.00  0.00     0.000 HD 
BRANCH   7  18
HETATM   18  O   UNL     1      -5.160   7.934  71.424  1.00  0.00    -0.030 OA 
BRANCH  18  19
HETATM   19  C   UNL     1      -6.213   6.997  71.712  1.00  0.00    -0.038 C  
HETATM   20  O   UNL     1      -7.742   8.371  70.333  1.00  0.00    -0.072 OA 
HETATM   21  C   UNL     1      -5.629   5.606  71.474  1.00  0.00    -0.020 C  
HETATM   22  C   UNL     1      -6.903   6.142  69.597  1.00  0.00    -0.065 C  
HETATM   23  H   UNL     1      -8.473   8.403  69.726  1.00  0.00     0.000 HD 
HETATM   24  O   UNL     1      -5.914   5.250  70.113  1.00  0.00    -0.016 OA 
HETATM   25  C   UNL     1      -7.382   7.049  70.743  1.00  0.00    -0.073 C  
BRANCH  21  26
HETATM   26  C   UNL     1      -6.213   4.525  72.386  1.00  0.00    -0.017 C  
HETATM   27  H   UNL     1      -7.483   4.419  73.895  1.00  0.00     0.000 HD 
HETATM   28  O   UNL     1      -7.121   5.090  73.329  1.00  0.00    -0.077 OA 
ENDBRANCH  21  26
BRANCH  22  29
HETATM   29  O   UNL     1      -8.022   5.419  69.092  1.00  0.00    -0.091 OA 
BRANCH  29  30
HETATM   30  C   UNL     1      -8.196   5.334  67.664  1.00  0.00    -0.099 C  
HETATM   31  C   UNL     1      -7.264   4.258  67.074  1.00  0.00    -0.068 C  
HETATM   32  O   UNL     1      -7.348   3.051  67.843  1.00  0.00    -0.053 OA 
HETATM   33  C   UNL     1      -7.633   3.967  65.615  1.00  0.00    -0.085 C  
HETATM   34  C   UNL     1      -7.450   5.240  64.788  1.00  0.00    -0.069 C  
HETATM   35  N   UNL     1      -6.810   2.872  65.067  1.00  0.00    -0.043 NA 
HETATM   36  H   UNL     1      -6.774   2.388  67.480  1.00  0.00     0.000 HD 
HETATM   37  H1  UNL     1      -7.055   2.678  64.097  1.00  0.00     0.000 HD 
HETATM   38  H2  UNL     1      -6.870   2.033  65.644  1.00  0.00     0.000 HD 
HETATM   39  C   UNL     1      -8.277   6.412  65.344  1.00  0.00    -0.142 C  
HETATM   40  C   UNL     1      -8.079   6.673  66.885  1.00  0.00    -0.113 C  
HETATM   41  N   UNL     1      -7.970   7.620  64.549  1.00  0.00    -0.159 NA 
HETATM   42  H2  UNL     1      -8.114   7.478  63.549  1.00  0.00     0.000 HD 
HETATM   43  H1  UNL     1      -8.519   8.396  64.918  1.00  0.00     0.000 HD 
BRANCH  40  44
HETATM   44  O   UNL     1      -9.057   7.670  67.261  1.00  0.00    -0.125 OA 
BRANCH  44  45
HETATM   45  C   UNL     1     -10.212   7.754  66.415  1.00  0.00     0.018 C  
HETATM   46  O   UNL     1     -10.956   8.945  66.650  1.00  0.00     0.062 OA 
HETATM   47  C   UNL     1     -10.307  10.157  66.268  1.00  0.00    -0.175 C  
HETATM   48  C   UNL     1     -10.008  10.136  64.767  1.00  0.00    -0.264 C  
HETATM   49  H1  UNL     1      -8.808   6.331  63.603  1.00  0.00     0.000 HD 
HETATM   50  H2  UNL     1      -9.517   5.575  64.920  1.00  0.00     0.000 HD 
HETATM   51  O   UNL     1      -9.327  11.314  64.331  1.00  0.00    -0.320 OA 
HETATM   52  C   UNL     1      -9.158   8.904  64.427  1.00  0.00     0.239 C  
HETATM   53  H   UNL     1      -9.142  11.301  63.399  1.00  0.00     0.000 HD 
HETATM   54  O   UNL     1      -8.960   8.835  63.004  1.00  0.00    -0.425 OA 
HETATM   55  N   UNL     1      -9.047   6.419  64.590  1.00  0.00     0.606 NA 
HETATM   56  C   UNL     1      -9.849   7.621  64.914  1.00  0.00     2.674 C  
HETATM   57  H   UNL     1      -8.434   8.072  62.793  1.00  0.00     0.000 HD 
BRANCH  47  58
HETATM   58  C   UNL     1     -11.248  11.311  66.640  1.00  0.00    -0.177 C  
HETATM   59  O   UNL     1     -11.113  11.633  68.028  1.00  0.00    -0.210 OA 
HETATM   60  H   UNL     1     -11.695  12.347  68.258  1.00  0.00     0.000 HD 
ENDBRANCH  47  58
ENDBRANCH  44  45
ENDBRANCH  40  44
ENDBRANCH  29  30
ENDBRANCH  22  29
ENDBRANCH  18  19
ENDBRANCH   7  18
ENDBRANCH   2   5
TORSDOF 9
ENDMDL
MODEL      343
REMARK 921   NORMALIZED FREE ENERGY PREDICTED BY IDOCK:   26.70 KCAL/MOL
REMARK 922        TOTAL FREE ENERGY PREDICTED BY IDOCK:   38.71 KCAL/MOL
REMARK 923 INTER-LIGAND FREE ENERGY PREDICTED BY IDOCK:    2.40 KCAL/MOL
REMARK 924 INTRA-LIGAND FREE ENERGY PREDICTED BY IDOCK:   36.31 KCAL/MOL
REMARK 927      BINDING AFFINITY PREDICTED BY RF-SCORE:    0.00 PKD
ROOT
HETATM    1  N   UNL     1      -8.386  12.502  63.476  1.00  0.00     2.159 NA 
HETATM    2  C   UNL     1      -9.803  12.918  63.518  1.00  0.00     1.010 C  
HETATM    3  H1  UNL     1      -7.973  12.768  62.582  1.00  0.00     0.000 HD 
HETATM    4  H2  UNL     1      -8.274  11.507  63.669  1.00  0.00     0.000 HD 
ENDROOT
BRANCH   2   5
HETATM    5  C   UNL     1     -10.425  12.518  64.866  1.00  0.00    -0.303 C  
HETATM    6  O   UNL     1      -9.821  13.348  65.875  1.00  0.00    -0.284 OA 
HETATM    7  C   UNL     1     -10.464  13.208  67.140  1.00  0.00    -0.247 C  
HETATM    8  C   UNL     1     -10.207  11.769  67.674  1.00  0.00    -0.199 C  
HETATM    9  O   UNL     1      -8.828  10.698  65.094  1.00  0.00    -0.186 OA 
HETATM   10  H   UNL     1      -8.701   9.782  65.308  1.00  0.00     0.000 HD 
HETATM   11  N   UNL     1      -8.753  11.548  67.928  1.00  0.00    -0.139 NA 
HETATM   12  C   UNL     1     -10.740  10.745  66.644  1.00  0.00    -0.207 C  
HETATM   13  H2  UNL     1      -8.367  12.257  68.553  1.00  0.00     0.000 HD 
HETATM   14  O   UNL     1     -12.172  10.688  66.667  1.00  0.00     1.452 OA 
HETATM   15  C   UNL     1     -10.219  11.029  65.214  1.00  0.00    -0.284 C  
HETATM   16  H1  UNL     1      -8.584  10.605  68.278  1.00  0.00     0.000 HD 
HETATM   17  H   UNL     1     -12.499  10.059  66.034  1.00  0.00     0.000 HD 
BRANCH   7  18
HETATM   18  O   UNL     1      -9.947  14.145  68.088  1.00  0.00    -0.220 OA 
BRANCH  18  19
HETATM   19  C   UNL     1      -9.278  13.537  69.207  1.00  0.00     0.728 C  
HETATM   20  O   UNL     1     -11.187  11.977  69.433  1.00  0.00    -0.330 OA 
HETATM   21  C   UNL     1      -7.836  13.295  68.768  1.00  0.00     0.008 C  
HETATM   22  C   UNL     1      -8.954  11.257  68.594  1.00  0.00    -0.147 C  
HETATM   23  H   UNL     1     -11.495  11.104  69.648  1.00  0.00     0.000 HD 
HETATM   24  O   UNL     1      -7.771  11.968  68.223  1.00  0.00    -0.113 OA 
HETATM   25  C   UNL     1      -9.771  12.141  69.550  1.00  0.00     1.155 C  
BRANCH  21  26
HETATM   26  C   UNL     1      -6.816  13.399  69.903  1.00  0.00     0.281 C  
HETATM   27  H   UNL     1      -5.039  14.207  70.198  1.00  0.00     0.000 HD 
HETATM   28  O   UNL     1      -5.671  14.142  69.493  1.00  0.00    -0.091 OA 
ENDBRANCH  21  26
BRANCH  22  29
HETATM   29  O   UNL     1      -8.624  10.045  69.266  1.00  0.00    -0.143 OA 
BRANCH  29  30
HETATM   30  C   UNL     1      -7.326   9.463  69.035  1.00  0.00    -0.072 C  
HETATM   31  C   UNL     1      -7.133   9.162  67.536  1.00  0.00    -0.079 C  
HETATM   32  O   UNL     1      -7.523  10.295  66.747  1.00  0.00    -0.101 OA 
HETATM   33  C   UNL     1      -5.672   8.806  67.242  1.00  0.00    -0.039 C  
HETATM   34  C   UNL     1      -5.298   7.543  68.018  1.00  0.00    -0.026 C  
HETATM   35  N   UNL     1      -5.455   8.608  65.795  1.00  0.00    -0.034 NA 
HETATM   36  H   UNL     1      -7.404  10.109  65.823  1.00  0.00     0.000 HD 
HETATM   37  H1  UNL     1      -4.483   8.370  65.599  1.00  0.00     0.000 HD 
HETATM   38  H2  UNL     1      -5.760   9.417  65.256  1.00  0.00     0.000 HD 
HETATM   39  C   UNL     1      -5.533   7.705  69.529  1.00  0.00    -0.023 C  
HETATM   40  C   UNL     1      -6.969   8.230  69.909  1.00  0.00    -0.044 C  
HETATM   41  N   UNL     1      -5.239   6.415  70.189  1.00  0.00    -0.013 NA 
HETATM   42  H2  UNL     1      -4.305   6.069  69.972  1.00  0.00     0.000 HD 
HETATM   43  H1  UNL     1      -5.395   6.523  71.191  1.00  0.00     0.000 HD 
BRANCH  40  44
HETATM   44  O   UNL     1      -6.945   8.495  71.331  1.00  0.00    -0.064 OA 
BRANCH  44  45
HETATM   45  C   UNL     1      -7.973   7.852  72.098  1.00  0.00    -0.119 C  
HETATM   46  O   UNL     1      -8.803   7.029  71.286  1.00  0.00    -0.133 OA 
HETATM   47  C   UNL     1      -8.171   5.871  70.742  1.00  0.00    -0.124 C  
HETATM   48  C   UNL     1      -7.665   4.974  71.875  1.00  0.00    -0.107 C  
HETATM   49  H1  UNL     1      -6.118   7.299  74.954  1.00  0.00     0.000 HD 
HETATM   50  H2  UNL     1      -6.964   8.672  74.501  1.00  0.00     0.000 HD 
HETATM   51  O   UNL     1      -6.992   3.811  71.389  1.00  0.00    -0.030 OA 
HETATM   52  C   UNL     1      -6.713   5.770  72.778  1.00  0.00    -0.073 C  
HETATM   53  H   UNL     1      -6.678   3.254  72.092  1.00  0.00     0.000 HD 
HETATM   54  O   UNL     1      -6.315   4.955  73.894  1.00  0.00    -0.055 OA 
HETATM   55  N   UNL     1      -6.497   7.828  74.169  1.00  0.00    -0.090 NA 
HETATM   56  C   UNL     1      -7.398   7.048  73.290  1.00  0.00    -0.073 C  
HETATM   57  H   UNL     1      -5.726   5.448  74.453  1.00  0.00     0.000 HD 
BRANCH  47  58
HETATM   58  C   UNL     1      -9.213   5.151  69.875  1.00  0.00    -0.127 C  
HETATM   59  O   UNL     1      -8.601   4.082  69.149  1.00  0.00    -0.075 OA 
HETATM   60  H   UNL     1      -9.245   3.637  68.612  1.00  0.00     0.000 HD 
ENDBRANCH  47  58
ENDBRANCH  44  45
ENDBRANCH  40  44
ENDBRANCH  29  30
ENDBRANCH  22  29
ENDBRANCH  18  19
ENDBRANCH   7  18
ENDBRANCH   2   5
TORSDOF 9
ENDMDL
MODEL      344
REMARK 921   NORMALIZED FREE ENERGY PREDICTED BY IDOCK:   28.18 KCAL/MOL
REMARK 922        TOTAL FREE ENERGY PREDICTED BY IDOCK:   40.96 KCAL/MOL
REMARK 923 INTER-LIGAND FREE ENERGY PREDICTED BY IDOCK:   36.05 KCAL/MOL
REMARK 924 INTRA-LIGAND FREE ENERGY PREDICTED BY IDOCK:    4.91 KCAL/MOL
REMARK 927      BINDING AFFINITY PREDICTED BY RF-SCORE:    0.00 PKD
ROOT
HETATM    1  N   UNL     1      -7.053  11.788  62.423  1.00  0.00     0.078 NA 
HETATM    2  C   UNL     1      -6.593  10.794  63.413  1.00  0.00     0.257 C  
HETATM    3  H1  UNL     1      -6.257  12.148  61.897  1.00  0.00     0.000 HD 
HETATM    4  H2  UNL     1      -7.597  12.536  62.855  1.00  0.00     0.000 HD 
ENDROOT
BRANCH   2   5
HETATM    5  C   UNL     1      -7.794  10.251  64.205  1.00  0.00    -0.117 C  
HETATM    6  O   UNL     1      -7.477  10.389  65.602  1.00  0.00    -0.144 OA 
HETATM    7  C   UNL     1      -8.598  10.104  66.437  1.00  0.00    -0.130 C  
HETATM    8  C   UNL     1      -8.946   8.593  66.307  1.00  0.00    -0.173 C  
HETATM    9  O   UNL     1      -6.934   7.985  64.009  1.00  0.00    -0.065 OA 
HETATM   10  H   UNL     1      -7.135   7.078  63.809  1.00  0.00     0.000 HD 
HETATM   11  N   UNL     1      -7.829   7.745  66.820  1.00  0.00    -0.105 NA 
HETATM   12  C   UNL     1      -9.239   8.268  64.824  1.00  0.00     0.724 C  
HETATM   13  H2  UNL     1      -7.576   7.993  67.776  1.00  0.00     0.000 HD 
HETATM   14  O   UNL     1     -10.519   8.778  64.427  1.00  0.00     2.559 OA 
HETATM   15  C   UNL     1      -8.122   8.778  63.882  1.00  0.00    -0.165 C  
HETATM   16  H1  UNL     1      -8.058   6.754  66.734  1.00  0.00     0.000 HD 
HETATM   17  H   UNL     1     -10.698   8.578  63.515  1.00  0.00     0.000 HD 
BRANCH   7  18
HETATM   18  O   UNL     1      -8.306  10.390  67.808  1.00  0.00    -0.113 OA 
BRANCH  18  19
HETATM   19  C   UNL     1      -9.336  11.133  68.483  1.00  0.00    -0.190 C  
HETATM   20  O   UNL     1      -8.265  10.560  70.639  1.00  0.00    -0.023 OA 
HETATM   21  C   UNL     1      -9.456  12.467  67.749  1.00  0.00    -0.197 C  
HETATM   22  C   UNL     1      -8.202  12.857  69.675  1.00  0.00     1.672 C  
HETATM   23  H   UNL     1      -8.044  10.822  71.525  1.00  0.00     0.000 HD 
HETATM   24  O   UNL     1      -8.585  13.398  68.410  1.00  0.00    -0.171 OA 
HETATM   25  C   UNL     1      -8.982  11.552  69.900  1.00  0.00     1.922 C  
BRANCH  21  26
HETATM   26  C   UNL     1     -10.870  13.049  67.748  1.00  0.00    -0.240 C  
HETATM   27  H   UNL     1     -12.561  12.771  66.767  1.00  0.00     0.000 HD 
HETATM   28  O   UNL     1     -11.683  12.410  66.767  1.00  0.00    -0.393 OA 
ENDBRANCH  21  26
BRANCH  22  29
HETATM   29  O   UNL     1      -8.518  13.763  70.728  1.00  0.00     3.686 OA 
BRANCH  29  30
HETATM   30  C   UNL     1      -7.498  14.678  71.176  1.00  0.00     2.128 C  
HETATM   31  C   UNL     1      -6.964  14.249  72.557  1.00  0.00     3.242 C  
HETATM   32  O   UNL     1      -6.671  12.845  72.563  1.00  0.00     2.993 OA 
HETATM   33  C   UNL     1      -5.702  15.042  72.915  1.00  0.00     0.527 C  
HETATM   34  C   UNL     1      -6.051  16.529  72.996  1.00  0.00     3.574 C  
HETATM   35  N   UNL     1      -5.127  14.575  74.192  1.00  0.00    -0.258 NA 
HETATM   36  H   UNL     1      -6.341  12.582  73.414  1.00  0.00     0.000 HD 
HETATM   37  H1  UNL     1      -4.288  15.103  74.431  1.00  0.00     0.000 HD 
HETATM   38  H2  UNL     1      -4.949  13.572  74.178  1.00  0.00     0.000 HD 
HETATM   39  C   UNL     1      -6.675  17.046  71.689  1.00  0.00     4.615 C  
HETATM   40  C   UNL     1      -7.882  16.183  71.160  1.00  0.00     4.620 C  
HETATM   41  N   UNL     1      -7.066  18.458  71.884  1.00  0.00     4.963 NA 
HETATM   42  H2  UNL     1      -6.292  19.038  72.206  1.00  0.00     0.000 HD 
HETATM   43  H1  UNL     1      -7.480  18.800  71.017  1.00  0.00     0.000 HD 
BRANCH  40  44
HETATM   44  O   UNL     1      -8.213  16.700  69.851  1.00  0.00     0.625 OA 
BRANCH  44  45
HETATM   45  C   UNL     1      -7.099  16.937  68.978  1.00  0.00    -0.232 C  
HETATM   46  O   UNL     1      -6.280  15.781  68.840  1.00  0.00    -0.109 OA 
HETATM   47  C   UNL     1      -6.879  14.686  68.149  1.00  0.00    -0.124 C  
HETATM   48  C   UNL     1      -7.253  15.111  66.726  1.00  0.00     0.577 C  
HETATM   49  H1  UNL     1      -8.720  19.000  66.737  1.00  0.00     0.000 HD 
HETATM   50  H2  UNL     1      -7.988  19.397  68.192  1.00  0.00     0.000 HD 
HETATM   51  O   UNL     1      -7.889  14.061  65.994  1.00  0.00     1.069 OA 
HETATM   52  C   UNL     1      -8.186  16.328  66.780  1.00  0.00    -0.259 C  
HETATM   53  H   UNL     1      -8.121  14.324  65.111  1.00  0.00     0.000 HD 
HETATM   54  O   UNL     1      -8.459  16.784  65.443  1.00  0.00     0.082 OA 
HETATM   55  N   UNL     1      -8.426  18.652  67.650  1.00  0.00    -0.265 NA 
HETATM   56  C   UNL     1      -7.544  17.465  67.591  1.00  0.00    -0.188 C  
HETATM   57  H   UNL     1      -9.037  17.537  65.476  1.00  0.00     0.000 HD 
BRANCH  47  58
HETATM   58  C   UNL     1      -5.858  13.540  68.145  1.00  0.00    -0.115 C  
HETATM   59  O   UNL     1      -5.918  12.817  69.378  1.00  0.00    -0.088 OA 
HETATM   60  H   UNL     1      -5.287  12.108  69.376  1.00  0.00     0.000 HD 
ENDBRANCH  47  58
ENDBRANCH  44  45
ENDBRANCH  40  44
ENDBRANCH  29  30
ENDBRANCH  22  29
ENDBRANCH  18  19
ENDBRANCH   7  18
ENDBRANCH   2   5
TORSDOF 9
ENDMDL
MODEL      345
REMARK 921   NORMALIZED FREE ENERGY PREDICTED BY IDOCK:   28.76 KCAL/MOL
REMARK 922        TOTAL FREE ENERGY PREDICTED BY IDOCK:   41.85 KCAL/MOL
REMARK 923 INTER-LIGAND FREE ENERGY PREDICTED BY IDOCK:    6.82 KCAL/MOL
REMARK 924 INTRA-LIGAND FREE ENERGY PREDICTED BY IDOCK:   35.03 KCAL/MOL
REMARK 927      BINDING AFFINITY PREDICTED BY RF-SCORE:    0.00 PKD
ROOT
HETATM    1  N   UNL     1     -12.491   9.824  62.740  1.00  0.00     7.015 NA 
HETATM    2  C   UNL     1     -12.487  10.880  63.773  1.00  0.00     2.318 C  
HETATM    3  H1  UNL     1     -13.424   9.736  62.338  1.00  0.00     0.000 HD 
HETATM    4  H2  UNL     1     -12.143   8.935  63.100  1.00  0.00     0.000 HD 
ENDROOT
BRANCH   2   5
HETATM    5  C   UNL     1     -11.079  11.013  64.379  1.00  0.00     0.040 C  
HETATM    6  O   UNL     1     -10.583   9.679  64.593  1.00  0.00     1.079 OA 
HETATM    7  C   UNL     1      -9.206   9.673  64.965  1.00  0.00    -0.250 C  
HETATM    8  C   UNL     1      -9.066  10.327  66.370  1.00  0.00    -0.152 C  
HETATM    9  O   UNL     1     -12.030  11.253  66.604  1.00  0.00    -0.197 OA 
HETATM   10  H   UNL     1     -12.017  11.740  67.420  1.00  0.00     0.000 HD 
HETATM   11  N   UNL     1      -9.772   9.516  67.406  1.00  0.00    -0.151 NA 
HETATM   12  C   UNL     1      -9.639  11.762  66.320  1.00  0.00    -0.225 C  
HETATM   13  H2  UNL     1      -9.454   8.546  67.408  1.00  0.00     0.000 HD 
HETATM   14  O   UNL     1      -8.751  12.648  65.624  1.00  0.00    -0.062 OA 
HETATM   15  C   UNL     1     -11.058  11.804  65.704  1.00  0.00    -0.285 C  
HETATM   16  H1  UNL     1      -9.680   9.945  68.327  1.00  0.00     0.000 HD 
HETATM   17  H   UNL     1      -9.104  13.529  65.593  1.00  0.00     0.000 HD 
BRANCH   7  18
HETATM   18  O   UNL     1      -8.695   8.339  65.029  1.00  0.00    -0.128 OA 
BRANCH  18  19
HETATM   19  C   UNL     1      -9.068   7.626  66.222  1.00  0.00    -0.162 C  
HETATM   20  O   UNL     1      -7.189   6.067  65.816  1.00  0.00    -0.071 OA 
HETATM   21  C   UNL     1      -9.274   8.681  67.307  1.00  0.00    -0.140 C  
HETATM   22  C   UNL     1      -7.168   7.746  67.656  1.00  0.00    -0.091 C  
HETATM   23  H   UNL     1      -6.501   5.520  66.177  1.00  0.00     0.000 HD 
HETATM   24  O   UNL     1      -8.024   8.839  67.994  1.00  0.00    -0.105 OA 
HETATM   25  C   UNL     1      -7.968   6.751  66.800  1.00  0.00    -0.108 C  
BRANCH  21  26
HETATM   26  C   UNL     1     -10.344   8.311  68.336  1.00  0.00    -0.199 C  
HETATM   27  H   UNL     1     -11.868   9.187  69.235  1.00  0.00     0.000 HD 
HETATM   28  O   UNL     1     -11.204   9.418  68.597  1.00  0.00    -0.011 OA 
ENDBRANCH  21  26
BRANCH  22  29
HETATM   29  O   UNL     1      -6.717   7.077  68.830  1.00  0.00    -0.055 OA 
BRANCH  29  30
HETATM   30  C   UNL     1      -7.509   5.991  69.348  1.00  0.00    -0.088 C  
HETATM   31  C   UNL     1      -8.501   5.494  68.278  1.00  0.00    -0.097 C  
HETATM   32  O   UNL     1      -7.828   5.309  67.024  1.00  0.00    -0.099 OA 
HETATM   33  C   UNL     1      -9.149   4.175  68.715  1.00  0.00    -0.133 C  
HETATM   34  C   UNL     1      -9.939   4.408  70.003  1.00  0.00    -0.245 C  
HETATM   35  N   UNL     1     -10.028   3.640  67.658  1.00  0.00    -0.103 NA 
HETATM   36  H   UNL     1      -8.439   5.003  66.365  1.00  0.00     0.000 HD 
HETATM   37  H1  UNL     1     -10.459   2.763  67.948  1.00  0.00     0.000 HD 
HETATM   38  H2  UNL     1      -9.532   3.539  66.772  1.00  0.00     0.000 HD 
HETATM   39  C   UNL     1      -9.057   4.988  71.122  1.00  0.00    -0.142 C  
HETATM   40  C   UNL     1      -8.225   6.257  70.701  1.00  0.00    -0.125 C  
HETATM   41  N   UNL     1      -9.914   5.270  72.293  1.00  0.00    -0.172 NA 
HETATM   42  H2  UNL     1     -10.446   4.454  72.595  1.00  0.00     0.000 HD 
HETATM   43  H1  UNL     1      -9.330   5.654  73.035  1.00  0.00     0.000 HD 
BRANCH  40  44
HETATM   44  O   UNL     1      -7.332   6.545  71.801  1.00  0.00    -0.085 OA 
BRANCH  44  45
HETATM   45  C   UNL     1      -7.750   7.601  72.678  1.00  0.00    -0.097 C  
HETATM   46  O   UNL     1      -6.867   8.716  72.624  1.00  0.00    -0.218 OA 
HETATM   47  C   UNL     1      -6.864   9.434  71.391  1.00  0.00     0.085 C  
HETATM   48  C   UNL     1      -8.262   9.989  71.109  1.00  0.00     1.545 C  
HETATM   49  H1  UNL     1     -11.151   7.222  72.238  1.00  0.00     0.000 HD 
HETATM   50  H2  UNL     1     -10.132   6.411  73.292  1.00  0.00     0.000 HD 
HETATM   51  O   UNL     1      -8.329  10.694  69.868  1.00  0.00    -0.361 OA 
HETATM   52  C   UNL     1      -9.281   8.841  71.096  1.00  0.00    -0.237 C  
HETATM   53  H   UNL     1      -9.197  11.038  69.693  1.00  0.00     0.000 HD 
HETATM   54  O   UNL     1     -10.606   9.375  70.927  1.00  0.00    -0.270 OA 
HETATM   55  N   UNL     1     -10.190   6.932  72.417  1.00  0.00    -0.185 NA 
HETATM   56  C   UNL     1      -9.210   8.042  72.407  1.00  0.00    -0.202 C  
HETATM   57  H   UNL     1     -11.236   8.665  70.918  1.00  0.00     0.000 HD 
BRANCH  47  58
HETATM   58  C   UNL     1      -5.827  10.558  71.525  1.00  0.00     0.288 C  
HETATM   59  O   UNL     1      -5.354  10.639  72.872  1.00  0.00    -0.298 OA 
HETATM   60  H   UNL     1      -4.712  11.334  72.954  1.00  0.00     0.000 HD 
ENDBRANCH  47  58
ENDBRANCH  44  45
ENDBRANCH  40  44
ENDBRANCH  29  30
ENDBRANCH  22  29
ENDBRANCH  18  19
ENDBRANCH   7  18
ENDBRANCH   2   5
TORSDOF 9
ENDMDL
MODEL      346
REMARK 921   NORMALIZED FREE ENERGY PREDICTED BY IDOCK:   28.82 KCAL/MOL
REMARK 922        TOTAL FREE ENERGY PREDICTED BY IDOCK:   41.94 KCAL/MOL
REMARK 923 INTER-LIGAND FREE ENERGY PREDICTED BY IDOCK:   41.33 KCAL/MOL
REMARK 924 INTRA-LIGAND FREE ENERGY PREDICTED BY IDOCK:    0.61 KCAL/MOL
REMARK 927      BINDING AFFINITY PREDICTED BY RF-SCORE:    0.00 PKD
ROOT
HETATM    1  N   UNL     1     -13.859   9.827  65.842  1.00  0.00    18.620 NA 
HETATM    2  C   UNL     1     -12.938   9.431  64.758  1.00  0.00    17.612 C  
HETATM    3  H1  UNL     1     -14.696   9.244  65.816  1.00  0.00     0.000 HD 
HETATM    4  H2  UNL     1     -14.084  10.822  65.810  1.00  0.00     0.000 HD 
ENDROOT
BRANCH   2   5
HETATM    5  C   UNL     1     -11.677  10.311  64.797  1.00  0.00     3.769 C  
HETATM    6  O   UNL     1     -11.678  10.997  66.062  1.00  0.00     0.105 OA 
HETATM    7  C   UNL     1     -10.453  11.688  66.298  1.00  0.00    -0.246 C  
HETATM    8  C   UNL     1     -10.332  12.852  65.272  1.00  0.00    -0.300 C  
HETATM    9  O   UNL     1     -12.836  12.075  63.591  1.00  0.00    -0.713 OA 
HETATM   10  H   UNL     1     -12.795  12.705  62.880  1.00  0.00     0.000 HD 
HETATM   11  N   UNL     1     -11.415  13.858  65.479  1.00  0.00    -0.310 NA 
HETATM   12  C   UNL     1     -10.395  12.272  63.840  1.00  0.00    -0.429 C  
HETATM   13  H2  UNL     1     -11.432  14.202  66.440  1.00  0.00     0.000 HD 
HETATM   14  O   UNL     1      -9.172  11.607  63.498  1.00  0.00    -0.483 OA 
HETATM   15  C   UNL     1     -11.610  11.333  63.643  1.00  0.00     0.148 C  
HETATM   16  H1  UNL     1     -11.336  14.621  64.807  1.00  0.00     0.000 HD 
HETATM   17  H   UNL     1      -9.211  11.251  62.618  1.00  0.00     0.000 HD 
BRANCH   7  18
HETATM   18  O   UNL     1     -10.417  12.238  67.618  1.00  0.00    -0.209 OA 
BRANCH  18  19
HETATM   19  C   UNL     1      -9.088  12.468  68.120  1.00  0.00    -0.204 C  
HETATM   20  O   UNL     1     -10.013  12.486  70.416  1.00  0.00     2.614 OA 
HETATM   21  C   UNL     1      -8.181  11.462  67.415  1.00  0.00    -0.145 C  
HETATM   22  C   UNL     1      -8.613  10.617  69.544  1.00  0.00     0.042 C  
HETATM   23  H   UNL     1      -9.897  12.272  71.334  1.00  0.00     0.000 HD 
HETATM   24  O   UNL     1      -8.110  10.294  68.246  1.00  0.00    -0.103 OA 
HETATM   25  C   UNL     1      -8.903  12.126  69.588  1.00  0.00     1.859 C  
BRANCH  21  26
HETATM   26  C   UNL     1      -6.758  11.971  67.178  1.00  0.00    -0.136 C  
HETATM   27  H   UNL     1      -5.097  12.197  68.223  1.00  0.00     0.000 HD 
HETATM   28  O   UNL     1      -5.980  11.882  68.370  1.00  0.00    -0.049 OA 
ENDBRANCH  21  26
BRANCH  22  29
HETATM   29  O   UNL     1      -7.652  10.309  70.549  1.00  0.00    -0.212 OA 
BRANCH  29  30
HETATM   30  C   UNL     1      -7.325   8.925  70.785  1.00  0.00    -0.090 C  
HETATM   31  C   UNL     1      -6.507   8.783  72.083  1.00  0.00    -0.043 C  
HETATM   32  O   UNL     1      -7.122   9.528  73.143  1.00  0.00     0.386 OA 
HETATM   33  C   UNL     1      -6.392   7.309  72.488  1.00  0.00    -0.051 C  
HETATM   34  C   UNL     1      -5.652   6.544  71.390  1.00  0.00    -0.027 C  
HETATM   35  N   UNL     1      -5.692   7.166  73.779  1.00  0.00    -0.054 NA 
HETATM   36  H   UNL     1      -6.618   9.440  73.943  1.00  0.00     0.000 HD 
HETATM   37  H1  UNL     1      -5.615   6.186  74.049  1.00  0.00     0.000 HD 
HETATM   38  H2  UNL     1      -6.135   7.723  74.510  1.00  0.00     0.000 HD 
HETATM   39  C   UNL     1      -6.341   6.689  70.022  1.00  0.00    -0.039 C  
HETATM   40  C   UNL     1      -6.647   8.177  69.605  1.00  0.00    -0.037 C  
HETATM   41  N   UNL     1      -5.514   6.004  69.007  1.00  0.00    -0.004 NA 
HETATM   42  H2  UNL     1      -5.323   5.031  69.249  1.00  0.00     0.000 HD 
HETATM   43  H1  UNL     1      -5.972   6.100  68.101  1.00  0.00     0.000 HD 
BRANCH  40  44
HETATM   44  O   UNL     1      -7.449   8.108  68.403  1.00  0.00    -0.095 OA 
BRANCH  44  45
HETATM   45  C   UNL     1      -7.097   7.066  67.482  1.00  0.00    -0.085 C  
HETATM   46  O   UNL     1      -8.234   6.314  67.073  1.00  0.00    -0.108 OA 
HETATM   47  C   UNL     1      -9.175   7.020  66.265  1.00  0.00    -0.126 C  
HETATM   48  C   UNL     1      -8.500   7.499  64.978  1.00  0.00     0.005 C  
HETATM   49  H1  UNL     1      -4.631   8.784  65.787  1.00  0.00     0.000 HD 
HETATM   50  H2  UNL     1      -4.513   7.910  67.213  1.00  0.00     0.000 HD 
HETATM   51  O   UNL     1      -9.388   8.243  64.141  1.00  0.00     0.421 OA 
HETATM   52  C   UNL     1      -7.284   8.368  65.325  1.00  0.00    -0.082 C  
HETATM   53  H   UNL     1      -8.969   8.540  63.342  1.00  0.00     0.000 HD 
HETATM   54  O   UNL     1      -6.596   8.738  64.117  1.00  0.00    -0.075 OA 
HETATM   55  N   UNL     1      -5.140   8.427  66.596  1.00  0.00    -0.030 NA 
HETATM   56  C   UNL     1      -6.324   7.607  66.253  1.00  0.00    -0.045 C  
HETATM   57  H   UNL     1      -5.843   9.276  64.332  1.00  0.00     0.000 HD 
BRANCH  47  58
HETATM   58  C   UNL     1     -10.333   6.056  65.971  1.00  0.00     0.284 C  
HETATM   59  O   UNL     1     -11.588   6.698  66.212  1.00  0.00    -0.003 OA 
HETATM   60  H   UNL     1     -12.304   6.102  66.030  1.00  0.00     0.000 HD 
ENDBRANCH  47  58
ENDBRANCH  44  45
ENDBRANCH  40  44
ENDBRANCH  29  30
ENDBRANCH  22  29
ENDBRANCH  18  19
ENDBRANCH   7  18
ENDBRANCH   2   5
TORSDOF 9
ENDMDL
MODEL      347
REMARK 921   NORMALIZED FREE ENERGY PREDICTED BY IDOCK:   29.53 KCAL/MOL
REMARK 922        TOTAL FREE ENERGY PREDICTED BY IDOCK:   43.03 KCAL/MOL
REMARK 923 INTER-LIGAND FREE ENERGY PREDICTED BY IDOCK:   16.05 KCAL/MOL
REMARK 924 INTRA-LIGAND FREE ENERGY PREDICTED BY IDOCK:   26.98 KCAL/MOL
REMARK 927      BINDING AFFINITY PREDICTED BY RF-SCORE:    0.00 PKD
ROOT
HETATM    1  N   UNL     1      -8.335  16.971  66.324  1.00  0.00    -0.370 NA 
HETATM    2  C   UNL     1      -7.515  15.785  66.005  1.00  0.00     1.725 C  
HETATM    3  H1  UNL     1      -8.308  17.631  65.547  1.00  0.00     0.000 HD 
HETATM    4  H2  UNL     1      -8.056  17.404  67.205  1.00  0.00     0.000 HD 
ENDROOT
BRANCH   2   5
HETATM    5  C   UNL     1      -7.557  14.790  67.177  1.00  0.00    -0.079 C  
HETATM    6  O   UNL     1      -8.404  13.698  66.775  1.00  0.00    -0.072 OA 
HETATM    7  C   UNL     1      -8.359  12.615  67.702  1.00  0.00    -0.174 C  
HETATM    8  C   UNL     1      -9.002  13.079  69.042  1.00  0.00     0.506 C  
HETATM    9  O   UNL     1      -9.336  16.068  68.234  1.00  0.00    -0.194 OA 
HETATM   10  H   UNL     1      -9.661  16.452  69.040  1.00  0.00     0.000 HD 
HETATM   11  N   UNL     1     -10.449  13.397  68.855  1.00  0.00    -0.398 NA 
HETATM   12  C   UNL     1      -8.237  14.316  69.568  1.00  0.00     0.421 C  
HETATM   13  H2  UNL     1     -10.957  12.613  68.444  1.00  0.00     0.000 HD 
HETATM   14  O   UNL     1      -6.961  13.943  70.105  1.00  0.00    -0.369 OA 
HETATM   15  C   UNL     1      -8.086  15.413  68.487  1.00  0.00    -0.142 C  
HETATM   16  H1  UNL     1     -10.870  13.700  69.733  1.00  0.00     0.000 HD 
HETATM   17  H   UNL     1      -6.491  14.703  70.428  1.00  0.00     0.000 HD 
BRANCH   7  18
HETATM   18  O   UNL     1      -9.088  11.486  67.213  1.00  0.00    -0.160 OA 
BRANCH  18  19
HETATM   19  C   UNL     1      -8.357  10.248  67.271  1.00  0.00    -0.121 C  
HETATM   20  O   UNL     1      -9.731   9.590  69.223  1.00  0.00    -0.163 OA 
HETATM   21  C   UNL     1      -8.320   9.702  65.846  1.00  0.00    -0.120 C  
HETATM   22  C   UNL     1      -9.986   8.532  66.981  1.00  0.00    -0.250 C  
HETATM   23  H   UNL     1     -10.168   8.899  69.705  1.00  0.00     0.000 HD 
HETATM   24  O   UNL     1      -9.451   8.832  65.690  1.00  0.00    -0.200 OA 
HETATM   25  C   UNL     1      -9.057   9.143  68.044  1.00  0.00    -0.131 C  
BRANCH  21  26
HETATM   26  C   UNL     1      -7.054   8.908  65.520  1.00  0.00    -0.080 C  
HETATM   27  H   UNL     1      -5.704   7.849  66.499  1.00  0.00     0.000 HD 
HETATM   28  O   UNL     1      -6.489   8.343  66.701  1.00  0.00    -0.054 OA 
ENDBRANCH  21  26
BRANCH  22  29
HETATM   29  O   UNL     1     -10.048   7.124  67.186  1.00  0.00    -0.182 OA 
BRANCH  29  30
HETATM   30  C   UNL     1     -11.074   6.601  68.053  1.00  0.00    -0.205 C  
HETATM   31  C   UNL     1     -11.585   7.703  69.002  1.00  0.00     0.889 C  
HETATM   32  O   UNL     1     -11.861   8.904  68.267  1.00  0.00     0.884 OA 
HETATM   33  C   UNL     1     -12.853   7.241  69.729  1.00  0.00     2.113 C  
HETATM   34  C   UNL     1     -12.522   6.016  70.582  1.00  0.00     1.240 C  
HETATM   35  N   UNL     1     -13.406   8.322  70.569  1.00  0.00     0.196 NA 
HETATM   36  H   UNL     1     -12.176   9.582  68.851  1.00  0.00     0.000 HD 
HETATM   37  H1  UNL     1     -14.249   8.015  71.054  1.00  0.00     0.000 HD 
HETATM   38  H2  UNL     1     -13.571   9.170  70.028  1.00  0.00     0.000 HD 
HETATM   39  C   UNL     1     -11.921   4.875  69.742  1.00  0.00     6.608 C  
HETATM   40  C   UNL     1     -10.710   5.309  68.833  1.00  0.00     0.043 C  
HETATM   41  N   UNL     1     -11.545   3.773  70.652  1.00  0.00     5.820 NA 
HETATM   42  H2  UNL     1     -12.323   3.463  71.234  1.00  0.00     0.000 HD 
HETATM   43  H1  UNL     1     -11.147   3.017  70.095  1.00  0.00     0.000 HD 
BRANCH  40  44
HETATM   44  O   UNL     1     -10.402   4.172  67.993  1.00  0.00     0.208 OA 
BRANCH  44  45
HETATM   45  C   UNL     1      -9.042   4.085  67.544  1.00  0.00    -0.146 C  
HETATM   46  O   UNL     1      -8.960   3.776  66.157  1.00  0.00    -0.122 OA 
HETATM   47  C   UNL     1      -9.424   4.797  65.275  1.00  0.00    -0.132 C  
HETATM   48  C   UNL     1      -8.597   6.070  65.473  1.00  0.00    -0.143 C  
HETATM   49  H1  UNL     1      -7.762   6.616  69.508  1.00  0.00     0.000 HD 
HETATM   50  H2  UNL     1      -8.002   5.004  69.897  1.00  0.00     0.000 HD 
HETATM   51  O   UNL     1      -9.038   7.142  64.637  1.00  0.00     0.054 OA 
HETATM   52  C   UNL     1      -8.671   6.510  66.942  1.00  0.00    -0.115 C  
HETATM   53  H   UNL     1      -8.525   7.932  64.760  1.00  0.00     0.000 HD 
HETATM   54  O   UNL     1      -7.818   7.650  67.146  1.00  0.00    -0.112 OA 
HETATM   55  N   UNL     1      -8.293   5.773  69.293  1.00  0.00    -0.107 NA 
HETATM   56  C   UNL     1      -8.234   5.366  67.870  1.00  0.00    -0.099 C  
HETATM   57  H   UNL     1      -7.863   7.923  68.055  1.00  0.00     0.000 HD 
BRANCH  47  58
HETATM   58  C   UNL     1      -9.292   4.255  63.845  1.00  0.00    -0.138 C  
HETATM   59  O   UNL     1      -8.135   4.807  63.210  1.00  0.00    -0.083 OA 
HETATM   60  H   UNL     1      -8.053   4.472  62.326  1.00  0.00     0.000 HD 
ENDBRANCH  47  58
ENDBRANCH  44  45
ENDBRANCH  40  44
ENDBRANCH  29  30
ENDBRANCH  22  29
ENDBRANCH  18  19
ENDBRANCH   7  18
ENDBRANCH   2   5
TORSDOF 9
ENDMDL
MODEL      348
REMARK 921   NORMALIZED FREE ENERGY PREDICTED BY IDOCK:   29.60 KCAL/MOL
REMARK 922        TOTAL FREE ENERGY PREDICTED BY IDOCK:   43.12 KCAL/MOL
REMARK 923 INTER-LIGAND FREE ENERGY PREDICTED BY IDOCK:   -0.15 KCAL/MOL
REMARK 924 INTRA-LIGAND FREE ENERGY PREDICTED BY IDOCK:   43.28 KCAL/MOL
REMARK 927      BINDING AFFINITY PREDICTED BY RF-SCORE:    0.00 PKD
ROOT
HETATM    1  N   UNL     1      -9.718   6.836  72.504  1.00  0.00    -0.154 NA 
HETATM    2  C   UNL     1      -9.610   8.188  71.920  1.00  0.00    -0.201 C  
HETATM    3  H1  UNL     1     -10.657   6.694  72.878  1.00  0.00     0.000 HD 
HETATM    4  H2  UNL     1      -8.996   6.662  73.204  1.00  0.00     0.000 HD 
ENDROOT
BRANCH   2   5
HETATM    5  C   UNL     1      -8.195   8.402  71.356  1.00  0.00    -0.139 C  
HETATM    6  O   UNL     1      -8.253   9.552  70.492  1.00  0.00    -0.181 OA 
HETATM    7  C   UNL     1      -6.957   9.969  70.068  1.00  0.00    -0.135 C  
HETATM    8  C   UNL     1      -6.356   8.870  69.144  1.00  0.00    -0.043 C  
HETATM    9  O   UNL     1      -8.624   6.782  69.594  1.00  0.00    -0.131 OA 
HETATM   10  H   UNL     1      -8.294   6.032  69.114  1.00  0.00     0.000 HD 
HETATM   11  N   UNL     1      -7.166   8.722  67.898  1.00  0.00    -0.083 NA 
HETATM   12  C   UNL     1      -6.302   7.533  69.919  1.00  0.00    -0.027 C  
HETATM   13  H2  UNL     1      -7.270   9.611  67.408  1.00  0.00     0.000 HD 
HETATM   14  O   UNL     1      -5.248   7.542  70.891  1.00  0.00    -0.026 OA 
HETATM   15  C   UNL     1      -7.659   7.183  70.576  1.00  0.00    -0.089 C  
HETATM   16  H1  UNL     1      -6.772   8.002  67.293  1.00  0.00     0.000 HD 
HETATM   17  H   UNL     1      -5.215   6.721  71.367  1.00  0.00     0.000 HD 
BRANCH   7  18
HETATM   18  O   UNL     1      -7.025  11.195  69.334  1.00  0.00    -0.112 OA 
BRANCH  18  19
HETATM   19  C   UNL     1      -8.267  11.391  68.635  1.00  0.00    -0.142 C  
HETATM   20  O   UNL     1      -7.142  10.691  66.545  1.00  0.00    -0.117 OA 
HETATM   21  C   UNL     1      -9.344  10.702  69.470  1.00  0.00     0.019 C  
HETATM   22  C   UNL     1      -8.822   9.266  67.711  1.00  0.00    -0.120 C  
HETATM   23  H   UNL     1      -7.199  10.241  65.710  1.00  0.00     0.000 HD 
HETATM   24  O   UNL     1      -9.474   9.360  68.979  1.00  0.00    -0.154 OA 
HETATM   25  C   UNL     1      -8.356  10.672  67.300  1.00  0.00    -0.120 C  
BRANCH  21  26
HETATM   26  C   UNL     1     -10.715  11.377  69.392  1.00  0.00    -0.104 C  
HETATM   27  H   UNL     1     -11.431  13.194  69.100  1.00  0.00     0.000 HD 
HETATM   28  O   UNL     1     -10.581  12.776  69.148  1.00  0.00    -0.103 OA 
ENDBRANCH  21  26
BRANCH  22  29
HETATM   29  O   UNL     1      -9.717   8.774  66.718  1.00  0.00    -0.180 OA 
BRANCH  29  30
HETATM   30  C   UNL     1     -10.127   7.395  66.786  1.00  0.00    -0.235 C  
HETATM   31  C   UNL     1     -10.601   7.047  68.211  1.00  0.00    -0.196 C  
HETATM   32  O   UNL     1     -11.504   8.051  68.694  1.00  0.00     0.031 OA 
HETATM   33  C   UNL     1     -11.292   5.679  68.230  1.00  0.00     0.860 C  
HETATM   34  C   UNL     1     -10.291   4.606  67.801  1.00  0.00     0.050 C  
HETATM   35  N   UNL     1     -11.834   5.377  69.568  1.00  0.00     2.535 NA 
HETATM   36  H   UNL     1     -11.796   7.837  69.572  1.00  0.00     0.000 HD 
HETATM   37  H1  UNL     1     -12.294   4.467  69.582  1.00  0.00     0.000 HD 
HETATM   38  H2  UNL     1     -12.455   6.116  69.898  1.00  0.00     0.000 HD 
HETATM   39  C   UNL     1      -9.688   4.901  66.417  1.00  0.00    -0.189 C  
HETATM   40  C   UNL     1      -9.101   6.354  66.262  1.00  0.00    -0.151 C  
HETATM   41  N   UNL     1      -8.667   3.873  66.124  1.00  0.00    -0.112 NA 
HETATM   42  H2  UNL     1      -9.034   2.924  66.198  1.00  0.00     0.000 HD 
HETATM   43  H1  UNL     1      -8.267   4.068  65.207  1.00  0.00     0.000 HD 
BRANCH  40  44
HETATM   44  O   UNL     1      -8.754   6.509  64.866  1.00  0.00     0.040 OA 
BRANCH  44  45
HETATM   45  C   UNL     1      -7.373   6.792  64.599  1.00  0.00    -0.089 C  
HETATM   46  O   UNL     1      -6.852   7.774  65.487  1.00  0.00    -0.051 OA 
HETATM   47  C   UNL     1      -6.739   7.367  66.850  1.00  0.00    -0.065 C  
HETATM   48  C   UNL     1      -5.802   6.162  66.958  1.00  0.00    -0.017 C  
HETATM   49  H1  UNL     1      -6.418   3.585  63.755  1.00  0.00     0.000 HD 
HETATM   50  H2  UNL     1      -7.108   4.766  62.786  1.00  0.00     0.000 HD 
HETATM   51  O   UNL     1      -5.675   5.688  68.300  1.00  0.00    -0.011 OA 
HETATM   52  C   UNL     1      -6.319   5.025  66.066  1.00  0.00    -0.039 C  
HETATM   53  H   UNL     1      -5.093   4.940  68.367  1.00  0.00     0.000 HD 
HETATM   54  O   UNL     1      -5.388   3.929  66.094  1.00  0.00    -0.012 OA 
HETATM   55  N   UNL     1      -6.993   4.427  63.741  1.00  0.00    -0.044 NA 
HETATM   56  C   UNL     1      -6.499   5.512  64.620  1.00  0.00    -0.038 C  
HETATM   57  H   UNL     1      -5.708   3.225  65.542  1.00  0.00     0.000 HD 
BRANCH  47  58
HETATM   58  C   UNL     1      -6.203   8.570  67.639  1.00  0.00    -0.053 C  
HETATM   59  O   UNL     1      -5.140   8.163  68.505  1.00  0.00    -0.030 OA 
HETATM   60  H   UNL     1      -4.809   8.907  68.992  1.00  0.00     0.000 HD 
ENDBRANCH  47  58
ENDBRANCH  44  45
ENDBRANCH  40  44
ENDBRANCH  29  30
ENDBRANCH  22  29
ENDBRANCH  18  19
ENDBRANCH   7  18
ENDBRANCH   2   5
TORSDOF 9
ENDMDL
MODEL      349
REMARK 921   NORMALIZED FREE ENERGY PREDICTED BY IDOCK:   30.48 KCAL/MOL
REMARK 922        TOTAL FREE ENERGY PREDICTED BY IDOCK:   44.47 KCAL/MOL
REMARK 923 INTER-LIGAND FREE ENERGY PREDICTED BY IDOCK:    8.75 KCAL/MOL
REMARK 924 INTRA-LIGAND FREE ENERGY PREDICTED BY IDOCK:   35.72 KCAL/MOL
REMARK 927      BINDING AFFINITY PREDICTED BY RF-SCORE:    0.00 PKD
ROOT
HETATM    1  N   UNL     1     -11.477   9.343  73.483  1.00  0.00     3.746 NA 
HETATM    2  C   UNL     1     -11.236   8.442  72.338  1.00  0.00    -0.368 C  
HETATM    3  H1  UNL     1     -12.112   8.898  74.146  1.00  0.00     0.000 HD 
HETATM    4  H2  UNL     1     -11.815  10.259  73.185  1.00  0.00     0.000 HD 
ENDROOT
BRANCH   2   5
HETATM    5  C   UNL     1     -10.279   9.113  71.338  1.00  0.00    -0.332 C  
HETATM    6  O   UNL     1      -9.847   8.096  70.416  1.00  0.00    -0.185 OA 
HETATM    7  C   UNL     1      -9.115   8.640  69.321  1.00  0.00    -0.149 C  
HETATM    8  C   UNL     1      -7.772   9.217  69.856  1.00  0.00    -0.087 C  
HETATM    9  O   UNL     1      -8.420   8.818  72.877  1.00  0.00    -0.409 OA 
HETATM   10  H   UNL     1      -7.666   9.221  73.291  1.00  0.00     0.000 HD 
HETATM   11  N   UNL     1      -6.916   8.132  70.421  1.00  0.00    -0.037 NA 
HETATM   12  C   UNL     1      -8.074  10.286  70.932  1.00  0.00     1.638 C  
HETATM   13  H2  UNL     1      -6.762   7.382  69.746  1.00  0.00     0.000 HD 
HETATM   14  O   UNL     1      -8.559  11.496  70.334  1.00  0.00     1.875 OA 
HETATM   15  C   UNL     1      -9.055   9.769  72.011  1.00  0.00     2.742 C  
HETATM   16  H1  UNL     1      -6.036   8.510  70.772  1.00  0.00     0.000 HD 
HETATM   17  H   UNL     1      -8.744  12.153  70.995  1.00  0.00     0.000 HD 
BRANCH   7  18
HETATM   18  O   UNL     1      -8.824   7.636  68.344  1.00  0.00    -0.130 OA 
BRANCH  18  19
HETATM   19  C   UNL     1      -9.143   8.022  66.996  1.00  0.00    -0.144 C  
HETATM   20  O   UNL     1     -11.353   8.800  67.797  1.00  0.00    -0.194 OA 
HETATM   21  C   UNL     1      -7.938   8.801  66.473  1.00  0.00    -0.103 C  
HETATM   22  C   UNL     1      -9.553  10.368  67.083  1.00  0.00    -0.164 C  
HETATM   23  H   UNL     1     -12.061   9.428  67.726  1.00  0.00     0.000 HD 
HETATM   24  O   UNL     1      -8.175  10.190  66.748  1.00  0.00    -0.121 OA 
HETATM   25  C   UNL     1     -10.277   9.027  66.883  1.00  0.00    -0.269 C  
BRANCH  21  26
HETATM   26  C   UNL     1      -7.702   8.642  64.970  1.00  0.00    -0.103 C  
HETATM   27  H   UNL     1      -8.758   8.767  63.306  1.00  0.00     0.000 HD 
HETATM   28  O   UNL     1      -8.905   8.866  64.239  1.00  0.00    -0.127 OA 
ENDBRANCH  21  26
BRANCH  22  29
HETATM   29  O   UNL     1     -10.156  11.343  66.237  1.00  0.00    -0.211 OA 
BRANCH  29  30
HETATM   30  C   UNL     1     -10.166  12.717  66.670  1.00  0.00    -0.236 C  
HETATM   31  C   UNL     1     -11.566  13.330  66.475  1.00  0.00    -0.350 C  
HETATM   32  O   UNL     1     -12.572  12.446  66.990  1.00  0.00     0.030 OA 
HETATM   33  C   UNL     1     -11.663  14.688  67.180  1.00  0.00    -0.373 C  
HETATM   34  C   UNL     1     -10.648  15.648  66.558  1.00  0.00    -0.307 C  
HETATM   35  N   UNL     1     -13.027  15.241  67.082  1.00  0.00     1.539 NA 
HETATM   36  H   UNL     1     -13.435  12.824  66.871  1.00  0.00     0.000 HD 
HETATM   37  H1  UNL     1     -13.092  16.144  67.550  1.00  0.00     0.000 HD 
HETATM   38  H2  UNL     1     -13.724  14.585  67.433  1.00  0.00     0.000 HD 
HETATM   39  C   UNL     1      -9.215  15.093  66.623  1.00  0.00    -0.270 C  
HETATM   40  C   UNL     1      -9.062  13.627  66.066  1.00  0.00     0.236 C  
HETATM   41  N   UNL     1      -8.318  16.033  65.920  1.00  0.00    -0.118 NA 
HETATM   42  H2  UNL     1      -8.386  16.984  66.281  1.00  0.00     0.000 HD 
HETATM   43  H1  UNL     1      -7.368  15.665  65.963  1.00  0.00     0.000 HD 
BRANCH  40  44
HETATM   44  O   UNL     1      -7.711  13.211  66.375  1.00  0.00     0.753 OA 
BRANCH  44  45
HETATM   45  C   UNL     1      -7.248  13.539  67.692  1.00  0.00    -0.168 C  
HETATM   46  O   UNL     1      -7.457  14.912  68.001  1.00  0.00    -0.106 OA 
HETATM   47  C   UNL     1      -8.822  15.308  68.137  1.00  0.00    -0.171 C  
HETATM   48  C   UNL     1      -9.483  14.515  69.268  1.00  0.00     0.079 C  
HETATM   49  H1  UNL     1      -8.143  10.581  69.227  1.00  0.00     0.000 HD 
HETATM   50  H2  UNL     1      -6.746  10.941  68.373  1.00  0.00     0.000 HD 
HETATM   51  O   UNL     1     -10.864  14.846  69.430  1.00  0.00    -0.249 OA 
HETATM   52  C   UNL     1      -9.351  13.012  68.990  1.00  0.00     0.464 C  
HETATM   53  H   UNL     1     -11.274  14.355  70.132  1.00  0.00     0.000 HD 
HETATM   54  O   UNL     1      -9.887  12.269  70.099  1.00  0.00     1.724 OA 
HETATM   55  N   UNL     1      -7.728  11.180  68.513  1.00  0.00    -0.121 NA 
HETATM   56  C   UNL     1      -7.878  12.629  68.777  1.00  0.00     0.039 C  
HETATM   57  H   UNL     1      -9.806  11.338  69.927  1.00  0.00     0.000 HD 
BRANCH  47  58
HETATM   58  C   UNL     1      -8.830  16.815  68.424  1.00  0.00    -0.237 C  
HETATM   59  O   UNL     1     -10.036  17.407  67.933  1.00  0.00    -0.277 OA 
HETATM   60  H   UNL     1     -10.041  18.340  68.110  1.00  0.00     0.000 HD 
ENDBRANCH  47  58
ENDBRANCH  44  45
ENDBRANCH  40  44
ENDBRANCH  29  30
ENDBRANCH  22  29
ENDBRANCH  18  19
ENDBRANCH   7  18
ENDBRANCH   2   5
TORSDOF 9
ENDMDL
MODEL      350
REMARK 921   NORMALIZED FREE ENERGY PREDICTED BY IDOCK:   30.50 KCAL/MOL
REMARK 922        TOTAL FREE ENERGY PREDICTED BY IDOCK:   44.50 KCAL/MOL
REMARK 923 INTER-LIGAND FREE ENERGY PREDICTED BY IDOCK:   24.93 KCAL/MOL
REMARK 924 INTRA-LIGAND FREE ENERGY PREDICTED BY IDOCK:   19.57 KCAL/MOL
REMARK 927      BINDING AFFINITY PREDICTED BY RF-SCORE:    0.00 PKD
ROOT
HETATM    1  N   UNL     1      -6.608   9.646  64.915  1.00  0.00    -0.087 NA 
HETATM    2  C   UNL     1      -7.609  10.319  65.767  1.00  0.00    -0.143 C  
HETATM    3  H1  UNL     1      -6.112   8.937  65.456  1.00  0.00     0.000 HD 
HETATM    4  H2  UNL     1      -5.969  10.310  64.477  1.00  0.00     0.000 HD 
ENDROOT
BRANCH   2   5
HETATM    5  C   UNL     1      -8.356  11.388  64.951  1.00  0.00     0.576 C  
HETATM    6  O   UNL     1      -9.729  11.369  65.385  1.00  0.00    -0.217 OA 
HETATM    7  C   UNL     1     -10.477  12.454  64.842  1.00  0.00    -0.298 C  
HETATM    8  C   UNL     1     -10.596  12.259  63.303  1.00  0.00    -0.265 C  
HETATM    9  O   UNL     1      -8.680   9.809  63.130  1.00  0.00    -0.189 OA 
HETATM   10  H   UNL     1      -8.633   9.666  62.192  1.00  0.00     0.000 HD 
HETATM   11  N   UNL     1     -11.374  11.026  62.982  1.00  0.00    -0.557 NA 
HETATM   12  C   UNL     1      -9.177  12.180  62.693  1.00  0.00     1.427 C  
HETATM   13  H2  UNL     1     -12.289  11.030  63.434  1.00  0.00     0.000 HD 
HETATM   14  O   UNL     1      -8.557  13.473  62.659  1.00  0.00     7.100 OA 
HETATM   15  C   UNL     1      -8.281  11.154  63.427  1.00  0.00     0.378 C  
HETATM   16  H1  UNL     1     -11.452  10.898  61.973  1.00  0.00     0.000 HD 
HETATM   17  H   UNL     1      -7.686  13.424  62.284  1.00  0.00     0.000 HD 
BRANCH   7  18
HETATM   18  O   UNL     1     -11.793  12.503  65.399  1.00  0.00    -0.388 OA 
BRANCH  18  19
HETATM   19  C   UNL     1     -11.900  13.322  66.578  1.00  0.00    -0.398 C  
HETATM   20  O   UNL     1      -9.583  14.098  66.186  1.00  0.00    -0.348 OA 
HETATM   21  C   UNL     1     -13.233  14.059  66.470  1.00  0.00     1.476 C  
HETATM   22  C   UNL     1     -11.569  15.561  65.830  1.00  0.00     0.201 C  
HETATM   23  H   UNL     1      -8.950  14.805  66.231  1.00  0.00     0.000 HD 
HETATM   24  O   UNL     1     -12.976  15.316  65.824  1.00  0.00     0.839 OA 
HETATM   25  C   UNL     1     -10.888  14.452  66.650  1.00  0.00    -0.304 C  
BRANCH  21  26
HETATM   26  C   UNL     1     -13.897  14.339  67.819  1.00  0.00     8.294 C  
HETATM   27  H   UNL     1     -13.742  15.665  69.275  1.00  0.00     0.000 HD 
HETATM   28  O   UNL     1     -13.329  15.491  68.437  1.00  0.00     2.499 OA 
ENDBRANCH  21  26
BRANCH  22  29
HETATM   29  O   UNL     1     -11.277  16.817  66.434  1.00  0.00     0.217 OA 
BRANCH  29  30
HETATM   30  C   UNL     1      -9.901  17.147  66.704  1.00  0.00    -0.289 C  
HETATM   31  C   UNL     1      -9.306  17.957  65.536  1.00  0.00     0.899 C  
HETATM   32  O   UNL     1     -10.198  19.014  65.157  1.00  0.00     0.050 OA 
HETATM   33  C   UNL     1      -7.945  18.545  65.926  1.00  0.00    -0.006 C  
HETATM   34  C   UNL     1      -6.977  17.403  66.237  1.00  0.00    -0.319 C  
HETATM   35  N   UNL     1      -7.408  19.400  64.850  1.00  0.00     0.016 NA 
HETATM   36  H   UNL     1      -9.831  19.513  64.438  1.00  0.00     0.000 HD 
HETATM   37  H1  UNL     1      -6.503  19.791  65.109  1.00  0.00     0.000 HD 
HETATM   38  H2  UNL     1      -8.070  20.129  64.585  1.00  0.00     0.000 HD 
HETATM   39  C   UNL     1      -7.515  16.476  67.340  1.00  0.00    -0.149 C  
HETATM   40  C   UNL     1      -8.981  15.958  67.093  1.00  0.00    -0.208 C  
HETATM   41  N   UNL     1      -6.568  15.354  67.511  1.00  0.00    -0.185 NA 
HETATM   42  H2  UNL     1      -5.615  15.669  67.693  1.00  0.00     0.000 HD 
HETATM   43  H1  UNL     1      -6.925  14.739  68.242  1.00  0.00     0.000 HD 
BRANCH  40  44
HETATM   44  O   UNL     1      -9.380  15.266  68.300  1.00  0.00    -0.188 OA 
BRANCH  44  45
HETATM   45  C   UNL     1     -10.761  14.882  68.366  1.00  0.00    -0.245 C  
HETATM   46  O   UNL     1     -10.912  13.501  68.676  1.00  0.00    -0.247 OA 
HETATM   47  C   UNL     1     -10.508  13.121  69.990  1.00  0.00     1.479 C  
HETATM   48  C   UNL     1     -11.338  13.879  71.029  1.00  0.00     0.797 C  
HETATM   49  H1  UNL     1     -11.964  17.792  69.776  1.00  0.00     0.000 HD 
HETATM   50  H2  UNL     1     -11.685  17.444  68.160  1.00  0.00     0.000 HD 
HETATM   51  O   UNL     1     -10.955  13.562  72.369  1.00  0.00     3.816 OA 
HETATM   52  C   UNL     1     -11.192  15.390  70.804  1.00  0.00    -0.346 C  
HETATM   53  H   UNL     1     -11.471  14.033  73.014  1.00  0.00     0.000 HD 
HETATM   54  O   UNL     1     -12.047  16.098  71.719  1.00  0.00    -0.503 OA 
HETATM   55  N   UNL     1     -11.435  17.215  69.123  1.00  0.00     0.549 NA 
HETATM   56  C   UNL     1     -11.565  15.759  69.359  1.00  0.00    -0.365 C  
HETATM   57  H   UNL     1     -11.956  17.033  71.579  1.00  0.00     0.000 HD 
BRANCH  47  58
HETATM   58  C   UNL     1     -10.710  11.603  70.105  1.00  0.00     0.903 C  
HETATM   59  O   UNL     1     -12.034  11.312  70.561  1.00  0.00    -0.343 OA 
HETATM   60  H   UNL     1     -12.159  10.373  70.632  1.00  0.00     0.000 HD 
ENDBRANCH  47  58
ENDBRANCH  44  45
ENDBRANCH  40  44
ENDBRANCH  29  30
ENDBRANCH  22  29
ENDBRANCH  18  19
ENDBRANCH   7  18
ENDBRANCH   2   5
TORSDOF 9
ENDMDL
MODEL      351
REMARK 921   NORMALIZED FREE ENERGY PREDICTED BY IDOCK:   31.03 KCAL/MOL
REMARK 922        TOTAL FREE ENERGY PREDICTED BY IDOCK:   45.32 KCAL/MOL
REMARK 923 INTER-LIGAND FREE ENERGY PREDICTED BY IDOCK:   17.63 KCAL/MOL
REMARK 924 INTRA-LIGAND FREE ENERGY PREDICTED BY IDOCK:   27.69 KCAL/MOL
REMARK 927      BINDING AFFINITY PREDICTED BY RF-SCORE:    0.00 PKD
ROOT
HETATM    1  N   UNL     1     -11.377   4.245  70.093  1.00  0.00     3.801 NA 
HETATM    2  C   UNL     1     -10.398   4.355  68.992  1.00  0.00     0.447 C  
HETATM    3  H1  UNL     1     -11.998   3.453  69.926  1.00  0.00     0.000 HD 
HETATM    4  H2  UNL     1     -11.892   5.114  70.236  1.00  0.00     0.000 HD 
ENDROOT
BRANCH   2   5
HETATM    5  C   UNL     1      -9.461   5.548  69.244  1.00  0.00    -0.129 C  
HETATM    6  O   UNL     1      -9.659   6.479  68.164  1.00  0.00    -0.125 OA 
HETATM    7  C   UNL     1      -8.991   7.717  68.394  1.00  0.00    -0.132 C  
HETATM    8  C   UNL     1      -7.455   7.470  68.362  1.00  0.00    -0.108 C  
HETATM    9  O   UNL     1      -7.623   4.365  68.179  1.00  0.00    -0.068 OA 
HETATM   10  H   UNL     1      -6.708   4.118  68.231  1.00  0.00     0.000 HD 
HETATM   11  N   UNL     1      -7.019   7.016  67.008  1.00  0.00    -0.068 NA 
HETATM   12  C   UNL     1      -7.091   6.415  69.432  1.00  0.00    -0.073 C  
HETATM   13  H2  UNL     1      -7.311   7.667  66.279  1.00  0.00     0.000 HD 
HETATM   14  O   UNL     1      -7.151   6.976  70.751  1.00  0.00    -0.064 OA 
HETATM   15  C   UNL     1      -7.973   5.147  69.329  1.00  0.00    -0.080 C  
HETATM   16  H1  UNL     1      -6.012   6.853  66.987  1.00  0.00     0.000 HD 
HETATM   17  H   UNL     1      -6.927   6.328  71.408  1.00  0.00     0.000 HD 
BRANCH   7  18
HETATM   18  O   UNL     1      -9.320   8.676  67.385  1.00  0.00    -0.140 OA 
BRANCH  18  19
HETATM   19  C   UNL     1      -9.384  10.031  67.864  1.00  0.00    -0.140 C  
HETATM   20  O   UNL     1      -7.260   9.647  69.076  1.00  0.00    -0.068 OA 
HETATM   21  C   UNL     1      -9.699  10.903  66.651  1.00  0.00    -0.189 C  
HETATM   22  C   UNL     1      -7.410  11.089  67.049  1.00  0.00    -0.123 C  
HETATM   23  H   UNL     1      -6.430   9.995  69.380  1.00  0.00     0.000 HD 
HETATM   24  O   UNL     1      -8.446  11.335  66.098  1.00  0.00    -0.173 OA 
HETATM   25  C   UNL     1      -8.056  10.588  68.351  1.00  0.00    -0.119 C  
BRANCH  21  26
HETATM   26  C   UNL     1     -10.533  12.143  66.978  1.00  0.00    -0.220 C  
HETATM   27  H   UNL     1     -12.432  12.580  67.299  1.00  0.00     0.000 HD 
HETATM   28  O   UNL     1     -11.915  11.810  67.095  1.00  0.00    -0.617 OA 
ENDBRANCH  21  26
BRANCH  22  29
HETATM   29  O   UNL     1      -6.689  12.285  67.331  1.00  0.00    -0.124 OA 
BRANCH  29  30
HETATM   30  C   UNL     1      -7.427  13.449  67.751  1.00  0.00    -0.160 C  
HETATM   31  C   UNL     1      -7.034  14.669  66.895  1.00  0.00     0.874 C  
HETATM   32  O   UNL     1      -7.041  14.323  65.503  1.00  0.00     5.670 OA 
HETATM   33  C   UNL     1      -7.999  15.834  67.142  1.00  0.00    -0.216 C  
HETATM   34  C   UNL     1      -7.913  16.253  68.610  1.00  0.00    -0.215 C  
HETATM   35  N   UNL     1      -7.691  16.975  66.259  1.00  0.00    -0.308 NA 
HETATM   36  H   UNL     1      -6.799  15.075  64.976  1.00  0.00     0.000 HD 
HETATM   37  H1  UNL     1      -8.333  17.750  66.424  1.00  0.00     0.000 HD 
HETATM   38  H2  UNL     1      -7.680  16.698  65.278  1.00  0.00     0.000 HD 
HETATM   39  C   UNL     1      -8.206  15.080  69.562  1.00  0.00    -0.106 C  
HETATM   40  C   UNL     1      -7.368  13.780  69.267  1.00  0.00     0.091 C  
HETATM   41  N   UNL     1      -8.009  15.546  70.951  1.00  0.00     1.655 NA 
HETATM   42  H2  UNL     1      -8.562  16.375  71.168  1.00  0.00     0.000 HD 
HETATM   43  H1  UNL     1      -8.204  14.768  71.582  1.00  0.00     0.000 HD 
BRANCH  40  44
HETATM   44  O   UNL     1      -7.902  12.745  70.125  1.00  0.00     1.887 OA 
BRANCH  44  45
HETATM   45  C   UNL     1      -7.613  11.398  69.724  1.00  0.00     0.534 C  
HETATM   46  O   UNL     1      -6.474  10.877  70.401  1.00  0.00    -0.240 OA 
HETATM   47  C   UNL     1      -6.640  10.665  71.802  1.00  0.00     2.053 C  
HETATM   48  C   UNL     1      -7.771   9.663  72.046  1.00  0.00     1.597 C  
HETATM   49  H1  UNL     1     -10.874  10.331  69.363  1.00  0.00     0.000 HD 
HETATM   50  H2  UNL     1      -9.903  11.136  68.259  1.00  0.00     0.000 HD 
HETATM   51  O   UNL     1      -8.005   9.435  73.438  1.00  0.00     0.729 OA 
HETATM   52  C   UNL     1      -9.062  10.173  71.392  1.00  0.00     2.771 C  
HETATM   53  H   UNL     1      -8.707   8.813  73.589  1.00  0.00     0.000 HD 
HETATM   54  O   UNL     1     -10.098   9.186  71.540  1.00  0.00    -0.319 OA 
HETATM   55  N   UNL     1     -10.070  10.948  69.248  1.00  0.00    -0.183 NA 
HETATM   56  C   UNL     1      -8.834  10.460  69.900  1.00  0.00     0.179 C  
HETATM   57  H   UNL     1     -10.898   9.502  71.135  1.00  0.00     0.000 HD 
BRANCH  47  58
HETATM   58  C   UNL     1      -5.300  10.147  72.343  1.00  0.00     0.156 C  
HETATM   59  O   UNL     1      -5.410   9.847  73.737  1.00  0.00    -0.310 OA 
HETATM   60  H   UNL     1      -4.582   9.526  74.072  1.00  0.00     0.000 HD 
ENDBRANCH  47  58
ENDBRANCH  44  45
ENDBRANCH  40  44
ENDBRANCH  29  30
ENDBRANCH  22  29
ENDBRANCH  18  19
ENDBRANCH   7  18
ENDBRANCH   2   5
TORSDOF 9
ENDMDL
MODEL      352
REMARK 921   NORMALIZED FREE ENERGY PREDICTED BY IDOCK:   31.39 KCAL/MOL
REMARK 922        TOTAL FREE ENERGY PREDICTED BY IDOCK:   45.86 KCAL/MOL
REMARK 923 INTER-LIGAND FREE ENERGY PREDICTED BY IDOCK:   -1.08 KCAL/MOL
REMARK 924 INTRA-LIGAND FREE ENERGY PREDICTED BY IDOCK:   46.94 KCAL/MOL
REMARK 927      BINDING AFFINITY PREDICTED BY RF-SCORE:    0.00 PKD
ROOT
HETATM    1  N   UNL     1     -12.799  10.619  69.512  1.00  0.00    -0.560 NA 
HETATM    2  C   UNL     1     -12.699  11.050  68.103  1.00  0.00     2.650 C  
HETATM    3  H1  UNL     1     -13.455   9.842  69.591  1.00  0.00     0.000 HD 
HETATM    4  H2  UNL     1     -13.042  11.392  70.133  1.00  0.00     0.000 HD 
ENDROOT
BRANCH   2   5
HETATM    5  C   UNL     1     -11.709  12.222  67.984  1.00  0.00    -0.356 C  
HETATM    6  O   UNL     1     -11.483  12.444  66.579  1.00  0.00    -0.328 OA 
HETATM    7  C   UNL     1     -10.738  13.636  66.338  1.00  0.00    -0.281 C  
HETATM    8  C   UNL     1      -9.298  13.446  66.897  1.00  0.00    -0.252 C  
HETATM    9  O   UNL     1      -9.833  10.701  68.269  1.00  0.00    -0.155 OA 
HETATM   10  H   UNL     1      -9.007  10.541  68.710  1.00  0.00     0.000 HD 
HETATM   11  N   UNL     1      -8.582  12.361  66.161  1.00  0.00    -0.386 NA 
HETATM   12  C   UNL     1      -9.380  13.117  68.405  1.00  0.00    -0.154 C  
HETATM   13  H2  UNL     1      -8.578  12.527  65.155  1.00  0.00     0.000 HD 
HETATM   14  O   UNL     1      -9.713  14.283  69.171  1.00  0.00    -0.398 OA 
HETATM   15  C   UNL     1     -10.367  11.961  68.699  1.00  0.00    -0.203 C  
HETATM   16  H1  UNL     1      -7.638  12.237  66.528  1.00  0.00     0.000 HD 
HETATM   17  H   UNL     1      -9.763  14.081  70.097  1.00  0.00     0.000 HD 
BRANCH   7  18
HETATM   18  O   UNL     1     -10.652  13.916  64.939  1.00  0.00    -0.372 OA 
BRANCH  18  19
HETATM   19  C   UNL     1     -10.963  12.791  64.097  1.00  0.00    -0.398 C  
HETATM   20  O   UNL     1      -8.538  12.338  63.894  1.00  0.00     0.703 OA 
HETATM   21  C   UNL     1     -12.070  12.014  64.807  1.00  0.00    -0.205 C  
HETATM   22  C   UNL     1     -10.071  10.887  65.219  1.00  0.00    -0.280 C  
HETATM   23  H   UNL     1      -7.840  11.697  63.821  1.00  0.00     0.000 HD 
HETATM   24  O   UNL     1     -11.436  11.016  65.621  1.00  0.00     0.108 OA 
HETATM   25  C   UNL     1      -9.847  11.767  63.979  1.00  0.00    -0.240 C  
BRANCH  21  26
HETATM   26  C   UNL     1     -13.043  11.314  63.857  1.00  0.00     1.420 C  
HETATM   27  H   UNL     1     -13.752  11.587  62.034  1.00  0.00     0.000 HD 
HETATM   28  O   UNL     1     -13.148  12.021  62.624  1.00  0.00     0.108 OA 
ENDBRANCH  21  26
BRANCH  22  29
HETATM   29  O   UNL     1      -9.769   9.537  64.881  1.00  0.00    -0.214 OA 
BRANCH  29  30
HETATM   30  C   UNL     1      -8.387   9.130  64.849  1.00  0.00    -0.162 C  
HETATM   31  C   UNL     1      -7.484  10.329  64.501  1.00  0.00    -0.088 C  
HETATM   32  O   UNL     1      -7.840  11.468  65.297  1.00  0.00    -0.058 OA 
HETATM   33  C   UNL     1      -6.010   9.978  64.733  1.00  0.00    -0.113 C  
HETATM   34  C   UNL     1      -5.619   8.823  63.811  1.00  0.00    -0.066 C  
HETATM   35  N   UNL     1      -5.142  11.148  64.495  1.00  0.00    -0.493 NA 
HETATM   36  H   UNL     1      -7.284  12.207  65.083  1.00  0.00     0.000 HD 
HETATM   37  H1  UNL     1      -4.162  10.915  64.649  1.00  0.00     0.000 HD 
HETATM   38  H2  UNL     1      -5.430  11.949  65.055  1.00  0.00     0.000 HD 
HETATM   39  C   UNL     1      -6.519   7.592  64.016  1.00  0.00    -0.053 C  
HETATM   40  C   UNL     1      -8.062   7.901  63.957  1.00  0.00    -0.078 C  
HETATM   41  N   UNL     1      -6.136   6.564  63.027  1.00  0.00    -0.033 NA 
HETATM   42  H2  UNL     1      -5.143   6.334  63.064  1.00  0.00     0.000 HD 
HETATM   43  H1  UNL     1      -6.732   5.748  63.163  1.00  0.00     0.000 HD 
BRANCH  40  44
HETATM   44  O   UNL     1      -8.738   6.683  64.350  1.00  0.00     0.233 OA 
BRANCH  44  45
HETATM   45  C   UNL     1      -9.672   6.815  65.432  1.00  0.00     1.127 C  
HETATM   46  O   UNL     1      -9.641   5.687  66.298  1.00  0.00    -0.156 OA 
HETATM   47  C   UNL     1      -8.442   5.528  67.054  1.00  0.00    -0.110 C  
HETATM   48  C   UNL     1      -8.224   6.752  67.947  1.00  0.00    -0.117 C  
HETATM   49  H1  UNL     1      -9.313  10.212  65.918  1.00  0.00     0.000 HD 
HETATM   50  H2  UNL     1     -10.300   9.405  64.830  1.00  0.00     0.000 HD 
HETATM   51  O   UNL     1      -7.017   6.665  68.707  1.00  0.00    -0.074 OA 
HETATM   52  C   UNL     1      -8.190   8.021  67.085  1.00  0.00    -0.117 C  
HETATM   53  H   UNL     1      -6.882   7.425  69.262  1.00  0.00     0.000 HD 
HETATM   54  O   UNL     1      -8.082   9.177  67.934  1.00  0.00    -0.104 OA 
HETATM   55  N   UNL     1      -9.451   9.349  65.393  1.00  0.00    -0.268 NA 
HETATM   56  C   UNL     1      -9.462   8.127  66.229  1.00  0.00    -0.190 C  
HETATM   57  H   UNL     1      -8.060   9.963  67.400  1.00  0.00     0.000 HD 
BRANCH  47  58
HETATM   58  C   UNL     1      -8.594   4.245  67.883  1.00  0.00    -0.099 C  
HETATM   59  O   UNL     1      -9.417   3.302  67.190  1.00  0.00    -0.268 OA 
HETATM   60  H   UNL     1      -9.511   2.508  67.702  1.00  0.00     0.000 HD 
ENDBRANCH  47  58
ENDBRANCH  44  45
ENDBRANCH  40  44
ENDBRANCH  29  30
ENDBRANCH  22  29
ENDBRANCH  18  19
ENDBRANCH   7  18
ENDBRANCH   2   5
TORSDOF 9
ENDMDL
MODEL      353
REMARK 921   NORMALIZED FREE ENERGY PREDICTED BY IDOCK:   31.40 KCAL/MOL
REMARK 922        TOTAL FREE ENERGY PREDICTED BY IDOCK:   45.88 KCAL/MOL
REMARK 923 INTER-LIGAND FREE ENERGY PREDICTED BY IDOCK:   14.81 KCAL/MOL
REMARK 924 INTRA-LIGAND FREE ENERGY PREDICTED BY IDOCK:   31.06 KCAL/MOL
REMARK 927      BINDING AFFINITY PREDICTED BY RF-SCORE:    0.00 PKD
ROOT
HETATM    1  N   UNL     1      -8.849  14.602  65.881  1.00  0.00    -0.287 NA 
HETATM    2  C   UNL     1      -9.301  15.996  66.068  1.00  0.00    -0.345 C  
HETATM    3  H1  UNL     1      -8.007  14.585  65.306  1.00  0.00     0.000 HD 
HETATM    4  H2  UNL     1      -9.586  14.008  65.500  1.00  0.00     0.000 HD 
ENDROOT
BRANCH   2   5
HETATM    5  C   UNL     1     -10.570  16.021  66.936  1.00  0.00    -0.300 C  
HETATM    6  O   UNL     1     -10.825  14.668  67.355  1.00  0.00    -0.286 OA 
HETATM    7  C   UNL     1     -11.862  14.594  68.330  1.00  0.00    -0.295 C  
HETATM    8  C   UNL     1     -13.205  15.010  67.662  1.00  0.00     3.626 C  
HETATM    9  O   UNL     1     -11.965  15.901  64.947  1.00  0.00     0.096 OA 
HETATM   10  H   UNL     1     -12.723  16.248  64.493  1.00  0.00     0.000 HD 
HETATM   11  N   UNL     1     -13.585  14.045  66.588  1.00  0.00     1.816 NA 
HETATM   12  C   UNL     1     -13.062  16.437  67.084  1.00  0.00     5.239 C  
HETATM   13  H2  UNL     1     -13.618  13.086  66.936  1.00  0.00     0.000 HD 
HETATM   14  O   UNL     1     -13.074  17.420  68.128  1.00  0.00     3.172 OA 
HETATM   15  C   UNL     1     -11.803  16.585  66.197  1.00  0.00     1.671 C  
HETATM   16  H1  UNL     1     -14.465  14.317  66.150  1.00  0.00     0.000 HD 
HETATM   17  H   UNL     1     -12.985  18.297  67.773  1.00  0.00     0.000 HD 
BRANCH   7  18
HETATM   18  O   UNL     1     -11.998  13.265  68.840  1.00  0.00    -0.317 OA 
BRANCH  18  19
HETATM   19  C   UNL     1     -11.020  12.341  68.331  1.00  0.00    -0.236 C  
HETATM   20  O   UNL     1     -10.285  11.917  70.656  1.00  0.00     2.431 OA 
HETATM   21  C   UNL     1     -11.752  11.444  67.335  1.00  0.00    -0.089 C  
HETATM   22  C   UNL     1     -11.553  10.239  69.320  1.00  0.00    -0.119 C  
HETATM   23  H   UNL     1      -9.957  11.300  71.299  1.00  0.00     0.000 HD 
HETATM   24  O   UNL     1     -12.217  10.293  68.057  1.00  0.00     0.482 OA 
HETATM   25  C   UNL     1     -10.495  11.353  69.360  1.00  0.00     0.000 C  
BRANCH  21  26
HETATM   26  C   UNL     1     -10.878  10.963  66.175  1.00  0.00    -0.098 C  
HETATM   27  H   UNL     1      -9.200   9.949  65.937  1.00  0.00     0.000 HD 
HETATM   28  O   UNL     1      -9.742  10.248  66.656  1.00  0.00    -0.172 OA 
ENDBRANCH  21  26
BRANCH  22  29
HETATM   29  O   UNL     1     -10.900   8.985  69.494  1.00  0.00    -0.229 OA 
BRANCH  29  30
HETATM   30  C   UNL     1      -9.930   8.574  68.511  1.00  0.00    -0.184 C  
HETATM   31  C   UNL     1      -8.999   9.750  68.155  1.00  0.00    -0.119 C  
HETATM   32  O   UNL     1      -8.530  10.392  69.348  1.00  0.00    -0.182 OA 
HETATM   33  C   UNL     1      -7.804   9.259  67.329  1.00  0.00    -0.099 C  
HETATM   34  C   UNL     1      -8.313   8.661  66.018  1.00  0.00    -0.135 C  
HETATM   35  N   UNL     1      -6.856  10.359  67.062  1.00  0.00    -0.082 NA 
HETATM   36  H   UNL     1      -7.956  11.116  69.129  1.00  0.00     0.000 HD 
HETATM   37  H1  UNL     1      -6.061  10.033  66.513  1.00  0.00     0.000 HD 
HETATM   38  H2  UNL     1      -6.556  10.813  67.924  1.00  0.00     0.000 HD 
HETATM   39  C   UNL     1      -9.323   7.525  66.257  1.00  0.00    -0.120 C  
HETATM   40  C   UNL     1     -10.500   7.899  67.234  1.00  0.00    -0.320 C  
HETATM   41  N   UNL     1      -9.833   7.070  64.947  1.00  0.00     1.691 NA 
HETATM   42  H2  UNL     1      -9.086   6.802  64.306  1.00  0.00     0.000 HD 
HETATM   43  H1  UNL     1     -10.502   6.317  65.106  1.00  0.00     0.000 HD 
BRANCH  40  44
HETATM   44  O   UNL     1     -11.230   6.675  67.482  1.00  0.00    -0.319 OA 
BRANCH  44  45
HETATM   45  C   UNL     1     -10.433   5.543  67.856  1.00  0.00    -0.178 C  
HETATM   46  O   UNL     1      -9.217   5.484  67.118  1.00  0.00    -0.111 OA 
HETATM   47  C   UNL     1      -8.280   6.523  67.399  1.00  0.00    -0.121 C  
HETATM   48  C   UNL     1      -7.880   6.477  68.876  1.00  0.00    -0.110 C  
HETATM   49  H1  UNL     1     -11.185   5.563  71.224  1.00  0.00     0.000 HD 
HETATM   50  H2  UNL     1     -12.036   4.863  69.961  1.00  0.00     0.000 HD 
HETATM   51  O   UNL     1      -6.964   7.518  69.224  1.00  0.00    -0.064 OA 
HETATM   52  C   UNL     1      -9.133   6.589  69.754  1.00  0.00    -0.142 C  
HETATM   53  H   UNL     1      -6.716   7.489  70.141  1.00  0.00     0.000 HD 
HETATM   54  O   UNL     1      -8.765   6.450  71.138  1.00  0.00    -0.133 OA 
HETATM   55  N   UNL     1     -11.369   5.589  70.221  1.00  0.00     0.140 NA 
HETATM   56  C   UNL     1     -10.153   5.502  69.380  1.00  0.00    -0.236 C  
HETATM   57  H   UNL     1      -9.540   6.519  71.682  1.00  0.00     0.000 HD 
BRANCH  47  58
HETATM   58  C   UNL     1      -7.071   6.303  66.479  1.00  0.00    -0.068 C  
HETATM   59  O   UNL     1      -6.975   7.364  65.524  1.00  0.00    -0.058 OA 
HETATM   60  H   UNL     1      -6.227   7.228  64.955  1.00  0.00     0.000 HD 
ENDBRANCH  47  58
ENDBRANCH  44  45
ENDBRANCH  40  44
ENDBRANCH  29  30
ENDBRANCH  22  29
ENDBRANCH  18  19
ENDBRANCH   7  18
ENDBRANCH   2   5
TORSDOF 9
ENDMDL
MODEL      354
REMARK 921   NORMALIZED FREE ENERGY PREDICTED BY IDOCK:   33.79 KCAL/MOL
REMARK 922        TOTAL FREE ENERGY PREDICTED BY IDOCK:   49.52 KCAL/MOL
REMARK 923 INTER-LIGAND FREE ENERGY PREDICTED BY IDOCK:   17.68 KCAL/MOL
REMARK 924 INTRA-LIGAND FREE ENERGY PREDICTED BY IDOCK:   31.84 KCAL/MOL
REMARK 927      BINDING AFFINITY PREDICTED BY RF-SCORE:    0.00 PKD
ROOT
HETATM    1  N   UNL     1      -8.439  12.594  63.442  1.00  0.00     2.337 NA 
HETATM    2  C   UNL     1      -9.676  13.092  62.806  1.00  0.00     5.128 C  
HETATM    3  H1  UNL     1      -7.636  12.808  62.851  1.00  0.00     0.000 HD 
HETATM    4  H2  UNL     1      -8.497  11.601  63.666  1.00  0.00     0.000 HD 
ENDROOT
BRANCH   2   5
HETATM    5  C   UNL     1     -10.888  12.770  63.696  1.00  0.00    -0.320 C  
HETATM    6  O   UNL     1     -10.863  13.697  64.797  1.00  0.00    -0.349 OA 
HETATM    7  C   UNL     1     -12.050  13.628  65.584  1.00  0.00    -0.425 C  
HETATM    8  C   UNL     1     -12.097  12.244  66.295  1.00  0.00    -0.074 C  
HETATM    9  O   UNL     1      -9.621  11.038  64.840  1.00  0.00    -0.221 OA 
HETATM   10  H   UNL     1      -9.620  10.146  65.167  1.00  0.00     0.000 HD 
HETATM   11  N   UNL     1     -10.962  12.102  67.255  1.00  0.00    -0.247 NA 
HETATM   12  C   UNL     1     -12.050  11.126  65.229  1.00  0.00     1.582 C  
HETATM   13  H2  UNL     1     -10.937  12.870  67.926  1.00  0.00     0.000 HD 
HETATM   14  O   UNL     1     -13.304  11.013  64.543  1.00  0.00     2.219 OA 
HETATM   15  C   UNL     1     -10.886  11.321  64.227  1.00  0.00    -0.328 C  
HETATM   16  H1  UNL     1     -10.993  11.195  67.722  1.00  0.00     0.000 HD 
HETATM   17  H   UNL     1     -13.275  10.326  63.888  1.00  0.00     0.000 HD 
BRANCH   7  18
HETATM   18  O   UNL     1     -12.070  14.654  66.579  1.00  0.00    -0.340 OA 
BRANCH  18  19
HETATM   19  C   UNL     1     -12.077  14.159  67.930  1.00  0.00    -0.274 C  
HETATM   20  O   UNL     1     -12.186  11.855  67.030  1.00  0.00    -0.492 OA 
HETATM   21  C   UNL     1     -10.957  14.893  68.664  1.00  0.00    -0.257 C  
HETATM   22  C   UNL     1     -10.142  12.780  68.114  1.00  0.00    -0.239 C  
HETATM   23  H   UNL     1     -11.935  10.943  67.115  1.00  0.00     0.000 HD 
HETATM   24  O   UNL     1      -9.773  14.089  68.554  1.00  0.00    -0.224 OA 
HETATM   25  C   UNL     1     -11.676  12.699  68.065  1.00  0.00    -0.350 C  
BRANCH  21  26
HETATM   26  C   UNL     1     -11.241  15.130  70.149  1.00  0.00    -0.273 C  
HETATM   27  H   UNL     1     -12.789  15.600  71.281  1.00  0.00     0.000 HD 
HETATM   28  O   UNL     1     -12.613  15.454  70.360  1.00  0.00    -0.394 OA 
ENDBRANCH  21  26
BRANCH  22  29
HETATM   29  O   UNL     1      -9.662  11.790  69.019  1.00  0.00    -0.042 OA 
BRANCH  29  30
HETATM   30  C   UNL     1      -8.500  12.093  69.815  1.00  0.00     2.104 C  
HETATM   31  C   UNL     1      -7.355  12.603  68.918  1.00  0.00    -0.016 C  
HETATM   32  O   UNL     1      -7.841  13.604  68.013  1.00  0.00    -0.123 OA 
HETATM   33  C   UNL     1      -6.221  13.184  69.770  1.00  0.00    -0.108 C  
HETATM   34  C   UNL     1      -5.651  12.082  70.664  1.00  0.00    -0.153 C  
HETATM   35  N   UNL     1      -5.162  13.762  68.921  1.00  0.00    -0.070 NA 
HETATM   36  H   UNL     1      -7.135  13.918  67.460  1.00  0.00     0.000 HD 
HETATM   37  H1  UNL     1      -4.407  14.148  69.487  1.00  0.00     0.000 HD 
HETATM   38  H2  UNL     1      -5.536  14.453  68.272  1.00  0.00     0.000 HD 
HETATM   39  C   UNL     1      -6.734  11.440  71.548  1.00  0.00     3.389 C  
HETATM   40  C   UNL     1      -8.013  10.963  70.764  1.00  0.00     3.042 C  
HETATM   41  N   UNL     1      -6.120  10.329  72.305  1.00  0.00     0.215 NA 
HETATM   42  H2  UNL     1      -5.301  10.623  72.838  1.00  0.00     0.000 HD 
HETATM   43  H1  UNL     1      -6.838   9.904  72.892  1.00  0.00     0.000 HD 
BRANCH  40  44
HETATM   44  O   UNL     1      -8.981  10.566  71.762  1.00  0.00     4.203 OA 
BRANCH  44  45
HETATM   45  C   UNL     1      -9.667   9.332  71.503  1.00  0.00    -0.140 C  
HETATM   46  O   UNL     1      -9.669   9.008  70.117  1.00  0.00    -0.170 OA 
HETATM   47  C   UNL     1      -8.396   8.678  69.565  1.00  0.00    -0.117 C  
HETATM   48  C   UNL     1      -7.818   7.456  70.284  1.00  0.00    -0.095 C  
HETATM   49  H1  UNL     1      -8.663   7.658  74.348  1.00  0.00     0.000 HD 
HETATM   50  H2  UNL     1      -9.952   8.710  74.148  1.00  0.00     0.000 HD 
HETATM   51  O   UNL     1      -6.524   7.097  69.793  1.00  0.00    -0.037 OA 
HETATM   52  C   UNL     1      -7.729   7.737  71.790  1.00  0.00    -0.089 C  
HETATM   53  H   UNL     1      -6.166   6.339  70.239  1.00  0.00     0.000 HD 
HETATM   54  O   UNL     1      -7.276   6.556  72.474  1.00  0.00    -0.080 OA 
HETATM   55  N   UNL     1      -9.036   8.430  73.796  1.00  0.00    -0.028 NA 
HETATM   56  C   UNL     1      -9.100   8.160  72.342  1.00  0.00    -0.215 C  
HETATM   57  H   UNL     1      -7.221   6.730  73.406  1.00  0.00     0.000 HD 
BRANCH  47  58
HETATM   58  C   UNL     1      -8.608   8.406  68.069  1.00  0.00    -0.135 C  
HETATM   59  O   UNL     1      -8.316   7.038  67.768  1.00  0.00    -0.116 OA 
HETATM   60  H   UNL     1      -8.447   6.869  66.843  1.00  0.00     0.000 HD 
ENDBRANCH  47  58
ENDBRANCH  44  45
ENDBRANCH  40  44
ENDBRANCH  29  30
ENDBRANCH  22  29
ENDBRANCH  18  19
ENDBRANCH   7  18
ENDBRANCH   2   5
TORSDOF 9
ENDMDL
MODEL      355
REMARK 921   NORMALIZED FREE ENERGY PREDICTED BY IDOCK:   34.33 KCAL/MOL
REMARK 922        TOTAL FREE ENERGY PREDICTED BY IDOCK:   50.35 KCAL/MOL
REMARK 923 INTER-LIGAND FREE ENERGY PREDICTED BY IDOCK:   20.57 KCAL/MOL
REMARK 924 INTRA-LIGAND FREE ENERGY PREDICTED BY IDOCK:   29.78 KCAL/MOL
REMARK 927      BINDING AFFINITY PREDICTED BY RF-SCORE:    0.00 PKD
ROOT
HETATM    1  N   UNL     1      -9.224  19.384  69.146  1.00  0.00    -0.267 NA 
HETATM    2  C   UNL     1     -10.189  18.889  68.144  1.00  0.00    -0.391 C  
HETATM    3  H1  UNL     1      -8.577  20.041  68.710  1.00  0.00     0.000 HD 
HETATM    4  H2  UNL     1      -8.736  18.621  69.617  1.00  0.00     0.000 HD 
ENDROOT
BRANCH   2   5
HETATM    5  C   UNL     1     -11.165  17.899  68.802  1.00  0.00     0.986 C  
HETATM    6  O   UNL     1     -10.800  17.806  70.192  1.00  0.00     0.705 OA 
HETATM    7  C   UNL     1     -11.759  17.070  70.949  1.00  0.00     1.399 C  
HETATM    8  C   UNL     1     -11.731  15.586  70.483  1.00  0.00    -0.349 C  
HETATM    9  O   UNL     1      -9.787  16.026  68.089  1.00  0.00    -0.219 OA 
HETATM   10  H   UNL     1      -9.772  15.164  67.691  1.00  0.00     0.000 HD 
HETATM   11  N   UNL     1     -10.409  14.960  70.780  1.00  0.00    -0.275 NA 
HETATM   12  C   UNL     1     -12.032  15.527  68.967  1.00  0.00    -0.301 C  
HETATM   13  H2  UNL     1     -10.162  15.050  71.766  1.00  0.00     0.000 HD 
HETATM   14  O   UNL     1     -13.421  15.768  68.707  1.00  0.00     1.672 OA 
HETATM   15  C   UNL     1     -11.140  16.498  68.156  1.00  0.00    -0.303 C  
HETATM   16  H1  UNL     1     -10.391  13.987  70.474  1.00  0.00     0.000 HD 
HETATM   17  H   UNL     1     -13.606  15.732  67.775  1.00  0.00     0.000 HD 
BRANCH   7  18
HETATM   18  O   UNL     1     -11.456  17.115  72.347  1.00  0.00     0.126 OA 
BRANCH  18  19
HETATM   19  C   UNL     1     -10.602  16.047  72.795  1.00  0.00     3.196 C  
HETATM   20  O   UNL     1     -12.598  14.902  73.706  1.00  0.00    -0.529 OA 
HETATM   21  C   UNL     1      -9.698  15.695  71.615  1.00  0.00     3.344 C  
HETATM   22  C   UNL     1     -11.389  14.091  71.683  1.00  0.00     1.500 C  
HETATM   23  H   UNL     1     -13.050  14.085  73.881  1.00  0.00     0.000 HD 
HETATM   24  O   UNL     1     -10.344  14.644  70.881  1.00  0.00     0.544 OA 
HETATM   25  C   UNL     1     -11.325  14.741  73.075  1.00  0.00     0.590 C  
BRANCH  21  26
HETATM   26  C   UNL     1      -8.306  15.210  72.025  1.00  0.00     6.064 C  
HETATM   27  H   UNL     1      -6.499  15.128  71.232  1.00  0.00     0.000 HD 
HETATM   28  O   UNL     1      -7.363  15.429  70.978  1.00  0.00     1.210 OA 
ENDBRANCH  21  26
BRANCH  22  29
HETATM   29  O   UNL     1     -11.223  12.684  71.830  1.00  0.00     3.590 OA 
BRANCH  29  30
HETATM   30  C   UNL     1     -11.861  11.814  70.874  1.00  0.00     0.197 C  
HETATM   31  C   UNL     1     -12.630  10.694  71.601  1.00  0.00    -0.377 C  
HETATM   32  O   UNL     1     -13.426  11.244  72.661  1.00  0.00    -0.416 OA 
HETATM   33  C   UNL     1     -13.530   9.935  70.620  1.00  0.00     0.070 C  
HETATM   34  C   UNL     1     -12.661   9.277  69.549  1.00  0.00     1.896 C  
HETATM   35  N   UNL     1     -14.343   8.922  71.321  1.00  0.00    -0.457 NA 
HETATM   36  H   UNL     1     -13.900  10.553  73.108  1.00  0.00     0.000 HD 
HETATM   37  H1  UNL     1     -14.942   8.416  70.669  1.00  0.00     0.000 HD 
HETATM   38  H2  UNL     1     -14.881   9.334  72.083  1.00  0.00     0.000 HD 
HETATM   39  C   UNL     1     -11.781  10.302  68.812  1.00  0.00     0.051 C  
HETATM   40  C   UNL     1     -10.944  11.239  69.761  1.00  0.00    -0.103 C  
HETATM   41  N   UNL     1     -10.909   9.574  67.866  1.00  0.00    -0.444 NA 
HETATM   42  H2  UNL     1     -11.435   8.978  67.227  1.00  0.00     0.000 HD 
HETATM   43  H1  UNL     1     -10.326  10.254  67.378  1.00  0.00     0.000 HD 
BRANCH  40  44
HETATM   44  O   UNL     1     -10.335  12.241  68.914  1.00  0.00    -0.172 OA 
BRANCH  44  45
HETATM   45  C   UNL     1      -9.593  11.737  67.794  1.00  0.00    -0.184 C  
HETATM   46  O   UNL     1     -10.208  12.075  66.556  1.00  0.00    -0.202 OA 
HETATM   47  C   UNL     1     -10.198  13.463  66.226  1.00  0.00    -0.298 C  
HETATM   48  C   UNL     1      -8.754  13.965  66.132  1.00  0.00     0.567 C  
HETATM   49  H1  UNL     1      -6.436  12.212  69.102  1.00  0.00     0.000 HD 
HETATM   50  H2  UNL     1      -7.478  10.917  69.316  1.00  0.00     0.000 HD 
HETATM   51  O   UNL     1      -8.681  15.361  65.835  1.00  0.00    -0.389 OA 
HETATM   52  C   UNL     1      -8.024  13.688  67.453  1.00  0.00    -0.166 C  
HETATM   53  H   UNL     1      -7.786  15.672  65.776  1.00  0.00     0.000 HD 
HETATM   54  O   UNL     1      -6.643  14.073  67.329  1.00  0.00    -0.397 OA 
HETATM   55  N   UNL     1      -7.409  11.909  69.087  1.00  0.00    -0.035 NA 
HETATM   56  C   UNL     1      -8.113  12.198  67.817  1.00  0.00    -0.152 C  
HETATM   57  H   UNL     1      -6.191  13.901  68.146  1.00  0.00     0.000 HD 
BRANCH  47  58
HETATM   58  C   UNL     1     -10.938  13.617  64.890  1.00  0.00    -0.367 C  
HETATM   59  O   UNL     1     -11.841  12.526  64.695  1.00  0.00    -0.343 OA 
HETATM   60  H   UNL     1     -12.299  12.621  63.869  1.00  0.00     0.000 HD 
ENDBRANCH  47  58
ENDBRANCH  44  45
ENDBRANCH  40  44
ENDBRANCH  29  30
ENDBRANCH  22  29
ENDBRANCH  18  19
ENDBRANCH   7  18
ENDBRANCH   2   5
TORSDOF 9
ENDMDL
MODEL      356
REMARK 921   NORMALIZED FREE ENERGY PREDICTED BY IDOCK:   37.69 KCAL/MOL
REMARK 922        TOTAL FREE ENERGY PREDICTED BY IDOCK:   55.47 KCAL/MOL
REMARK 923 INTER-LIGAND FREE ENERGY PREDICTED BY IDOCK:   17.51 KCAL/MOL
REMARK 924 INTRA-LIGAND FREE ENERGY PREDICTED BY IDOCK:   37.97 KCAL/MOL
REMARK 927      BINDING AFFINITY PREDICTED BY RF-SCORE:    0.00 PKD
ROOT
HETATM    1  N   UNL     1     -10.469  10.266  64.395  1.00  0.00    -0.294 NA 
HETATM    2  C   UNL     1     -10.208  10.128  65.842  1.00  0.00    -0.211 C  
HETATM    3  H1  UNL     1     -10.053   9.482  63.892  1.00  0.00     0.000 HD 
HETATM    4  H2  UNL     1     -10.153  11.166  64.032  1.00  0.00     0.000 HD 
ENDROOT
BRANCH   2   5
HETATM    5  C   UNL     1     -10.836  11.310  66.601  1.00  0.00    -0.273 C  
HETATM    6  O   UNL     1      -9.793  12.278  66.816  1.00  0.00    -0.202 OA 
HETATM    7  C   UNL     1     -10.300  13.506  67.333  1.00  0.00    -0.237 C  
HETATM    8  C   UNL     1     -10.843  13.256  68.770  1.00  0.00    -0.243 C  
HETATM    9  O   UNL     1     -10.508  10.160  68.718  1.00  0.00    -0.184 OA 
HETATM   10  H   UNL     1     -10.895   9.909  69.548  1.00  0.00     0.000 HD 
HETATM   11  N   UNL     1      -9.742  12.849  69.691  1.00  0.00     0.773 NA 
HETATM   12  C   UNL     1     -11.937  12.164  68.713  1.00  0.00    -0.239 C  
HETATM   13  H2  UNL     1      -8.978  13.526  69.689  1.00  0.00     0.000 HD 
HETATM   14  O   UNL     1     -13.152  12.679  68.152  1.00  0.00     1.747 OA 
HETATM   15  C   UNL     1     -11.465  10.903  67.950  1.00  0.00    -0.266 C  
HETATM   16  H1  UNL     1     -10.098  12.685  70.633  1.00  0.00     0.000 HD 
HETATM   17  H   UNL     1     -13.823  12.007  68.117  1.00  0.00     0.000 HD 
BRANCH   7  18
HETATM   18  O   UNL     1      -9.273  14.500  67.400  1.00  0.00    -0.188 OA 
BRANCH  18  19
HETATM   19  C   UNL     1      -8.131  14.109  68.182  1.00  0.00    -0.148 C  
HETATM   20  O   UNL     1      -9.511  14.350  70.223  1.00  0.00     0.421 OA 
HETATM   21  C   UNL     1      -7.551  12.868  67.508  1.00  0.00    -0.164 C  
HETATM   22  C   UNL     1      -8.794  12.133  69.338  1.00  0.00     1.138 C  
HETATM   23  H   UNL     1      -9.720  14.041  71.097  1.00  0.00     0.000 HD 
HETATM   24  O   UNL     1      -8.156  11.723  68.127  1.00  0.00    -0.134 OA 
HETATM   25  C   UNL     1      -8.466  13.616  69.579  1.00  0.00     1.062 C  
BRANCH  21  26
HETATM   26  C   UNL     1      -6.033  12.741  67.642  1.00  0.00    -0.150 C  
HETATM   27  H   UNL     1      -4.424  13.581  66.862  1.00  0.00     0.000 HD 
HETATM   28  O   UNL     1      -5.367  13.659  66.778  1.00  0.00     0.579 OA 
ENDBRANCH  21  26
BRANCH  22  29
HETATM   29  O   UNL     1      -8.315  11.375  70.444  1.00  0.00     1.958 OA 
BRANCH  29  30
HETATM   30  C   UNL     1      -9.273  10.698  71.280  1.00  0.00     4.788 C  
HETATM   31  C   UNL     1      -8.900   9.210  71.426  1.00  0.00    -0.045 C  
HETATM   32  O   UNL     1      -7.507   9.075  71.739  1.00  0.00    -0.313 OA 
HETATM   33  C   UNL     1      -9.743   8.549  72.522  1.00  0.00    -0.256 C  
HETATM   34  C   UNL     1     -11.219   8.618  72.130  1.00  0.00    -0.438 C  
HETATM   35  N   UNL     1      -9.330   7.148  72.737  1.00  0.00    -0.138 NA 
HETATM   36  H   UNL     1      -7.278   8.158  71.829  1.00  0.00     0.000 HD 
HETATM   37  H1  UNL     1      -9.890   6.708  73.465  1.00  0.00     0.000 HD 
HETATM   38  H2  UNL     1      -8.332   7.077  72.935  1.00  0.00     0.000 HD 
HETATM   39  C   UNL     1     -11.680  10.064  71.876  1.00  0.00     0.209 C  
HETATM   40  C   UNL     1     -10.764  10.871  70.880  1.00  0.00     1.442 C  
HETATM   41  N   UNL     1     -13.083  10.032  71.412  1.00  0.00    -0.394 NA 
HETATM   42  H2  UNL     1     -13.697   9.532  72.055  1.00  0.00     0.000 HD 
HETATM   43  H1  UNL     1     -13.388  10.990  71.244  1.00  0.00     0.000 HD 
BRANCH  40  44
HETATM   44  O   UNL     1     -11.235  12.238  70.908  1.00  0.00     1.282 OA 
BRANCH  44  45
HETATM   45  C   UNL     1     -12.398  12.477  71.714  1.00  0.00     0.421 C  
HETATM   46  O   UNL     1     -12.076  13.165  72.917  1.00  0.00     1.220 OA 
HETATM   47  C   UNL     1     -11.636  14.512  72.752  1.00  0.00     0.548 C  
HETATM   48  C   UNL     1     -12.732  15.338  72.073  1.00  0.00    -0.352 C  
HETATM   49  H1  UNL     1     -14.610  13.077  69.135  1.00  0.00     0.000 HD 
HETATM   50  H2  UNL     1     -14.142  11.610  69.798  1.00  0.00     0.000 HD 
HETATM   51  O   UNL     1     -12.334  16.693  71.851  1.00  0.00    -0.416 OA 
HETATM   52  C   UNL     1     -13.107  14.694  70.732  1.00  0.00    -0.323 C  
HETATM   53  H   UNL     1     -13.014  17.205  71.430  1.00  0.00     0.000 HD 
HETATM   54  O   UNL     1     -14.202  15.416  70.141  1.00  0.00     0.096 OA 
HETATM   55  N   UNL     1     -13.879  12.585  69.649  1.00  0.00     4.283 NA 
HETATM   56  C   UNL     1     -13.508  13.224  70.933  1.00  0.00     0.356 C  
HETATM   57  H   UNL     1     -14.434  15.018  69.311  1.00  0.00     0.000 HD 
BRANCH  47  58
HETATM   58  C   UNL     1     -11.304  15.055  74.149  1.00  0.00     1.329 C  
HETATM   59  O   UNL     1     -12.172  16.144  74.478  1.00  0.00    -0.539 OA 
HETATM   60  H   UNL     1     -11.966  16.479  75.342  1.00  0.00     0.000 HD 
ENDBRANCH  47  58
ENDBRANCH  44  45
ENDBRANCH  40  44
ENDBRANCH  29  30
ENDBRANCH  22  29
ENDBRANCH  18  19
ENDBRANCH   7  18
ENDBRANCH   2   5
TORSDOF 9
ENDMDL
MODEL      357
REMARK 921   NORMALIZED FREE ENERGY PREDICTED BY IDOCK:   37.89 KCAL/MOL
REMARK 922        TOTAL FREE ENERGY PREDICTED BY IDOCK:   55.79 KCAL/MOL
REMARK 923 INTER-LIGAND FREE ENERGY PREDICTED BY IDOCK:   -1.84 KCAL/MOL
REMARK 924 INTRA-LIGAND FREE ENERGY PREDICTED BY IDOCK:   57.62 KCAL/MOL
REMARK 927      BINDING AFFINITY PREDICTED BY RF-SCORE:    0.00 PKD
ROOT
HETATM    1  N   UNL     1      -8.312  16.915  66.424  1.00  0.00    -0.276 NA 
HETATM    2  C   UNL     1      -7.360  15.788  66.349  1.00  0.00     0.641 C  
HETATM    3  H1  UNL     1      -8.354  17.393  65.524  1.00  0.00     0.000 HD 
HETATM    4  H2  UNL     1      -8.090  17.554  67.188  1.00  0.00     0.000 HD 
ENDROOT
BRANCH   2   5
HETATM    5  C   UNL     1      -7.297  15.066  67.705  1.00  0.00    -0.166 C  
HETATM    6  O   UNL     1      -7.934  13.787  67.535  1.00  0.00    -0.158 OA 
HETATM    7  C   UNL     1      -7.759  12.945  68.672  1.00  0.00    -0.067 C  
HETATM    8  C   UNL     1      -8.533  13.561  69.874  1.00  0.00     2.189 C  
HETATM    9  O   UNL     1      -9.309  16.216  68.442  1.00  0.00    -0.197 OA 
HETATM   10  H   UNL     1      -9.731  16.698  69.143  1.00  0.00     0.000 HD 
HETATM   11  N   UNL     1     -10.001  13.583  69.604  1.00  0.00     0.239 NA 
HETATM   12  C   UNL     1      -8.006  14.992  70.133  1.00  0.00     0.487 C  
HETATM   13  H2  UNL     1     -10.354  12.657  69.363  1.00  0.00     0.000 HD 
HETATM   14  O   UNL     1      -6.714  14.961  70.754  1.00  0.00    -0.049 OA 
HETATM   15  C   UNL     1      -7.983  15.849  68.845  1.00  0.00    -0.204 C  
HETATM   16  H1  UNL     1     -10.508  13.987  70.392  1.00  0.00     0.000 HD 
HETATM   17  H   UNL     1      -6.391  15.840  70.913  1.00  0.00     0.000 HD 
BRANCH   7  18
HETATM   18  O   UNL     1      -8.269  11.632  68.426  1.00  0.00    -0.145 OA 
BRANCH  18  19
HETATM   19  C   UNL     1      -7.361  10.574  68.784  1.00  0.00    -0.092 C  
HETATM   20  O   UNL     1      -8.863   9.992  70.663  1.00  0.00    -0.339 OA 
HETATM   21  C   UNL     1      -7.040   9.826  67.492  1.00  0.00    -0.088 C  
HETATM   22  C   UNL     1      -8.632   8.564  68.635  1.00  0.00    -0.135 C  
HETATM   23  H   UNL     1      -9.244   9.317  71.213  1.00  0.00     0.000 HD 
HETATM   24  O   UNL     1      -7.982   8.749  67.376  1.00  0.00    -0.097 OA 
HETATM   25  C   UNL     1      -7.971   9.495  69.663  1.00  0.00    -0.120 C  
BRANCH  21  26
HETATM   26  C   UNL     1      -5.629   9.236  67.452  1.00  0.00    -0.041 C  
HETATM   27  H   UNL     1      -4.316   8.508  68.735  1.00  0.00     0.000 HD 
HETATM   28  O   UNL     1      -5.191   8.874  68.760  1.00  0.00    -0.033 OA 
ENDBRANCH  21  26
BRANCH  22  29
HETATM   29  O   UNL     1      -8.492   7.219  69.082  1.00  0.00    -0.131 OA 
BRANCH  29  30
HETATM   30  C   UNL     1      -9.524   6.663  69.919  1.00  0.00    -0.156 C  
HETATM   31  C   UNL     1     -10.142   7.761  70.807  1.00  0.00    -0.192 C  
HETATM   32  O   UNL     1     -10.454   8.919  70.021  1.00  0.00    -0.200 OA 
HETATM   33  C   UNL     1     -11.413   7.246  71.493  1.00  0.00    -0.263 C  
HETATM   34  C   UNL     1     -11.051   6.070  72.400  1.00  0.00    -0.321 C  
HETATM   35  N   UNL     1     -12.067   8.317  72.270  1.00  0.00    -0.362 NA 
HETATM   36  H   UNL     1     -10.835   9.595  70.567  1.00  0.00     0.000 HD 
HETATM   37  H1  UNL     1     -12.912   7.975  72.727  1.00  0.00     0.000 HD 
HETATM   38  H2  UNL     1     -12.257   9.136  71.695  1.00  0.00     0.000 HD 
HETATM   39  C   UNL     1     -10.346   4.942  71.626  1.00  0.00    -0.170 C  
HETATM   40  C   UNL     1      -9.122   5.419  70.758  1.00  0.00    -0.141 C  
HETATM   41  N   UNL     1      -9.949   3.893  72.589  1.00  0.00    -0.150 NA 
HETATM   42  H2  UNL     1     -10.733   3.555  73.146  1.00  0.00     0.000 HD 
HETATM   43  H1  UNL     1      -9.481   3.146  72.076  1.00  0.00     0.000 HD 
BRANCH  40  44
HETATM   44  O   UNL     1      -8.709   4.277  69.971  1.00  0.00    -0.071 OA 
BRANCH  44  45
HETATM   45  C   UNL     1      -7.541   4.474  69.160  1.00  0.00    -0.056 C  
HETATM   46  O   UNL     1      -7.872   4.626  67.784  1.00  0.00    -0.085 OA 
HETATM   47  C   UNL     1      -8.580   5.821  67.454  1.00  0.00    -0.105 C  
HETATM   48  C   UNL     1      -7.737   7.044  67.824  1.00  0.00    -0.112 C  
HETATM   49  H1  UNL     1      -5.750   6.376  71.413  1.00  0.00     0.000 HD 
HETATM   50  H2  UNL     1      -5.857   4.708  71.298  1.00  0.00     0.000 HD 
HETATM   51  O   UNL     1      -8.410   8.274  67.545  1.00  0.00    -0.127 OA 
HETATM   52  C   UNL     1      -7.376   6.990  69.315  1.00  0.00    -0.092 C  
HETATM   53  H   UNL     1      -7.887   9.033  67.775  1.00  0.00     0.000 HD 
HETATM   54  O   UNL     1      -6.505   8.089  69.638  1.00  0.00    -0.036 OA 
HETATM   55  N   UNL     1      -6.317   5.594  71.088  1.00  0.00    -0.034 NA 
HETATM   56  C   UNL     1      -6.679   5.663  69.654  1.00  0.00    -0.055 C  
HETATM   57  H   UNL     1      -6.282   8.056  70.561  1.00  0.00     0.000 HD 
BRANCH  47  58
HETATM   58  C   UNL     1      -8.873   5.772  65.948  1.00  0.00    -0.150 C  
HETATM   59  O   UNL     1      -9.882   4.797  65.671  1.00  0.00    -0.177 OA 
HETATM   60  H   UNL     1     -10.063   4.766  64.739  1.00  0.00     0.000 HD 
ENDBRANCH  47  58
ENDBRANCH  44  45
ENDBRANCH  40  44
ENDBRANCH  29  30
ENDBRANCH  22  29
ENDBRANCH  18  19
ENDBRANCH   7  18
ENDBRANCH   2   5
TORSDOF 9
ENDMDL
MODEL      358
REMARK 921   NORMALIZED FREE ENERGY PREDICTED BY IDOCK:   39.62 KCAL/MOL
REMARK 922        TOTAL FREE ENERGY PREDICTED BY IDOCK:   58.42 KCAL/MOL
REMARK 923 INTER-LIGAND FREE ENERGY PREDICTED BY IDOCK:   49.46 KCAL/MOL
REMARK 924 INTRA-LIGAND FREE ENERGY PREDICTED BY IDOCK:    8.96 KCAL/MOL
REMARK 927      BINDING AFFINITY PREDICTED BY RF-SCORE:    0.00 PKD
ROOT
HETATM    1  N   UNL     1      -7.057  11.788  62.425  1.00  0.00     0.078 NA 
HETATM    2  C   UNL     1      -6.592  10.803  63.422  1.00  0.00     0.257 C  
HETATM    3  H1  UNL     1      -6.259  12.172  61.919  1.00  0.00     0.000 HD 
HETATM    4  H2  UNL     1      -7.632  12.518  62.847  1.00  0.00     0.000 HD 
ENDROOT
BRANCH   2   5
HETATM    5  C   UNL     1      -7.795  10.223  64.185  1.00  0.00    -0.111 C  
HETATM    6  O   UNL     1      -7.518  10.371  65.590  1.00  0.00    -0.144 OA 
HETATM    7  C   UNL     1      -8.650  10.052  66.396  1.00  0.00    -0.129 C  
HETATM    8  C   UNL     1      -8.947   8.531  66.259  1.00  0.00    -0.168 C  
HETATM    9  O   UNL     1      -6.860   7.985  64.013  1.00  0.00    -0.064 OA 
HETATM   10  H   UNL     1      -7.028   7.072  63.809  1.00  0.00     0.000 HD 
HETATM   11  N   UNL     1      -7.818   7.718  66.801  1.00  0.00    -0.105 NA 
HETATM   12  C   UNL     1      -9.192   8.196  64.769  1.00  0.00     0.823 C  
HETATM   13  H2  UNL     1      -7.597   7.974  67.763  1.00  0.00     0.000 HD 
HETATM   14  O   UNL     1     -10.477   8.666  64.339  1.00  0.00     2.939 OA 
HETATM   15  C   UNL     1      -8.069   8.740  63.855  1.00  0.00    -0.165 C  
HETATM   16  H1  UNL     1      -8.013   6.721  66.711  1.00  0.00     0.000 HD 
HETATM   17  H   UNL     1     -10.627   8.460  63.424  1.00  0.00     0.000 HD 
BRANCH   7  18
HETATM   18  O   UNL     1      -8.401  10.347  67.773  1.00  0.00    -0.113 OA 
BRANCH  18  19
HETATM   19  C   UNL     1      -9.479  11.042  68.426  1.00  0.00    -0.182 C  
HETATM   20  O   UNL     1      -8.445  10.490  70.606  1.00  0.00     0.119 OA 
HETATM   21  C   UNL     1      -9.631  12.378  67.702  1.00  0.00    -0.193 C  
HETATM   22  C   UNL     1      -8.447  12.798  69.665  1.00  0.00     1.902 C  
HETATM   23  H   UNL     1      -8.259  10.751  71.501  1.00  0.00     0.000 HD 
HETATM   24  O   UNL     1      -8.816  13.336  68.394  1.00  0.00    -0.177 OA 
HETATM   25  C   UNL     1      -9.180  11.460  69.856  1.00  0.00     1.660 C  
BRANCH  21  26
HETATM   26  C   UNL     1     -11.067  12.904  67.666  1.00  0.00    -0.264 C  
HETATM   27  H   UNL     1     -12.229  14.047  68.781  1.00  0.00     0.000 HD 
HETATM   28  O   UNL     1     -11.338  13.721  68.803  1.00  0.00    -0.248 OA 
ENDBRANCH  21  26
BRANCH  22  29
HETATM   29  O   UNL     1      -8.827  13.680  70.717  1.00  0.00     4.517 OA 
BRANCH  29  30
HETATM   30  C   UNL     1      -7.857  14.628  71.202  1.00  0.00     2.835 C  
HETATM   31  C   UNL     1      -7.346  14.207  72.594  1.00  0.00     5.146 C  
HETATM   32  O   UNL     1      -6.999  12.816  72.596  1.00  0.00     4.863 OA 
HETATM   33  C   UNL     1      -6.127  15.044  72.996  1.00  0.00     1.102 C  
HETATM   34  C   UNL     1      -6.535  16.515  73.080  1.00  0.00     5.477 C  
HETATM   35  N   UNL     1      -5.571  14.587  74.284  1.00  0.00    -0.368 NA 
HETATM   36  H   UNL     1      -6.684  12.556  73.454  1.00  0.00     0.000 HD 
HETATM   37  H1  UNL     1      -4.760  15.144  74.552  1.00  0.00     0.000 HD 
HETATM   38  H2  UNL     1      -5.353  13.591  74.267  1.00  0.00     0.000 HD 
HETATM   39  C   UNL     1      -7.141  17.021  71.759  1.00  0.00     6.864 C  
HETATM   40  C   UNL     1      -8.298  16.117  71.189  1.00  0.00     4.993 C  
HETATM   41  N   UNL     1      -7.592  18.415  71.956  1.00  0.00     7.622 NA 
HETATM   42  H2  UNL     1      -6.850  19.021  72.305  1.00  0.00     0.000 HD 
HETATM   43  H1  UNL     1      -7.994  18.750  71.081  1.00  0.00     0.000 HD 
BRANCH  40  44
HETATM   44  O   UNL     1      -8.611  16.635  69.875  1.00  0.00     0.642 OA 
BRANCH  44  45
HETATM   45  C   UNL     1      -9.147  15.682  68.946  1.00  0.00    -0.217 C  
HETATM   46  O   UNL     1     -10.307  15.036  69.459  1.00  0.00    -0.240 OA 
HETATM   47  C   UNL     1     -11.454  15.871  69.613  1.00  0.00    -0.346 C  
HETATM   48  C   UNL     1     -11.860  16.452  68.256  1.00  0.00     0.284 C  
HETATM   49  H1  UNL     1      -8.475  17.450  66.060  1.00  0.00     0.000 HD 
HETATM   50  H2  UNL     1      -7.470  16.422  66.920  1.00  0.00     0.000 HD 
HETATM   51  O   UNL     1     -12.988  17.326  68.353  1.00  0.00     2.408 OA 
HETATM   52  C   UNL     1     -10.677  17.218  67.648  1.00  0.00    -0.307 C  
HETATM   53  H   UNL     1     -13.240  17.686  67.511  1.00  0.00     0.000 HD 
HETATM   54  O   UNL     1     -11.030  17.681  66.333  1.00  0.00    -0.025 OA 
HETATM   55  N   UNL     1      -8.285  17.033  66.971  1.00  0.00    -0.193 NA 
HETATM   56  C   UNL     1      -9.437  16.314  67.561  1.00  0.00    -0.227 C  
HETATM   57  H   UNL     1     -10.298  18.155  65.956  1.00  0.00     0.000 HD 
BRANCH  47  58
HETATM   58  C   UNL     1     -12.569  15.002  70.211  1.00  0.00    -0.317 C  
HETATM   59  O   UNL     1     -13.581  15.827  70.795  1.00  0.00    -0.766 OA 
HETATM   60  H   UNL     1     -14.271  15.290  71.165  1.00  0.00     0.000 HD 
ENDBRANCH  47  58
ENDBRANCH  44  45
ENDBRANCH  40  44
ENDBRANCH  29  30
ENDBRANCH  22  29
ENDBRANCH  18  19
ENDBRANCH   7  18
ENDBRANCH   2   5
TORSDOF 9
ENDMDL
MODEL      359
REMARK 921   NORMALIZED FREE ENERGY PREDICTED BY IDOCK:   42.24 KCAL/MOL
REMARK 922        TOTAL FREE ENERGY PREDICTED BY IDOCK:   62.43 KCAL/MOL
REMARK 923 INTER-LIGAND FREE ENERGY PREDICTED BY IDOCK:   28.30 KCAL/MOL
REMARK 924 INTRA-LIGAND FREE ENERGY PREDICTED BY IDOCK:   34.13 KCAL/MOL
REMARK 927      BINDING AFFINITY PREDICTED BY RF-SCORE:    0.00 PKD
ROOT
HETATM    1  N   UNL     1      -9.839   8.068  69.762  1.00  0.00    -0.181 NA 
HETATM    2  C   UNL     1      -9.792   6.592  69.760  1.00  0.00    -0.162 C  
HETATM    3  H1  UNL     1     -10.668   8.389  69.261  1.00  0.00     0.000 HD 
HETATM    4  H2  UNL     1      -8.983   8.480  69.390  1.00  0.00     0.000 HD 
ENDROOT
BRANCH   2   5
HETATM    5  C   UNL     1      -8.543   6.109  70.516  1.00  0.00    -0.138 C  
HETATM    6  O   UNL     1      -8.274   7.073  71.550  1.00  0.00    -0.107 OA 
HETATM    7  C   UNL     1      -7.257   6.629  72.446  1.00  0.00    -0.087 C  
HETATM    8  C   UNL     1      -5.907   6.560  71.675  1.00  0.00    -0.036 C  
HETATM    9  O   UNL     1      -7.102   7.156  68.860  1.00  0.00    -0.079 OA 
HETATM   10  H   UNL     1      -6.340   7.057  68.302  1.00  0.00     0.000 HD 
HETATM   11  N   UNL     1      -5.486   7.919  71.220  1.00  0.00    -0.034 NA 
HETATM   12  C   UNL     1      -6.063   5.607  70.467  1.00  0.00    -0.026 C  
HETATM   13  H2  UNL     1      -5.444   8.580  71.996  1.00  0.00     0.000 HD 
HETATM   14  O   UNL     1      -6.093   4.238  70.891  1.00  0.00    -0.013 OA 
HETATM   15  C   UNL     1      -7.305   5.949  69.608  1.00  0.00    -0.075 C  
HETATM   16  H1  UNL     1      -4.601   7.874  70.714  1.00  0.00     0.000 HD 
HETATM   17  H   UNL     1      -6.189   3.652  70.149  1.00  0.00     0.000 HD 
BRANCH   7  18
HETATM   18  O   UNL     1      -7.109   7.531  73.546  1.00  0.00    -0.078 OA 
BRANCH  18  19
HETATM   19  C   UNL     1      -8.307   8.259  73.870  1.00  0.00    -0.194 C  
HETATM   20  O   UNL     1      -7.281  10.283  72.881  1.00  0.00     2.668 OA 
HETATM   21  C   UNL     1      -9.476   7.399  73.398  1.00  0.00    -0.227 C  
HETATM   22  C   UNL     1      -9.153   9.054  71.789  1.00  0.00    -0.057 C  
HETATM   23  H   UNL     1      -7.396  11.088  72.390  1.00  0.00     0.000 HD 
HETATM   24  O   UNL     1      -9.793   7.805  72.058  1.00  0.00    -0.162 OA 
HETATM   25  C   UNL     1      -8.490   9.547  73.085  1.00  0.00     3.217 C  
BRANCH  21  26
HETATM   26  C   UNL     1     -10.736   7.541  74.254  1.00  0.00     1.673 C  
HETATM   27  H   UNL     1     -12.636   8.009  73.986  1.00  0.00     0.000 HD 
HETATM   28  O   UNL     1     -11.854   7.921  73.455  1.00  0.00     0.257 OA 
ENDBRANCH  21  26
BRANCH  22  29
HETATM   29  O   UNL     1     -10.104  10.027  71.365  1.00  0.00     0.352 OA 
BRANCH  29  30
HETATM   30  C   UNL     1      -9.624  11.208  70.694  1.00  0.00     3.578 C  
HETATM   31  C   UNL     1      -8.084  11.250  70.719  1.00  0.00     4.485 C  
HETATM   32  O   UNL     1      -7.546   9.979  70.328  1.00  0.00    -0.170 OA 
HETATM   33  C   UNL     1      -7.559  12.342  69.780  1.00  0.00     1.188 C  
HETATM   34  C   UNL     1      -8.065  13.702  70.263  1.00  0.00     2.682 C  
HETATM   35  N   UNL     1      -6.085  12.329  69.722  1.00  0.00    -0.133 NA 
HETATM   36  H   UNL     1      -6.597  10.004  70.343  1.00  0.00     0.000 HD 
HETATM   37  H1  UNL     1      -5.736  13.056  69.098  1.00  0.00     0.000 HD 
HETATM   38  H2  UNL     1      -5.727  11.410  69.465  1.00  0.00     0.000 HD 
HETATM   39  C   UNL     1      -9.600  13.745  70.358  1.00  0.00     3.317 C  
HETATM   40  C   UNL     1     -10.233  12.555  71.172  1.00  0.00     7.845 C  
HETATM   41  N   UNL     1      -9.997  15.054  70.918  1.00  0.00     0.168 NA 
HETATM   42  H2  UNL     1      -9.614  15.838  70.391  1.00  0.00     0.000 HD 
HETATM   43  H1  UNL     1     -11.014  15.082  70.981  1.00  0.00     0.000 HD 
BRANCH  40  44
HETATM   44  O   UNL     1     -11.665  12.656  70.999  1.00  0.00     0.324 OA 
BRANCH  44  45
HETATM   45  C   UNL     1     -12.102  13.143  69.721  1.00  0.00    -0.270 C  
HETATM   46  O   UNL     1     -11.345  14.271  69.297  1.00  0.00    -0.257 OA 
HETATM   47  C   UNL     1      -9.978  14.007  68.983  1.00  0.00    -0.017 C  
HETATM   48  C   UNL     1      -9.893  12.989  67.843  1.00  0.00    -0.224 C  
HETATM   49  H1  UNL     1     -12.828  10.082  68.304  1.00  0.00     0.000 HD 
HETATM   50  H2  UNL     1     -13.793  11.043  69.281  1.00  0.00     0.000 HD 
HETATM   51  O   UNL     1      -8.544  12.660  67.506  1.00  0.00    -0.164 OA 
HETATM   52  C   UNL     1     -10.644  11.709  68.237  1.00  0.00    -0.205 C  
HETATM   53  H   UNL     1      -8.491  12.029  66.798  1.00  0.00     0.000 HD 
HETATM   54  O   UNL     1     -10.644  10.792  67.129  1.00  0.00    -0.227 OA 
HETATM   55  N   UNL     1     -12.835  10.811  69.017  1.00  0.00     0.276 NA 
HETATM   56  C   UNL     1     -12.091  12.035  68.638  1.00  0.00    -0.088 C  
HETATM   57  H   UNL     1     -11.109  10.000  67.373  1.00  0.00     0.000 HD 
BRANCH  47  58
HETATM   58  C   UNL     1      -9.336  15.346  68.593  1.00  0.00    -0.202 C  
HETATM   59  O   UNL     1      -8.005  15.137  68.113  1.00  0.00    -0.119 OA 
HETATM   60  H   UNL     1      -7.608  15.965  67.872  1.00  0.00     0.000 HD 
ENDBRANCH  47  58
ENDBRANCH  44  45
ENDBRANCH  40  44
ENDBRANCH  29  30
ENDBRANCH  22  29
ENDBRANCH  18  19
ENDBRANCH   7  18
ENDBRANCH   2   5
TORSDOF 9
ENDMDL
MODEL      360
REMARK 921   NORMALIZED FREE ENERGY PREDICTED BY IDOCK:   43.11 KCAL/MOL
REMARK 922        TOTAL FREE ENERGY PREDICTED BY IDOCK:   63.75 KCAL/MOL
REMARK 923 INTER-LIGAND FREE ENERGY PREDICTED BY IDOCK:   15.20 KCAL/MOL
REMARK 924 INTRA-LIGAND FREE ENERGY PREDICTED BY IDOCK:   48.55 KCAL/MOL
REMARK 927      BINDING AFFINITY PREDICTED BY RF-SCORE:    0.00 PKD
ROOT
HETATM    1  N   UNL     1     -11.698  11.842  68.819  1.00  0.00    -0.307 NA 
HETATM    2  C   UNL     1     -11.035  13.107  69.194  1.00  0.00    -0.145 C  
HETATM    3  H1  UNL     1     -11.002  11.105  68.707  1.00  0.00     0.000 HD 
HETATM    4  H2  UNL     1     -12.282  11.947  67.989  1.00  0.00     0.000 HD 
ENDROOT
BRANCH   2   5
HETATM    5  C   UNL     1     -12.085  14.218  69.363  1.00  0.00    -0.318 C  
HETATM    6  O   UNL     1     -11.954  15.100  68.233  1.00  0.00    -0.298 OA 
HETATM    7  C   UNL     1     -13.010  16.057  68.176  1.00  0.00     2.917 C  
HETATM    8  C   UNL     1     -12.874  17.023  69.388  1.00  0.00     5.136 C  
HETATM    9  O   UNL     1     -10.569  15.470  70.794  1.00  0.00    -0.372 OA 
HETATM   10  H   UNL     1     -10.470  15.960  71.602  1.00  0.00     0.000 HD 
HETATM   11  N   UNL     1     -11.607  17.808  69.303  1.00  0.00     1.402 NA 
HETATM   12  C   UNL     1     -12.918  16.200  70.697  1.00  0.00     0.947 C  
HETATM   13  H2  UNL     1     -11.529  18.304  68.415  1.00  0.00     0.000 HD 
HETATM   14  O   UNL     1     -14.249  15.749  70.979  1.00  0.00    -0.677 OA 
HETATM   15  C   UNL     1     -11.924  15.014  70.675  1.00  0.00    -0.318 C  
HETATM   16  H1  UNL     1     -11.518  18.441  70.098  1.00  0.00     0.000 HD 
HETATM   17  H   UNL     1     -14.276  15.244  71.783  1.00  0.00     0.000 HD 
BRANCH   7  18
HETATM   18  O   UNL     1     -12.945  16.825  66.971  1.00  0.00     4.419 OA 
BRANCH  18  19
HETATM   19  C   UNL     1     -12.533  16.069  65.817  1.00  0.00     2.187 C  
HETATM   20  O   UNL     1     -10.278  17.066  66.035  1.00  0.00    -0.346 OA 
HETATM   21  C   UNL     1     -13.020  14.639  66.042  1.00  0.00     0.511 C  
HETATM   22  C   UNL     1     -10.749  14.678  66.569  1.00  0.00    -0.312 C  
HETATM   23  H   UNL     1      -9.337  16.961  65.950  1.00  0.00     0.000 HD 
HETATM   24  O   UNL     1     -11.955  13.921  66.684  1.00  0.00    -0.396 OA 
HETATM   25  C   UNL     1     -11.029  15.902  65.682  1.00  0.00    -0.203 C  
BRANCH  21  26
HETATM   26  C   UNL     1     -13.390  13.901  64.755  1.00  0.00     0.833 C  
HETATM   27  H   UNL     1     -13.257  14.207  62.808  1.00  0.00     0.000 HD 
HETATM   28  O   UNL     1     -13.027  14.666  63.607  1.00  0.00    -0.383 OA 
ENDBRANCH  21  26
BRANCH  22  29
HETATM   29  O   UNL     1      -9.721  13.901  65.963  1.00  0.00    -0.293 OA 
BRANCH  29  30
HETATM   30  C   UNL     1      -9.572  12.526  66.366  1.00  0.00    -0.247 C  
HETATM   31  C   UNL     1     -10.947  11.831  66.414  1.00  0.00    -0.294 C  
HETATM   32  O   UNL     1     -11.690  12.115  65.221  1.00  0.00    -0.350 OA 
HETATM   33  C   UNL     1     -10.778  10.315  66.569  1.00  0.00    -0.078 C  
HETATM   34  C   UNL     1     -10.066  10.022  67.890  1.00  0.00    -0.203 C  
HETATM   35  N   UNL     1     -12.084   9.629  66.521  1.00  0.00     3.869 NA 
HETATM   36  H   UNL     1     -12.537  11.686  65.251  1.00  0.00     0.000 HD 
HETATM   37  H1  UNL     1     -11.972   8.620  66.625  1.00  0.00     0.000 HD 
HETATM   38  H2  UNL     1     -12.601   9.864  65.675  1.00  0.00     0.000 HD 
HETATM   39  C   UNL     1      -8.710  10.741  67.985  1.00  0.00    -0.132 C  
HETATM   40  C   UNL     1      -8.770  12.284  67.674  1.00  0.00    -0.175 C  
HETATM   41  N   UNL     1      -8.136  10.483  69.322  1.00  0.00    -0.192 NA 
HETATM   42  H2  UNL     1      -8.068   9.487  69.534  1.00  0.00     0.000 HD 
HETATM   43  H1  UNL     1      -7.237  10.960  69.385  1.00  0.00     0.000 HD 
BRANCH  40  44
HETATM   44  O   UNL     1      -7.400  12.747  67.628  1.00  0.00    -0.117 OA 
BRANCH  44  45
HETATM   45  C   UNL     1      -6.402  11.719  67.544  1.00  0.00    -0.095 C  
HETATM   46  O   UNL     1      -5.851  11.412  68.819  1.00  0.00    -0.043 OA 
HETATM   47  C   UNL     1      -6.744  10.784  69.737  1.00  0.00    -0.139 C  
HETATM   48  C   UNL     1      -7.235   9.455  69.158  1.00  0.00    -0.066 C  
HETATM   49  H1  UNL     1      -7.908   9.838  65.075  1.00  0.00     0.000 HD 
HETATM   50  H2  UNL     1      -6.907  11.173  64.915  1.00  0.00     0.000 HD 
HETATM   51  O   UNL     1      -8.162   8.793  70.022  1.00  0.00    -0.108 OA 
HETATM   52  C   UNL     1      -7.898   9.698  67.796  1.00  0.00    -0.094 C  
HETATM   53  H   UNL     1      -8.466   7.968  69.663  1.00  0.00     0.000 HD 
HETATM   54  O   UNL     1      -8.273   8.439  67.211  1.00  0.00    -0.111 OA 
HETATM   55  N   UNL     1      -7.556  10.680  65.530  1.00  0.00    -0.116 NA 
HETATM   56  C   UNL     1      -6.937  10.440  66.853  1.00  0.00    -0.093 C  
HETATM   57  H   UNL     1      -8.683   8.590  66.367  1.00  0.00     0.000 HD 
BRANCH  47  58
HETATM   58  C   UNL     1      -5.975  10.578  71.050  1.00  0.00     0.042 C  
HETATM   59  O   UNL     1      -5.412   9.264  71.094  1.00  0.00    -0.037 OA 
HETATM   60  H   UNL     1      -4.936   9.137  71.906  1.00  0.00     0.000 HD 
ENDBRANCH  47  58
ENDBRANCH  44  45
ENDBRANCH  40  44
ENDBRANCH  29  30
ENDBRANCH  22  29
ENDBRANCH  18  19
ENDBRANCH   7  18
ENDBRANCH   2   5
TORSDOF 9
ENDMDL
MODEL      361
REMARK 921   NORMALIZED FREE ENERGY PREDICTED BY IDOCK:   46.79 KCAL/MOL
REMARK 922        TOTAL FREE ENERGY PREDICTED BY IDOCK:   69.37 KCAL/MOL
REMARK 923 INTER-LIGAND FREE ENERGY PREDICTED BY IDOCK:   53.48 KCAL/MOL
REMARK 924 INTRA-LIGAND FREE ENERGY PREDICTED BY IDOCK:   15.89 KCAL/MOL
REMARK 927      BINDING AFFINITY PREDICTED BY RF-SCORE:    0.00 PKD
ROOT
HETATM    1  N   UNL     1     -10.372   8.155  71.686  1.00  0.00    -0.212 NA 
HETATM    2  C   UNL     1     -10.992   9.493  71.767  1.00  0.00    -0.086 C  
HETATM    3  H1  UNL     1     -10.996   7.459  72.094  1.00  0.00     0.000 HD 
HETATM    4  H2  UNL     1      -9.445   8.136  72.111  1.00  0.00     0.000 HD 
ENDROOT
BRANCH   2   5
HETATM    5  C   UNL     1     -10.052  10.543  71.151  1.00  0.00     2.296 C  
HETATM    6  O   UNL     1      -9.610  10.023  69.883  1.00  0.00    -0.226 OA 
HETATM    7  C   UNL     1      -8.892  10.996  69.127  1.00  0.00     0.012 C  
HETATM    8  C   UNL     1      -7.555  11.311  69.859  1.00  0.00     0.642 C  
HETATM    9  O   UNL     1      -8.179   9.649  72.419  1.00  0.00     0.936 OA 
HETATM   10  H   UNL     1      -7.430   9.850  72.967  1.00  0.00     0.000 HD 
HETATM   11  N   UNL     1      -6.679  10.103  69.907  1.00  0.00    -0.093 NA 
HETATM   12  C   UNL     1      -7.868  11.813  71.287  1.00  0.00     8.255 C  
HETATM   13  H2  UNL     1      -6.518   9.716  68.977  1.00  0.00     0.000 HD 
HETATM   14  O   UNL     1      -8.375  13.154  71.263  1.00  0.00     7.369 OA 
HETATM   15  C   UNL     1      -8.834  10.868  72.042  1.00  0.00    10.978 C  
HETATM   16  H1  UNL     1      -5.803  10.309  70.387  1.00  0.00     0.000 HD 
HETATM   17  H   UNL     1      -8.567  13.463  72.141  1.00  0.00     0.000 HD 
BRANCH   7  18
HETATM   18  O   UNL     1      -8.591  10.510  67.816  1.00  0.00    -0.118 OA 
BRANCH  18  19
HETATM   19  C   UNL     1      -9.746  10.083  67.071  1.00  0.00    -0.181 C  
HETATM   20  O   UNL     1     -11.077  10.225  69.153  1.00  0.00    -0.224 OA 
HETATM   21  C   UNL     1      -9.779  10.933  65.803  1.00  0.00    -0.224 C  
HETATM   22  C   UNL     1     -11.330  11.851  67.281  1.00  0.00    -0.329 C  
HETATM   23  H   UNL     1     -11.908  10.426  69.567  1.00  0.00     0.000 HD 
HETATM   24  O   UNL     1     -10.592  12.084  66.080  1.00  0.00    -0.247 OA 
HETATM   25  C   UNL     1     -11.075  10.404  67.734  1.00  0.00    -0.299 C  
BRANCH  21  26
HETATM   26  C   UNL     1     -10.366  10.212  64.588  1.00  0.00     0.197 C  
HETATM   27  H   UNL     1      -9.708   9.097  63.096  1.00  0.00     0.000 HD 
HETATM   28  O   UNL     1      -9.344   9.545  63.850  1.00  0.00    -0.155 OA 
ENDBRANCH  21  26
BRANCH  22  29
HETATM   29  O   UNL     1     -12.727  12.017  67.056  1.00  0.00     0.819 OA 
BRANCH  29  30
HETATM   30  C   UNL     1     -13.157  13.042  66.138  1.00  0.00     1.287 C  
HETATM   31  C   UNL     1     -12.573  12.784  64.736  1.00  0.00    -0.446 C  
HETATM   32  O   UNL     1     -12.762  11.412  64.362  1.00  0.00     0.212 OA 
HETATM   33  C   UNL     1     -13.237  13.697  63.699  1.00  0.00     1.779 C  
HETATM   34  C   UNL     1     -12.949  15.155  64.058  1.00  0.00     1.095 C  
HETATM   35  N   UNL     1     -12.755  13.394  62.338  1.00  0.00     0.259 NA 
HETATM   36  H   UNL     1     -12.402  11.253  63.498  1.00  0.00     0.000 HD 
HETATM   37  H1  UNL     1     -13.196  14.001  61.648  1.00  0.00     0.000 HD 
HETATM   38  H2  UNL     1     -12.880  12.409  62.106  1.00  0.00     0.000 HD 
HETATM   39  C   UNL     1     -13.419  15.502  65.482  1.00  0.00     2.600 C  
HETATM   40  C   UNL     1     -12.911  14.507  66.592  1.00  0.00     0.782 C  
HETATM   41  N   UNL     1     -13.018  16.893  65.780  1.00  0.00     6.152 NA 
HETATM   42  H2  UNL     1     -13.357  17.556  65.083  1.00  0.00     0.000 HD 
HETATM   43  H1  UNL     1     -13.330  17.122  66.723  1.00  0.00     0.000 HD 
BRANCH  40  44
HETATM   44  O   UNL     1     -13.592  14.875  67.814  1.00  0.00     3.905 OA 
BRANCH  44  45
HETATM   45  C   UNL     1     -12.933  15.865  68.616  1.00  0.00     2.132 C  
HETATM   46  O   UNL     1     -12.471  15.326  69.849  1.00  0.00    -0.309 OA 
HETATM   47  C   UNL     1     -11.409  14.379  69.743  1.00  0.00    -0.237 C  
HETATM   48  C   UNL     1     -10.192  15.034  69.086  1.00  0.00    -0.241 C  
HETATM   49  H1  UNL     1     -11.412  17.584  66.039  1.00  0.00     0.000 HD 
HETATM   50  H2  UNL     1     -12.964  17.760  66.648  1.00  0.00     0.000 HD 
HETATM   51  O   UNL     1      -9.104  14.121  68.923  1.00  0.00    -0.354 OA 
HETATM   52  C   UNL     1     -10.587  15.601  67.716  1.00  0.00    -0.281 C  
HETATM   53  H   UNL     1      -8.348  14.528  68.516  1.00  0.00     0.000 HD 
HETATM   54  O   UNL     1      -9.467  16.299  67.143  1.00  0.00    -0.219 OA 
HETATM   55  N   UNL     1     -12.172  17.125  66.542  1.00  0.00     3.344 NA 
HETATM   56  C   UNL     1     -11.778  16.562  67.853  1.00  0.00     0.389 C  
HETATM   57  H   UNL     1      -9.712  16.650  66.295  1.00  0.00     0.000 HD 
BRANCH  47  58
HETATM   58  C   UNL     1     -11.091  13.894  71.165  1.00  0.00     1.631 C  
HETATM   59  O   UNL     1     -10.178  14.791  71.802  1.00  0.00     0.890 OA 
HETATM   60  H   UNL     1      -9.981  14.491  72.681  1.00  0.00     0.000 HD 
ENDBRANCH  47  58
ENDBRANCH  44  45
ENDBRANCH  40  44
ENDBRANCH  29  30
ENDBRANCH  22  29
ENDBRANCH  18  19
ENDBRANCH   7  18
ENDBRANCH   2   5
TORSDOF 9
ENDMDL
MODEL      362
REMARK 921   NORMALIZED FREE ENERGY PREDICTED BY IDOCK:   47.51 KCAL/MOL
REMARK 922        TOTAL FREE ENERGY PREDICTED BY IDOCK:   70.46 KCAL/MOL
REMARK 923 INTER-LIGAND FREE ENERGY PREDICTED BY IDOCK:   51.61 KCAL/MOL
REMARK 924 INTRA-LIGAND FREE ENERGY PREDICTED BY IDOCK:   18.86 KCAL/MOL
REMARK 927      BINDING AFFINITY PREDICTED BY RF-SCORE:    0.00 PKD
ROOT
HETATM    1  N   UNL     1      -9.125   5.831  68.276  1.00  0.00    -0.117 NA 
HETATM    2  C   UNL     1      -9.459   4.732  69.205  1.00  0.00    -0.149 C  
HETATM    3  H1  UNL     1      -9.108   5.482  67.318  1.00  0.00     0.000 HD 
HETATM    4  H2  UNL     1      -8.253   6.296  68.531  1.00  0.00     0.000 HD 
ENDROOT
BRANCH   2   5
HETATM    5  C   UNL     1      -9.485   5.258  70.649  1.00  0.00    -0.168 C  
HETATM    6  O   UNL     1      -9.812   6.658  70.585  1.00  0.00    -0.182 OA 
HETATM    7  C   UNL     1     -10.063   7.211  71.875  1.00  0.00    -0.182 C  
HETATM    8  C   UNL     1      -8.736   7.201  72.689  1.00  0.00    -0.118 C  
HETATM    9  O   UNL     1      -7.077   5.593  70.600  1.00  0.00    -0.062 OA 
HETATM   10  H   UNL     1      -6.253   5.473  71.058  1.00  0.00     0.000 HD 
HETATM   11  N   UNL     1      -7.718   8.090  72.056  1.00  0.00    -0.095 NA 
HETATM   12  C   UNL     1      -8.210   5.749  72.779  1.00  0.00    -0.112 C  
HETATM   13  H2  UNL     1      -8.073   9.037  71.925  1.00  0.00     0.000 HD 
HETATM   14  O   UNL     1      -8.988   4.975  73.702  1.00  0.00    -0.118 OA 
HETATM   15  C   UNL     1      -8.147   5.063  71.394  1.00  0.00    -0.112 C  
HETATM   16  H1  UNL     1      -6.848   8.083  72.589  1.00  0.00     0.000 HD 
HETATM   17  H   UNL     1      -8.664   4.083  73.757  1.00  0.00     0.000 HD 
BRANCH   7  18
HETATM   18  O   UNL     1     -10.528   8.559  71.778  1.00  0.00    -0.248 OA 
BRANCH  18  19
HETATM   19  C   UNL     1     -10.866   8.966  70.439  1.00  0.00    -0.236 C  
HETATM   20  O   UNL     1      -8.484   9.527  70.064  1.00  0.00    -0.157 OA 
HETATM   21  C   UNL     1     -11.735   7.853  69.857  1.00  0.00     0.374 C  
HETATM   22  C   UNL     1      -9.586   7.560  69.003  1.00  0.00    -0.153 C  
HETATM   23  H   UNL     1      -7.747   9.558  69.466  1.00  0.00     0.000 HD 
HETATM   24  O   UNL     1     -10.861   6.939  69.178  1.00  0.00    -0.233 OA 
HETATM   25  C   UNL     1      -9.687   9.017  69.482  1.00  0.00    -0.170 C  
BRANCH  21  26
HETATM   26  C   UNL     1     -12.785   8.345  68.859  1.00  0.00     5.620 C  
HETATM   27  H   UNL     1     -14.492   9.336  68.909  1.00  0.00     0.000 HD 
HETATM   28  O   UNL     1     -13.841   9.031  69.528  1.00  0.00     3.270 OA 
ENDBRANCH  21  26
BRANCH  22  29
HETATM   29  O   UNL     1      -9.208   7.558  67.629  1.00  0.00    -0.128 OA 
BRANCH  29  30
HETATM   30  C   UNL     1     -10.102   8.157  66.671  1.00  0.00    -0.273 C  
HETATM   31  C   UNL     1     -10.232   7.258  65.426  1.00  0.00     2.523 C  
HETATM   32  O   UNL     1     -10.465   5.898  65.817  1.00  0.00    -0.305 OA 
HETATM   33  C   UNL     1     -11.378   7.741  64.530  1.00  0.00    14.366 C  
HETATM   34  C   UNL     1     -11.072   9.159  64.046  1.00  0.00     8.717 C  
HETATM   35  N   UNL     1     -11.575   6.834  63.384  1.00  0.00    13.744 NA 
HETATM   36  H   UNL     1     -10.546   5.344  65.050  1.00  0.00     0.000 HD 
HETATM   37  H1  UNL     1     -12.337   7.155  62.788  1.00  0.00     0.000 HD 
HETATM   38  H2  UNL     1     -11.716   5.870  63.687  1.00  0.00     0.000 HD 
HETATM   39  C   UNL     1     -10.838  10.130  65.216  1.00  0.00     0.703 C  
HETATM   40  C   UNL     1      -9.788   9.626  66.276  1.00  0.00    -0.256 C  
HETATM   41  N   UNL     1     -10.457  11.446  64.662  1.00  0.00    -0.296 NA 
HETATM   42  H2  UNL     1     -11.137  11.799  63.989  1.00  0.00     0.000 HD 
HETATM   43  H1  UNL     1     -10.302  12.089  65.438  1.00  0.00     0.000 HD 
BRANCH  40  44
HETATM   44  O   UNL     1      -9.836  10.563  67.377  1.00  0.00    -0.167 OA 
BRANCH  44  45
HETATM   45  C   UNL     1      -8.668  11.378  67.549  1.00  0.00    -0.140 C  
HETATM   46  O   UNL     1      -7.527  10.807  66.919  1.00  0.00    -0.107 OA 
HETATM   47  C   UNL     1      -7.569  10.771  65.494  1.00  0.00    -0.005 C  
HETATM   48  C   UNL     1      -7.689  12.194  64.941  1.00  0.00     3.312 C  
HETATM   49  H1  UNL     1     -10.232  14.446  67.336  1.00  0.00     0.000 HD 
HETATM   50  H2  UNL     1     -10.044  13.453  68.673  1.00  0.00     0.000 HD 
HETATM   51  O   UNL     1      -7.769  12.219  63.514  1.00  0.00     2.481 OA 
HETATM   52  C   UNL     1      -8.933  12.873  65.530  1.00  0.00     0.809 C  
HETATM   53  H   UNL     1      -7.843  13.102  63.171  1.00  0.00     0.000 HD 
HETATM   54  O   UNL     1      -8.991  14.240  65.085  1.00  0.00     0.584 OA 
HETATM   55  N   UNL     1     -10.083  13.489  67.654  1.00  0.00    -0.226 NA 
HETATM   56  C   UNL     1      -8.893  12.833  67.066  1.00  0.00    -0.213 C  
HETATM   57  H   UNL     1      -9.761  14.660  65.449  1.00  0.00     0.000 HD 
BRANCH  47  58
HETATM   58  C   UNL     1      -6.279  10.088  65.019  1.00  0.00    -0.115 C  
HETATM   59  O   UNL     1      -5.975   8.968  65.854  1.00  0.00    -0.050 OA 
HETATM   60  H   UNL     1      -5.177   8.545  65.561  1.00  0.00     0.000 HD 
ENDBRANCH  47  58
ENDBRANCH  44  45
ENDBRANCH  40  44
ENDBRANCH  29  30
ENDBRANCH  22  29
ENDBRANCH  18  19
ENDBRANCH   7  18
ENDBRANCH   2   5
TORSDOF 9
ENDMDL
MODEL      363
REMARK 921   NORMALIZED FREE ENERGY PREDICTED BY IDOCK:   48.91 KCAL/MOL
REMARK 922        TOTAL FREE ENERGY PREDICTED BY IDOCK:   72.60 KCAL/MOL
REMARK 923 INTER-LIGAND FREE ENERGY PREDICTED BY IDOCK:   56.10 KCAL/MOL
REMARK 924 INTRA-LIGAND FREE ENERGY PREDICTED BY IDOCK:   16.50 KCAL/MOL
REMARK 927      BINDING AFFINITY PREDICTED BY RF-SCORE:    0.00 PKD
ROOT
HETATM    1  N   UNL     1      -6.635  15.320  67.540  1.00  0.00    -0.215 NA 
HETATM    2  C   UNL     1      -6.617  15.525  69.002  1.00  0.00    -0.123 C  
HETATM    3  H1  UNL     1      -6.657  16.221  67.064  1.00  0.00     0.000 HD 
HETATM    4  H2  UNL     1      -7.402  14.713  67.247  1.00  0.00     0.000 HD 
ENDROOT
BRANCH   2   5
HETATM    5  C   UNL     1      -6.583  14.165  69.720  1.00  0.00    -0.104 C  
HETATM    6  O   UNL     1      -7.944  13.706  69.822  1.00  0.00     0.770 OA 
HETATM    7  C   UNL     1      -8.023  12.362  70.290  1.00  0.00     3.721 C  
HETATM    8  C   UNL     1      -7.529  12.317  71.766  1.00  0.00     9.776 C  
HETATM    9  O   UNL     1      -6.565  15.277  71.883  1.00  0.00     1.344 OA 
HETATM   10  H   UNL     1      -6.170  15.318  72.746  1.00  0.00     0.000 HD 
HETATM   11  N   UNL     1      -8.431  13.111  72.651  1.00  0.00    14.341 NA 
HETATM   12  C   UNL     1      -6.084  12.863  71.832  1.00  0.00     1.690 C  
HETATM   13  H2  UNL     1      -9.402  12.809  72.569  1.00  0.00     0.000 HD 
HETATM   14  O   UNL     1      -5.148  11.913  71.305  1.00  0.00    -0.129 OA 
HETATM   15  C   UNL     1      -5.943  14.231  71.123  1.00  0.00    -0.156 C  
HETATM   16  H1  UNL     1      -8.108  13.082  73.618  1.00  0.00     0.000 HD 
HETATM   17  H   UNL     1      -4.261  12.248  71.346  1.00  0.00     0.000 HD 
BRANCH   7  18
HETATM   18  O   UNL     1      -9.367  11.877  70.244  1.00  0.00     2.890 OA 
BRANCH  18  19
HETATM   19  C   UNL     1     -10.347  12.895  69.971  1.00  0.00     1.845 C  
HETATM   20  O   UNL     1      -9.448  14.197  71.875  1.00  0.00     4.998 OA 
HETATM   21  C   UNL     1     -10.291  13.155  68.467  1.00  0.00    -0.238 C  
HETATM   22  C   UNL     1      -9.099  14.871  69.501  1.00  0.00     0.026 C  
HETATM   23  H   UNL     1      -9.244  15.047  72.246  1.00  0.00     0.000 HD 
HETATM   24  O   UNL     1      -9.362  14.228  68.252  1.00  0.00    -0.196 OA 
HETATM   25  C   UNL     1     -10.021  14.255  70.566  1.00  0.00     1.859 C  
BRANCH  21  26
HETATM   26  C   UNL     1     -11.636  13.554  67.857  1.00  0.00    -0.342 C  
HETATM   27  H   UNL     1     -12.868  12.873  66.472  1.00  0.00     0.000 HD 
HETATM   28  O   UNL     1     -12.034  12.626  66.850  1.00  0.00    -0.457 OA 
ENDBRANCH  21  26
BRANCH  22  29
HETATM   29  O   UNL     1      -9.371  16.267  69.417  1.00  0.00    -0.232 OA 
BRANCH  29  30
HETATM   30  C   UNL     1     -10.628  16.689  68.855  1.00  0.00    -0.337 C  
HETATM   31  C   UNL     1     -11.784  15.856  69.443  1.00  0.00    -0.343 C  
HETATM   32  O   UNL     1     -11.666  15.780  70.870  1.00  0.00    -0.337 OA 
HETATM   33  C   UNL     1     -13.137  16.471  69.068  1.00  0.00     3.559 C  
HETATM   34  C   UNL     1     -13.288  16.461  67.547  1.00  0.00     5.847 C  
HETATM   35  N   UNL     1     -14.248  15.737  69.704  1.00  0.00     2.009 NA 
HETATM   36  H   UNL     1     -12.378  15.267  71.232  1.00  0.00     0.000 HD 
HETATM   37  H1  UNL     1     -15.148  16.146  69.455  1.00  0.00     0.000 HD 
HETATM   38  H2  UNL     1     -14.129  15.678  70.715  1.00  0.00     0.000 HD 
HETATM   39  C   UNL     1     -12.133  17.199  66.848  1.00  0.00     2.912 C  
HETATM   40  C   UNL     1     -10.698  16.736  67.304  1.00  0.00    -0.213 C  
HETATM   41  N   UNL     1     -12.305  17.060  65.387  1.00  0.00     3.228 NA 
HETATM   42  H2  UNL     1     -13.222  17.375  65.069  1.00  0.00     0.000 HD 
HETATM   43  H1  UNL     1     -11.540  17.549  64.924  1.00  0.00     0.000 HD 
BRANCH  40  44
HETATM   44  O   UNL     1      -9.759  17.651  66.693  1.00  0.00    -0.276 OA 
BRANCH  44  45
HETATM   45  C   UNL     1      -9.835  19.011  67.146  1.00  0.00    -0.324 C  
HETATM   46  O   UNL     1      -8.880  19.283  68.165  1.00  0.00    -0.308 OA 
HETATM   47  C   UNL     1      -7.516  19.260  67.747  1.00  0.00    -0.257 C  
HETATM   48  C   UNL     1      -7.286  20.315  66.661  1.00  0.00    -0.274 C  
HETATM   49  H1  UNL     1     -10.554  20.456  64.096  1.00  0.00     0.000 HD 
HETATM   50  H2  UNL     1     -11.603  19.763  65.204  1.00  0.00     0.000 HD 
HETATM   51  O   UNL     1      -5.941  20.316  66.178  1.00  0.00    -0.170 OA 
HETATM   52  C   UNL     1      -8.245  20.065  65.489  1.00  0.00     0.256 C  
HETATM   53  H   UNL     1      -5.799  20.971  65.505  1.00  0.00     0.000 HD 
HETATM   54  O   UNL     1      -8.095  21.111  64.513  1.00  0.00     0.733 OA 
HETATM   55  N   UNL     1     -10.642  19.789  64.863  1.00  0.00     0.210 NA 
HETATM   56  C   UNL     1      -9.700  20.024  65.981  1.00  0.00    -0.362 C  
HETATM   57  H   UNL     1      -8.688  20.957  63.787  1.00  0.00     0.000 HD 
BRANCH  47  58
HETATM   58  C   UNL     1      -6.656  19.534  68.989  1.00  0.00    -0.320 C  
HETATM   59  O   UNL     1      -5.349  19.965  68.603  1.00  0.00    -0.199 OA 
HETATM   60  H   UNL     1      -4.817  20.134  69.371  1.00  0.00     0.000 HD 
ENDBRANCH  47  58
ENDBRANCH  44  45
ENDBRANCH  40  44
ENDBRANCH  29  30
ENDBRANCH  22  29
ENDBRANCH  18  19
ENDBRANCH   7  18
ENDBRANCH   2   5
TORSDOF 9
ENDMDL
MODEL      364
REMARK 921   NORMALIZED FREE ENERGY PREDICTED BY IDOCK:   53.35 KCAL/MOL
REMARK 922        TOTAL FREE ENERGY PREDICTED BY IDOCK:   79.37 KCAL/MOL
REMARK 923 INTER-LIGAND FREE ENERGY PREDICTED BY IDOCK:   38.59 KCAL/MOL
REMARK 924 INTRA-LIGAND FREE ENERGY PREDICTED BY IDOCK:   40.78 KCAL/MOL
REMARK 927      BINDING AFFINITY PREDICTED BY RF-SCORE:    0.00 PKD
ROOT
HETATM    1  N   UNL     1     -12.628   9.556  62.768  1.00  0.00     9.491 NA 
HETATM    2  C   UNL     1     -12.826  10.585  63.808  1.00  0.00     5.475 C  
HETATM    3  H1  UNL     1     -13.437   9.531  62.147  1.00  0.00     0.000 HD 
HETATM    4  H2  UNL     1     -12.424   8.640  63.169  1.00  0.00     0.000 HD 
ENDROOT
BRANCH   2   5
HETATM    5  C   UNL     1     -11.607  10.623  64.745  1.00  0.00     1.689 C  
HETATM    6  O   UNL     1     -12.109  10.738  66.089  1.00  0.00     1.203 OA 
HETATM    7  C   UNL     1     -11.078  10.581  67.062  1.00  0.00    -0.110 C  
HETATM    8  C   UNL     1     -10.099  11.786  66.952  1.00  0.00    -0.207 C  
HETATM    9  O   UNL     1     -11.376  13.018  64.392  1.00  0.00    -0.326 OA 
HETATM   10  H   UNL     1     -10.782  13.735  64.204  1.00  0.00     0.000 HD 
HETATM   11  N   UNL     1     -10.790  13.064  67.293  1.00  0.00    -0.250 NA 
HETATM   12  C   UNL     1      -9.528  11.843  65.515  1.00  0.00    -0.138 C  
HETATM   13  H2  UNL     1     -11.232  13.020  68.211  1.00  0.00     0.000 HD 
HETATM   14  O   UNL     1      -8.558  10.809  65.304  1.00  0.00    -0.183 OA 
HETATM   15  C   UNL     1     -10.641  11.788  64.441  1.00  0.00    -0.317 C  
HETATM   16  H1  UNL     1     -10.149  13.854  67.221  1.00  0.00     0.000 HD 
HETATM   17  H   UNL     1      -8.207  10.844  64.422  1.00  0.00     0.000 HD 
BRANCH   7  18
HETATM   18  O   UNL     1     -11.618  10.550  68.386  1.00  0.00    -0.321 OA 
BRANCH  18  19
HETATM   19  C   UNL     1     -11.914  11.851  68.926  1.00  0.00    -0.254 C  
HETATM   20  O   UNL     1     -11.474  10.952  71.191  1.00  0.00    -0.207 OA 
HETATM   21  C   UNL     1     -11.135  12.856  68.081  1.00  0.00    -0.253 C  
HETATM   22  C   UNL     1      -9.929  12.541  70.051  1.00  0.00     2.589 C  
HETATM   23  H   UNL     1     -11.135  11.100  72.066  1.00  0.00     0.000 HD 
HETATM   24  O   UNL     1      -9.867  13.063  68.723  1.00  0.00    -0.119 OA 
HETATM   25  C   UNL     1     -11.371  12.086  70.326  1.00  0.00     0.310 C  
BRANCH  21  26
HETATM   26  C   UNL     1     -11.828  14.212  67.936  1.00  0.00    -0.370 C  
HETATM   27  H   UNL     1     -12.178  15.526  66.504  1.00  0.00     0.000 HD 
HETATM   28  O   UNL     1     -11.747  14.684  66.593  1.00  0.00    -0.372 OA 
ENDBRANCH  21  26
BRANCH  22  29
HETATM   29  O   UNL     1      -9.577  13.540  71.003  1.00  0.00     5.644 OA 
BRANCH  29  30
HETATM   30  C   UNL     1     -10.633  14.287  71.638  1.00  0.00     2.953 C  
HETATM   31  C   UNL     1     -11.942  13.473  71.630  1.00  0.00     0.657 C  
HETATM   32  O   UNL     1     -11.696  12.131  72.071  1.00  0.00     1.607 OA 
HETATM   33  C   UNL     1     -12.990  14.130  72.535  1.00  0.00    -0.408 C  
HETATM   34  C   UNL     1     -13.311  15.525  71.999  1.00  0.00    -0.566 C  
HETATM   35  N   UNL     1     -14.215  13.311  72.611  1.00  0.00    -0.656 NA 
HETATM   36  H   UNL     1     -12.503  11.629  72.067  1.00  0.00     0.000 HD 
HETATM   37  H1  UNL     1     -14.912  13.748  73.213  1.00  0.00     0.000 HD 
HETATM   38  H2  UNL     1     -14.010  12.356  72.905  1.00  0.00     0.000 HD 
HETATM   39  C   UNL     1     -12.052  16.402  71.885  1.00  0.00    -0.244 C  
HETATM   40  C   UNL     1     -10.861  15.728  71.106  1.00  0.00     0.015 C  
HETATM   41  N   UNL     1     -12.435  17.692  71.273  1.00  0.00     5.783 NA 
HETATM   42  H2  UNL     1     -13.191  18.155  71.777  1.00  0.00     0.000 HD 
HETATM   43  H1  UNL     1     -11.600  18.273  71.198  1.00  0.00     0.000 HD 
BRANCH  40  44
HETATM   44  O   UNL     1      -9.722  16.606  71.258  1.00  0.00     3.312 OA 
BRANCH  44  45
HETATM   45  C   UNL     1      -9.513  17.541  70.190  1.00  0.00     1.927 C  
HETATM   46  O   UNL     1      -8.200  17.443  69.649  1.00  0.00     0.452 OA 
HETATM   47  C   UNL     1      -7.915  16.232  68.950  1.00  0.00    -0.230 C  
HETATM   48  C   UNL     1      -8.872  16.080  67.764  1.00  0.00    -0.176 C  
HETATM   49  H1  UNL     1     -12.678  17.370  68.825  1.00  0.00     0.000 HD 
HETATM   50  H2  UNL     1     -12.131  18.316  70.096  1.00  0.00     0.000 HD 
HETATM   51  O   UNL     1      -8.655  14.865  67.042  1.00  0.00    -0.212 OA 
HETATM   52  C   UNL     1     -10.323  16.120  68.263  1.00  0.00    -0.266 C  
HETATM   53  H   UNL     1      -9.248  14.771  66.307  1.00  0.00     0.000 HD 
HETATM   54  O   UNL     1     -11.219  16.073  67.139  1.00  0.00    -0.171 OA 
HETATM   55  N   UNL     1     -11.976  17.462  69.560  1.00  0.00     2.342 NA 
HETATM   56  C   UNL     1     -10.579  17.401  69.074  1.00  0.00    -0.207 C  
HETATM   57  H   UNL     1     -12.117  16.098  67.448  1.00  0.00     0.000 HD 
BRANCH  47  58
HETATM   58  C   UNL     1      -6.453  16.309  68.489  1.00  0.00    -0.129 C  
HETATM   59  O   UNL     1      -5.661  16.993  69.463  1.00  0.00    -0.168 OA 
HETATM   60  H   UNL     1      -4.756  17.041  69.178  1.00  0.00     0.000 HD 
ENDBRANCH  47  58
ENDBRANCH  44  45
ENDBRANCH  40  44
ENDBRANCH  29  30
ENDBRANCH  22  29
ENDBRANCH  18  19
ENDBRANCH   7  18
ENDBRANCH   2   5
TORSDOF 9
ENDMDL
MODEL      365
REMARK 921   NORMALIZED FREE ENERGY PREDICTED BY IDOCK:   58.04 KCAL/MOL
REMARK 922        TOTAL FREE ENERGY PREDICTED BY IDOCK:   86.53 KCAL/MOL
REMARK 923 INTER-LIGAND FREE ENERGY PREDICTED BY IDOCK:   84.80 KCAL/MOL
REMARK 924 INTRA-LIGAND FREE ENERGY PREDICTED BY IDOCK:    1.74 KCAL/MOL
REMARK 927      BINDING AFFINITY PREDICTED BY RF-SCORE:    0.00 PKD
ROOT
HETATM    1  N   UNL     1     -13.990   9.735  65.839  1.00  0.00    19.211 NA 
HETATM    2  C   UNL     1     -13.291   9.096  64.706  1.00  0.00    21.308 C  
HETATM    3  H1  UNL     1     -14.823   9.199  66.080  1.00  0.00     0.000 HD 
HETATM    4  H2  UNL     1     -14.206  10.715  65.652  1.00  0.00     0.000 HD 
ENDROOT
BRANCH   2   5
HETATM    5  C   UNL     1     -12.034   9.905  64.343  1.00  0.00     7.787 C  
HETATM    6  O   UNL     1     -11.866  10.906  65.364  1.00  0.00     0.593 OA 
HETATM    7  C   UNL     1     -10.620  11.589  65.244  1.00  0.00    -0.283 C  
HETATM    8  C   UNL     1     -10.634  12.428  63.933  1.00  0.00    -0.437 C  
HETATM    9  O   UNL     1     -13.341  11.322  62.861  1.00  0.00    -0.225 OA 
HETATM   10  H   UNL     1     -13.394  11.734  62.007  1.00  0.00     0.000 HD 
HETATM   11  N   UNL     1     -11.679  13.493  63.995  1.00  0.00    -0.543 NA 
HETATM   12  C   UNL     1     -10.889  11.486  62.734  1.00  0.00     0.422 C  
HETATM   13  H2  UNL     1     -11.568  14.083  64.820  1.00  0.00     0.000 HD 
HETATM   14  O   UNL     1      -9.723  10.708  62.431  1.00  0.00    -0.538 OA 
HETATM   15  C   UNL     1     -12.120  10.575  62.956  1.00  0.00     3.688 C  
HETATM   16  H1  UNL     1     -11.689  14.042  63.136  1.00  0.00     0.000 HD 
HETATM   17  H   UNL     1      -9.879  10.130  61.694  1.00  0.00     0.000 HD 
BRANCH   7  18
HETATM   18  O   UNL     1     -10.408  12.472  66.349  1.00  0.00    -0.237 OA 
BRANCH  18  19
HETATM   19  C   UNL     1      -9.021  12.686  66.668  1.00  0.00    -0.164 C  
HETATM   20  O   UNL     1      -8.820  14.078  64.631  1.00  0.00     1.877 OA 
HETATM   21  C   UNL     1      -8.973  13.066  68.147  1.00  0.00    -0.198 C  
HETATM   22  C   UNL     1      -8.782  15.043  66.928  1.00  0.00    -0.256 C  
HETATM   23  H   UNL     1      -8.430  14.831  64.204  1.00  0.00     0.000 HD 
HETATM   24  O   UNL     1      -9.038  14.498  68.224  1.00  0.00    -0.183 OA 
HETATM   25  C   UNL     1      -8.398  13.892  65.985  1.00  0.00     1.511 C  
BRANCH  21  26
HETATM   26  C   UNL     1      -7.704  12.603  68.865  1.00  0.00     0.094 C  
HETATM   27  H   UNL     1      -6.035  11.651  68.408  1.00  0.00     0.000 HD 
HETATM   28  O   UNL     1      -6.823  11.938  67.963  1.00  0.00    -0.064 OA 
ENDBRANCH  21  26
BRANCH  22  29
HETATM   29  O   UNL     1      -7.704  15.972  66.975  1.00  0.00    -0.183 OA 
BRANCH  29  30
HETATM   30  C   UNL     1      -7.917  17.240  67.627  1.00  0.00    -0.187 C  
HETATM   31  C   UNL     1      -6.722  18.179  67.373  1.00  0.00    -0.194 C  
HETATM   32  O   UNL     1      -6.374  18.178  65.981  1.00  0.00    -0.193 OA 
HETATM   33  C   UNL     1      -7.055  19.607  67.821  1.00  0.00    -0.256 C  
HETATM   34  C   UNL     1      -7.333  19.609  69.324  1.00  0.00    -0.294 C  
HETATM   35  N   UNL     1      -5.955  20.535  67.496  1.00  0.00    -0.203 NA 
HETATM   36  H   UNL     1      -5.638  18.757  65.825  1.00  0.00     0.000 HD 
HETATM   37  H1  UNL     1      -6.176  21.485  67.794  1.00  0.00     0.000 HD 
HETATM   38  H2  UNL     1      -5.712  20.499  66.507  1.00  0.00     0.000 HD 
HETATM   39  C   UNL     1      -8.461  18.634  69.703  1.00  0.00     0.778 C  
HETATM   40  C   UNL     1      -8.275  17.176  69.136  1.00  0.00    -0.010 C  
HETATM   41  N   UNL     1      -8.599  18.627  71.174  1.00  0.00     5.717 NA 
HETATM   42  H2  UNL     1      -8.742  19.561  71.558  1.00  0.00     0.000 HD 
HETATM   43  H1  UNL     1      -9.347  17.981  71.425  1.00  0.00     0.000 HD 
BRANCH  40  44
HETATM   44  O   UNL     1      -9.500  16.464  69.429  1.00  0.00    -0.222 OA 
BRANCH  44  45
HETATM   45  C   UNL     1     -10.142  16.817  70.663  1.00  0.00     1.680 C  
HETATM   46  O   UNL     1     -11.538  17.030  70.491  1.00  0.00     0.535 OA 
HETATM   47  C   UNL     1     -12.299  15.867  70.166  1.00  0.00    -0.163 C  
HETATM   48  C   UNL     1     -12.164  14.828  71.282  1.00  0.00    -0.333 C  
HETATM   49  H1  UNL     1      -8.270  14.789  72.734  1.00  0.00     0.000 HD 
HETATM   50  H2  UNL     1      -7.923  16.333  72.181  1.00  0.00     0.000 HD 
HETATM   51  O   UNL     1     -12.881  13.625  70.996  1.00  0.00    -0.323 OA 
HETATM   52  C   UNL     1     -10.682  14.496  71.502  1.00  0.00     1.600 C  
HETATM   53  H   UNL     1     -12.798  12.981  71.689  1.00  0.00     0.000 HD 
HETATM   54  O   UNL     1     -10.552  13.593  72.614  1.00  0.00     5.209 OA 
HETATM   55  N   UNL     1      -8.444  15.475  71.999  1.00  0.00     6.165 NA 
HETATM   56  C   UNL     1      -9.877  15.775  71.779  1.00  0.00     3.501 C  
HETATM   57  H   UNL     1      -9.635  13.387  72.750  1.00  0.00     0.000 HD 
BRANCH  47  58
HETATM   58  C   UNL     1     -13.756  16.315  69.984  1.00  0.00     3.682 C  
HETATM   59  O   UNL     1     -14.304  15.747  68.791  1.00  0.00     5.125 OA 
HETATM   60  H   UNL     1     -15.206  16.024  68.679  1.00  0.00     0.000 HD 
ENDBRANCH  47  58
ENDBRANCH  44  45
ENDBRANCH  40  44
ENDBRANCH  29  30
ENDBRANCH  22  29
ENDBRANCH  18  19
ENDBRANCH   7  18
ENDBRANCH   2   5
TORSDOF 9
ENDMDL
MODEL      366
REMARK 921   NORMALIZED FREE ENERGY PREDICTED BY IDOCK:   59.72 KCAL/MOL
REMARK 922        TOTAL FREE ENERGY PREDICTED BY IDOCK:   89.10 KCAL/MOL
REMARK 923 INTER-LIGAND FREE ENERGY PREDICTED BY IDOCK:   34.63 KCAL/MOL
REMARK 924 INTRA-LIGAND FREE ENERGY PREDICTED BY IDOCK:   54.47 KCAL/MOL
REMARK 927      BINDING AFFINITY PREDICTED BY RF-SCORE:    0.00 PKD
ROOT
HETATM    1  N   UNL     1      -7.213   9.606  74.023  1.00  0.00     0.795 NA 
HETATM    2  C   UNL     1      -8.355  10.234  73.330  1.00  0.00     8.609 C  
HETATM    3  H1  UNL     1      -6.418  10.244  74.030  1.00  0.00     0.000 HD 
HETATM    4  H2  UNL     1      -6.973   8.699  73.622  1.00  0.00     0.000 HD 
ENDROOT
BRANCH   2   5
HETATM    5  C   UNL     1      -9.555   9.272  73.320  1.00  0.00     3.082 C  
HETATM    6  O   UNL     1      -9.102   8.036  72.737  1.00  0.00    -0.187 OA 
HETATM    7  C   UNL     1     -10.072   6.999  72.858  1.00  0.00    -0.196 C  
HETATM    8  C   UNL     1     -11.306   7.364  71.982  1.00  0.00    -0.264 C  
HETATM    9  O   UNL     1     -10.339  10.227  71.226  1.00  0.00     0.154 OA 
HETATM   10  H   UNL     1     -11.084  10.561  70.741  1.00  0.00     0.000 HD 
HETATM   11  N   UNL     1     -10.936   7.411  70.536  1.00  0.00    -0.248 NA 
HETATM   12  C   UNL     1     -11.866   8.730  72.444  1.00  0.00    -0.286 C  
HETATM   13  H2  UNL     1     -10.501   6.540  70.230  1.00  0.00     0.000 HD 
HETATM   14  O   UNL     1     -12.565   8.606  73.690  1.00  0.00     0.506 OA 
HETATM   15  C   UNL     1     -10.766   9.814  72.531  1.00  0.00     2.750 C  
HETATM   16  H1  UNL     1     -11.745   7.651  69.963  1.00  0.00     0.000 HD 
HETATM   17  H   UNL     1     -12.909   9.445  73.973  1.00  0.00     0.000 HD 
BRANCH   7  18
HETATM   18  O   UNL     1      -9.548   5.747  72.407  1.00  0.00    -0.150 OA 
BRANCH  18  19
HETATM   19  C   UNL     1      -8.681   5.853  71.264  1.00  0.00    -0.132 C  
HETATM   20  O   UNL     1     -10.628   5.386  69.809  1.00  0.00    -0.309 OA 
HETATM   21  C   UNL     1      -7.862   7.127  71.461  1.00  0.00    -0.093 C  
HETATM   22  C   UNL     1      -9.567   7.636  69.954  1.00  0.00    -0.160 C  
HETATM   23  H   UNL     1     -11.079   5.546  68.988  1.00  0.00     0.000 HD 
HETATM   24  O   UNL     1      -8.570   8.195  70.812  1.00  0.00    -0.126 OA 
HETATM   25  C   UNL     1      -9.402   6.108  69.951  1.00  0.00    -0.149 C  
BRANCH  21  26
HETATM   26  C   UNL     1      -6.453   7.056  70.870  1.00  0.00    -0.044 C  
HETATM   27  H   UNL     1      -5.406   5.821  69.739  1.00  0.00     0.000 HD 
HETATM   28  O   UNL     1      -6.281   5.865  70.106  1.00  0.00    -0.025 OA 
ENDBRANCH  21  26
BRANCH  22  29
HETATM   29  O   UNL     1      -9.412   8.114  68.622  1.00  0.00    -0.146 OA 
BRANCH  29  30
HETATM   30  C   UNL     1      -8.168   7.857  67.941  1.00  0.00    -0.129 C  
HETATM   31  C   UNL     1      -7.225   7.035  68.842  1.00  0.00    -0.091 C  
HETATM   32  O   UNL     1      -7.929   5.926  69.418  1.00  0.00    -0.099 OA 
HETATM   33  C   UNL     1      -6.024   6.524  68.038  1.00  0.00    -0.020 C  
HETATM   34  C   UNL     1      -5.231   7.718  67.508  1.00  0.00    -0.031 C  
HETATM   35  N   UNL     1      -5.163   5.657  68.866  1.00  0.00     0.000 NA 
HETATM   36  H   UNL     1      -7.348   5.420  69.972  1.00  0.00     0.000 HD 
HETATM   37  H1  UNL     1      -4.364   5.316  68.332  1.00  0.00     0.000 HD 
HETATM   38  H2  UNL     1      -5.691   4.890  69.281  1.00  0.00     0.000 HD 
HETATM   39  C   UNL     1      -6.103   8.658  66.658  1.00  0.00    -0.057 C  
HETATM   40  C   UNL     1      -7.446   9.100  67.352  1.00  0.00    -0.084 C  
HETATM   41  N   UNL     1      -5.288   9.827  66.267  1.00  0.00    -0.043 NA 
HETATM   42  H2  UNL     1      -4.423   9.561  65.796  1.00  0.00     0.000 HD 
HETATM   43  H1  UNL     1      -5.867  10.449  65.704  1.00  0.00     0.000 HD 
BRANCH  40  44
HETATM   44  O   UNL     1      -8.209   9.814  66.352  1.00  0.00    -0.118 OA 
BRANCH  44  45
HETATM   45  C   UNL     1      -9.314  10.583  66.847  1.00  0.00    -0.159 C  
HETATM   46  O   UNL     1      -9.935  11.343  65.817  1.00  0.00    -0.211 OA 
HETATM   47  C   UNL     1     -10.617  10.582  64.821  1.00  0.00    -0.009 C  
HETATM   48  C   UNL     1     -11.734   9.760  65.469  1.00  0.00     4.897 C  
HETATM   49  H1  UNL     1     -10.467   8.276  69.140  1.00  0.00     0.000 HD 
HETATM   50  H2  UNL     1      -9.261   9.425  69.321  1.00  0.00     0.000 HD 
HETATM   51  O   UNL     1     -12.434   8.949  64.523  1.00  0.00    13.681 OA 
HETATM   52  C   UNL     1     -11.144   8.863  66.566  1.00  0.00     1.126 C  
HETATM   53  H   UNL     1     -13.127   8.440  64.925  1.00  0.00     0.000 HD 
HETATM   54  O   UNL     1     -12.206   8.163  67.238  1.00  0.00     3.689 OA 
HETATM   55  N   UNL     1      -9.782   8.855  68.655  1.00  0.00    -0.158 NA 
HETATM   56  C   UNL     1     -10.355   9.702  67.584  1.00  0.00    -0.237 C  
HETATM   57  H   UNL     1     -11.841   7.608  67.917  1.00  0.00     0.000 HD 
BRANCH  47  58
HETATM   58  C   UNL     1     -11.173  11.577  63.792  1.00  0.00    -0.370 C  
HETATM   59  O   UNL     1     -11.351  12.863  64.392  1.00  0.00    -0.325 OA 
HETATM   60  H   UNL     1     -11.694  13.478  63.756  1.00  0.00     0.000 HD 
ENDBRANCH  47  58
ENDBRANCH  44  45
ENDBRANCH  40  44
ENDBRANCH  29  30
ENDBRANCH  22  29
ENDBRANCH  18  19
ENDBRANCH   7  18
ENDBRANCH   2   5
TORSDOF 9
ENDMDL
MODEL      367
REMARK 921   NORMALIZED FREE ENERGY PREDICTED BY IDOCK:   62.13 KCAL/MOL
REMARK 922        TOTAL FREE ENERGY PREDICTED BY IDOCK:   92.77 KCAL/MOL
REMARK 923 INTER-LIGAND FREE ENERGY PREDICTED BY IDOCK:   22.46 KCAL/MOL
REMARK 924 INTRA-LIGAND FREE ENERGY PREDICTED BY IDOCK:   70.31 KCAL/MOL
REMARK 927      BINDING AFFINITY PREDICTED BY RF-SCORE:    0.00 PKD
ROOT
HETATM    1  N   UNL     1     -10.641   9.847  64.874  1.00  0.00     0.150 NA 
HETATM    2  C   UNL     1     -10.132   9.777  66.259  1.00  0.00    -0.243 C  
HETATM    3  H1  UNL     1     -10.291   9.055  64.335  1.00  0.00     0.000 HD 
HETATM    4  H2  UNL     1     -10.422  10.740  64.431  1.00  0.00     0.000 HD 
ENDROOT
BRANCH   2   5
HETATM    5  C   UNL     1     -10.660  10.971  67.071  1.00  0.00    -0.256 C  
HETATM    6  O   UNL     1      -9.711  12.042  66.916  1.00  0.00    -0.197 OA 
HETATM    7  C   UNL     1     -10.193  13.269  67.460  1.00  0.00    -0.222 C  
HETATM    8  C   UNL     1     -10.300  13.121  69.006  1.00  0.00     0.050 C  
HETATM    9  O   UNL     1      -9.650  10.076  69.094  1.00  0.00    -0.186 OA 
HETATM   10  H   UNL     1      -9.769   9.879  70.016  1.00  0.00     0.000 HD 
HETATM   11  N   UNL     1      -8.954  12.906  69.613  1.00  0.00     1.136 NA 
HETATM   12  C   UNL     1     -11.241  11.938  69.336  1.00  0.00    -0.211 C  
HETATM   13  H2  UNL     1      -8.299  13.642  69.350  1.00  0.00     0.000 HD 
HETATM   14  O   UNL     1     -12.611  12.286  69.098  1.00  0.00     0.241 OA 
HETATM   15  C   UNL     1     -10.854  10.651  68.569  1.00  0.00    -0.233 C  
HETATM   16  H1  UNL     1      -9.024  12.809  70.626  1.00  0.00     0.000 HD 
HETATM   17  H   UNL     1     -13.188  11.560  69.301  1.00  0.00     0.000 HD 
BRANCH   7  18
HETATM   18  O   UNL     1      -9.304  14.349  67.166  1.00  0.00    -0.203 OA 
BRANCH  18  19
HETATM   19  C   UNL     1      -8.015  14.234  67.795  1.00  0.00    -0.168 C  
HETATM   20  O   UNL     1      -9.089  14.731  69.969  1.00  0.00    -0.288 OA 
HETATM   21  C   UNL     1      -7.388  12.948  67.261  1.00  0.00    -0.070 C  
HETATM   22  C   UNL     1      -8.234  12.466  69.379  1.00  0.00     0.983 C  
HETATM   23  H   UNL     1      -9.123  14.580  70.906  1.00  0.00     0.000 HD 
HETATM   24  O   UNL     1      -7.739  11.892  68.168  1.00  0.00    -0.110 OA 
HETATM   25  C   UNL     1      -8.068  13.992  69.294  1.00  0.00     0.296 C  
BRANCH  21  26
HETATM   26  C   UNL     1      -5.863  13.001  67.151  1.00  0.00     0.307 C  
HETATM   27  H   UNL     1      -4.389  14.118  67.843  1.00  0.00     0.000 HD 
HETATM   28  O   UNL     1      -5.336  14.085  67.911  1.00  0.00    -0.163 OA 
ENDBRANCH  21  26
BRANCH  22  29
HETATM   29  O   UNL     1      -7.498  11.990  70.502  1.00  0.00     1.722 OA 
BRANCH  29  30
HETATM   30  C   UNL     1      -7.661  10.613  70.895  1.00  0.00     2.133 C  
HETATM   31  C   UNL     1      -6.293   9.989  71.234  1.00  0.00     0.186 C  
HETATM   32  O   UNL     1      -5.548  10.860  72.095  1.00  0.00    -0.217 OA 
HETATM   33  C   UNL     1      -6.476   8.626  71.911  1.00  0.00    -0.074 C  
HETATM   34  C   UNL     1      -7.189   7.679  70.947  1.00  0.00    -0.062 C  
HETATM   35  N   UNL     1      -5.178   8.061  72.326  1.00  0.00    -0.035 NA 
HETATM   36  H   UNL     1      -4.705  10.476  72.304  1.00  0.00     0.000 HD 
HETATM   37  H1  UNL     1      -5.299   7.154  72.777  1.00  0.00     0.000 HD 
HETATM   38  H2  UNL     1      -4.658   8.708  72.919  1.00  0.00     0.000 HD 
HETATM   39  C   UNL     1      -8.539   8.246  70.474  1.00  0.00    -0.131 C  
HETATM   40  C   UNL     1      -8.463   9.716  69.913  1.00  0.00    -0.198 C  
HETATM   41  N   UNL     1      -9.113   7.318  69.478  1.00  0.00    -0.143 NA 
HETATM   42  H2  UNL     1      -9.191   6.364  69.830  1.00  0.00     0.000 HD 
HETATM   43  H1  UNL     1     -10.008   7.695  69.165  1.00  0.00     0.000 HD 
BRANCH  40  44
HETATM   44  O   UNL     1      -9.829  10.143  69.697  1.00  0.00    -0.224 OA 
BRANCH  44  45
HETATM   45  C   UNL     1     -10.831   9.384  70.388  1.00  0.00    -0.269 C  
HETATM   46  O   UNL     1     -11.375  10.105  71.489  1.00  0.00    -0.233 OA 
HETATM   47  C   UNL     1     -12.155  11.249  71.145  1.00  0.00    -0.147 C  
HETATM   48  C   UNL     1     -13.349  10.826  70.286  1.00  0.00     0.420 C  
HETATM   49  H1  UNL     1     -12.208   7.844  67.625  1.00  0.00     0.000 HD 
HETATM   50  H2  UNL     1     -10.875   7.382  68.530  1.00  0.00     0.000 HD 
HETATM   51  O   UNL     1     -14.151  11.938  69.882  1.00  0.00     4.266 OA 
HETATM   52  C   UNL     1     -12.851  10.082  69.039  1.00  0.00     2.500 C  
HETATM   53  H   UNL     1     -14.892  11.676  69.349  1.00  0.00     0.000 HD 
HETATM   54  O   UNL     1     -13.976   9.603  68.283  1.00  0.00     8.782 OA 
HETATM   55  N   UNL     1     -11.468   8.164  68.250  1.00  0.00     0.964 NA 
HETATM   56  C   UNL     1     -11.956   8.899  69.439  1.00  0.00     1.277 C  
HETATM   57  H   UNL     1     -13.667   9.142  67.511  1.00  0.00     0.000 HD 
BRANCH  47  58
HETATM   58  C   UNL     1     -12.608  11.900  72.459  1.00  0.00     1.625 C  
HETATM   59  O   UNL     1     -14.034  11.868  72.563  1.00  0.00    -0.290 OA 
HETATM   60  H   UNL     1     -14.314  12.271  73.376  1.00  0.00     0.000 HD 
ENDBRANCH  47  58
ENDBRANCH  44  45
ENDBRANCH  40  44
ENDBRANCH  29  30
ENDBRANCH  22  29
ENDBRANCH  18  19
ENDBRANCH   7  18
ENDBRANCH   2   5
TORSDOF 9
ENDMDL
MODEL      368
REMARK 921   NORMALIZED FREE ENERGY PREDICTED BY IDOCK:   63.70 KCAL/MOL
REMARK 922        TOTAL FREE ENERGY PREDICTED BY IDOCK:   95.18 KCAL/MOL
REMARK 923 INTER-LIGAND FREE ENERGY PREDICTED BY IDOCK:   49.44 KCAL/MOL
REMARK 924 INTRA-LIGAND FREE ENERGY PREDICTED BY IDOCK:   45.74 KCAL/MOL
REMARK 927      BINDING AFFINITY PREDICTED BY RF-SCORE:    0.00 PKD
ROOT
HETATM    1  N   UNL     1      -7.216   9.607  74.024  1.00  0.00     0.795 NA 
HETATM    2  C   UNL     1      -8.384  10.216  73.357  1.00  0.00     7.580 C  
HETATM    3  H1  UNL     1      -6.426  10.252  73.997  1.00  0.00     0.000 HD 
HETATM    4  H2  UNL     1      -6.981   8.696  73.629  1.00  0.00     0.000 HD 
ENDROOT
BRANCH   2   5
HETATM    5  C   UNL     1      -9.575   9.244  73.398  1.00  0.00     3.440 C  
HETATM    6  O   UNL     1      -9.132   8.006  72.812  1.00  0.00    -0.187 OA 
HETATM    7  C   UNL     1     -10.089   6.962  72.977  1.00  0.00    -0.201 C  
HETATM    8  C   UNL     1     -11.354   7.308  72.140  1.00  0.00    -0.265 C  
HETATM    9  O   UNL     1     -10.438  10.171  71.322  1.00  0.00    -0.074 OA 
HETATM   10  H   UNL     1     -11.202  10.494  70.859  1.00  0.00     0.000 HD 
HETATM   11  N   UNL     1     -11.034   7.342  70.682  1.00  0.00    -0.251 NA 
HETATM   12  C   UNL     1     -11.910   8.674  72.606  1.00  0.00    -0.164 C  
HETATM   13  H2  UNL     1     -10.602   6.472  70.370  1.00  0.00     0.000 HD 
HETATM   14  O   UNL     1     -12.566   8.558  73.876  1.00  0.00     1.749 OA 
HETATM   15  C   UNL     1     -10.817   9.768  72.645  1.00  0.00     3.098 C  
HETATM   16  H1  UNL     1     -11.864   7.570  70.133  1.00  0.00     0.000 HD 
HETATM   17  H   UNL     1     -12.907   9.397  74.163  1.00  0.00     0.000 HD 
BRANCH   7  18
HETATM   18  O   UNL     1      -9.570   5.709  72.522  1.00  0.00    -0.151 OA 
BRANCH  18  19
HETATM   19  C   UNL     1      -8.769   5.806  71.330  1.00  0.00    -0.133 C  
HETATM   20  O   UNL     1     -10.777   5.243  69.997  1.00  0.00    -0.287 OA 
HETATM   21  C   UNL     1      -7.979   7.108  71.447  1.00  0.00    -0.102 C  
HETATM   22  C   UNL     1      -9.777   7.525  70.022  1.00  0.00    -0.172 C  
HETATM   23  H   UNL     1     -11.275   5.366  69.198  1.00  0.00     0.000 HD 
HETATM   24  O   UNL     1      -8.752   8.136  70.809  1.00  0.00    -0.131 OA 
HETATM   25  C   UNL     1      -9.567   6.003  70.052  1.00  0.00    -0.163 C  
BRANCH  21  26
HETATM   26  C   UNL     1      -6.602   7.060  70.782  1.00  0.00    -0.052 C  
HETATM   27  H   UNL     1      -5.582   5.822  69.629  1.00  0.00     0.000 HD 
HETATM   28  O   UNL     1      -6.437   5.852  70.042  1.00  0.00    -0.036 OA 
ENDBRANCH  21  26
BRANCH  22  29
HETATM   29  O   UNL     1      -9.707   7.968  68.670  1.00  0.00    -0.154 OA 
BRANCH  29  30
HETATM   30  C   UNL     1     -10.594   9.021  68.246  1.00  0.00    -0.163 C  
HETATM   31  C   UNL     1     -11.469   9.491  69.425  1.00  0.00     0.159 C  
HETATM   32  O   UNL     1     -10.660   9.709  70.589  1.00  0.00    -0.278 OA 
HETATM   33  C   UNL     1     -12.212  10.782  69.063  1.00  0.00     0.026 C  
HETATM   34  C   UNL     1     -13.140  10.511  67.879  1.00  0.00     7.187 C  
HETATM   35  N   UNL     1     -12.979  11.293  70.215  1.00  0.00     0.024 NA 
HETATM   36  H   UNL     1     -11.199   9.999  71.315  1.00  0.00     0.000 HD 
HETATM   37  H1  UNL     1     -13.473  12.152  69.975  1.00  0.00     0.000 HD 
HETATM   38  H2  UNL     1     -12.386  11.418  71.035  1.00  0.00     0.000 HD 
HETATM   39  C   UNL     1     -12.377   9.954  66.665  1.00  0.00     7.089 C  
HETATM   40  C   UNL     1     -11.455   8.719  66.989  1.00  0.00     2.044 C  
HETATM   41  N   UNL     1     -13.356   9.632  65.605  1.00  0.00    16.415 NA 
HETATM   42  H2  UNL     1     -13.949  10.427  65.365  1.00  0.00     0.000 HD 
HETATM   43  H1  UNL     1     -12.850   9.263  64.800  1.00  0.00     0.000 HD 
BRANCH  40  44
HETATM   44  O   UNL     1     -10.688   8.454  65.791  1.00  0.00     1.450 OA 
BRANCH  44  45
HETATM   45  C   UNL     1     -10.020   7.185  65.751  1.00  0.00     0.896 C  
HETATM   46  O   UNL     1      -9.388   6.959  64.496  1.00  0.00     1.203 OA 
HETATM   47  C   UNL     1      -8.278   7.808  64.209  1.00  0.00    -0.026 C  
HETATM   48  C   UNL     1      -7.190   7.619  65.269  1.00  0.00    -0.065 C  
HETATM   49  H1  UNL     1      -8.919   7.159  69.021  1.00  0.00     0.000 HD 
HETATM   50  H2  UNL     1     -10.404   6.680  68.408  1.00  0.00     0.000 HD 
HETATM   51  O   UNL     1      -6.063   8.470  65.051  1.00  0.00    -0.051 OA 
HETATM   52  C   UNL     1      -7.773   7.897  66.662  1.00  0.00    -0.098 C  
HETATM   53  H   UNL     1      -5.388   8.352  65.709  1.00  0.00     0.000 HD 
HETATM   54  O   UNL     1      -6.776   7.626  67.663  1.00  0.00    -0.063 OA 
HETATM   55  N   UNL     1      -9.584   7.268  68.255  1.00  0.00    -0.147 NA 
HETATM   56  C   UNL     1      -9.009   7.019  66.914  1.00  0.00    -0.126 C  
HETATM   57  H   UNL     1      -7.137   7.798  68.525  1.00  0.00     0.000 HD 
BRANCH  47  58
HETATM   58  C   UNL     1      -7.772   7.433  62.809  1.00  0.00    -0.128 C  
HETATM   59  O   UNL     1      -7.287   6.088  62.799  1.00  0.00    -0.049 OA 
HETATM   60  H   UNL     1      -6.975   5.856  61.933  1.00  0.00     0.000 HD 
ENDBRANCH  47  58
ENDBRANCH  44  45
ENDBRANCH  40  44
ENDBRANCH  29  30
ENDBRANCH  22  29
ENDBRANCH  18  19
ENDBRANCH   7  18
ENDBRANCH   2   5
TORSDOF 9
ENDMDL
MODEL      369
REMARK 921   NORMALIZED FREE ENERGY PREDICTED BY IDOCK:   64.77 KCAL/MOL
REMARK 922        TOTAL FREE ENERGY PREDICTED BY IDOCK:   96.81 KCAL/MOL
REMARK 923 INTER-LIGAND FREE ENERGY PREDICTED BY IDOCK:   16.21 KCAL/MOL
REMARK 924 INTRA-LIGAND FREE ENERGY PREDICTED BY IDOCK:   80.60 KCAL/MOL
REMARK 927      BINDING AFFINITY PREDICTED BY RF-SCORE:    0.00 PKD
ROOT
HETATM    1  N   UNL     1      -8.103  10.402  69.455  1.00  0.00    -0.199 NA 
HETATM    2  C   UNL     1      -8.313   9.913  70.833  1.00  0.00     0.755 C  
HETATM    3  H1  UNL     1      -7.129  10.677  69.329  1.00  0.00     0.000 HD 
HETATM    4  H2  UNL     1      -8.748  11.155  69.213  1.00  0.00     0.000 HD 
ENDROOT
BRANCH   2   5
HETATM    5  C   UNL     1      -9.781   9.498  71.022  1.00  0.00    -0.126 C  
HETATM    6  O   UNL     1     -10.593  10.615  70.614  1.00  0.00     0.135 OA 
HETATM    7  C   UNL     1     -11.977  10.278  70.555  1.00  0.00    -0.323 C  
HETATM    8  C   UNL     1     -12.483   9.989  71.998  1.00  0.00    -0.224 C  
HETATM    9  O   UNL     1      -9.689  10.140  73.366  1.00  0.00     6.869 OA 
HETATM   10  H   UNL     1      -9.897   9.896  74.260  1.00  0.00     0.000 HD 
HETATM   11  N   UNL     1     -12.398  11.215  72.846  1.00  0.00     2.607 NA 
HETATM   12  C   UNL     1     -11.641   8.846  72.609  1.00  0.00     0.176 C  
HETATM   13  H2  UNL     1     -12.891  12.002  72.423  1.00  0.00     0.000 HD 
HETATM   14  O   UNL     1     -12.000   7.579  72.041  1.00  0.00    -0.282 OA 
HETATM   15  C   UNL     1     -10.121   9.102  72.475  1.00  0.00     0.784 C  
HETATM   16  H1  UNL     1     -12.729  11.026  73.792  1.00  0.00     0.000 HD 
HETATM   17  H   UNL     1     -11.483   6.877  72.416  1.00  0.00     0.000 HD 
BRANCH   7  18
HETATM   18  O   UNL     1     -12.747  11.352  70.007  1.00  0.00    -0.105 OA 
BRANCH  18  19
HETATM   19  C   UNL     1     -12.578  11.529  68.589  1.00  0.00     0.988 C  
HETATM   20  O   UNL     1     -11.532  13.727  69.040  1.00  0.00    -0.265 OA 
HETATM   21  C   UNL     1     -11.981  10.227  68.061  1.00  0.00     1.186 C  
HETATM   22  C   UNL     1     -10.230  11.755  68.249  1.00  0.00    -0.205 C  
HETATM   23  H   UNL     1     -10.880  14.375  68.801  1.00  0.00     0.000 HD 
HETATM   24  O   UNL     1     -10.553  10.373  68.079  1.00  0.00    -0.189 OA 
HETATM   25  C   UNL     1     -11.535  12.566  68.206  1.00  0.00    -0.308 C  
BRANCH  21  26
HETATM   26  C   UNL     1     -12.411   9.882  66.634  1.00  0.00     7.089 C  
HETATM   27  H   UNL     1     -11.743  10.175  64.798  1.00  0.00     0.000 HD 
HETATM   28  O   UNL     1     -11.476  10.389  65.684  1.00  0.00     0.726 OA 
ENDBRANCH  21  26
BRANCH  22  29
HETATM   29  O   UNL     1      -9.378  12.207  67.201  1.00  0.00    -0.184 OA 
BRANCH  29  30
HETATM   30  C   UNL     1      -8.933  11.253  66.218  1.00  0.00    -0.197 C  
HETATM   31  C   UNL     1      -9.426  11.660  64.816  1.00  0.00    -0.063 C  
HETATM   32  O   UNL     1      -9.167  13.051  64.581  1.00  0.00     0.074 OA 
HETATM   33  C   UNL     1      -8.737  10.818  63.737  1.00  0.00    -0.082 C  
HETATM   34  C   UNL     1      -9.096   9.346  63.943  1.00  0.00    -0.087 C  
HETATM   35  N   UNL     1      -9.129  11.261  62.385  1.00  0.00    -0.428 NA 
HETATM   36  H   UNL     1      -9.471  13.302  63.717  1.00  0.00     0.000 HD 
HETATM   37  H1  UNL     1      -8.671  10.701  61.667  1.00  0.00     0.000 HD 
HETATM   38  H2  UNL     1      -8.956  12.257  62.252  1.00  0.00     0.000 HD 
HETATM   39  C   UNL     1      -8.722   8.854  65.352  1.00  0.00    -0.191 C  
HETATM   40  C   UNL     1      -9.256   9.765  66.521  1.00  0.00    -0.156 C  
HETATM   41  N   UNL     1      -9.187   7.459  65.499  1.00  0.00    -0.365 NA 
HETATM   42  H2  UNL     1      -8.833   6.848  64.763  1.00  0.00     0.000 HD 
HETATM   43  H1  UNL     1      -8.938   7.133  66.433  1.00  0.00     0.000 HD 
BRANCH  40  44
HETATM   44  O   UNL     1      -8.660   9.260  67.738  1.00  0.00    -0.117 OA 
BRANCH  44  45
HETATM   45  C   UNL     1      -8.840  10.080  68.902  1.00  0.00    -0.148 C  
HETATM   46  O   UNL     1      -8.886   9.305  70.094  1.00  0.00    -0.173 OA 
HETATM   47  C   UNL     1      -7.663   8.665  70.456  1.00  0.00    -0.086 C  
HETATM   48  C   UNL     1      -6.572   9.716  70.678  1.00  0.00    -0.114 C  
HETATM   49  H1  UNL     1      -6.921  12.754  67.862  1.00  0.00     0.000 HD 
HETATM   50  H2  UNL     1      -8.532  12.426  67.535  1.00  0.00     0.000 HD 
HETATM   51  O   UNL     1      -5.312   9.131  71.012  1.00  0.00    -0.028 OA 
HETATM   52  C   UNL     1      -6.414  10.572  69.414  1.00  0.00    -0.062 C  
HETATM   53  H   UNL     1      -4.635   9.783  71.150  1.00  0.00     0.000 HD 
HETATM   54  O   UNL     1      -5.458  11.618  69.657  1.00  0.00    -0.061 OA 
HETATM   55  N   UNL     1      -7.630  12.024  67.792  1.00  0.00    -0.120 NA 
HETATM   56  C   UNL     1      -7.762  11.189  69.008  1.00  0.00    -0.114 C  
HETATM   57  H   UNL     1      -5.360  12.148  68.875  1.00  0.00     0.000 HD 
BRANCH  47  58
HETATM   58  C   UNL     1      -7.935   7.856  71.731  1.00  0.00    -0.104 C  
HETATM   59  O   UNL     1      -6.919   6.865  71.916  1.00  0.00    -0.068 OA 
HETATM   60  H   UNL     1      -7.087   6.365  72.705  1.00  0.00     0.000 HD 
ENDBRANCH  47  58
ENDBRANCH  44  45
ENDBRANCH  40  44
ENDBRANCH  29  30
ENDBRANCH  22  29
ENDBRANCH  18  19
ENDBRANCH   7  18
ENDBRANCH   2   5
TORSDOF 9
ENDMDL
MODEL      370
REMARK 921   NORMALIZED FREE ENERGY PREDICTED BY IDOCK:   66.31 KCAL/MOL
REMARK 922        TOTAL FREE ENERGY PREDICTED BY IDOCK:   99.15 KCAL/MOL
REMARK 923 INTER-LIGAND FREE ENERGY PREDICTED BY IDOCK:   25.55 KCAL/MOL
REMARK 924 INTRA-LIGAND FREE ENERGY PREDICTED BY IDOCK:   73.60 KCAL/MOL
REMARK 927      BINDING AFFINITY PREDICTED BY RF-SCORE:    0.00 PKD
ROOT
HETATM    1  N   UNL     1      -7.033  11.442  71.545  1.00  0.00     2.625 NA 
HETATM    2  C   UNL     1      -7.088  10.659  70.294  1.00  0.00     0.131 C  
HETATM    3  H1  UNL     1      -6.405  10.989  72.209  1.00  0.00     0.000 HD 
HETATM    4  H2  UNL     1      -7.961  11.599  71.940  1.00  0.00     0.000 HD 
ENDROOT
BRANCH   2   5
HETATM    5  C   UNL     1      -8.034  11.342  69.292  1.00  0.00     0.086 C  
HETATM    6  O   UNL     1      -7.736  10.802  67.991  1.00  0.00    -0.097 OA 
HETATM    7  C   UNL     1      -8.686  11.211  67.010  1.00  0.00    -0.148 C  
HETATM    8  C   UNL     1      -8.546  12.745  66.789  1.00  0.00    -0.078 C  
HETATM    9  O   UNL     1      -6.513  13.229  69.099  1.00  0.00    -0.097 OA 
HETATM   10  H   UNL     1      -6.426  14.175  69.086  1.00  0.00     0.000 HD 
HETATM   11  N   UNL     1      -7.205  13.081  66.225  1.00  0.00     0.899 NA 
HETATM   12  C   UNL     1      -8.765  13.471  68.137  1.00  0.00    -0.174 C  
HETATM   13  H2  UNL     1      -7.014  12.558  65.370  1.00  0.00     0.000 HD 
HETATM   14  O   UNL     1     -10.152  13.472  68.503  1.00  0.00    -0.234 OA 
HETATM   15  C   UNL     1      -7.893  12.879  69.270  1.00  0.00     0.546 C  
HETATM   16  H1  UNL     1      -7.114  14.087  66.081  1.00  0.00     0.000 HD 
HETATM   17  H   UNL     1     -10.287  13.918  69.331  1.00  0.00     0.000 HD 
BRANCH   7  18
HETATM   18  O   UNL     1      -8.458  10.548  65.763  1.00  0.00    -0.162 OA 
BRANCH  18  19
HETATM   19  C   UNL     1      -7.449   9.524  65.821  1.00  0.00    -0.100 C  
HETATM   20  O   UNL     1      -7.406   9.778  68.283  1.00  0.00    -0.078 OA 
HETATM   21  C   UNL     1      -7.948   8.378  64.943  1.00  0.00    -0.136 C  
HETATM   22  C   UNL     1      -8.384   7.783  67.155  1.00  0.00    -0.118 C  
HETATM   23  H   UNL     1      -7.311   9.369  69.135  1.00  0.00     0.000 HD 
HETATM   24  O   UNL     1      -8.675   7.475  65.790  1.00  0.00    -0.155 OA 
HETATM   25  C   UNL     1      -7.297   8.870  67.185  1.00  0.00    -0.084 C  
BRANCH  21  26
HETATM   26  C   UNL     1      -6.830   7.594  64.253  1.00  0.00    -0.056 C  
HETATM   27  H   UNL     1      -5.538   7.882  62.787  1.00  0.00     0.000 HD 
HETATM   28  O   UNL     1      -6.232   8.368  63.215  1.00  0.00    -0.080 OA 
ENDBRANCH  21  26
BRANCH  22  29
HETATM   29  O   UNL     1      -7.896   6.633  67.839  1.00  0.00    -0.109 OA 
BRANCH  29  30
HETATM   30  C   UNL     1      -8.802   5.907  68.693  1.00  0.00    -0.111 C  
HETATM   31  C   UNL     1     -10.057   5.484  67.905  1.00  0.00    -0.176 C  
HETATM   32  O   UNL     1      -9.682   4.894  66.652  1.00  0.00    -0.150 OA 
HETATM   33  C   UNL     1     -10.890   4.485  68.716  1.00  0.00     1.628 C  
HETATM   34  C   UNL     1     -11.361   5.157  70.006  1.00  0.00     1.564 C  
HETATM   35  N   UNL     1     -12.044   3.999  67.935  1.00  0.00    11.163 NA 
HETATM   36  H   UNL     1     -10.455   4.633  66.167  1.00  0.00     0.000 HD 
HETATM   37  H1  UNL     1     -12.599   3.335  68.474  1.00  0.00     0.000 HD 
HETATM   38  H2  UNL     1     -11.753   3.606  67.040  1.00  0.00     0.000 HD 
HETATM   39  C   UNL     1     -10.184   5.697  70.837  1.00  0.00    -0.223 C  
HETATM   40  C   UNL     1      -9.182   6.604  70.028  1.00  0.00    -0.158 C  
HETATM   41  N   UNL     1     -10.729   6.410  72.011  1.00  0.00    -0.220 NA 
HETATM   42  H2  UNL     1     -11.364   5.831  72.561  1.00  0.00     0.000 HD 
HETATM   43  H1  UNL     1      -9.949   6.767  72.562  1.00  0.00     0.000 HD 
BRANCH  40  44
HETATM   44  O   UNL     1      -8.062   6.861  70.907  1.00  0.00    -0.111 OA 
BRANCH  44  45
HETATM   45  C   UNL     1      -6.992   7.629  70.338  1.00  0.00    -0.047 C  
HETATM   46  O   UNL     1      -7.468   8.809  69.701  1.00  0.00    -0.068 OA 
HETATM   47  C   UNL     1      -8.015   9.797  70.573  1.00  0.00    -0.022 C  
HETATM   48  C   UNL     1      -6.950  10.256  71.572  1.00  0.00     1.558 C  
HETATM   49  H1  UNL     1      -4.650   7.018  72.798  1.00  0.00     0.000 HD 
HETATM   50  H2  UNL     1      -5.032   6.089  71.456  1.00  0.00     0.000 HD 
HETATM   51  O   UNL     1      -7.452  11.225  72.496  1.00  0.00     7.507 OA 
HETATM   52  C   UNL     1      -6.414   9.046  72.349  1.00  0.00     0.117 C  
HETATM   53  H   UNL     1      -6.791  11.511  73.115  1.00  0.00     0.000 HD 
HETATM   54  O   UNL     1      -5.348   9.466  73.218  1.00  0.00    -0.139 OA 
HETATM   55  N   UNL     1      -5.371   6.794  72.111  1.00  0.00    -0.035 NA 
HETATM   56  C   UNL     1      -5.898   7.970  71.381  1.00  0.00    -0.034 C  
HETATM   57  H   UNL     1      -5.016   8.717  73.698  1.00  0.00     0.000 HD 
BRANCH  47  58
HETATM   58  C   UNL     1      -8.503  10.957  69.694  1.00  0.00     0.366 C  
HETATM   59  O   UNL     1      -9.781  11.416  70.142  1.00  0.00     0.760 OA 
HETATM   60  H   UNL     1     -10.083  12.133  69.599  1.00  0.00     0.000 HD 
ENDBRANCH  47  58
ENDBRANCH  44  45
ENDBRANCH  40  44
ENDBRANCH  29  30
ENDBRANCH  22  29
ENDBRANCH  18  19
ENDBRANCH   7  18
ENDBRANCH   2   5
TORSDOF 9
ENDMDL
MODEL      371
REMARK 921   NORMALIZED FREE ENERGY PREDICTED BY IDOCK:   70.92 KCAL/MOL
REMARK 922        TOTAL FREE ENERGY PREDICTED BY IDOCK:  106.20 KCAL/MOL
REMARK 923 INTER-LIGAND FREE ENERGY PREDICTED BY IDOCK:   19.73 KCAL/MOL
REMARK 924 INTRA-LIGAND FREE ENERGY PREDICTED BY IDOCK:   86.47 KCAL/MOL
REMARK 927      BINDING AFFINITY PREDICTED BY RF-SCORE:    0.00 PKD
ROOT
HETATM    1  N   UNL     1     -12.539   2.672  71.130  1.00  0.00    10.679 NA 
HETATM    2  C   UNL     1     -11.617   2.075  72.116  1.00  0.00     1.672 C  
HETATM    3  H1  UNL     1     -13.379   2.098  71.049  1.00  0.00     0.000 HD 
HETATM    4  H2  UNL     1     -12.089   2.823  70.227  1.00  0.00     0.000 HD 
ENDROOT
BRANCH   2   5
HETATM    5  C   UNL     1     -10.351   2.940  72.239  1.00  0.00    -0.046 C  
HETATM    6  O   UNL     1     -10.593   4.152  71.501  1.00  0.00     0.069 OA 
HETATM    7  C   UNL     1      -9.567   5.120  71.708  1.00  0.00    -0.152 C  
HETATM    8  C   UNL     1      -8.246   4.589  71.081  1.00  0.00    -0.087 C  
HETATM    9  O   UNL     1      -9.327   1.753  70.380  1.00  0.00    -0.095 OA 
HETATM   10  H   UNL     1      -8.545   1.323  70.053  1.00  0.00     0.000 HD 
HETATM   11  N   UNL     1      -8.380   4.447  69.601  1.00  0.00    -0.062 NA 
HETATM   12  C   UNL     1      -7.890   3.230  71.727  1.00  0.00    -0.057 C  
HETATM   13  H2  UNL     1      -8.681   5.318  69.164  1.00  0.00     0.000 HD 
HETATM   14  O   UNL     1      -7.393   3.407  73.060  1.00  0.00    -0.048 OA 
HETATM   15  C   UNL     1      -9.082   2.243  71.706  1.00  0.00    -0.087 C  
HETATM   16  H1  UNL     1      -7.514   4.099  69.189  1.00  0.00     0.000 HD 
HETATM   17  H   UNL     1      -7.174   2.572  73.457  1.00  0.00     0.000 HD 
BRANCH   7  18
HETATM   18  O   UNL     1      -9.899   6.365  71.087  1.00  0.00    -0.178 OA 
BRANCH  18  19
HETATM   19  C   UNL     1      -9.168   6.628  69.876  1.00  0.00    -0.146 C  
HETATM   20  O   UNL     1     -11.004   8.123  69.154  1.00  0.00    -0.419 OA 
HETATM   21  C   UNL     1      -7.733   6.939  70.298  1.00  0.00    -0.100 C  
HETATM   22  C   UNL     1      -8.775   8.979  69.867  1.00  0.00    -0.156 C  
HETATM   23  H   UNL     1     -11.269   8.914  68.699  1.00  0.00     0.000 HD 
HETATM   24  O   UNL     1      -7.635   8.361  70.468  1.00  0.00    -0.067 OA 
HETATM   25  C   UNL     1      -9.593   7.893  69.149  1.00  0.00    -0.153 C  
BRANCH  21  26
HETATM   26  C   UNL     1      -6.679   6.502  69.279  1.00  0.00    -0.052 C  
HETATM   27  H   UNL     1      -6.525   5.188  67.813  1.00  0.00     0.000 HD 
HETATM   28  O   UNL     1      -7.179   5.458  68.446  1.00  0.00    -0.068 OA 
ENDBRANCH  21  26
BRANCH  22  29
HETATM   29  O   UNL     1      -8.374   9.954  68.909  1.00  0.00    -0.112 OA 
BRANCH  29  30
HETATM   30  C   UNL     1      -9.128  11.178  68.818  1.00  0.00    -0.139 C  
HETATM   31  C   UNL     1      -9.621  11.398  67.374  1.00  0.00    -0.174 C  
HETATM   32  O   UNL     1     -10.210  10.194  66.861  1.00  0.00    -0.215 OA 
HETATM   33  C   UNL     1     -10.645  12.537  67.322  1.00  0.00    -0.227 C  
HETATM   34  C   UNL     1      -9.977  13.832  67.783  1.00  0.00    -0.242 C  
HETATM   35  N   UNL     1     -11.195  12.694  65.962  1.00  0.00    -0.293 NA 
HETATM   36  H   UNL     1     -10.514  10.330  65.972  1.00  0.00     0.000 HD 
HETATM   37  H1  UNL     1     -11.876  13.452  65.926  1.00  0.00     0.000 HD 
HETATM   38  H2  UNL     1     -11.587  11.820  65.612  1.00  0.00     0.000 HD 
HETATM   39  C   UNL     1      -9.372  13.699  69.191  1.00  0.00     0.447 C  
HETATM   40  C   UNL     1      -8.431  12.449  69.376  1.00  0.00     1.135 C  
HETATM   41  N   UNL     1      -8.668  14.956  69.519  1.00  0.00    -0.433 NA 
HETATM   42  H2  UNL     1      -9.268  15.776  69.426  1.00  0.00     0.000 HD 
HETATM   43  H1  UNL     1      -8.267  14.867  70.452  1.00  0.00     0.000 HD 
BRANCH  40  44
HETATM   44  O   UNL     1      -8.110  12.383  70.785  1.00  0.00     4.868 OA 
BRANCH  44  45
HETATM   45  C   UNL     1      -6.941  11.621  71.119  1.00  0.00     3.541 C  
HETATM   46  O   UNL     1      -7.268  10.440  71.843  1.00  0.00     1.717 OA 
HETATM   47  C   UNL     1      -7.981   9.448  71.106  1.00  0.00     0.131 C  
HETATM   48  C   UNL     1      -7.146   8.991  69.907  1.00  0.00    -0.053 C  
HETATM   49  H1  UNL     1      -5.168  12.235  68.224  1.00  0.00     0.000 HD 
HETATM   50  H2  UNL     1      -5.265  13.166  69.614  1.00  0.00     0.000 HD 
HETATM   51  O   UNL     1      -7.825   8.018  69.110  1.00  0.00    -0.104 OA 
HETATM   52  C   UNL     1      -6.790  10.201  69.034  1.00  0.00    -0.056 C  
HETATM   53  H   UNL     1      -7.307   7.734  68.366  1.00  0.00     0.000 HD 
HETATM   54  O   UNL     1      -5.926   9.784  67.962  1.00  0.00    -0.043 OA 
HETATM   55  N   UNL     1      -5.730  12.458  69.045  1.00  0.00    -0.064 NA 
HETATM   56  C   UNL     1      -6.087  11.282  69.871  1.00  0.00    -0.130 C  
HETATM   57  H   UNL     1      -5.706  10.533  67.422  1.00  0.00     0.000 HD 
BRANCH  47  58
HETATM   58  C   UNL     1      -8.270   8.288  72.069  1.00  0.00    -0.160 C  
HETATM   59  O   UNL     1      -8.499   7.081  71.337  1.00  0.00    -0.114 OA 
HETATM   60  H   UNL     1      -8.677   6.363  71.932  1.00  0.00     0.000 HD 
ENDBRANCH  47  58
ENDBRANCH  44  45
ENDBRANCH  40  44
ENDBRANCH  29  30
ENDBRANCH  22  29
ENDBRANCH  18  19
ENDBRANCH   7  18
ENDBRANCH   2   5
TORSDOF 9
ENDMDL
MODEL      372
REMARK 921   NORMALIZED FREE ENERGY PREDICTED BY IDOCK:   74.43 KCAL/MOL
REMARK 922        TOTAL FREE ENERGY PREDICTED BY IDOCK:  111.55 KCAL/MOL
REMARK 923 INTER-LIGAND FREE ENERGY PREDICTED BY IDOCK:   27.34 KCAL/MOL
REMARK 924 INTRA-LIGAND FREE ENERGY PREDICTED BY IDOCK:   84.21 KCAL/MOL
REMARK 927      BINDING AFFINITY PREDICTED BY RF-SCORE:    0.00 PKD
ROOT
HETATM    1  N   UNL     1      -6.562   9.718  65.151  1.00  0.00    -0.093 NA 
HETATM    2  C   UNL     1      -6.910  10.290  66.468  1.00  0.00    -0.101 C  
HETATM    3  H1  UNL     1      -6.004   8.874  65.277  1.00  0.00     0.000 HD 
HETATM    4  H2  UNL     1      -6.098  10.399  64.548  1.00  0.00     0.000 HD 
ENDROOT
BRANCH   2   5
HETATM    5  C   UNL     1      -7.752  11.563  66.278  1.00  0.00     0.070 C  
HETATM    6  O   UNL     1      -8.290  11.911  67.567  1.00  0.00    -0.143 OA 
HETATM    7  C   UNL     1      -8.924  13.188  67.556  1.00  0.00    -0.197 C  
HETATM    8  C   UNL     1     -10.194  13.107  66.660  1.00  0.00    -0.259 C  
HETATM    9  O   UNL     1      -9.667  10.228  65.596  1.00  0.00    -0.211 OA 
HETATM   10  H   UNL     1     -10.371  10.121  64.968  1.00  0.00     0.000 HD 
HETATM   11  N   UNL     1     -11.193  12.160  67.239  1.00  0.00    -0.286 NA 
HETATM   12  C   UNL     1      -9.782  12.660  65.239  1.00  0.00    -0.026 C  
HETATM   13  H2  UNL     1     -11.426  12.400  68.203  1.00  0.00     0.000 HD 
HETATM   14  O   UNL     1      -9.135  13.726  64.530  1.00  0.00     0.887 OA 
HETATM   15  C   UNL     1      -8.898  11.390  65.258  1.00  0.00     0.064 C  
HETATM   16  H1  UNL     1     -12.025  12.107  66.652  1.00  0.00     0.000 HD 
HETATM   17  H   UNL     1      -8.882  13.451  63.657  1.00  0.00     0.000 HD 
BRANCH   7  18
HETATM   18  O   UNL     1      -9.319  13.579  68.874  1.00  0.00     0.005 OA 
BRANCH  18  19
HETATM   19  C   UNL     1      -8.980  14.937  69.208  1.00  0.00    -0.099 C  
HETATM   20  O   UNL     1      -8.648  15.392  66.797  1.00  0.00    -0.233 OA 
HETATM   21  C   UNL     1     -10.054  15.424  70.178  1.00  0.00    -0.136 C  
HETATM   22  C   UNL     1     -10.585  16.291  68.081  1.00  0.00    -0.307 C  
HETATM   23  H   UNL     1      -8.720  16.003  66.074  1.00  0.00     0.000 HD 
HETATM   24  O   UNL     1     -11.084  16.050  69.398  1.00  0.00    -0.284 OA 
HETATM   25  C   UNL     1      -9.095  15.915  68.050  1.00  0.00    -0.184 C  
BRANCH  21  26
HETATM   26  C   UNL     1      -9.547  16.436  71.207  1.00  0.00     4.222 C  
HETATM   27  H   UNL     1      -8.987  18.330  71.236  1.00  0.00     0.000 HD 
HETATM   28  O   UNL     1      -9.301  17.701  70.597  1.00  0.00     3.154 OA 
ENDBRANCH  21  26
BRANCH  22  29
HETATM   29  O   UNL     1     -10.715  17.667  67.736  1.00  0.00    -0.388 OA 
BRANCH  29  30
HETATM   30  C   UNL     1      -9.706  18.263  66.897  1.00  0.00    -0.315 C  
HETATM   31  C   UNL     1     -10.361  18.985  65.703  1.00  0.00    -0.098 C  
HETATM   32  O   UNL     1     -11.445  19.809  66.155  1.00  0.00     0.243 OA 
HETATM   33  C   UNL     1      -9.332  19.847  64.964  1.00  0.00     1.769 C  
HETATM   34  C   UNL     1      -8.230  18.945  64.409  1.00  0.00     5.728 C  
HETATM   35  N   UNL     1      -9.966  20.618  63.878  1.00  0.00     2.853 NA 
HETATM   36  H   UNL     1     -11.849  20.254  65.420  1.00  0.00     0.000 HD 
HETATM   37  H1  UNL     1      -9.282  21.191  63.386  1.00  0.00     0.000 HD 
HETATM   38  H2  UNL     1     -10.747  21.177  64.221  1.00  0.00     0.000 HD 
HETATM   39  C   UNL     1      -7.560  18.108  65.512  1.00  0.00     0.348 C  
HETATM   40  C   UNL     1      -8.567  17.317  66.428  1.00  0.00    -0.259 C  
HETATM   41  N   UNL     1      -6.579  17.200  64.880  1.00  0.00     2.095 NA 
HETATM   42  H2  UNL     1      -5.903  17.697  64.299  1.00  0.00     0.000 HD 
HETATM   43  H1  UNL     1      -6.135  16.646  65.611  1.00  0.00     0.000 HD 
BRANCH  40  44
HETATM   44  O   UNL     1      -7.784  16.748  67.503  1.00  0.00    -0.160 OA 
BRANCH  44  45
HETATM   45  C   UNL     1      -8.535  16.127  68.556  1.00  0.00    -0.197 C  
HETATM   46  O   UNL     1      -8.116  14.787  68.787  1.00  0.00    -0.145 OA 
HETATM   47  C   UNL     1      -6.805  14.641  69.329  1.00  0.00    -0.143 C  
HETATM   48  C   UNL     1      -6.720  15.349  70.684  1.00  0.00     0.467 C  
HETATM   49  H1  UNL     1      -8.860  18.910  70.569  1.00  0.00     0.000 HD 
HETATM   50  H2  UNL     1      -9.809  18.436  69.272  1.00  0.00     0.000 HD 
HETATM   51  O   UNL     1      -5.416  15.264  71.263  1.00  0.00    -0.086 OA 
HETATM   52  C   UNL     1      -7.107  16.825  70.520  1.00  0.00     2.052 C  
HETATM   53  H   UNL     1      -5.364  15.703  72.104  1.00  0.00     0.000 HD 
HETATM   54  O   UNL     1      -7.120  17.465  71.808  1.00  0.00     5.527 OA 
HETATM   55  N   UNL     1      -8.888  18.368  69.706  1.00  0.00     0.943 NA 
HETATM   56  C   UNL     1      -8.493  16.950  69.868  1.00  0.00     1.391 C  
HETATM   57  H   UNL     1      -7.360  18.378  71.707  1.00  0.00     0.000 HD 
BRANCH  47  58
HETATM   58  C   UNL     1      -6.534  13.136  69.461  1.00  0.00    -0.074 C  
HETATM   59  O   UNL     1      -6.066  12.606  68.218  1.00  0.00    -0.058 OA 
HETATM   60  H   UNL     1      -5.898  11.674  68.299  1.00  0.00     0.000 HD 
ENDBRANCH  47  58
ENDBRANCH  44  45
ENDBRANCH  40  44
ENDBRANCH  29  30
ENDBRANCH  22  29
ENDBRANCH  18  19
ENDBRANCH   7  18
ENDBRANCH   2   5
TORSDOF 9
ENDMDL
MODEL      373
REMARK 921   NORMALIZED FREE ENERGY PREDICTED BY IDOCK:   75.19 KCAL/MOL
REMARK 922        TOTAL FREE ENERGY PREDICTED BY IDOCK:  112.71 KCAL/MOL
REMARK 923 INTER-LIGAND FREE ENERGY PREDICTED BY IDOCK:  110.69 KCAL/MOL
REMARK 924 INTRA-LIGAND FREE ENERGY PREDICTED BY IDOCK:    2.02 KCAL/MOL
REMARK 927      BINDING AFFINITY PREDICTED BY RF-SCORE:    0.00 PKD
ROOT
HETATM    1  N   UNL     1      -9.460  12.961  62.655  1.00  0.00     2.143 NA 
HETATM    2  C   UNL     1      -9.184  12.434  64.007  1.00  0.00     0.761 C  
HETATM    3  H1  UNL     1      -9.339  13.974  62.646  1.00  0.00     0.000 HD 
HETATM    4  H2  UNL     1     -10.380  12.681  62.316  1.00  0.00     0.000 HD 
ENDROOT
BRANCH   2   5
HETATM    5  C   UNL     1      -9.365  10.907  64.020  1.00  0.00    -0.237 C  
HETATM    6  O   UNL     1     -10.368  10.608  65.008  1.00  0.00    -0.310 OA 
HETATM    7  C   UNL     1     -10.766   9.239  64.970  1.00  0.00     3.120 C  
HETATM    8  C   UNL     1      -9.565   8.357  65.417  1.00  0.00     0.484 C  
HETATM    9  O   UNL     1      -7.482  10.670  65.541  1.00  0.00    -0.244 OA 
HETATM   10  H   UNL     1      -6.681  10.199  65.738  1.00  0.00     0.000 HD 
HETATM   11  N   UNL     1      -9.199   8.636  66.837  1.00  0.00    -0.151 NA 
HETATM   12  C   UNL     1      -8.363   8.630  64.482  1.00  0.00    -0.147 C  
HETATM   13  H2  UNL     1      -9.999   8.527  67.461  1.00  0.00     0.000 HD 
HETATM   14  O   UNL     1      -8.559   8.023  63.198  1.00  0.00    -0.409 OA 
HETATM   15  C   UNL     1      -8.063  10.141  64.341  1.00  0.00    -0.163 C  
HETATM   16  H1  UNL     1      -8.411   8.058  67.129  1.00  0.00     0.000 HD 
HETATM   17  H   UNL     1      -7.821   8.191  62.624  1.00  0.00     0.000 HD 
BRANCH   7  18
HETATM   18  O   UNL     1     -11.864   8.997  65.854  1.00  0.00     4.902 OA 
BRANCH  18  19
HETATM   19  C   UNL     1     -12.335  10.172  66.539  1.00  0.00     6.325 C  
HETATM   20  O   UNL     1     -13.572   8.704  68.101  1.00  0.00    12.610 OA 
HETATM   21  C   UNL     1     -11.113  11.061  66.758  1.00  0.00    -0.172 C  
HETATM   22  C   UNL     1     -11.535   9.971  68.775  1.00  0.00     0.022 C  
HETATM   23  H   UNL     1     -13.883   8.545  68.984  1.00  0.00     0.000 HD 
HETATM   24  O   UNL     1     -10.571  10.733  68.046  1.00  0.00    -0.181 OA 
HETATM   25  C   UNL     1     -12.832   9.918  67.952  1.00  0.00     7.400 C  
BRANCH  21  26
HETATM   26  C   UNL     1     -11.423  12.559  66.734  1.00  0.00    -0.362 C  
HETATM   27  H   UNL     1     -10.577  14.234  67.348  1.00  0.00     0.000 HD 
HETATM   28  O   UNL     1     -10.384  13.305  67.363  1.00  0.00    -0.240 OA 
ENDBRANCH  21  26
BRANCH  22  29
HETATM   29  O   UNL     1     -11.818  10.582  70.030  1.00  0.00    -0.274 OA 
BRANCH  29  30
HETATM   30  C   UNL     1     -10.871  10.415  71.104  1.00  0.00     0.619 C  
HETATM   31  C   UNL     1     -11.263   9.210  71.980  1.00  0.00    -0.240 C  
HETATM   32  O   UNL     1     -11.568   8.075  71.158  1.00  0.00    -0.276 OA 
HETATM   33  C   UNL     1     -10.128   8.856  72.948  1.00  0.00     0.765 C  
HETATM   34  C   UNL     1      -9.877  10.041  73.880  1.00  0.00    11.487 C  
HETATM   35  N   UNL     1     -10.454   7.645  73.727  1.00  0.00    -0.326 NA 
HETATM   36  H   UNL     1     -11.810   7.332  71.698  1.00  0.00     0.000 HD 
HETATM   37  H1  UNL     1      -9.699   7.410  74.371  1.00  0.00     0.000 HD 
HETATM   38  H2  UNL     1     -10.688   6.860  73.120  1.00  0.00     0.000 HD 
HETATM   39  C   UNL     1      -9.556  11.329  73.100  1.00  0.00    19.946 C  
HETATM   40  C   UNL     1     -10.594  11.676  71.968  1.00  0.00     9.724 C  
HETATM   41  N   UNL     1      -9.421  12.439  74.067  1.00  0.00    17.812 NA 
HETATM   42  H2  UNL     1      -8.737  12.242  74.797  1.00  0.00     0.000 HD 
HETATM   43  H1  UNL     1      -9.209  13.292  73.550  1.00  0.00     0.000 HD 
BRANCH  40  44
HETATM   44  O   UNL     1     -10.040  12.792  71.233  1.00  0.00     7.049 OA 
BRANCH  44  45
HETATM   45  C   UNL     1     -10.196  14.078  71.851  1.00  0.00     5.911 C  
HETATM   46  O   UNL     1      -9.055  14.904  71.648  1.00  0.00     3.034 OA 
HETATM   47  C   UNL     1      -8.835  15.325  70.302  1.00  0.00     0.808 C  
HETATM   48  C   UNL     1     -10.036  16.136  69.808  1.00  0.00    -0.162 C  
HETATM   49  H1  UNL     1     -13.567  14.465  71.228  1.00  0.00     0.000 HD 
HETATM   50  H2  UNL     1     -12.818  13.667  72.497  1.00  0.00     0.000 HD 
HETATM   51  O   UNL     1      -9.888  16.558  68.451  1.00  0.00    -0.223 OA 
HETATM   52  C   UNL     1     -11.315  15.297  69.941  1.00  0.00    -0.289 C  
HETATM   53  H   UNL     1     -10.633  17.061  68.145  1.00  0.00     0.000 HD 
HETATM   54  O   UNL     1     -12.453  16.093  69.567  1.00  0.00    -0.405 OA 
HETATM   55  N   UNL     1     -12.718  13.991  71.535  1.00  0.00    -0.349 NA 
HETATM   56  C   UNL     1     -11.486  14.798  71.385  1.00  0.00    -0.175 C  
HETATM   57  H   UNL     1     -13.244  15.574  69.649  1.00  0.00     0.000 HD 
BRANCH  47  58
HETATM   58  C   UNL     1      -7.548  16.161  70.293  1.00  0.00     1.325 C  
HETATM   59  O   UNL     1      -7.362  16.773  69.014  1.00  0.00    -0.222 OA 
HETATM   60  H   UNL     1      -6.566  17.290  69.008  1.00  0.00     0.000 HD 
ENDBRANCH  47  58
ENDBRANCH  44  45
ENDBRANCH  40  44
ENDBRANCH  29  30
ENDBRANCH  22  29
ENDBRANCH  18  19
ENDBRANCH   7  18
ENDBRANCH   2   5
TORSDOF 9
ENDMDL
MODEL      374
REMARK 921   NORMALIZED FREE ENERGY PREDICTED BY IDOCK:   78.50 KCAL/MOL
REMARK 922        TOTAL FREE ENERGY PREDICTED BY IDOCK:  117.76 KCAL/MOL
REMARK 923 INTER-LIGAND FREE ENERGY PREDICTED BY IDOCK:   42.83 KCAL/MOL
REMARK 924 INTRA-LIGAND FREE ENERGY PREDICTED BY IDOCK:   74.93 KCAL/MOL
REMARK 927      BINDING AFFINITY PREDICTED BY RF-SCORE:    0.00 PKD
ROOT
HETATM    1  N   UNL     1     -11.217   8.978  65.289  1.00  0.00     3.801 NA 
HETATM    2  C   UNL     1     -10.643   8.759  66.632  1.00  0.00    -0.070 C  
HETATM    3  H1  UNL     1     -10.887   8.254  64.649  1.00  0.00     0.000 HD 
HETATM    4  H2  UNL     1     -11.024   9.916  64.938  1.00  0.00     0.000 HD 
ENDROOT
BRANCH   2   5
HETATM    5  C   UNL     1     -11.141   9.849  67.597  1.00  0.00    -0.101 C  
HETATM    6  O   UNL     1     -10.221  10.952  67.500  1.00  0.00    -0.179 OA 
HETATM    7  C   UNL     1     -10.689  12.103  68.198  1.00  0.00    -0.211 C  
HETATM    8  C   UNL     1     -10.699  11.792  69.723  1.00  0.00     0.369 C  
HETATM    9  O   UNL     1      -9.995   8.770  69.450  1.00  0.00    -0.186 OA 
HETATM   10  H   UNL     1     -10.055   8.475  70.351  1.00  0.00     0.000 HD 
HETATM   11  N   UNL     1      -9.315  11.545  70.225  1.00  0.00     1.957 NA 
HETATM   12  C   UNL     1     -11.598  10.560  69.981  1.00  0.00    -0.313 C  
HETATM   13  H2  UNL     1      -8.689  12.320  70.002  1.00  0.00     0.000 HD 
HETATM   14  O   UNL     1     -12.986  10.901  69.862  1.00  0.00    -0.242 OA 
HETATM   15  C   UNL     1     -11.238   9.370  69.061  1.00  0.00     0.115 C  
HETATM   16  H1  UNL     1      -9.322  11.341  71.224  1.00  0.00     0.000 HD 
HETATM   17  H   UNL     1     -13.538  10.144  70.020  1.00  0.00     0.000 HD 
BRANCH   7  18
HETATM   18  O   UNL     1      -9.836  13.228  67.968  1.00  0.00    -0.217 OA 
BRANCH  18  19
HETATM   19  C   UNL     1      -8.518  13.088  68.528  1.00  0.00    -0.048 C  
HETATM   20  O   UNL     1      -9.429  13.802  70.717  1.00  0.00     3.315 OA 
HETATM   21  C   UNL     1      -7.992  11.734  68.058  1.00  0.00    -0.141 C  
HETATM   22  C   UNL     1      -8.728  11.456  70.252  1.00  0.00     3.101 C  
HETATM   23  H   UNL     1      -9.411  13.721  71.663  1.00  0.00     0.000 HD 
HETATM   24  O   UNL     1      -8.339  10.768  69.062  1.00  0.00    -0.148 OA 
HETATM   25  C   UNL     1      -8.491  12.960  70.042  1.00  0.00     3.296 C  
BRANCH  21  26
HETATM   26  C   UNL     1      -6.477  11.694  67.856  1.00  0.00    -0.061 C  
HETATM   27  H   UNL     1      -4.936  10.685  68.568  1.00  0.00     0.000 HD 
HETATM   28  O   UNL     1      -5.876  10.710  68.694  1.00  0.00    -0.041 OA 
ENDBRANCH  21  26
BRANCH  22  29
HETATM   29  O   UNL     1      -7.949  11.023  71.363  1.00  0.00     4.208 OA 
BRANCH  29  30
HETATM   30  C   UNL     1      -8.203   9.714  71.911  1.00  0.00     1.703 C  
HETATM   31  C   UNL     1      -6.876   8.967  72.148  1.00  0.00     0.155 C  
HETATM   32  O   UNL     1      -5.939   9.819  72.823  1.00  0.00    -0.283 OA 
HETATM   33  C   UNL     1      -7.112   7.700  72.978  1.00  0.00    -0.073 C  
HETATM   34  C   UNL     1      -8.039   6.761  72.206  1.00  0.00    -0.099 C  
HETATM   35  N   UNL     1      -5.837   7.027  73.292  1.00  0.00    -0.049 NA 
HETATM   36  H   UNL     1      -5.122   9.358  72.969  1.00  0.00     0.000 HD 
HETATM   37  H1  UNL     1      -5.994   6.184  73.844  1.00  0.00     0.000 HD 
HETATM   38  H2  UNL     1      -5.181   7.659  73.750  1.00  0.00     0.000 HD 
HETATM   39  C   UNL     1      -9.371   7.438  71.840  1.00  0.00    -0.136 C  
HETATM   40  C   UNL     1      -9.215   8.834  71.128  1.00  0.00    -0.237 C  
HETATM   41  N   UNL     1     -10.163   6.499  71.019  1.00  0.00    -0.188 NA 
HETATM   42  H2  UNL     1     -10.294   5.595  71.473  1.00  0.00     0.000 HD 
HETATM   43  H1  UNL     1     -11.046   6.948  70.777  1.00  0.00     0.000 HD 
BRANCH  40  44
HETATM   44  O   UNL     1     -10.544   9.396  71.032  1.00  0.00    -0.282 OA 
BRANCH  44  45
HETATM   45  C   UNL     1     -11.531   8.801  71.887  1.00  0.00    -0.358 C  
HETATM   46  O   UNL     1     -12.714   8.460  71.173  1.00  0.00    -0.239 OA 
HETATM   47  C   UNL     1     -12.572   7.404  70.224  1.00  0.00     0.502 C  
HETATM   48  C   UNL     1     -12.123   6.124  70.933  1.00  0.00     0.249 C  
HETATM   49  H1  UNL     1      -9.362   7.032  73.905  1.00  0.00     0.000 HD 
HETATM   50  H2  UNL     1      -9.849   8.630  74.033  1.00  0.00     0.000 HD 
HETATM   51  O   UNL     1     -11.932   5.036  70.025  1.00  0.00     3.570 OA 
HETATM   52  C   UNL     1     -10.815   6.386  71.692  1.00  0.00    -0.247 C  
HETATM   53  H   UNL     1     -11.654   4.242  70.466  1.00  0.00     0.000 HD 
HETATM   54  O   UNL     1     -10.446   5.211  72.434  1.00  0.00    -0.203 OA 
HETATM   55  N   UNL     1      -9.727   7.840  73.400  1.00  0.00    -0.298 NA 
HETATM   56  C   UNL     1     -10.978   7.574  72.653  1.00  0.00    -0.336 C  
HETATM   57  H   UNL     1      -9.636   5.373  72.904  1.00  0.00     0.000 HD 
BRANCH  47  58
HETATM   58  C   UNL     1     -13.935   7.223  69.541  1.00  0.00     7.402 C  
HETATM   59  O   UNL     1     -14.020   8.046  68.375  1.00  0.00    14.077 OA 
HETATM   60  H   UNL     1     -14.863   7.934  67.953  1.00  0.00     0.000 HD 
ENDBRANCH  47  58
ENDBRANCH  44  45
ENDBRANCH  40  44
ENDBRANCH  29  30
ENDBRANCH  22  29
ENDBRANCH  18  19
ENDBRANCH   7  18
ENDBRANCH   2   5
TORSDOF 9
ENDMDL
MODEL      375
REMARK 921   NORMALIZED FREE ENERGY PREDICTED BY IDOCK:   87.05 KCAL/MOL
REMARK 922        TOTAL FREE ENERGY PREDICTED BY IDOCK:  130.81 KCAL/MOL
REMARK 923 INTER-LIGAND FREE ENERGY PREDICTED BY IDOCK:   94.16 KCAL/MOL
REMARK 924 INTRA-LIGAND FREE ENERGY PREDICTED BY IDOCK:   36.65 KCAL/MOL
REMARK 927      BINDING AFFINITY PREDICTED BY RF-SCORE:    0.00 PKD
ROOT
HETATM    1  N   UNL     1      -7.182   9.662  74.071  1.00  0.00     0.795 NA 
HETATM    2  C   UNL     1      -8.210  10.639  73.662  1.00  0.00    11.416 C  
HETATM    3  H1  UNL     1      -6.277  10.125  74.153  1.00  0.00     0.000 HD 
HETATM    4  H2  UNL     1      -7.146   8.858  73.444  1.00  0.00     0.000 HD 
ENDROOT
BRANCH   2   5
HETATM    5  C   UNL     1      -9.575   9.941  73.539  1.00  0.00     8.364 C  
HETATM    6  O   UNL     1      -9.467   8.984  72.469  1.00  0.00    -0.205 OA 
HETATM    7  C   UNL     1     -10.608   8.133  72.393  1.00  0.00    -0.323 C  
HETATM    8  C   UNL     1     -11.840   8.987  71.972  1.00  0.00    -0.356 C  
HETATM    9  O   UNL     1     -10.403  11.746  72.135  1.00  0.00     8.886 OA 
HETATM   10  H   UNL     1     -11.117  12.347  71.962  1.00  0.00     0.000 HD 
HETATM   11  N   UNL     1     -11.655   9.546  70.600  1.00  0.00    -0.277 NA 
HETATM   12  C   UNL     1     -12.041  10.125  73.000  1.00  0.00     3.781 C  
HETATM   13  H2  UNL     1     -11.453   8.814  69.918  1.00  0.00     0.000 HD 
HETATM   14  O   UNL     1     -12.587   9.622  74.227  1.00  0.00     6.146 OA 
HETATM   15  C   UNL     1     -10.737  10.918  73.257  1.00  0.00    14.077 C  
HETATM   16  H1  UNL     1     -12.462  10.106  70.324  1.00  0.00     0.000 HD 
HETATM   17  H   UNL     1     -12.710  10.321  74.858  1.00  0.00     0.000 HD 
BRANCH   7  18
HETATM   18  O   UNL     1     -10.417   7.099  71.424  1.00  0.00    -0.205 OA 
BRANCH  18  19
HETATM   19  C   UNL     1      -9.589   7.485  70.312  1.00  0.00    -0.165 C  
HETATM   20  O   UNL     1     -11.578   8.509  69.252  1.00  0.00    -0.112 OA 
HETATM   21  C   UNL     1      -8.336   8.121  70.909  1.00  0.00    -0.121 C  
HETATM   22  C   UNL     1      -9.720   9.863  70.214  1.00  0.00    -0.154 C  
HETATM   23  H   UNL     1     -11.939   9.207  68.718  1.00  0.00     0.000 HD 
HETATM   24  O   UNL     1      -8.576   9.533  71.003  1.00  0.00    -0.273 OA 
HETATM   25  C   UNL     1     -10.166   8.601  69.457  1.00  0.00    -0.209 C  
BRANCH  21  26
HETATM   26  C   UNL     1      -7.073   7.902  70.074  1.00  0.00    -0.050 C  
HETATM   27  H   UNL     1      -6.604   7.163  68.304  1.00  0.00     0.000 HD 
HETATM   28  O   UNL     1      -7.388   7.298  68.822  1.00  0.00    -0.090 OA 
ENDBRANCH  21  26
BRANCH  22  29
HETATM   29  O   UNL     1      -9.403  10.875  69.264  1.00  0.00    -0.133 OA 
BRANCH  29  30
HETATM   30  C   UNL     1      -9.700  12.246  69.595  1.00  0.00     1.578 C  
HETATM   31  C   UNL     1     -10.347  12.330  70.992  1.00  0.00     6.300 C  
HETATM   32  O   UNL     1      -9.601  11.547  71.934  1.00  0.00    10.033 OA 
HETATM   33  C   UNL     1     -10.412  13.785  71.467  1.00  0.00     5.093 C  
HETATM   34  C   UNL     1     -11.287  14.588  70.505  1.00  0.00    -0.166 C  
HETATM   35  N   UNL     1     -10.943  13.871  72.842  1.00  0.00     3.381 NA 
HETATM   36  H   UNL     1      -9.999  11.599  72.794  1.00  0.00     0.000 HD 
HETATM   37  H1  UNL     1     -10.987  14.839  73.159  1.00  0.00     0.000 HD 
HETATM   38  H2  UNL     1     -10.409  13.288  73.487  1.00  0.00     0.000 HD 
HETATM   39  C   UNL     1     -10.777  14.504  69.056  1.00  0.00    -0.251 C  
HETATM   40  C   UNL     1     -10.523  13.036  68.542  1.00  0.00    -0.249 C  
HETATM   41  N   UNL     1     -11.727  15.224  68.182  1.00  0.00    -0.422 NA 
HETATM   42  H2  UNL     1     -11.888  16.184  68.486  1.00  0.00     0.000 HD 
HETATM   43  H1  UNL     1     -11.388  15.167  67.222  1.00  0.00     0.000 HD 
BRANCH  40  44
HETATM   44  O   UNL     1      -9.881  13.159  67.252  1.00  0.00    -0.224 OA 
BRANCH  44  45
HETATM   45  C   UNL     1      -9.807  11.952  66.479  1.00  0.00    -0.206 C  
HETATM   46  O   UNL     1     -10.444  12.094  65.214  1.00  0.00    -0.258 OA 
HETATM   47  C   UNL     1      -9.802  12.985  64.303  1.00  0.00     0.112 C  
HETATM   48  C   UNL     1      -8.383  12.494  64.008  1.00  0.00     3.743 C  
HETATM   49  H1  UNL     1      -6.648  10.981  67.469  1.00  0.00     0.000 HD 
HETATM   50  H2  UNL     1      -8.118  10.705  68.226  1.00  0.00     0.000 HD 
HETATM   51  O   UNL     1      -7.677  13.367  63.124  1.00  0.00     8.760 OA 
HETATM   52  C   UNL     1      -7.599  12.362  65.322  1.00  0.00     3.614 C  
HETATM   53  H   UNL     1      -6.796  13.062  62.941  1.00  0.00     0.000 HD 
HETATM   54  O   UNL     1      -6.298  11.810  65.052  1.00  0.00     0.886 OA 
HETATM   55  N   UNL     1      -7.607  11.309  67.581  1.00  0.00    -0.102 NA 
HETATM   56  C   UNL     1      -8.350  11.454  66.309  1.00  0.00    -0.111 C  
HETATM   57  H   UNL     1      -5.814  11.728  65.865  1.00  0.00     0.000 HD 
BRANCH  47  58
HETATM   58  C   UNL     1     -10.660  13.028  63.031  1.00  0.00     1.616 C  
HETATM   59  O   UNL     1     -10.691  11.740  62.410  1.00  0.00     0.238 OA 
HETATM   60  H   UNL     1     -11.222  11.766  61.623  1.00  0.00     0.000 HD 
ENDBRANCH  47  58
ENDBRANCH  44  45
ENDBRANCH  40  44
ENDBRANCH  29  30
ENDBRANCH  22  29
ENDBRANCH  18  19
ENDBRANCH   7  18
ENDBRANCH   2   5
TORSDOF 9
ENDMDL
MODEL      376
REMARK 921   NORMALIZED FREE ENERGY PREDICTED BY IDOCK:   87.92 KCAL/MOL
REMARK 922        TOTAL FREE ENERGY PREDICTED BY IDOCK:  132.14 KCAL/MOL
REMARK 923 INTER-LIGAND FREE ENERGY PREDICTED BY IDOCK:   27.15 KCAL/MOL
REMARK 924 INTRA-LIGAND FREE ENERGY PREDICTED BY IDOCK:  104.98 KCAL/MOL
REMARK 927      BINDING AFFINITY PREDICTED BY RF-SCORE:    0.00 PKD
ROOT
HETATM    1  N   UNL     1      -6.954   8.548  64.997  1.00  0.00    -0.075 NA 
HETATM    2  C   UNL     1      -7.328   9.049  66.335  1.00  0.00    -0.088 C  
HETATM    3  H1  UNL     1      -6.343   7.736  65.090  1.00  0.00     0.000 HD 
HETATM    4  H2  UNL     1      -6.539   9.277  64.417  1.00  0.00     0.000 HD 
ENDROOT
BRANCH   2   5
HETATM    5  C   UNL     1      -8.251  10.272  66.196  1.00  0.00    -0.138 C  
HETATM    6  O   UNL     1      -8.812  10.529  67.497  1.00  0.00    -0.131 OA 
HETATM    7  C   UNL     1      -9.527  11.762  67.537  1.00  0.00    -0.174 C  
HETATM    8  C   UNL     1     -10.788  11.637  66.634  1.00  0.00    -0.283 C  
HETATM    9  O   UNL     1     -10.074   8.845  65.451  1.00  0.00    -0.260 OA 
HETATM   10  H   UNL     1     -10.770   8.720  64.816  1.00  0.00     0.000 HD 
HETATM   11  N   UNL     1     -11.724  10.604  67.168  1.00  0.00    -0.185 NA 
HETATM   12  C   UNL     1     -10.346  11.278  65.196  1.00  0.00    -0.295 C  
HETATM   13  H2  UNL     1     -11.974  10.787  68.140  1.00  0.00     0.000 HD 
HETATM   14  O   UNL     1      -9.768  12.413  64.536  1.00  0.00    -0.482 OA 
HETATM   15  C   UNL     1      -9.381  10.068  65.165  1.00  0.00    -0.245 C  
HETATM   16  H1  UNL     1     -12.550  10.522  66.575  1.00  0.00     0.000 HD 
HETATM   17  H   UNL     1      -9.496  12.192  63.652  1.00  0.00     0.000 HD 
BRANCH   7  18
HETATM   18  O   UNL     1      -9.948  12.070  68.869  1.00  0.00    -0.117 OA 
BRANCH  18  19
HETATM   19  C   UNL     1      -9.743  13.444  69.244  1.00  0.00     0.608 C  
HETATM   20  O   UNL     1      -9.396  13.991  66.855  1.00  0.00    -0.238 OA 
HETATM   21  C   UNL     1     -10.880  13.806  70.197  1.00  0.00     0.611 C  
HETATM   22  C   UNL     1     -11.438  14.676  68.108  1.00  0.00    -0.323 C  
HETATM   23  H   UNL     1      -9.506  14.612  66.145  1.00  0.00     0.000 HD 
HETATM   24  O   UNL     1     -11.943  14.356  69.405  1.00  0.00    -0.301 OA 
HETATM   25  C   UNL     1      -9.919  14.438  68.108  1.00  0.00    -0.223 C  
BRANCH  21  26
HETATM   26  C   UNL     1     -10.493  14.832  71.263  1.00  0.00     1.156 C  
HETATM   27  H   UNL     1     -10.074  16.761  71.347  1.00  0.00     0.000 HD 
HETATM   28  O   UNL     1     -10.315  16.123  70.685  1.00  0.00     0.165 OA 
ENDBRANCH  21  26
BRANCH  22  29
HETATM   29  O   UNL     1     -11.684  16.044  67.793  1.00  0.00    -0.085 OA 
BRANCH  29  30
HETATM   30  C   UNL     1     -10.625  16.810  67.188  1.00  0.00    -0.256 C  
HETATM   31  C   UNL     1     -11.161  17.603  65.980  1.00  0.00     0.809 C  
HETATM   32  O   UNL     1     -12.378  18.278  66.329  1.00  0.00     4.407 OA 
HETATM   33  C   UNL     1     -10.123  18.625  65.503  1.00  0.00     0.422 C  
HETATM   34  C   UNL     1      -8.865  17.885  65.047  1.00  0.00     3.288 C  
HETATM   35  N   UNL     1     -10.660  19.455  64.408  1.00  0.00     1.848 NA 
HETATM   36  H   UNL     1     -12.708  18.767  65.585  1.00  0.00     0.000 HD 
HETATM   37  H1  UNL     1      -9.970  20.135  64.090  1.00  0.00     0.000 HD 
HETATM   38  H2  UNL     1     -11.536  19.906  64.673  1.00  0.00     0.000 HD 
HETATM   39  C   UNL     1      -8.289  16.990  66.158  1.00  0.00    -0.241 C  
HETATM   40  C   UNL     1      -9.340  16.021  66.820  1.00  0.00    -0.238 C  
HETATM   41  N   UNL     1      -7.139  16.244  65.607  1.00  0.00     1.366 NA 
HETATM   42  H2  UNL     1      -6.436  16.856  65.193  1.00  0.00     0.000 HD 
HETATM   43  H1  UNL     1      -6.757  15.651  66.344  1.00  0.00     0.000 HD 
BRANCH  40  44
HETATM   44  O   UNL     1      -8.675  15.404  67.947  1.00  0.00    -0.157 OA 
BRANCH  44  45
HETATM   45  C   UNL     1      -8.579  13.973  67.903  1.00  0.00    -0.181 C  
HETATM   46  O   UNL     1      -7.240  13.526  68.086  1.00  0.00    -0.090 OA 
HETATM   47  C   UNL     1      -6.694  13.749  69.385  1.00  0.00    -0.079 C  
HETATM   48  C   UNL     1      -7.531  13.015  70.435  1.00  0.00     2.699 C  
HETATM   49  H1  UNL     1     -11.568  13.280  69.481  1.00  0.00     0.000 HD 
HETATM   50  H2  UNL     1     -11.285  13.600  67.860  1.00  0.00     0.000 HD 
HETATM   51  O   UNL     1      -7.049  13.228  71.764  1.00  0.00     2.720 OA 
HETATM   52  C   UNL     1      -8.992  13.478  70.346  1.00  0.00     4.437 C  
HETATM   53  H   UNL     1      -7.569  12.773  72.415  1.00  0.00     0.000 HD 
HETATM   54  O   UNL     1      -9.794  12.718  71.267  1.00  0.00     7.662 OA 
HETATM   55  N   UNL     1     -10.942  13.728  68.813  1.00  0.00    -0.257 NA 
HETATM   56  C   UNL     1      -9.530  13.292  68.919  1.00  0.00     0.223 C  
HETATM   57  H   UNL     1     -10.698  13.005  71.212  1.00  0.00     0.000 HD 
BRANCH  47  58
HETATM   58  C   UNL     1      -5.246  13.239  69.361  1.00  0.00    -0.075 C  
HETATM   59  O   UNL     1      -5.218  11.840  69.064  1.00  0.00    -0.050 OA 
HETATM   60  H   UNL     1      -4.322  11.525  69.048  1.00  0.00     0.000 HD 
ENDBRANCH  47  58
ENDBRANCH  44  45
ENDBRANCH  40  44
ENDBRANCH  29  30
ENDBRANCH  22  29
ENDBRANCH  18  19
ENDBRANCH   7  18
ENDBRANCH   2   5
TORSDOF 9
ENDMDL
