MODEL        1
REMARK 921   NORMALIZED FREE ENERGY PREDICTED BY IDOCK:   -7.49 KCAL/MOL
REMARK 922        TOTAL FREE ENERGY PREDICTED BY IDOCK:  -10.02 KCAL/MOL
REMARK 923 INTER-LIGAND FREE ENERGY PREDICTED BY IDOCK:   -9.24 KCAL/MOL
REMARK 924 INTRA-LIGAND FREE ENERGY PREDICTED BY IDOCK:   -0.78 KCAL/MOL
REMARK 927      BINDING AFFINITY PREDICTED BY RF-SCORE:    0.00 PKD
ROOT
HETATM    1  F   UNL     1      -8.674  18.957  68.761  1.00  0.00    -0.352 F  
HETATM    2  C   UNL     1      -9.176  17.921  68.075  1.00  0.00    -0.267 A  
HETATM    3  C   UNL     1     -10.477  17.503  68.316  1.00  0.00    -0.383 A  
HETATM    4  C   UNL     1     -10.996  16.406  67.617  1.00  0.00    -0.225 A  
HETATM    5  C   UNL     1     -10.203  15.710  66.691  1.00  0.00    -0.283 A  
HETATM    6  C   UNL     1      -8.388  17.284  67.128  1.00  0.00    -0.220 A  
HETATM    7  C   UNL     1      -8.902  16.186  66.435  1.00  0.00    -0.355 A  
ENDROOT
BRANCH   5   8
HETATM    8  C   UNL     1     -10.699  14.486  65.930  1.00  0.00    -0.308 C  
HETATM    9  C   UNL     1     -11.675  14.931  64.825  1.00  0.00    -0.402 C  
HETATM   10  C   UNL     1     -12.157  13.744  64.000  1.00  0.00    -0.403 C  
HETATM   11  N   UNL     1     -12.786  12.741  64.851  1.00  0.00    -0.825 NA 
HETATM   12  C   UNL     1     -11.852  12.227  65.854  1.00  0.00    -0.354 C  
HETATM   13  H   UNL     1     -13.195  11.987  64.300  1.00  0.00     0.000 HD 
HETATM   14  C   UNL     1     -11.327  13.343  66.778  1.00  0.00    -0.353 C  
BRANCH  14  15
HETATM   15  C   UNL     1     -10.328  12.755  67.798  1.00  0.00    -0.221 C  
BRANCH  15  16
HETATM   16  O   UNL     1     -11.028  11.893  68.702  1.00  0.00    -0.204 OA 
BRANCH  16  17
HETATM   17  C   UNL     1     -11.745  12.470  69.717  1.00  0.00    -0.285 A  
HETATM   18  C   UNL     1     -12.018  13.834  69.843  1.00  0.00    -0.412 A  
HETATM   19  C   UNL     1     -12.822  14.237  70.892  1.00  0.00    -0.347 A  
HETATM   20  C   UNL     1     -13.331  13.349  71.808  1.00  0.00    -0.394 A  
HETATM   21  C   UNL     1     -13.058  12.000  71.731  1.00  0.00    -0.460 A  
HETATM   22  O   UNL     1     -14.104  13.954  72.747  1.00  0.00    -0.668 OA 
HETATM   23  C   UNL     1     -12.262  11.563  70.665  1.00  0.00    -0.473 A  
HETATM   24  C   UNL     1     -14.081  15.319  72.275  1.00  0.00    -0.554 C  
HETATM   25  O   UNL     1     -13.212  15.517  71.141  1.00  0.00    -0.491 OA 
ENDBRANCH  16  17
ENDBRANCH  15  16
ENDBRANCH  14  15
ENDBRANCH   5   8
TORSDOF 4
ENDMDL
MODEL        2
REMARK 921   NORMALIZED FREE ENERGY PREDICTED BY IDOCK:   -7.44 KCAL/MOL
REMARK 922        TOTAL FREE ENERGY PREDICTED BY IDOCK:   -9.96 KCAL/MOL
REMARK 923 INTER-LIGAND FREE ENERGY PREDICTED BY IDOCK:   -9.16 KCAL/MOL
REMARK 924 INTRA-LIGAND FREE ENERGY PREDICTED BY IDOCK:   -0.80 KCAL/MOL
REMARK 927      BINDING AFFINITY PREDICTED BY RF-SCORE:    0.00 PKD
ROOT
HETATM    1  F   UNL     1     -10.360   8.423  67.968  1.00  0.00    -0.222 F  
HETATM    2  C   UNL     1     -10.611   9.671  67.552  1.00  0.00    -0.277 A  
HETATM    3  C   UNL     1     -11.375  10.519  68.343  1.00  0.00    -0.328 A  
HETATM    4  C   UNL     1     -11.657  11.816  67.900  1.00  0.00    -0.377 A  
HETATM    5  C   UNL     1     -11.196  12.260  66.650  1.00  0.00    -0.367 A  
HETATM    6  C   UNL     1     -10.099  10.101  66.337  1.00  0.00    -0.300 A  
HETATM    7  C   UNL     1     -10.386  11.393  65.890  1.00  0.00    -0.299 A  
ENDROOT
BRANCH   5   8
HETATM    8  C   UNL     1     -11.506  13.647  66.097  1.00  0.00    -0.342 C  
HETATM    9  C   UNL     1     -11.883  13.531  64.609  1.00  0.00    -0.428 C  
HETATM   10  C   UNL     1     -12.256  14.888  64.024  1.00  0.00    -0.123 C  
HETATM   11  N   UNL     1     -11.167  15.843  64.194  1.00  0.00    -1.005 NA 
HETATM   12  C   UNL     1     -10.849  16.048  65.608  1.00  0.00    -0.266 C  
HETATM   13  H   UNL     1     -11.368  16.726  63.725  1.00  0.00     0.000 HD 
HETATM   14  C   UNL     1     -10.417  14.739  66.297  1.00  0.00    -0.300 C  
BRANCH  14  15
HETATM   15  C   UNL     1     -10.118  15.002  67.788  1.00  0.00    -0.234 C  
BRANCH  15  16
HETATM   16  O   UNL     1     -11.190  15.763  68.357  1.00  0.00    -0.326 OA 
BRANCH  16  17
HETATM   17  C   UNL     1     -11.590  15.459  69.632  1.00  0.00    -0.331 A  
HETATM   18  C   UNL     1     -11.430  16.280  70.750  1.00  0.00    -0.327 A  
HETATM   19  C   UNL     1     -11.961  15.847  71.950  1.00  0.00    -0.504 A  
HETATM   20  C   UNL     1     -12.611  14.642  72.071  1.00  0.00    -0.334 A  
HETATM   21  C   UNL     1     -12.761  13.795  70.995  1.00  0.00    -0.416 A  
HETATM   22  O   UNL     1     -13.064  14.420  73.333  1.00  0.00    -0.587 OA 
HETATM   23  C   UNL     1     -12.250  14.219  69.763  1.00  0.00    -0.390 A  
HETATM   24  C   UNL     1     -12.686  15.657  73.976  1.00  0.00    -0.567 C  
HETATM   25  O   UNL     1     -11.923  16.535  73.123  1.00  0.00    -0.516 OA 
ENDBRANCH  16  17
ENDBRANCH  15  16
ENDBRANCH  14  15
ENDBRANCH   5   8
TORSDOF 4
ENDMDL
MODEL        3
REMARK 921   NORMALIZED FREE ENERGY PREDICTED BY IDOCK:   -7.42 KCAL/MOL
REMARK 922        TOTAL FREE ENERGY PREDICTED BY IDOCK:   -9.93 KCAL/MOL
REMARK 923 INTER-LIGAND FREE ENERGY PREDICTED BY IDOCK:   -9.04 KCAL/MOL
REMARK 924 INTRA-LIGAND FREE ENERGY PREDICTED BY IDOCK:   -0.89 KCAL/MOL
REMARK 927      BINDING AFFINITY PREDICTED BY RF-SCORE:    0.00 PKD
ROOT
HETATM    1  F   UNL     1     -11.816  16.202  64.166  1.00  0.00    -0.510 F  
HETATM    2  C   UNL     1     -11.462  15.063  64.777  1.00  0.00    -0.403 A  
HETATM    3  C   UNL     1     -10.305  15.026  65.544  1.00  0.00    -0.397 A  
HETATM    4  C   UNL     1      -9.921  13.831  66.164  1.00  0.00    -0.318 A  
HETATM    5  C   UNL     1     -10.681  12.662  65.996  1.00  0.00    -0.295 A  
HETATM    6  C   UNL     1     -12.259  13.937  64.637  1.00  0.00    -0.449 A  
HETATM    7  C   UNL     1     -11.873  12.743  65.250  1.00  0.00    -0.442 A  
ENDROOT
BRANCH   5   8
HETATM    8  C   UNL     1     -10.290  11.324  66.613  1.00  0.00    -0.279 C  
HETATM    9  C   UNL     1     -10.338  10.229  65.531  1.00  0.00    -0.239 C  
HETATM   10  C   UNL     1      -9.901   8.879  66.088  1.00  0.00    -0.256 C  
HETATM   11  N   UNL     1     -10.727   8.496  67.227  1.00  0.00    -0.447 NA 
HETATM   12  C   UNL     1     -10.628   9.471  68.314  1.00  0.00    -0.216 C  
HETATM   13  H   UNL     1     -10.506   7.555  67.549  1.00  0.00     0.000 HD 
HETATM   14  C   UNL     1     -11.086  10.875  67.872  1.00  0.00    -0.362 C  
BRANCH  14  15
HETATM   15  C   UNL     1     -10.938  11.871  69.043  1.00  0.00    -0.219 C  
BRANCH  15  16
HETATM   16  O   UNL     1     -12.094  12.716  69.093  1.00  0.00    -0.249 OA 
BRANCH  16  17
HETATM   17  C   UNL     1     -12.157  13.660  70.084  1.00  0.00    -0.361 A  
HETATM   18  C   UNL     1     -12.808  13.507  71.310  1.00  0.00    -0.420 A  
HETATM   19  C   UNL     1     -12.708  14.536  72.227  1.00  0.00    -0.328 A  
HETATM   20  C   UNL     1     -12.016  15.693  71.957  1.00  0.00    -0.457 A  
HETATM   21  C   UNL     1     -11.386  15.889  70.747  1.00  0.00    -0.424 A  
HETATM   22  O   UNL     1     -12.035  16.565  72.999  1.00  0.00    -0.530 OA 
HETATM   23  C   UNL     1     -11.455  14.852  69.809  1.00  0.00    -0.328 A  
HETATM   24  C   UNL     1     -12.760  15.794  73.982  1.00  0.00    -0.580 C  
HETATM   25  O   UNL     1     -13.251  14.537  73.474  1.00  0.00    -0.526 OA 
ENDBRANCH  16  17
ENDBRANCH  15  16
ENDBRANCH  14  15
ENDBRANCH   5   8
TORSDOF 4
ENDMDL
MODEL        4
REMARK 921   NORMALIZED FREE ENERGY PREDICTED BY IDOCK:   -7.40 KCAL/MOL
REMARK 922        TOTAL FREE ENERGY PREDICTED BY IDOCK:   -9.91 KCAL/MOL
REMARK 923 INTER-LIGAND FREE ENERGY PREDICTED BY IDOCK:   -8.82 KCAL/MOL
REMARK 924 INTRA-LIGAND FREE ENERGY PREDICTED BY IDOCK:   -1.09 KCAL/MOL
REMARK 927      BINDING AFFINITY PREDICTED BY RF-SCORE:    0.00 PKD
ROOT
HETATM    1  F   UNL     1      -8.135  19.142  68.081  1.00  0.00    -0.300 F  
HETATM    2  C   UNL     1      -8.718  18.082  67.505  1.00  0.00    -0.248 A  
HETATM    3  C   UNL     1     -10.103  17.996  67.467  1.00  0.00    -0.356 A  
HETATM    4  C   UNL     1     -10.714  16.879  66.887  1.00  0.00    -0.130 A  
HETATM    5  C   UNL     1      -9.939  15.832  66.364  1.00  0.00    -0.294 A  
HETATM    6  C   UNL     1      -7.928  17.087  66.950  1.00  0.00    -0.256 A  
HETATM    7  C   UNL     1      -8.537  15.968  66.376  1.00  0.00    -0.369 A  
ENDROOT
BRANCH   5   8
HETATM    8  C   UNL     1     -10.548  14.572  65.757  1.00  0.00    -0.326 C  
HETATM    9  C   UNL     1     -11.336  14.947  64.488  1.00  0.00    -0.306 C  
HETATM   10  C   UNL     1     -11.919  13.711  63.812  1.00  0.00    -0.377 C  
HETATM   11  N   UNL     1     -12.772  12.971  64.734  1.00  0.00    -0.707 NA 
HETATM   12  C   UNL     1     -12.027  12.517  65.909  1.00  0.00    -0.409 C  
HETATM   13  H   UNL     1     -13.241  12.194  64.267  1.00  0.00     0.000 HD 
HETATM   14  C   UNL     1     -11.422  13.695  66.698  1.00  0.00    -0.365 C  
BRANCH  14  15
HETATM   15  C   UNL     1     -10.625  13.164  67.909  1.00  0.00    -0.234 C  
BRANCH  15  16
HETATM   16  O   UNL     1     -11.538  12.802  68.952  1.00  0.00    -0.274 OA 
BRANCH  16  17
HETATM   17  C   UNL     1     -11.761  13.708  69.955  1.00  0.00    -0.276 A  
HETATM   18  C   UNL     1     -12.517  13.475  71.106  1.00  0.00    -0.424 A  
HETATM   19  C   UNL     1     -12.577  14.479  72.054  1.00  0.00    -0.325 A  
HETATM   20  C   UNL     1     -11.942  15.685  71.884  1.00  0.00    -0.447 A  
HETATM   21  C   UNL     1     -11.211  15.960  70.748  1.00  0.00    -0.398 A  
HETATM   22  O   UNL     1     -12.121  16.521  72.940  1.00  0.00    -0.517 OA 
HETATM   23  C   UNL     1     -11.118  14.951  69.781  1.00  0.00    -0.300 A  
HETATM   24  C   UNL     1     -12.885  15.674  73.826  1.00  0.00    -0.560 C  
HETATM   25  O   UNL     1     -13.238  14.405  73.240  1.00  0.00    -0.622 OA 
ENDBRANCH  16  17
ENDBRANCH  15  16
ENDBRANCH  14  15
ENDBRANCH   5   8
TORSDOF 4
ENDMDL
MODEL        5
REMARK 921   NORMALIZED FREE ENERGY PREDICTED BY IDOCK:   -7.36 KCAL/MOL
REMARK 922        TOTAL FREE ENERGY PREDICTED BY IDOCK:   -9.87 KCAL/MOL
REMARK 923 INTER-LIGAND FREE ENERGY PREDICTED BY IDOCK:   -8.65 KCAL/MOL
REMARK 924 INTRA-LIGAND FREE ENERGY PREDICTED BY IDOCK:   -1.22 KCAL/MOL
REMARK 927      BINDING AFFINITY PREDICTED BY RF-SCORE:    0.00 PKD
ROOT
HETATM    1  F   UNL     1      -9.527   9.300  71.112  1.00  0.00    -0.294 F  
HETATM    2  C   UNL     1      -9.899   9.939  69.995  1.00  0.00    -0.243 A  
HETATM    3  C   UNL     1     -11.241   9.981  69.642  1.00  0.00    -0.285 A  
HETATM    4  C   UNL     1     -11.629  10.629  68.463  1.00  0.00    -0.279 A  
HETATM    5  C   UNL     1     -10.671  11.215  67.621  1.00  0.00    -0.273 A  
HETATM    6  C   UNL     1      -8.937  10.555  69.208  1.00  0.00    -0.148 A  
HETATM    7  C   UNL     1      -9.322  11.196  68.029  1.00  0.00    -0.166 A  
ENDROOT
BRANCH   5   8
HETATM    8  C   UNL     1     -11.029  11.898  66.306  1.00  0.00    -0.345 C  
HETATM    9  C   UNL     1     -10.159  11.320  65.175  1.00  0.00    -0.326 C  
HETATM   10  C   UNL     1     -10.520  11.934  63.828  1.00  0.00    -0.423 C  
HETATM   11  N   UNL     1     -10.391  13.386  63.868  1.00  0.00    -0.668 NA 
HETATM   12  C   UNL     1     -11.280  13.976  64.871  1.00  0.00    -0.362 C  
HETATM   13  H   UNL     1     -10.540  13.800  62.948  1.00  0.00     0.000 HD 
HETATM   14  C   UNL     1     -10.976  13.453  66.289  1.00  0.00    -0.296 C  
BRANCH  14  15
HETATM   15  C   UNL     1     -11.955  14.083  67.303  1.00  0.00    -0.413 C  
BRANCH  15  16
HETATM   16  O   UNL     1     -11.227  14.933  68.197  1.00  0.00    -0.274 OA 
BRANCH  16  17
HETATM   17  C   UNL     1     -11.584  14.932  69.519  1.00  0.00    -0.303 A  
HETATM   18  C   UNL     1     -11.373  15.981  70.417  1.00  0.00    -0.405 A  
HETATM   19  C   UNL     1     -11.866  15.841  71.700  1.00  0.00    -0.464 A  
HETATM   20  C   UNL     1     -12.526  14.709  72.112  1.00  0.00    -0.316 A  
HETATM   21  C   UNL     1     -12.727  13.643  71.261  1.00  0.00    -0.443 A  
HETATM   22  O   UNL     1     -12.936  14.787  73.405  1.00  0.00    -0.521 OA 
HETATM   23  C   UNL     1     -12.255  13.768  69.949  1.00  0.00    -0.383 A  
HETATM   24  C   UNL     1     -12.519  16.129  73.740  1.00  0.00    -0.587 C  
HETATM   25  O   UNL     1     -11.777  16.776  72.686  1.00  0.00    -0.429 OA 
ENDBRANCH  16  17
ENDBRANCH  15  16
ENDBRANCH  14  15
ENDBRANCH   5   8
TORSDOF 4
ENDMDL
MODEL        6
REMARK 921   NORMALIZED FREE ENERGY PREDICTED BY IDOCK:   -7.30 KCAL/MOL
REMARK 922        TOTAL FREE ENERGY PREDICTED BY IDOCK:   -9.79 KCAL/MOL
REMARK 923 INTER-LIGAND FREE ENERGY PREDICTED BY IDOCK:   -9.13 KCAL/MOL
REMARK 924 INTRA-LIGAND FREE ENERGY PREDICTED BY IDOCK:   -0.67 KCAL/MOL
REMARK 927      BINDING AFFINITY PREDICTED BY RF-SCORE:    0.00 PKD
ROOT
HETATM    1  F   UNL     1     -12.416  10.704  71.721  1.00  0.00    -0.454 F  
HETATM    2  C   UNL     1     -12.247  11.532  70.682  1.00  0.00    -0.378 A  
HETATM    3  C   UNL     1     -12.493  12.889  70.837  1.00  0.00    -0.383 A  
HETATM    4  C   UNL     1     -12.340  13.753  69.746  1.00  0.00    -0.311 A  
HETATM    5  C   UNL     1     -11.963  13.255  68.488  1.00  0.00    -0.340 A  
HETATM    6  C   UNL     1     -11.823  11.021  69.464  1.00  0.00    -0.404 A  
HETATM    7  C   UNL     1     -11.676  11.880  68.373  1.00  0.00    -0.387 A  
ENDROOT
BRANCH   5   8
HETATM    8  C   UNL     1     -11.819  14.140  67.255  1.00  0.00    -0.452 C  
HETATM    9  C   UNL     1     -12.408  13.412  66.032  1.00  0.00    -0.471 C  
HETATM   10  C   UNL     1     -12.337  14.282  64.783  1.00  0.00    -0.426 C  
HETATM   11  N   UNL     1     -10.964  14.689  64.511  1.00  0.00    -0.621 NA 
HETATM   12  C   UNL     1     -10.406  15.467  65.618  1.00  0.00    -0.384 C  
HETATM   13  H   UNL     1     -10.891  15.193  63.628  1.00  0.00     0.000 HD 
HETATM   14  C   UNL     1     -10.391  14.667  66.935  1.00  0.00    -0.264 C  
BRANCH  14  15
HETATM   15  C   UNL     1      -9.821  15.538  68.075  1.00  0.00    -0.212 C  
BRANCH  15  16
HETATM   16  O   UNL     1     -10.481  16.809  68.074  1.00  0.00    -0.304 OA 
BRANCH  16  17
HETATM   17  C   UNL     1      -9.709  17.935  67.954  1.00  0.00    -0.288 A  
HETATM   18  C   UNL     1      -8.419  18.092  68.465  1.00  0.00    -0.312 A  
HETATM   19  C   UNL     1      -7.754  19.271  68.186  1.00  0.00    -0.297 A  
HETATM   20  C   UNL     1      -8.328  20.280  67.451  1.00  0.00    -0.340 A  
HETATM   21  C   UNL     1      -9.609  20.169  66.955  1.00  0.00    -0.558 A  
HETATM   22  O   UNL     1      -7.496  21.341  67.286  1.00  0.00    -0.449 OA 
HETATM   23  C   UNL     1     -10.297  18.976  67.207  1.00  0.00    -0.505 A  
HETATM   24  C   UNL     1      -6.305  20.855  67.943  1.00  0.00    -0.343 C  
HETATM   25  O   UNL     1      -6.486  19.572  68.578  1.00  0.00    -0.243 OA 
ENDBRANCH  16  17
ENDBRANCH  15  16
ENDBRANCH  14  15
ENDBRANCH   5   8
TORSDOF 4
ENDMDL
MODEL        7
REMARK 921   NORMALIZED FREE ENERGY PREDICTED BY IDOCK:   -7.26 KCAL/MOL
REMARK 922        TOTAL FREE ENERGY PREDICTED BY IDOCK:   -9.74 KCAL/MOL
REMARK 923 INTER-LIGAND FREE ENERGY PREDICTED BY IDOCK:   -7.98 KCAL/MOL
REMARK 924 INTRA-LIGAND FREE ENERGY PREDICTED BY IDOCK:   -1.76 KCAL/MOL
REMARK 927      BINDING AFFINITY PREDICTED BY RF-SCORE:    0.00 PKD
ROOT
HETATM    1  F   UNL     1      -9.394   9.735  66.208  1.00  0.00    -0.173 F  
HETATM    2  C   UNL     1      -9.935  10.554  67.119  1.00  0.00    -0.193 A  
HETATM    3  C   UNL     1      -9.161  11.557  67.687  1.00  0.00    -0.171 A  
HETATM    4  C   UNL     1      -9.718  12.399  68.656  1.00  0.00    -0.064 A  
HETATM    5  C   UNL     1     -11.046  12.225  69.077  1.00  0.00    -0.289 A  
HETATM    6  C   UNL     1     -11.265  10.392  67.478  1.00  0.00    -0.254 A  
HETATM    7  C   UNL     1     -11.820  11.228  68.450  1.00  0.00    -0.331 A  
ENDROOT
BRANCH   5   8
HETATM    8  C   UNL     1     -11.694  13.085  70.157  1.00  0.00    -0.244 C  
HETATM    9  C   UNL     1     -12.718  12.240  70.937  1.00  0.00    -0.277 C  
HETATM   10  C   UNL     1     -13.354  13.043  72.066  1.00  0.00    -0.492 C  
HETATM   11  N   UNL     1     -13.988  14.251  71.550  1.00  0.00    -0.366 NA 
HETATM   12  C   UNL     1     -13.019  15.123  70.884  1.00  0.00    -0.429 C  
HETATM   13  H   UNL     1     -14.496  14.748  72.281  1.00  0.00     0.000 HD 
HETATM   14  C   UNL     1     -12.337  14.423  69.692  1.00  0.00    -0.300 C  
BRANCH  14  15
HETATM   15  C   UNL     1     -11.308  15.371  69.042  1.00  0.00    -0.316 C  
BRANCH  15  16
HETATM   16  O   UNL     1     -11.775  15.757  67.743  1.00  0.00    -0.183 OA 
BRANCH  16  17
HETATM   17  C   UNL     1     -11.635  14.861  66.717  1.00  0.00    -0.269 A  
HETATM   18  C   UNL     1     -12.660  14.085  66.172  1.00  0.00    -0.407 A  
HETATM   19  C   UNL     1     -12.358  13.285  65.086  1.00  0.00    -0.466 A  
HETATM   20  C   UNL     1     -11.092  13.219  64.555  1.00  0.00    -0.372 A  
HETATM   21  C   UNL     1     -10.050  13.949  65.086  1.00  0.00    -0.330 A  
HETATM   22  O   UNL     1     -11.019  12.383  63.487  1.00  0.00    -0.437 OA 
HETATM   23  C   UNL     1     -10.335  14.784  66.173  1.00  0.00    -0.314 A  
HETATM   24  C   UNL     1     -12.401  11.983  63.363  1.00  0.00    -0.523 C  
HETATM   25  O   UNL     1     -13.241  12.495  64.418  1.00  0.00    -0.782 OA 
ENDBRANCH  16  17
ENDBRANCH  15  16
ENDBRANCH  14  15
ENDBRANCH   5   8
TORSDOF 4
ENDMDL
MODEL        8
REMARK 921   NORMALIZED FREE ENERGY PREDICTED BY IDOCK:   -7.25 KCAL/MOL
REMARK 922        TOTAL FREE ENERGY PREDICTED BY IDOCK:   -9.73 KCAL/MOL
REMARK 923 INTER-LIGAND FREE ENERGY PREDICTED BY IDOCK:   -9.17 KCAL/MOL
REMARK 924 INTRA-LIGAND FREE ENERGY PREDICTED BY IDOCK:   -0.55 KCAL/MOL
REMARK 927      BINDING AFFINITY PREDICTED BY RF-SCORE:    0.00 PKD
ROOT
HETATM    1  F   UNL     1     -13.273  16.081  71.789  1.00  0.00    -0.517 F  
HETATM    2  C   UNL     1     -13.053  14.782  71.546  1.00  0.00    -0.354 A  
HETATM    3  C   UNL     1     -12.266  14.409  70.465  1.00  0.00    -0.411 A  
HETATM    4  C   UNL     1     -12.053  13.052  70.196  1.00  0.00    -0.377 A  
HETATM    5  C   UNL     1     -12.649  12.063  70.995  1.00  0.00    -0.370 A  
HETATM    6  C   UNL     1     -13.611  13.827  72.383  1.00  0.00    -0.690 A  
HETATM    7  C   UNL     1     -13.405  12.472  72.111  1.00  0.00    -0.540 A  
ENDROOT
BRANCH   5   8
HETATM    8  C   UNL     1     -12.486  10.571  70.726  1.00  0.00    -0.472 C  
HETATM    9  C   UNL     1     -13.240   9.772  71.806  1.00  0.00    -0.532 C  
HETATM   10  C   UNL     1     -13.153   8.273  71.549  1.00  0.00    -0.293 C  
HETATM   11  N   UNL     1     -11.762   7.838  71.481  1.00  0.00    -0.271 NA 
HETATM   12  C   UNL     1     -11.042   8.511  70.399  1.00  0.00    -0.231 C  
HETATM   13  H   UNL     1     -11.691   6.824  71.402  1.00  0.00     0.000 HD 
HETATM   14  C   UNL     1     -11.031  10.042  70.579  1.00  0.00    -0.392 C  
BRANCH  14  15
HETATM   15  C   UNL     1     -10.285  10.705  69.402  1.00  0.00    -0.192 C  
BRANCH  15  16
HETATM   16  O   UNL     1     -10.480   9.923  68.217  1.00  0.00    -0.188 OA 
BRANCH  16  17
HETATM   17  C   UNL     1     -10.718  10.585  67.042  1.00  0.00    -0.250 A  
HETATM   18  C   UNL     1     -11.528  11.713  66.895  1.00  0.00    -0.320 A  
HETATM   19  C   UNL     1     -11.597  12.301  65.646  1.00  0.00    -0.380 A  
HETATM   20  C   UNL     1     -10.919  11.798  64.562  1.00  0.00    -0.324 A  
HETATM   21  C   UNL     1     -10.133  10.670  64.664  1.00  0.00    -0.417 A  
HETATM   22  O   UNL     1     -11.117  12.534  63.438  1.00  0.00    -0.459 OA 
HETATM   23  C   UNL     1     -10.030  10.068  65.924  1.00  0.00    -0.339 A  
HETATM   24  C   UNL     1     -11.943  13.600  63.955  1.00  0.00    -0.431 C  
HETATM   25  O   UNL     1     -12.309  13.418  65.338  1.00  0.00    -0.422 OA 
ENDBRANCH  16  17
ENDBRANCH  15  16
ENDBRANCH  14  15
ENDBRANCH   5   8
TORSDOF 4
ENDMDL
MODEL        9
REMARK 921   NORMALIZED FREE ENERGY PREDICTED BY IDOCK:   -7.21 KCAL/MOL
REMARK 922        TOTAL FREE ENERGY PREDICTED BY IDOCK:   -9.67 KCAL/MOL
REMARK 923 INTER-LIGAND FREE ENERGY PREDICTED BY IDOCK:   -9.19 KCAL/MOL
REMARK 924 INTRA-LIGAND FREE ENERGY PREDICTED BY IDOCK:   -0.48 KCAL/MOL
REMARK 927      BINDING AFFINITY PREDICTED BY RF-SCORE:    0.00 PKD
ROOT
HETATM    1  F   UNL     1     -11.976   7.703  70.800  1.00  0.00    -0.303 F  
HETATM    2  C   UNL     1     -12.141   9.028  70.915  1.00  0.00    -0.198 A  
HETATM    3  C   UNL     1     -11.336   9.887  70.179  1.00  0.00    -0.335 A  
HETATM    4  C   UNL     1     -11.490  11.271  70.315  1.00  0.00    -0.286 A  
HETATM    5  C   UNL     1     -12.436  11.800  71.208  1.00  0.00    -0.351 A  
HETATM    6  C   UNL     1     -13.118   9.523  71.765  1.00  0.00    -0.504 A  
HETATM    7  C   UNL     1     -13.269  10.904  71.907  1.00  0.00    -0.508 A  
ENDROOT
BRANCH   5   8
HETATM    8  C   UNL     1     -12.622  13.297  71.428  1.00  0.00    -0.365 C  
HETATM    9  C   UNL     1     -13.982  13.550  72.105  1.00  0.00    -0.575 C  
HETATM   10  C   UNL     1     -14.190  15.031  72.396  1.00  0.00    -0.421 C  
HETATM   11  N   UNL     1     -14.083  15.820  71.174  1.00  0.00    -0.561 NA 
HETATM   12  C   UNL     1     -12.763  15.676  70.557  1.00  0.00    -0.346 C  
HETATM   13  H   UNL     1     -14.312  16.800  71.341  1.00  0.00     0.000 HD 
HETATM   14  C   UNL     1     -12.460  14.213  70.181  1.00  0.00    -0.391 C  
BRANCH  14  15
HETATM   15  C   UNL     1     -11.050  14.110  69.560  1.00  0.00    -0.178 C  
BRANCH  15  16
HETATM   16  O   UNL     1     -11.068  14.686  68.249  1.00  0.00    -0.253 OA 
BRANCH  16  17
HETATM   17  C   UNL     1     -11.168  13.840  67.176  1.00  0.00    -0.311 A  
HETATM   18  C   UNL     1     -12.215  13.823  66.251  1.00  0.00    -0.489 A  
HETATM   19  C   UNL     1     -12.118  12.951  65.183  1.00  0.00    -0.445 A  
HETATM   20  C   UNL     1     -11.049  12.104  65.024  1.00  0.00    -0.320 A  
HETATM   21  C   UNL     1     -10.012  12.075  65.931  1.00  0.00    -0.260 A  
HETATM   22  O   UNL     1     -11.150  11.344  63.902  1.00  0.00    -0.384 OA 
HETATM   23  C   UNL     1     -10.076  12.963  67.012  1.00  0.00    -0.245 A  
HETATM   24  C   UNL     1     -12.374  11.862  63.335  1.00  0.00    -0.462 C  
HETATM   25  O   UNL     1     -13.029  12.830  64.179  1.00  0.00    -0.695 OA 
ENDBRANCH  16  17
ENDBRANCH  15  16
ENDBRANCH  14  15
ENDBRANCH   5   8
TORSDOF 4
ENDMDL
MODEL       10
REMARK 921   NORMALIZED FREE ENERGY PREDICTED BY IDOCK:   -7.16 KCAL/MOL
REMARK 922        TOTAL FREE ENERGY PREDICTED BY IDOCK:   -9.61 KCAL/MOL
REMARK 923 INTER-LIGAND FREE ENERGY PREDICTED BY IDOCK:   -8.45 KCAL/MOL
REMARK 924 INTRA-LIGAND FREE ENERGY PREDICTED BY IDOCK:   -1.16 KCAL/MOL
REMARK 927      BINDING AFFINITY PREDICTED BY RF-SCORE:    0.00 PKD
ROOT
HETATM    1  F   UNL     1     -11.186  19.686  67.112  1.00  0.00    -0.567 F  
HETATM    2  C   UNL     1     -10.595  18.488  67.222  1.00  0.00    -0.413 A  
HETATM    3  C   UNL     1     -10.386  17.719  66.085  1.00  0.00    -0.340 A  
HETATM    4  C   UNL     1      -9.790  16.457  66.200  1.00  0.00    -0.362 A  
HETATM    5  C   UNL     1      -9.425  15.951  67.457  1.00  0.00    -0.219 A  
HETATM    6  C   UNL     1     -10.197  18.034  68.471  1.00  0.00    -0.392 A  
HETATM    7  C   UNL     1      -9.609  16.773  68.587  1.00  0.00    -0.255 A  
ENDROOT
BRANCH   5   8
HETATM    8  C   UNL     1      -8.810  14.569  67.648  1.00  0.00    -0.189 C  
HETATM    9  C   UNL     1      -7.304  14.632  67.334  1.00  0.00    -0.195 C  
HETATM   10  C   UNL     1      -6.633  13.283  67.565  1.00  0.00    -0.143 C  
HETATM   11  N   UNL     1      -7.270  12.243  66.764  1.00  0.00    -0.380 NA 
HETATM   12  C   UNL     1      -8.685  12.093  67.108  1.00  0.00    -0.190 C  
HETATM   13  H   UNL     1      -6.772  11.357  66.839  1.00  0.00     0.000 HD 
HETATM   14  C   UNL     1      -9.476  13.395  66.874  1.00  0.00    -0.253 C  
BRANCH  14  15
HETATM   15  C   UNL     1     -10.953  13.194  67.276  1.00  0.00    -0.268 C  
BRANCH  15  16
HETATM   16  O   UNL     1     -11.016  12.376  68.450  1.00  0.00    -0.217 OA 
BRANCH  16  17
HETATM   17  C   UNL     1     -11.723  12.848  69.525  1.00  0.00    -0.323 A  
HETATM   18  C   UNL     1     -12.139  14.169  69.706  1.00  0.00    -0.409 A  
HETATM   19  C   UNL     1     -12.910  14.456  70.816  1.00  0.00    -0.353 A  
HETATM   20  C   UNL     1     -13.252  13.497  71.738  1.00  0.00    -0.404 A  
HETATM   21  C   UNL     1     -12.835  12.190  71.606  1.00  0.00    -0.390 A  
HETATM   22  O   UNL     1     -14.023  13.991  72.742  1.00  0.00    -0.669 OA 
HETATM   23  C   UNL     1     -12.070  11.868  70.479  1.00  0.00    -0.422 A  
HETATM   24  C   UNL     1     -14.186  15.359  72.307  1.00  0.00    -0.545 C  
HETATM   25  O   UNL     1     -13.423  15.677  71.125  1.00  0.00    -0.552 OA 
ENDBRANCH  16  17
ENDBRANCH  15  16
ENDBRANCH  14  15
ENDBRANCH   5   8
TORSDOF 4
ENDMDL
MODEL       11
REMARK 921   NORMALIZED FREE ENERGY PREDICTED BY IDOCK:   -7.12 KCAL/MOL
REMARK 922        TOTAL FREE ENERGY PREDICTED BY IDOCK:   -9.57 KCAL/MOL
REMARK 923 INTER-LIGAND FREE ENERGY PREDICTED BY IDOCK:   -8.86 KCAL/MOL
REMARK 924 INTRA-LIGAND FREE ENERGY PREDICTED BY IDOCK:   -0.71 KCAL/MOL
REMARK 927      BINDING AFFINITY PREDICTED BY RF-SCORE:    0.00 PKD
ROOT
HETATM    1  F   UNL     1      -7.679  20.135  66.802  1.00  0.00    -0.282 F  
HETATM    2  C   UNL     1      -8.337  18.986  66.597  1.00  0.00    -0.301 A  
HETATM    3  C   UNL     1      -7.627  17.797  66.491  1.00  0.00    -0.291 A  
HETATM    4  C   UNL     1      -8.311  16.599  66.255  1.00  0.00    -0.360 A  
HETATM    5  C   UNL     1      -9.706  16.591  66.099  1.00  0.00    -0.344 A  
HETATM    6  C   UNL     1      -9.720  18.999  66.499  1.00  0.00    -0.396 A  
HETATM    7  C   UNL     1     -10.403  17.805  66.256  1.00  0.00    -0.358 A  
ENDROOT
BRANCH   5   8
HETATM    8  C   UNL     1     -10.499  15.323  65.799  1.00  0.00    -0.365 C  
HETATM    9  C   UNL     1     -11.289  15.512  64.491  1.00  0.00    -0.322 C  
HETATM   10  C   UNL     1     -12.057  14.249  64.120  1.00  0.00    -0.393 C  
HETATM   11  N   UNL     1     -12.957  13.854  65.197  1.00  0.00    -0.773 NA 
HETATM   12  C   UNL     1     -12.224  13.573  66.433  1.00  0.00    -0.400 C  
HETATM   13  H   UNL     1     -13.543  13.065  64.924  1.00  0.00     0.000 HD 
HETATM   14  C   UNL     1     -11.436  14.803  66.927  1.00  0.00    -0.354 C  
BRANCH  14  15
HETATM   15  C   UNL     1     -10.661  14.450  68.214  1.00  0.00    -0.242 C  
BRANCH  15  16
HETATM   16  O   UNL     1     -11.508  14.665  69.349  1.00  0.00    -0.264 OA 
BRANCH  16  17
HETATM   17  C   UNL     1     -11.964  13.567  70.030  1.00  0.00    -0.340 A  
HETATM   18  C   UNL     1     -11.669  12.238  69.716  1.00  0.00    -0.368 A  
HETATM   19  C   UNL     1     -12.154  11.254  70.557  1.00  0.00    -0.387 A  
HETATM   20  C   UNL     1     -12.921  11.545  71.658  1.00  0.00    -0.394 A  
HETATM   21  C   UNL     1     -13.255  12.842  71.981  1.00  0.00    -0.549 A  
HETATM   22  O   UNL     1     -13.280  10.432  72.350  1.00  0.00    -0.307 OA 
HETATM   23  C   UNL     1     -12.759  13.860  71.157  1.00  0.00    -0.441 A  
HETATM   24  C   UNL     1     -12.590   9.411  71.596  1.00  0.00    -0.375 C  
HETATM   25  O   UNL     1     -11.934   9.919  70.416  1.00  0.00    -0.256 OA 
ENDBRANCH  16  17
ENDBRANCH  15  16
ENDBRANCH  14  15
ENDBRANCH   5   8
TORSDOF 4
ENDMDL
MODEL       12
REMARK 921   NORMALIZED FREE ENERGY PREDICTED BY IDOCK:   -7.09 KCAL/MOL
REMARK 922        TOTAL FREE ENERGY PREDICTED BY IDOCK:   -9.53 KCAL/MOL
REMARK 923 INTER-LIGAND FREE ENERGY PREDICTED BY IDOCK:   -8.99 KCAL/MOL
REMARK 924 INTRA-LIGAND FREE ENERGY PREDICTED BY IDOCK:   -0.54 KCAL/MOL
REMARK 927      BINDING AFFINITY PREDICTED BY RF-SCORE:    0.00 PKD
ROOT
HETATM    1  F   UNL     1     -11.551  11.827  64.775  1.00  0.00    -0.370 F  
HETATM    2  C   UNL     1     -11.649  12.356  66.002  1.00  0.00    -0.401 A  
HETATM    3  C   UNL     1     -12.172  13.632  66.159  1.00  0.00    -0.490 A  
HETATM    4  C   UNL     1     -12.254  14.197  67.438  1.00  0.00    -0.278 A  
HETATM    5  C   UNL     1     -11.789  13.494  68.560  1.00  0.00    -0.398 A  
HETATM    6  C   UNL     1     -11.230  11.619  67.099  1.00  0.00    -0.371 A  
HETATM    7  C   UNL     1     -11.305  12.184  68.374  1.00  0.00    -0.336 A  
ENDROOT
BRANCH   5   8
HETATM    8  C   UNL     1     -11.815  14.073  69.970  1.00  0.00    -0.388 C  
HETATM    9  C   UNL     1     -13.026  13.505  70.734  1.00  0.00    -0.168 C  
HETATM   10  C   UNL     1     -13.064  14.013  72.170  1.00  0.00    -0.411 C  
HETATM   11  N   UNL     1     -13.087  15.471  72.204  1.00  0.00    -0.402 NA 
HETATM   12  C   UNL     1     -11.898  16.041  71.569  1.00  0.00    -0.486 C  
HETATM   13  H   UNL     1     -13.207  15.821  73.155  1.00  0.00     0.000 HD 
HETATM   14  C   UNL     1     -11.778  15.623  70.091  1.00  0.00    -0.374 C  
BRANCH  14  15
HETATM   15  C   UNL     1     -10.497  16.227  69.475  1.00  0.00    -0.299 C  
BRANCH  15  16
HETATM   16  O   UNL     1     -10.860  17.154  68.445  1.00  0.00    -0.367 OA 
BRANCH  16  17
HETATM   17  C   UNL     1     -10.010  18.198  68.191  1.00  0.00    -0.359 A  
HETATM   18  C   UNL     1      -8.686  18.290  68.626  1.00  0.00    -0.290 A  
HETATM   19  C   UNL     1      -7.946  19.382  68.213  1.00  0.00    -0.331 A  
HETATM   20  C   UNL     1      -8.477  20.370  67.420  1.00  0.00    -0.321 A  
HETATM   21  C   UNL     1      -9.788  20.325  66.996  1.00  0.00    -0.607 A  
HETATM   22  O   UNL     1      -7.575  21.341  67.124  1.00  0.00    -0.371 OA 
HETATM   23  C   UNL     1     -10.554  19.218  67.383  1.00  0.00    -0.594 A  
HETATM   24  C   UNL     1      -6.392  20.814  67.765  1.00  0.00    -0.322 C  
HETATM   25  O   UNL     1      -6.639  19.609  68.518  1.00  0.00    -0.257 OA 
ENDBRANCH  16  17
ENDBRANCH  15  16
ENDBRANCH  14  15
ENDBRANCH   5   8
TORSDOF 4
ENDMDL
MODEL       13
REMARK 921   NORMALIZED FREE ENERGY PREDICTED BY IDOCK:   -7.08 KCAL/MOL
REMARK 922        TOTAL FREE ENERGY PREDICTED BY IDOCK:   -9.52 KCAL/MOL
REMARK 923 INTER-LIGAND FREE ENERGY PREDICTED BY IDOCK:   -8.74 KCAL/MOL
REMARK 924 INTRA-LIGAND FREE ENERGY PREDICTED BY IDOCK:   -0.78 KCAL/MOL
REMARK 927      BINDING AFFINITY PREDICTED BY RF-SCORE:    0.00 PKD
ROOT
HETATM    1  F   UNL     1     -12.081  16.095  63.994  1.00  0.00    -0.451 F  
HETATM    2  C   UNL     1     -11.549  14.961  64.467  1.00  0.00    -0.352 A  
HETATM    3  C   UNL     1     -10.411  15.014  65.260  1.00  0.00    -0.424 A  
HETATM    4  C   UNL     1      -9.839  13.828  65.736  1.00  0.00    -0.242 A  
HETATM    5  C   UNL     1     -10.392  12.583  65.399  1.00  0.00    -0.305 A  
HETATM    6  C   UNL     1     -12.146  13.747  64.161  1.00  0.00    -0.478 A  
HETATM    7  C   UNL     1     -11.573  12.563  64.631  1.00  0.00    -0.396 A  
ENDROOT
BRANCH   5   8
HETATM    8  C   UNL     1      -9.791  11.258  65.854  1.00  0.00    -0.272 C  
HETATM    9  C   UNL     1      -9.708  10.295  64.655  1.00  0.00    -0.398 C  
HETATM   10  C   UNL     1      -9.061   8.973  65.049  1.00  0.00    -0.111 C  
HETATM   11  N   UNL     1      -9.788   8.346  66.147  1.00  0.00    -0.458 NA 
HETATM   12  C   UNL     1      -9.802   9.199  67.337  1.00  0.00    -0.184 C  
HETATM   13  H   UNL     1      -9.421   7.419  66.358  1.00  0.00     0.000 HD 
HETATM   14  C   UNL     1     -10.475  10.559  67.064  1.00  0.00    -0.304 C  
BRANCH  14  15
HETATM   15  C   UNL     1     -10.441  11.429  68.338  1.00  0.00    -0.200 C  
BRANCH  15  16
HETATM   16  O   UNL     1     -11.413  10.941  69.270  1.00  0.00    -0.252 OA 
BRANCH  16  17
HETATM   17  C   UNL     1     -11.995  11.841  70.123  1.00  0.00    -0.339 A  
HETATM   18  C   UNL     1     -11.976  13.229  69.974  1.00  0.00    -0.399 A  
HETATM   19  C   UNL     1     -12.681  13.987  70.890  1.00  0.00    -0.350 A  
HETATM   20  C   UNL     1     -13.367  13.419  71.936  1.00  0.00    -0.451 A  
HETATM   21  C   UNL     1     -13.384  12.054  72.130  1.00  0.00    -0.396 A  
HETATM   22  O   UNL     1     -13.999  14.343  72.707  1.00  0.00    -0.569 OA 
HETATM   23  C   UNL     1     -12.695  11.263  71.203  1.00  0.00    -0.492 A  
HETATM   24  C   UNL     1     -13.688  15.554  71.984  1.00  0.00    -0.498 C  
HETATM   25  O   UNL     1     -12.793  15.342  70.873  1.00  0.00    -0.418 OA 
ENDBRANCH  16  17
ENDBRANCH  15  16
ENDBRANCH  14  15
ENDBRANCH   5   8
TORSDOF 4
ENDMDL
MODEL       14
REMARK 921   NORMALIZED FREE ENERGY PREDICTED BY IDOCK:   -6.95 KCAL/MOL
REMARK 922        TOTAL FREE ENERGY PREDICTED BY IDOCK:   -9.36 KCAL/MOL
REMARK 923 INTER-LIGAND FREE ENERGY PREDICTED BY IDOCK:   -8.97 KCAL/MOL
REMARK 924 INTRA-LIGAND FREE ENERGY PREDICTED BY IDOCK:   -0.39 KCAL/MOL
REMARK 927      BINDING AFFINITY PREDICTED BY RF-SCORE:    0.00 PKD
ROOT
HETATM    1  F   UNL     1     -13.144  15.858  74.420  1.00  0.00    -0.487 F  
HETATM    2  C   UNL     1     -12.869  15.404  73.189  1.00  0.00    -0.493 A  
HETATM    3  C   UNL     1     -11.814  15.955  72.474  1.00  0.00    -0.613 A  
HETATM    4  C   UNL     1     -11.540  15.498  71.179  1.00  0.00    -0.446 A  
HETATM    5  C   UNL     1     -12.337  14.505  70.588  1.00  0.00    -0.407 A  
HETATM    6  C   UNL     1     -13.640  14.386  72.649  1.00  0.00    -0.589 A  
HETATM    7  C   UNL     1     -13.372  13.935  71.355  1.00  0.00    -0.363 A  
ENDROOT
BRANCH   5   8
HETATM    8  C   UNL     1     -12.112  13.997  69.168  1.00  0.00    -0.375 C  
HETATM    9  C   UNL     1     -11.806  12.489  69.207  1.00  0.00    -0.360 C  
HETATM   10  C   UNL     1     -11.627  11.922  67.803  1.00  0.00    -0.323 C  
HETATM   11  N   UNL     1     -10.571  12.630  67.090  1.00  0.00    -0.234 NA 
HETATM   12  C   UNL     1     -10.879  14.055  66.951  1.00  0.00    -0.290 C  
HETATM   13  H   UNL     1     -10.379  12.201  66.185  1.00  0.00     0.000 HD 
HETATM   14  C   UNL     1     -11.043  14.744  68.320  1.00  0.00    -0.284 C  
BRANCH  14  15
HETATM   15  C   UNL     1     -11.392  16.235  68.121  1.00  0.00    -0.248 C  
BRANCH  15  16
HETATM   16  O   UNL     1     -10.711  16.728  66.961  1.00  0.00    -0.270 OA 
BRANCH  16  17
HETATM   17  C   UNL     1      -9.911  17.831  67.105  1.00  0.00    -0.322 A  
HETATM   18  C   UNL     1      -8.840  17.946  67.994  1.00  0.00    -0.268 A  
HETATM   19  C   UNL     1      -8.090  19.106  67.955  1.00  0.00    -0.289 A  
HETATM   20  C   UNL     1      -8.381  20.137  67.095  1.00  0.00    -0.337 A  
HETATM   21  C   UNL     1      -9.447  20.069  66.225  1.00  0.00    -0.485 A  
HETATM   22  O   UNL     1      -7.511  21.174  67.214  1.00  0.00    -0.412 OA 
HETATM   23  C   UNL     1     -10.211  18.896  66.230  1.00  0.00    -0.491 A  
HETATM   24  C   UNL     1      -6.596  20.647  68.200  1.00  0.00    -0.282 C  
HETATM   25  O   UNL     1      -6.999  19.366  68.725  1.00  0.00    -0.302 OA 
ENDBRANCH  16  17
ENDBRANCH  15  16
ENDBRANCH  14  15
ENDBRANCH   5   8
TORSDOF 4
ENDMDL
MODEL       15
REMARK 921   NORMALIZED FREE ENERGY PREDICTED BY IDOCK:   -6.95 KCAL/MOL
REMARK 922        TOTAL FREE ENERGY PREDICTED BY IDOCK:   -9.36 KCAL/MOL
REMARK 923 INTER-LIGAND FREE ENERGY PREDICTED BY IDOCK:   -8.09 KCAL/MOL
REMARK 924 INTRA-LIGAND FREE ENERGY PREDICTED BY IDOCK:   -1.26 KCAL/MOL
REMARK 927      BINDING AFFINITY PREDICTED BY RF-SCORE:    0.00 PKD
ROOT
HETATM    1  F   UNL     1      -8.195  16.848  66.868  1.00  0.00    -0.185 F  
HETATM    2  C   UNL     1      -9.100  16.519  67.799  1.00  0.00    -0.204 A  
HETATM    3  C   UNL     1      -8.698  15.831  68.936  1.00  0.00    -0.217 A  
HETATM    4  C   UNL     1      -9.646  15.466  69.899  1.00  0.00    -0.109 A  
HETATM    5  C   UNL     1     -11.005  15.767  69.714  1.00  0.00    -0.316 A  
HETATM    6  C   UNL     1     -10.428  16.876  67.616  1.00  0.00    -0.332 A  
HETATM    7  C   UNL     1     -11.376  16.506  68.573  1.00  0.00    -0.231 A  
ENDROOT
BRANCH   5   8
HETATM    8  C   UNL     1     -12.087  15.360  70.708  1.00  0.00    -0.413 C  
HETATM    9  C   UNL     1     -11.952  16.208  71.987  1.00  0.00    -0.607 C  
HETATM   10  C   UNL     1     -13.049  15.875  72.991  1.00  0.00    -0.541 C  
HETATM   11  N   UNL     1     -13.032  14.456  73.326  1.00  0.00    -0.530 NA 
HETATM   12  C   UNL     1     -13.254  13.623  72.142  1.00  0.00    -0.449 C  
HETATM   13  H   UNL     1     -13.700  14.238  74.065  1.00  0.00     0.000 HD 
HETATM   14  C   UNL     1     -12.173  13.849  71.067  1.00  0.00    -0.421 C  
BRANCH  14  15
HETATM   15  C   UNL     1     -12.466  12.970  69.832  1.00  0.00     0.004 C  
BRANCH  15  16
HETATM   16  O   UNL     1     -11.232  12.645  69.181  1.00  0.00    -0.259 OA 
BRANCH  16  17
HETATM   17  C   UNL     1     -11.213  12.627  67.811  1.00  0.00    -0.274 A  
HETATM   18  C   UNL     1     -12.280  12.977  66.980  1.00  0.00    -0.217 A  
HETATM   19  C   UNL     1     -12.063  12.974  65.616  1.00  0.00    -0.454 A  
HETATM   20  C   UNL     1     -10.854  12.620  65.067  1.00  0.00    -0.290 A  
HETATM   21  C   UNL     1      -9.789  12.241  65.856  1.00  0.00    -0.266 A  
HETATM   22  O   UNL     1     -10.856  12.697  63.711  1.00  0.00    -0.406 OA 
HETATM   23  C   UNL     1      -9.976  12.256  67.243  1.00  0.00    -0.210 A  
HETATM   24  C   UNL     1     -12.185  13.209  63.472  1.00  0.00    -0.476 C  
HETATM   25  O   UNL     1     -12.979  13.318  64.671  1.00  0.00    -0.692 OA 
ENDBRANCH  16  17
ENDBRANCH  15  16
ENDBRANCH  14  15
ENDBRANCH   5   8
TORSDOF 4
ENDMDL
MODEL       16
REMARK 921   NORMALIZED FREE ENERGY PREDICTED BY IDOCK:   -6.94 KCAL/MOL
REMARK 922        TOTAL FREE ENERGY PREDICTED BY IDOCK:   -9.34 KCAL/MOL
REMARK 923 INTER-LIGAND FREE ENERGY PREDICTED BY IDOCK:   -8.86 KCAL/MOL
REMARK 924 INTRA-LIGAND FREE ENERGY PREDICTED BY IDOCK:   -0.49 KCAL/MOL
REMARK 927      BINDING AFFINITY PREDICTED BY RF-SCORE:    0.00 PKD
ROOT
HETATM    1  F   UNL     1     -13.392  16.315  73.950  1.00  0.00    -0.551 F  
HETATM    2  C   UNL     1     -13.006  15.551  72.920  1.00  0.00    -0.477 A  
HETATM    3  C   UNL     1     -13.771  14.450  72.558  1.00  0.00    -0.589 A  
HETATM    4  C   UNL     1     -13.357  13.635  71.497  1.00  0.00    -0.372 A  
HETATM    5  C   UNL     1     -12.164  13.908  70.810  1.00  0.00    -0.441 A  
HETATM    6  C   UNL     1     -11.850  15.873  72.226  1.00  0.00    -0.617 A  
HETATM    7  C   UNL     1     -11.433  15.058  71.171  1.00  0.00    -0.355 A  
ENDROOT
BRANCH   5   8
HETATM    8  C   UNL     1     -11.643  13.035  69.674  1.00  0.00    -0.322 C  
HETATM    9  C   UNL     1     -11.867  13.756  68.332  1.00  0.00    -0.411 C  
HETATM   10  C   UNL     1     -11.311  12.944  67.167  1.00  0.00    -0.306 C  
HETATM   11  N   UNL     1     -11.909  11.615  67.130  1.00  0.00    -0.607 NA 
HETATM   12  C   UNL     1     -11.631  10.867  68.357  1.00  0.00    -0.276 C  
HETATM   13  H   UNL     1     -11.615  11.096  66.302  1.00  0.00     0.000 HD 
HETATM   14  C   UNL     1     -12.188  11.580  69.605  1.00  0.00    -0.296 C  
BRANCH  14  15
HETATM   15  C   UNL     1     -11.847  10.767  70.872  1.00  0.00    -0.297 C  
BRANCH  15  16
HETATM   16  O   UNL     1     -10.750   9.890  70.590  1.00  0.00    -0.296 OA 
BRANCH  16  17
HETATM   17  C   UNL     1     -10.775   8.633  71.133  1.00  0.00    -0.240 A  
HETATM   18  C   UNL     1     -10.406   8.305  72.439  1.00  0.00    -0.402 A  
HETATM   19  C   UNL     1     -10.565   6.994  72.846  1.00  0.00    -0.272 A  
HETATM   20  C   UNL     1     -11.048   6.020  72.006  1.00  0.00    -0.274 A  
HETATM   21  C   UNL     1     -11.396   6.302  70.703  1.00  0.00    -0.409 A  
HETATM   22  O   UNL     1     -11.136   4.808  72.612  1.00  0.00    -0.188 OA 
HETATM   23  C   UNL     1     -11.263   7.627  70.272  1.00  0.00    -0.230 A  
HETATM   24  C   UNL     1     -10.718   5.145  73.953  1.00  0.00    -0.290 C  
HETATM   25  O   UNL     1     -10.287   6.515  74.089  1.00  0.00    -0.341 OA 
ENDBRANCH  16  17
ENDBRANCH  15  16
ENDBRANCH  14  15
ENDBRANCH   5   8
TORSDOF 4
ENDMDL
MODEL       17
REMARK 921   NORMALIZED FREE ENERGY PREDICTED BY IDOCK:   -6.94 KCAL/MOL
REMARK 922        TOTAL FREE ENERGY PREDICTED BY IDOCK:   -9.34 KCAL/MOL
REMARK 923 INTER-LIGAND FREE ENERGY PREDICTED BY IDOCK:   -8.60 KCAL/MOL
REMARK 924 INTRA-LIGAND FREE ENERGY PREDICTED BY IDOCK:   -0.74 KCAL/MOL
REMARK 927      BINDING AFFINITY PREDICTED BY RF-SCORE:    0.00 PKD
ROOT
HETATM    1  F   UNL     1     -13.051  11.792  63.819  1.00  0.00    -0.577 F  
HETATM    2  C   UNL     1     -12.330  12.652  64.551  1.00  0.00    -0.464 A  
HETATM    3  C   UNL     1     -11.723  12.217  65.721  1.00  0.00    -0.391 A  
HETATM    4  C   UNL     1     -10.989  13.119  66.500  1.00  0.00    -0.303 A  
HETATM    5  C   UNL     1     -10.881  14.466  66.122  1.00  0.00    -0.309 A  
HETATM    6  C   UNL     1     -12.197  13.966  64.127  1.00  0.00    -0.436 A  
HETATM    7  C   UNL     1     -11.470  14.868  64.907  1.00  0.00    -0.407 A  
ENDROOT
BRANCH   5   8
HETATM    8  C   UNL     1     -10.129  15.502  66.950  1.00  0.00    -0.263 C  
HETATM    9  C   UNL     1      -8.617  15.357  66.701  1.00  0.00    -0.318 C  
HETATM   10  C   UNL     1      -7.824  16.410  67.467  1.00  0.00    -0.146 C  
HETATM   11  N   UNL     1      -8.108  16.334  68.895  1.00  0.00    -0.220 NA 
HETATM   12  C   UNL     1      -9.526  16.565  69.174  1.00  0.00    -0.212 C  
HETATM   13  H   UNL     1      -7.515  16.971  69.428  1.00  0.00     0.000 HD 
HETATM   14  C   UNL     1     -10.426  15.526  68.477  1.00  0.00    -0.238 C  
BRANCH  14  15
HETATM   15  C   UNL     1     -11.910  15.827  68.779  1.00  0.00    -0.309 C  
BRANCH  15  16
HETATM   16  O   UNL     1     -12.160  15.615  70.174  1.00  0.00    -0.366 OA 
BRANCH  16  17
HETATM   17  C   UNL     1     -12.429  14.339  70.592  1.00  0.00    -0.358 A  
HETATM   18  C   UNL     1     -11.915  13.172  70.021  1.00  0.00    -0.391 A  
HETATM   19  C   UNL     1     -12.231  11.967  70.619  1.00  0.00    -0.316 A  
HETATM   20  C   UNL     1     -13.041  11.889  71.726  1.00  0.00    -0.360 A  
HETATM   21  C   UNL     1     -13.589  13.017  72.298  1.00  0.00    -0.643 A  
HETATM   22  O   UNL     1     -13.212  10.612  72.156  1.00  0.00    -0.464 OA 
HETATM   23  C   UNL     1     -13.267  14.253  71.724  1.00  0.00    -0.444 A  
HETATM   24  C   UNL     1     -12.358   9.900  71.234  1.00  0.00    -0.381 C  
HETATM   25  O   UNL     1     -11.790  10.746  70.213  1.00  0.00    -0.288 OA 
ENDBRANCH  16  17
ENDBRANCH  15  16
ENDBRANCH  14  15
ENDBRANCH   5   8
TORSDOF 4
ENDMDL
MODEL       18
REMARK 921   NORMALIZED FREE ENERGY PREDICTED BY IDOCK:   -6.93 KCAL/MOL
REMARK 922        TOTAL FREE ENERGY PREDICTED BY IDOCK:   -9.33 KCAL/MOL
REMARK 923 INTER-LIGAND FREE ENERGY PREDICTED BY IDOCK:   -8.23 KCAL/MOL
REMARK 924 INTRA-LIGAND FREE ENERGY PREDICTED BY IDOCK:   -1.10 KCAL/MOL
REMARK 927      BINDING AFFINITY PREDICTED BY RF-SCORE:    0.00 PKD
ROOT
HETATM    1  F   UNL     1     -11.905  11.404  63.571  1.00  0.00    -0.488 F  
HETATM    2  C   UNL     1     -11.659  12.450  64.371  1.00  0.00    -0.354 A  
HETATM    3  C   UNL     1     -12.590  12.811  65.336  1.00  0.00    -0.387 A  
HETATM    4  C   UNL     1     -12.346  13.918  66.157  1.00  0.00    -0.504 A  
HETATM    5  C   UNL     1     -11.179  14.682  65.998  1.00  0.00    -0.342 A  
HETATM    6  C   UNL     1     -10.474  13.156  64.227  1.00  0.00    -0.410 A  
HETATM    7  C   UNL     1     -10.232  14.264  65.042  1.00  0.00    -0.402 A  
ENDROOT
BRANCH   5   8
HETATM    8  C   UNL     1     -10.878  15.920  66.836  1.00  0.00    -0.240 C  
HETATM    9  C   UNL     1     -10.635  17.121  65.903  1.00  0.00    -0.219 C  
HETATM   10  C   UNL     1     -10.383  18.398  66.697  1.00  0.00    -0.396 C  
HETATM   11  N   UNL     1      -9.254  18.230  67.604  1.00  0.00    -0.265 NA 
HETATM   12  C   UNL     1      -9.496  17.156  68.568  1.00  0.00    -0.282 C  
HETATM   13  H   UNL     1      -9.018  19.105  68.072  1.00  0.00     0.000 HD 
HETATM   14  C   UNL     1      -9.725  15.799  67.873  1.00  0.00    -0.216 C  
BRANCH  14  15
HETATM   15  C   UNL     1     -10.001  14.707  68.929  1.00  0.00    -0.228 C  
BRANCH  15  16
HETATM   16  O   UNL     1     -11.312  14.898  69.475  1.00  0.00    -0.252 OA 
BRANCH  16  17
HETATM   17  C   UNL     1     -11.906  13.838  70.107  1.00  0.00    -0.290 A  
HETATM   18  C   UNL     1     -11.768  12.496  69.746  1.00  0.00    -0.355 A  
HETATM   19  C   UNL     1     -12.379  11.547  70.542  1.00  0.00    -0.342 A  
HETATM   20  C   UNL     1     -13.123  11.886  71.646  1.00  0.00    -0.328 A  
HETATM   21  C   UNL     1     -13.304  13.201  72.015  1.00  0.00    -0.587 A  
HETATM   22  O   UNL     1     -13.623  10.799  72.290  1.00  0.00    -0.244 OA 
HETATM   23  C   UNL     1     -12.678  14.182  71.237  1.00  0.00    -0.434 A  
HETATM   24  C   UNL     1     -13.049   9.732  71.504  1.00  0.00    -0.411 C  
HETATM   25  O   UNL     1     -12.319  10.201  70.352  1.00  0.00    -0.257 OA 
ENDBRANCH  16  17
ENDBRANCH  15  16
ENDBRANCH  14  15
ENDBRANCH   5   8
TORSDOF 4
ENDMDL
MODEL       19
REMARK 921   NORMALIZED FREE ENERGY PREDICTED BY IDOCK:   -6.90 KCAL/MOL
REMARK 922        TOTAL FREE ENERGY PREDICTED BY IDOCK:   -9.29 KCAL/MOL
REMARK 923 INTER-LIGAND FREE ENERGY PREDICTED BY IDOCK:   -8.74 KCAL/MOL
REMARK 924 INTRA-LIGAND FREE ENERGY PREDICTED BY IDOCK:   -0.56 KCAL/MOL
REMARK 927      BINDING AFFINITY PREDICTED BY RF-SCORE:    0.00 PKD
ROOT
HETATM    1  F   UNL     1     -13.713  16.201  73.439  1.00  0.00    -0.659 F  
HETATM    2  C   UNL     1     -13.309  15.248  72.588  1.00  0.00    -0.478 A  
HETATM    3  C   UNL     1     -12.336  15.541  71.642  1.00  0.00    -0.471 A  
HETATM    4  C   UNL     1     -11.928  14.554  70.737  1.00  0.00    -0.388 A  
HETATM    5  C   UNL     1     -12.512  13.278  70.761  1.00  0.00    -0.403 A  
HETATM    6  C   UNL     1     -13.865  13.980  72.668  1.00  0.00    -0.516 A  
HETATM    7  C   UNL     1     -13.463  12.997  71.761  1.00  0.00    -0.401 A  
ENDROOT
BRANCH   5   8
HETATM    8  C   UNL     1     -12.138  12.176  69.775  1.00  0.00    -0.306 C  
HETATM    9  C   UNL     1     -11.599  10.959  70.549  1.00  0.00    -0.397 C  
HETATM   10  C   UNL     1     -11.262   9.808  69.608  1.00  0.00    -0.178 C  
HETATM   11  N   UNL     1     -10.297  10.229  68.599  1.00  0.00    -0.174 NA 
HETATM   12  C   UNL     1     -10.819  11.325  67.781  1.00  0.00    -0.235 C  
HETATM   13  H   UNL     1      -9.994   9.444  68.022  1.00  0.00     0.000 HD 
HETATM   14  C   UNL     1     -11.159  12.566  68.630  1.00  0.00    -0.305 C  
BRANCH  14  15
HETATM   15  C   UNL     1     -11.730  13.681  67.728  1.00  0.00    -0.362 C  
BRANCH  15  16
HETATM   16  O   UNL     1     -10.671  14.241  66.942  1.00  0.00    -0.285 OA 
BRANCH  16  17
HETATM   17  C   UNL     1     -10.427  15.584  67.055  1.00  0.00    -0.304 A  
HETATM   18  C   UNL     1     -10.612  16.530  66.043  1.00  0.00    -0.259 A  
HETATM   19  C   UNL     1     -10.388  17.858  66.353  1.00  0.00    -0.365 A  
HETATM   20  C   UNL     1      -9.974  18.259  67.600  1.00  0.00    -0.338 A  
HETATM   21  C   UNL     1      -9.754  17.351  68.612  1.00  0.00    -0.308 A  
HETATM   22  O   UNL     1      -9.827  19.607  67.690  1.00  0.00    -0.336 OA 
HETATM   23  C   UNL     1      -9.994  16.001  68.331  1.00  0.00    -0.220 A  
HETATM   24  C   UNL     1     -10.263  20.014  66.374  1.00  0.00    -0.478 C  
HETATM   25  O   UNL     1     -10.552  18.904  65.499  1.00  0.00    -0.572 OA 
ENDBRANCH  16  17
ENDBRANCH  15  16
ENDBRANCH  14  15
ENDBRANCH   5   8
TORSDOF 4
ENDMDL
MODEL       20
REMARK 921   NORMALIZED FREE ENERGY PREDICTED BY IDOCK:   -6.87 KCAL/MOL
REMARK 922        TOTAL FREE ENERGY PREDICTED BY IDOCK:   -9.26 KCAL/MOL
REMARK 923 INTER-LIGAND FREE ENERGY PREDICTED BY IDOCK:   -7.73 KCAL/MOL
REMARK 924 INTRA-LIGAND FREE ENERGY PREDICTED BY IDOCK:   -1.53 KCAL/MOL
REMARK 927      BINDING AFFINITY PREDICTED BY RF-SCORE:    0.00 PKD
ROOT
HETATM    1  F   UNL     1      -9.695  12.139  64.560  1.00  0.00    -0.235 F  
HETATM    2  C   UNL     1     -10.092  12.270  65.833  1.00  0.00    -0.251 A  
HETATM    3  C   UNL     1      -9.143  12.366  66.842  1.00  0.00    -0.211 A  
HETATM    4  C   UNL     1      -9.556  12.480  68.175  1.00  0.00    -0.215 A  
HETATM    5  C   UNL     1     -10.921  12.474  68.503  1.00  0.00    -0.280 A  
HETATM    6  C   UNL     1     -11.447  12.314  66.124  1.00  0.00    -0.429 A  
HETATM    7  C   UNL     1     -11.860  12.421  67.454  1.00  0.00    -0.360 A  
ENDROOT
BRANCH   5   8
HETATM    8  C   UNL     1     -11.428  12.555  69.939  1.00  0.00    -0.159 C  
HETATM    9  C   UNL     1     -12.262  11.300  70.257  1.00  0.00    -0.428 C  
HETATM   10  C   UNL     1     -12.746  11.308  71.703  1.00  0.00    -0.343 C  
HETATM   11  N   UNL     1     -13.522  12.511  71.982  1.00  0.00    -0.468 NA 
HETATM   12  C   UNL     1     -12.725  13.722  71.781  1.00  0.00    -0.282 C  
HETATM   13  H   UNL     1     -13.929  12.484  72.917  1.00  0.00     0.000 HD 
HETATM   14  C   UNL     1     -12.212  13.839  70.332  1.00  0.00    -0.433 C  
BRANCH  14  15
HETATM   15  C   UNL     1     -11.357  15.116  70.177  1.00  0.00    -0.271 C  
BRANCH  15  16
HETATM   16  O   UNL     1     -11.838  15.874  69.062  1.00  0.00    -0.389 OA 
BRANCH  16  17
HETATM   17  C   UNL     1     -10.920  16.531  68.286  1.00  0.00    -0.346 A  
HETATM   18  C   UNL     1     -10.259  17.711  68.635  1.00  0.00    -0.377 A  
HETATM   19  C   UNL     1      -9.305  18.198  67.763  1.00  0.00    -0.267 A  
HETATM   20  C   UNL     1      -9.012  17.574  66.574  1.00  0.00    -0.261 A  
HETATM   21  C   UNL     1      -9.664  16.424  66.185  1.00  0.00    -0.355 A  
HETATM   22  O   UNL     1      -8.036  18.214  65.877  1.00  0.00    -0.514 OA 
HETATM   23  C   UNL     1     -10.622  15.898  67.061  1.00  0.00    -0.306 A  
HETATM   24  C   UNL     1      -7.699  19.274  66.798  1.00  0.00    -0.254 C  
HETATM   25  O   UNL     1      -8.549  19.312  67.963  1.00  0.00    -0.301 OA 
ENDBRANCH  16  17
ENDBRANCH  15  16
ENDBRANCH  14  15
ENDBRANCH   5   8
TORSDOF 4
ENDMDL
MODEL       21
REMARK 921   NORMALIZED FREE ENERGY PREDICTED BY IDOCK:   -6.82 KCAL/MOL
REMARK 922        TOTAL FREE ENERGY PREDICTED BY IDOCK:   -9.20 KCAL/MOL
REMARK 923 INTER-LIGAND FREE ENERGY PREDICTED BY IDOCK:   -7.67 KCAL/MOL
REMARK 924 INTRA-LIGAND FREE ENERGY PREDICTED BY IDOCK:   -1.53 KCAL/MOL
REMARK 927      BINDING AFFINITY PREDICTED BY RF-SCORE:    0.00 PKD
ROOT
HETATM    1  F   UNL     1     -12.535  13.584  62.989  1.00  0.00    -0.555 F  
HETATM    2  C   UNL     1     -11.919  12.876  63.945  1.00  0.00    -0.480 A  
HETATM    3  C   UNL     1     -12.432  12.871  65.235  1.00  0.00    -0.552 A  
HETATM    4  C   UNL     1     -11.777  12.151  66.241  1.00  0.00    -0.389 A  
HETATM    5  C   UNL     1     -10.591  11.453  65.963  1.00  0.00    -0.319 A  
HETATM    6  C   UNL     1     -10.778  12.153  63.631  1.00  0.00    -0.518 A  
HETATM    7  C   UNL     1     -10.120  11.439  64.635  1.00  0.00    -0.330 A  
ENDROOT
BRANCH   5   8
HETATM    8  C   UNL     1      -9.812  10.685  67.025  1.00  0.00    -0.222 C  
HETATM    9  C   UNL     1     -10.661   9.501  67.525  1.00  0.00    -0.338 C  
HETATM   10  C   UNL     1      -9.901   8.669  68.551  1.00  0.00    -0.169 C  
HETATM   11  N   UNL     1      -9.477   9.493  69.677  1.00  0.00    -0.186 NA 
HETATM   12  C   UNL     1      -8.589  10.574  69.245  1.00  0.00    -0.126 C  
HETATM   13  H   UNL     1      -9.050   8.931  70.412  1.00  0.00     0.000 HD 
HETATM   14  C   UNL     1      -9.272  11.510  68.228  1.00  0.00    -0.186 C  
BRANCH  14  15
HETATM   15  C   UNL     1      -8.288  12.614  67.785  1.00  0.00    -0.172 C  
BRANCH  15  16
HETATM   16  O   UNL     1      -8.544  13.805  68.539  1.00  0.00    -0.171 OA 
BRANCH  16  17
HETATM   17  C   UNL     1      -9.090  14.877  67.884  1.00  0.00    -0.182 A  
HETATM   18  C   UNL     1      -9.595  16.028  68.493  1.00  0.00    -0.215 A  
HETATM   19  C   UNL     1     -10.041  17.048  67.674  1.00  0.00    -0.298 A  
HETATM   20  C   UNL     1     -10.020  16.949  66.304  1.00  0.00    -0.309 A  
HETATM   21  C   UNL     1      -9.554  15.817  65.671  1.00  0.00    -0.299 A  
HETATM   22  O   UNL     1     -10.492  18.068  65.694  1.00  0.00    -0.619 OA 
HETATM   23  C   UNL     1      -9.077  14.777  66.477  1.00  0.00    -0.291 A  
HETATM   24  C   UNL     1     -10.748  18.911  66.839  1.00  0.00    -0.370 C  
HETATM   25  O   UNL     1     -10.532  18.243  68.099  1.00  0.00    -0.373 OA 
ENDBRANCH  16  17
ENDBRANCH  15  16
ENDBRANCH  14  15
ENDBRANCH   5   8
TORSDOF 4
ENDMDL
MODEL       22
REMARK 921   NORMALIZED FREE ENERGY PREDICTED BY IDOCK:   -6.78 KCAL/MOL
REMARK 922        TOTAL FREE ENERGY PREDICTED BY IDOCK:   -9.15 KCAL/MOL
REMARK 923 INTER-LIGAND FREE ENERGY PREDICTED BY IDOCK:   -8.82 KCAL/MOL
REMARK 924 INTRA-LIGAND FREE ENERGY PREDICTED BY IDOCK:   -0.33 KCAL/MOL
REMARK 927      BINDING AFFINITY PREDICTED BY RF-SCORE:    0.00 PKD
ROOT
HETATM    1  F   UNL     1     -13.435  16.073  72.575  1.00  0.00    -0.514 F  
HETATM    2  C   UNL     1     -13.165  14.893  72.002  1.00  0.00    -0.350 A  
HETATM    3  C   UNL     1     -13.662  13.725  72.567  1.00  0.00    -0.667 A  
HETATM    4  C   UNL     1     -13.362  12.489  71.983  1.00  0.00    -0.528 A  
HETATM    5  C   UNL     1     -12.542  12.416  70.845  1.00  0.00    -0.337 A  
HETATM    6  C   UNL     1     -12.395  14.853  70.849  1.00  0.00    -0.392 A  
HETATM    7  C   UNL     1     -12.090  13.620  70.270  1.00  0.00    -0.427 A  
ENDROOT
BRANCH   5   8
HETATM    8  C   UNL     1     -12.148  11.097  70.190  1.00  0.00    -0.443 C  
HETATM    9  C   UNL     1     -11.686  10.105  71.274  1.00  0.00    -0.426 C  
HETATM   10  C   UNL     1     -11.334   8.750  70.673  1.00  0.00    -0.254 C  
HETATM   11  N   UNL     1     -10.306   8.889  69.648  1.00  0.00    -0.207 NA 
HETATM   12  C   UNL     1     -10.752   9.752  68.553  1.00  0.00    -0.215 C  
HETATM   13  H   UNL     1      -9.995   7.981  69.304  1.00  0.00     0.000 HD 
HETATM   14  C   UNL     1     -11.101  11.171  69.043  1.00  0.00    -0.299 C  
BRANCH  14  15
HETATM   15  C   UNL     1     -11.591  12.032  67.859  1.00  0.00    -0.337 C  
BRANCH  15  16
HETATM   16  O   UNL     1     -10.461  12.614  67.198  1.00  0.00    -0.233 OA 
BRANCH  16  17
HETATM   17  C   UNL     1     -10.570  13.905  66.753  1.00  0.00    -0.277 A  
HETATM   18  C   UNL     1     -10.272  15.048  67.499  1.00  0.00    -0.234 A  
HETATM   19  C   UNL     1     -10.367  16.273  66.867  1.00  0.00    -0.299 A  
HETATM   20  C   UNL     1     -10.761  16.393  65.556  1.00  0.00    -0.287 A  
HETATM   21  C   UNL     1     -11.090  15.289  64.800  1.00  0.00    -0.407 A  
HETATM   22  O   UNL     1     -10.774  17.684  65.133  1.00  0.00    -0.658 OA 
HETATM   23  C   UNL     1     -10.982  14.033  65.410  1.00  0.00    -0.321 A  
HETATM   24  C   UNL     1     -10.275  18.358  66.308  1.00  0.00    -0.406 C  
HETATM   25  O   UNL     1     -10.083  17.477  67.434  1.00  0.00    -0.301 OA 
ENDBRANCH  16  17
ENDBRANCH  15  16
ENDBRANCH  14  15
ENDBRANCH   5   8
TORSDOF 4
ENDMDL
MODEL       23
REMARK 921   NORMALIZED FREE ENERGY PREDICTED BY IDOCK:   -6.78 KCAL/MOL
REMARK 922        TOTAL FREE ENERGY PREDICTED BY IDOCK:   -9.15 KCAL/MOL
REMARK 923 INTER-LIGAND FREE ENERGY PREDICTED BY IDOCK:   -7.74 KCAL/MOL
REMARK 924 INTRA-LIGAND FREE ENERGY PREDICTED BY IDOCK:   -1.41 KCAL/MOL
REMARK 927      BINDING AFFINITY PREDICTED BY RF-SCORE:    0.00 PKD
ROOT
HETATM    1  F   UNL     1      -8.768   7.148  69.898  1.00  0.00    -0.136 F  
HETATM    2  C   UNL     1      -9.086   7.831  68.791  1.00  0.00    -0.140 A  
HETATM    3  C   UNL     1     -10.213   7.474  68.062  1.00  0.00    -0.239 A  
HETATM    4  C   UNL     1     -10.534   8.172  66.892  1.00  0.00    -0.379 A  
HETATM    5  C   UNL     1      -9.714   9.215  66.435  1.00  0.00    -0.330 A  
HETATM    6  C   UNL     1      -8.287   8.892  68.389  1.00  0.00    -0.125 A  
HETATM    7  C   UNL     1      -8.603   9.584  67.219  1.00  0.00    -0.128 A  
ENDROOT
BRANCH   5   8
HETATM    8  C   UNL     1      -9.991   9.984  65.147  1.00  0.00    -0.350 C  
HETATM    9  C   UNL     1      -8.919   9.631  64.100  1.00  0.00    -0.269 C  
HETATM   10  C   UNL     1      -9.185  10.335  62.775  1.00  0.00    -0.297 C  
HETATM   11  N   UNL     1      -9.251  11.780  62.959  1.00  0.00    -0.644 NA 
HETATM   12  C   UNL     1     -10.327  12.155  63.878  1.00  0.00    -0.415 C  
HETATM   13  H   UNL     1      -9.337  12.266  62.066  1.00  0.00     0.000 HD 
HETATM   14  C   UNL     1     -10.138  11.527  65.273  1.00  0.00    -0.314 C  
BRANCH  14  15
HETATM   15  C   UNL     1     -11.309  11.930  66.195  1.00  0.00    -0.324 C  
BRANCH  15  16
HETATM   16  O   UNL     1     -10.804  12.708  67.286  1.00  0.00    -0.239 OA 
BRANCH  16  17
HETATM   17  C   UNL     1     -11.354  12.510  68.526  1.00  0.00    -0.297 A  
HETATM   18  C   UNL     1     -11.798  13.517  69.386  1.00  0.00    -0.389 A  
HETATM   19  C   UNL     1     -12.397  13.134  70.571  1.00  0.00    -0.304 A  
HETATM   20  C   UNL     1     -12.543  11.815  70.926  1.00  0.00    -0.289 A  
HETATM   21  C   UNL     1     -12.091  10.797  70.114  1.00  0.00    -0.427 A  
HETATM   22  O   UNL     1     -13.168  11.664  72.123  1.00  0.00    -0.504 OA 
HETATM   23  C   UNL     1     -11.498  11.158  68.898  1.00  0.00    -0.363 A  
HETATM   24  C   UNL     1     -13.462  13.040  72.449  1.00  0.00    -0.515 C  
HETATM   25  O   UNL     1     -12.912  13.981  71.504  1.00  0.00    -0.320 OA 
ENDBRANCH  16  17
ENDBRANCH  15  16
ENDBRANCH  14  15
ENDBRANCH   5   8
TORSDOF 4
ENDMDL
MODEL       24
REMARK 921   NORMALIZED FREE ENERGY PREDICTED BY IDOCK:   -6.76 KCAL/MOL
REMARK 922        TOTAL FREE ENERGY PREDICTED BY IDOCK:   -9.12 KCAL/MOL
REMARK 923 INTER-LIGAND FREE ENERGY PREDICTED BY IDOCK:   -8.14 KCAL/MOL
REMARK 924 INTRA-LIGAND FREE ENERGY PREDICTED BY IDOCK:   -0.98 KCAL/MOL
REMARK 927      BINDING AFFINITY PREDICTED BY RF-SCORE:    0.00 PKD
ROOT
HETATM    1  F   UNL     1     -12.382  12.462  71.396  1.00  0.00    -0.381 F  
HETATM    2  C   UNL     1     -12.125  12.416  70.082  1.00  0.00    -0.290 A  
HETATM    3  C   UNL     1     -12.030  11.187  69.443  1.00  0.00    -0.420 A  
HETATM    4  C   UNL     1     -11.739  11.137  68.075  1.00  0.00    -0.288 A  
HETATM    5  C   UNL     1     -11.517  12.316  67.347  1.00  0.00    -0.422 A  
HETATM    6  C   UNL     1     -11.961  13.599  69.377  1.00  0.00    -0.394 A  
HETATM    7  C   UNL     1     -11.664  13.549  68.013  1.00  0.00    -0.394 A  
ENDROOT
BRANCH   5   8
HETATM    8  C   UNL     1     -11.157  12.322  65.866  1.00  0.00    -0.360 C  
HETATM    9  C   UNL     1     -12.385  12.751  65.042  1.00  0.00    -0.559 C  
HETATM   10  C   UNL     1     -12.058  12.825  63.555  1.00  0.00    -0.559 C  
HETATM   11  N   UNL     1     -11.551  11.546  63.072  1.00  0.00    -0.856 NA 
HETATM   12  C   UNL     1     -10.326  11.155  63.771  1.00  0.00    -0.386 C  
HETATM   13  H   UNL     1     -11.417  11.555  62.061  1.00  0.00     0.000 HD 
HETATM   14  C   UNL     1     -10.550  11.010  65.289  1.00  0.00    -0.283 C  
BRANCH  14  15
HETATM   15  C   UNL     1      -9.226  10.625  65.983  1.00  0.00    -0.182 C  
BRANCH  15  16
HETATM   16  O   UNL     1      -9.062   9.203  65.929  1.00  0.00    -0.175 OA 
BRANCH  16  17
HETATM   17  C   UNL     1      -9.534   8.461  66.980  1.00  0.00    -0.174 A  
HETATM   18  C   UNL     1      -9.331   8.748  68.332  1.00  0.00    -0.141 A  
HETATM   19  C   UNL     1      -9.944   7.932  69.264  1.00  0.00    -0.190 A  
HETATM   20  C   UNL     1     -10.715   6.855  68.900  1.00  0.00    -0.222 A  
HETATM   21  C   UNL     1     -10.913   6.526  67.576  1.00  0.00    -0.444 A  
HETATM   22  O   UNL     1     -11.231   6.199  69.972  1.00  0.00    -0.365 OA 
HETATM   23  C   UNL     1     -10.319   7.349  66.611  1.00  0.00    -0.241 A  
HETATM   24  C   UNL     1     -10.753   7.030  71.052  1.00  0.00    -0.233 C  
HETATM   25  O   UNL     1      -9.878   8.089  70.614  1.00  0.00    -0.183 OA 
ENDBRANCH  16  17
ENDBRANCH  15  16
ENDBRANCH  14  15
ENDBRANCH   5   8
TORSDOF 4
ENDMDL
MODEL       25
REMARK 921   NORMALIZED FREE ENERGY PREDICTED BY IDOCK:   -6.71 KCAL/MOL
REMARK 922        TOTAL FREE ENERGY PREDICTED BY IDOCK:   -9.06 KCAL/MOL
REMARK 923 INTER-LIGAND FREE ENERGY PREDICTED BY IDOCK:   -8.53 KCAL/MOL
REMARK 924 INTRA-LIGAND FREE ENERGY PREDICTED BY IDOCK:   -0.53 KCAL/MOL
REMARK 927      BINDING AFFINITY PREDICTED BY RF-SCORE:    0.00 PKD
ROOT
HETATM    1  F   UNL     1     -12.639   6.868  71.466  1.00  0.00    -0.361 F  
HETATM    2  C   UNL     1     -12.593   8.205  71.385  1.00  0.00    -0.283 A  
HETATM    3  C   UNL     1     -11.460   8.823  70.872  1.00  0.00    -0.330 A  
HETATM    4  C   UNL     1     -11.401  10.220  70.807  1.00  0.00    -0.421 A  
HETATM    5  C   UNL     1     -12.466  11.003  71.279  1.00  0.00    -0.475 A  
HETATM    6  C   UNL     1     -13.681   8.953  71.810  1.00  0.00    -0.471 A  
HETATM    7  C   UNL     1     -13.619  10.347  71.751  1.00  0.00    -0.246 A  
ENDROOT
BRANCH   5   8
HETATM    8  C   UNL     1     -12.441  12.528  71.271  1.00  0.00    -0.273 C  
HETATM    9  C   UNL     1     -13.450  13.060  72.305  1.00  0.00    -0.645 C  
HETATM   10  C   UNL     1     -13.422  14.583  72.374  1.00  0.00    -0.448 C  
HETATM   11  N   UNL     1     -13.689  15.166  71.064  1.00  0.00    -0.677 NA 
HETATM   12  C   UNL     1     -12.689  14.754  70.079  1.00  0.00    -0.157 C  
HETATM   13  H   UNL     1     -13.765  16.182  71.116  1.00  0.00     0.000 HD 
HETATM   14  C   UNL     1     -12.656  13.224  69.897  1.00  0.00     0.007 C  
BRANCH  14  15
HETATM   15  C   UNL     1     -11.569  12.838  68.870  1.00  0.00    -0.316 C  
BRANCH  15  16
HETATM   16  O   UNL     1     -12.142  11.983  67.874  1.00  0.00    -0.531 OA 
BRANCH  16  17
HETATM   17  C   UNL     1     -11.487  11.860  66.678  1.00  0.00    -0.314 A  
HETATM   18  C   UNL     1     -10.615  10.824  66.333  1.00  0.00    -0.266 A  
HETATM   19  C   UNL     1     -10.097  10.816  65.052  1.00  0.00    -0.313 A  
HETATM   20  C   UNL     1     -10.397  11.794  64.135  1.00  0.00    -0.331 A  
HETATM   21  C   UNL     1     -11.230  12.845  64.450  1.00  0.00    -0.389 A  
HETATM   22  O   UNL     1      -9.792  11.585  62.936  1.00  0.00    -0.358 OA 
HETATM   23  C   UNL     1     -11.785  12.866  65.735  1.00  0.00    -0.437 A  
HETATM   24  C   UNL     1      -9.132  10.324  63.183  1.00  0.00    -0.271 C  
HETATM   25  O   UNL     1      -9.264   9.868  64.545  1.00  0.00    -0.230 OA 
ENDBRANCH  16  17
ENDBRANCH  15  16
ENDBRANCH  14  15
ENDBRANCH   5   8
TORSDOF 4
ENDMDL
MODEL       26
REMARK 921   NORMALIZED FREE ENERGY PREDICTED BY IDOCK:   -6.70 KCAL/MOL
REMARK 922        TOTAL FREE ENERGY PREDICTED BY IDOCK:   -9.05 KCAL/MOL
REMARK 923 INTER-LIGAND FREE ENERGY PREDICTED BY IDOCK:   -8.30 KCAL/MOL
REMARK 924 INTRA-LIGAND FREE ENERGY PREDICTED BY IDOCK:   -0.74 KCAL/MOL
REMARK 927      BINDING AFFINITY PREDICTED BY RF-SCORE:    0.00 PKD
ROOT
HETATM    1  F   UNL     1     -11.653  11.346  63.434  1.00  0.00    -0.482 F  
HETATM    2  C   UNL     1     -11.493  12.033  64.573  1.00  0.00    -0.319 A  
HETATM    3  C   UNL     1     -10.293  11.945  65.265  1.00  0.00    -0.316 A  
HETATM    4  C   UNL     1     -10.132  12.643  66.468  1.00  0.00    -0.257 A  
HETATM    5  C   UNL     1     -11.182  13.412  66.994  1.00  0.00    -0.328 A  
HETATM    6  C   UNL     1     -12.529  12.826  65.044  1.00  0.00    -0.572 A  
HETATM    7  C   UNL     1     -12.372  13.517  66.247  1.00  0.00    -0.440 A  
ENDROOT
BRANCH   5   8
HETATM    8  C   UNL     1     -11.079  14.160  68.318  1.00  0.00    -0.274 C  
HETATM    9  C   UNL     1     -12.034  13.520  69.343  1.00  0.00    -0.383 C  
HETATM   10  C   UNL     1     -11.926  14.200  70.702  1.00  0.00    -0.315 C  
HETATM   11  N   UNL     1     -12.195  15.629  70.590  1.00  0.00    -0.393 NA 
HETATM   12  C   UNL     1     -11.241  16.286  69.694  1.00  0.00    -0.311 C  
HETATM   13  H   UNL     1     -12.217  16.079  71.505  1.00  0.00     0.000 HD 
HETATM   14  C   UNL     1     -11.292  15.700  68.269  1.00  0.00    -0.357 C  
BRANCH  14  15
HETATM   15  C   UNL     1     -10.252  16.405  67.373  1.00  0.00    -0.281 C  
BRANCH  15  16
HETATM   16  O   UNL     1     -10.543  17.807  67.323  1.00  0.00    -0.362 OA 
BRANCH  16  17
HETATM   17  C   UNL     1      -9.504  18.686  67.476  1.00  0.00    -0.291 A  
HETATM   18  C   UNL     1      -8.663  18.762  68.588  1.00  0.00    -0.360 A  
HETATM   19  C   UNL     1      -7.614  19.661  68.543  1.00  0.00    -0.337 A  
HETATM   20  C   UNL     1      -7.397  20.481  67.462  1.00  0.00    -0.323 A  
HETATM   21  C   UNL     1      -8.225  20.452  66.360  1.00  0.00    -0.144 A  
HETATM   22  O   UNL     1      -6.307  21.276  67.622  1.00  0.00    -0.352 OA 
HETATM   23  C   UNL     1      -9.283  19.535  66.371  1.00  0.00    -0.426 A  
HETATM   24  C   UNL     1      -5.821  20.812  68.901  1.00  0.00    -0.344 C  
HETATM   25  O   UNL     1      -6.686  19.839  69.522  1.00  0.00    -0.340 OA 
ENDBRANCH  16  17
ENDBRANCH  15  16
ENDBRANCH  14  15
ENDBRANCH   5   8
TORSDOF 4
ENDMDL
MODEL       27
REMARK 921   NORMALIZED FREE ENERGY PREDICTED BY IDOCK:   -6.70 KCAL/MOL
REMARK 922        TOTAL FREE ENERGY PREDICTED BY IDOCK:   -9.05 KCAL/MOL
REMARK 923 INTER-LIGAND FREE ENERGY PREDICTED BY IDOCK:   -7.97 KCAL/MOL
REMARK 924 INTRA-LIGAND FREE ENERGY PREDICTED BY IDOCK:   -1.08 KCAL/MOL
REMARK 927      BINDING AFFINITY PREDICTED BY RF-SCORE:    0.00 PKD
ROOT
HETATM    1  F   UNL     1      -9.015   7.509  74.564  1.00  0.00    -0.249 F  
HETATM    2  C   UNL     1      -9.389   7.725  73.296  1.00  0.00    -0.270 A  
HETATM    3  C   UNL     1     -10.736   7.699  72.963  1.00  0.00    -0.449 A  
HETATM    4  C   UNL     1     -11.127   7.902  71.634  1.00  0.00    -0.285 A  
HETATM    5  C   UNL     1     -10.168   8.106  70.630  1.00  0.00    -0.211 A  
HETATM    6  C   UNL     1      -8.423   7.976  72.333  1.00  0.00    -0.211 A  
HETATM    7  C   UNL     1      -8.811   8.171  71.006  1.00  0.00    -0.163 A  
ENDROOT
BRANCH   5   8
HETATM    8  C   UNL     1     -10.531   8.291  69.161  1.00  0.00    -0.217 C  
HETATM    9  C   UNL     1     -10.466   6.931  68.442  1.00  0.00    -0.235 C  
HETATM   10  C   UNL     1     -10.876   7.056  66.979  1.00  0.00    -0.343 C  
HETATM   11  N   UNL     1     -10.039   8.031  66.288  1.00  0.00    -0.481 NA 
HETATM   12  C   UNL     1     -10.154   9.360  66.890  1.00  0.00    -0.248 C  
HETATM   13  H   UNL     1     -10.243   8.055  65.289  1.00  0.00     0.000 HD 
HETATM   14  C   UNL     1      -9.724   9.361  68.370  1.00  0.00    -0.163 C  
BRANCH  14  15
HETATM   15  C   UNL     1      -9.889  10.775  68.966  1.00  0.00    -0.194 C  
BRANCH  15  16
HETATM   16  O   UNL     1     -11.230  11.228  68.745  1.00  0.00    -0.206 OA 
BRANCH  16  17
HETATM   17  C   UNL     1     -11.842  11.939  69.744  1.00  0.00    -0.340 A  
HETATM   18  C   UNL     1     -12.013  13.325  69.766  1.00  0.00    -0.391 A  
HETATM   19  C   UNL     1     -12.722  13.871  70.818  1.00  0.00    -0.313 A  
HETATM   20  C   UNL     1     -13.233  13.101  71.835  1.00  0.00    -0.431 A  
HETATM   21  C   UNL     1     -13.058  11.735  71.860  1.00  0.00    -0.482 A  
HETATM   22  O   UNL     1     -13.904  13.838  72.759  1.00  0.00    -0.716 OA 
HETATM   23  C   UNL     1     -12.361  11.153  70.794  1.00  0.00    -0.504 A  
HETATM   24  C   UNL     1     -13.816  15.154  72.169  1.00  0.00    -0.503 C  
HETATM   25  O   UNL     1     -13.006  15.192  70.976  1.00  0.00    -0.366 OA 
ENDBRANCH  16  17
ENDBRANCH  15  16
ENDBRANCH  14  15
ENDBRANCH   5   8
TORSDOF 4
ENDMDL
MODEL       28
REMARK 921   NORMALIZED FREE ENERGY PREDICTED BY IDOCK:   -6.67 KCAL/MOL
REMARK 922        TOTAL FREE ENERGY PREDICTED BY IDOCK:   -9.01 KCAL/MOL
REMARK 923 INTER-LIGAND FREE ENERGY PREDICTED BY IDOCK:   -8.41 KCAL/MOL
REMARK 924 INTRA-LIGAND FREE ENERGY PREDICTED BY IDOCK:   -0.60 KCAL/MOL
REMARK 927      BINDING AFFINITY PREDICTED BY RF-SCORE:    0.00 PKD
ROOT
HETATM    1  F   UNL     1     -10.537   9.489  71.640  1.00  0.00    -0.402 F  
HETATM    2  C   UNL     1     -10.642   9.992  70.402  1.00  0.00    -0.280 A  
HETATM    3  C   UNL     1     -11.772  10.715  70.048  1.00  0.00    -0.405 A  
HETATM    4  C   UNL     1     -11.894  11.222  68.748  1.00  0.00    -0.396 A  
HETATM    5  C   UNL     1     -10.894  10.984  67.792  1.00  0.00    -0.297 A  
HETATM    6  C   UNL     1      -9.615   9.786  69.493  1.00  0.00    -0.225 A  
HETATM    7  C   UNL     1      -9.739  10.285  68.194  1.00  0.00    -0.158 A  
ENDROOT
BRANCH   5   8
HETATM    8  C   UNL     1     -10.990  11.475  66.352  1.00  0.00    -0.336 C  
HETATM    9  C   UNL     1     -10.117  10.584  65.449  1.00  0.00    -0.358 C  
HETATM   10  C   UNL     1     -10.224  11.003  63.987  1.00  0.00    -0.358 C  
HETATM   11  N   UNL     1      -9.854  12.403  63.820  1.00  0.00    -0.635 NA 
HETATM   12  C   UNL     1     -10.729  13.285  64.594  1.00  0.00    -0.400 C  
HETATM   13  H   UNL     1      -9.832  12.669  62.836  1.00  0.00     0.000 HD 
HETATM   14  C   UNL     1     -10.671  12.976  66.103  1.00  0.00    -0.288 C  
BRANCH  14  15
HETATM   15  C   UNL     1     -11.629  13.913  66.870  1.00  0.00    -0.378 C  
BRANCH  15  16
HETATM   16  O   UNL     1     -10.906  14.577  67.913  1.00  0.00    -0.249 OA 
BRANCH  16  17
HETATM   17  C   UNL     1     -10.612  15.904  67.749  1.00  0.00    -0.302 A  
HETATM   18  C   UNL     1     -10.606  16.589  66.531  1.00  0.00    -0.217 A  
HETATM   19  C   UNL     1     -10.360  17.949  66.557  1.00  0.00    -0.362 A  
HETATM   20  C   UNL     1     -10.104  18.625  67.725  1.00  0.00    -0.371 A  
HETATM   21  C   UNL     1     -10.074  17.976  68.940  1.00  0.00    -0.352 A  
HETATM   22  O   UNL     1      -9.902  19.953  67.523  1.00  0.00    -0.357 OA 
HETATM   23  C   UNL     1     -10.341  16.602  68.944  1.00  0.00    -0.300 A  
HETATM   24  C   UNL     1     -10.130  20.048  66.100  1.00  0.00    -0.475 C  
HETATM   25  O   UNL     1     -10.350  18.768  65.471  1.00  0.00    -0.510 OA 
ENDBRANCH  16  17
ENDBRANCH  15  16
ENDBRANCH  14  15
ENDBRANCH   5   8
TORSDOF 4
ENDMDL
MODEL       29
REMARK 921   NORMALIZED FREE ENERGY PREDICTED BY IDOCK:   -6.66 KCAL/MOL
REMARK 922        TOTAL FREE ENERGY PREDICTED BY IDOCK:   -9.00 KCAL/MOL
REMARK 923 INTER-LIGAND FREE ENERGY PREDICTED BY IDOCK:   -8.46 KCAL/MOL
REMARK 924 INTRA-LIGAND FREE ENERGY PREDICTED BY IDOCK:   -0.55 KCAL/MOL
REMARK 927      BINDING AFFINITY PREDICTED BY RF-SCORE:    0.00 PKD
ROOT
HETATM    1  F   UNL     1     -14.232  16.461  73.329  1.00  0.00    -0.636 F  
HETATM    2  C   UNL     1     -13.613  15.643  72.467  1.00  0.00    -0.552 A  
HETATM    3  C   UNL     1     -12.284  15.870  72.138  1.00  0.00    -0.578 A  
HETATM    4  C   UNL     1     -11.642  15.030  71.220  1.00  0.00    -0.384 A  
HETATM    5  C   UNL     1     -12.337  13.975  70.610  1.00  0.00    -0.446 A  
HETATM    6  C   UNL     1     -14.309  14.576  71.918  1.00  0.00    -0.647 A  
HETATM    7  C   UNL     1     -13.672  13.742  70.997  1.00  0.00     0.095 A  
ENDROOT
BRANCH   5   8
HETATM    8  C   UNL     1     -11.703  13.054  69.574  1.00  0.00    -0.381 C  
HETATM    9  C   UNL     1     -11.758  13.727  68.189  1.00  0.00    -0.392 C  
HETATM   10  C   UNL     1     -11.085  12.865  67.127  1.00  0.00    -0.275 C  
HETATM   11  N   UNL     1     -11.696  11.543  67.067  1.00  0.00    -0.550 NA 
HETATM   12  C   UNL     1     -11.575  10.838  68.344  1.00  0.00    -0.239 C  
HETATM   13  H   UNL     1     -11.317  10.990  66.299  1.00  0.00     0.000 HD 
HETATM   14  C   UNL     1     -12.261  11.604  69.493  1.00  0.00    -0.257 C  
BRANCH  14  15
HETATM   15  C   UNL     1     -12.082  10.834  70.819  1.00  0.00    -0.372 C  
BRANCH  15  16
HETATM   16  O   UNL     1     -11.625   9.506  70.538  1.00  0.00    -0.265 OA 
BRANCH  16  17
HETATM   17  C   UNL     1     -10.810   8.898  71.455  1.00  0.00    -0.326 A  
HETATM   18  C   UNL     1      -9.427   9.071  71.552  1.00  0.00    -0.316 A  
HETATM   19  C   UNL     1      -8.768   8.437  72.588  1.00  0.00    -0.197 A  
HETATM   20  C   UNL     1      -9.425   7.640  73.494  1.00  0.00    -0.289 A  
HETATM   21  C   UNL     1     -10.784   7.425  73.412  1.00  0.00    -0.407 A  
HETATM   22  O   UNL     1      -8.590   7.126  74.435  1.00  0.00    -0.174 OA 
HETATM   23  C   UNL     1     -11.478   8.073  72.383  1.00  0.00    -0.449 A  
HETATM   24  C   UNL     1      -7.343   7.749  74.058  1.00  0.00    -0.135 C  
HETATM   25  O   UNL     1      -7.435   8.524  72.845  1.00  0.00    -0.285 OA 
ENDBRANCH  16  17
ENDBRANCH  15  16
ENDBRANCH  14  15
ENDBRANCH   5   8
TORSDOF 4
ENDMDL
MODEL       30
REMARK 921   NORMALIZED FREE ENERGY PREDICTED BY IDOCK:   -6.64 KCAL/MOL
REMARK 922        TOTAL FREE ENERGY PREDICTED BY IDOCK:   -8.98 KCAL/MOL
REMARK 923 INTER-LIGAND FREE ENERGY PREDICTED BY IDOCK:   -8.22 KCAL/MOL
REMARK 924 INTRA-LIGAND FREE ENERGY PREDICTED BY IDOCK:   -0.76 KCAL/MOL
REMARK 927      BINDING AFFINITY PREDICTED BY RF-SCORE:    0.00 PKD
ROOT
HETATM    1  F   UNL     1     -10.843  10.860  63.254  1.00  0.00    -0.361 F  
HETATM    2  C   UNL     1     -10.972  11.780  64.219  1.00  0.00    -0.359 A  
HETATM    3  C   UNL     1      -9.912  12.024  65.082  1.00  0.00    -0.265 A  
HETATM    4  C   UNL     1     -10.053  12.969  66.105  1.00  0.00    -0.287 A  
HETATM    5  C   UNL     1     -11.265  13.655  66.283  1.00  0.00    -0.313 A  
HETATM    6  C   UNL     1     -12.163  12.480  64.339  1.00  0.00    -0.528 A  
HETATM    7  C   UNL     1     -12.306  13.418  65.364  1.00  0.00    -0.522 A  
ENDROOT
BRANCH   5   8
HETATM    8  C   UNL     1     -11.490  14.664  67.403  1.00  0.00    -0.384 C  
HETATM    9  C   UNL     1     -10.620  15.910  67.151  1.00  0.00    -0.316 C  
HETATM   10  C   UNL     1     -10.853  16.973  68.218  1.00  0.00    -0.341 C  
HETATM   11  N   UNL     1     -10.590  16.438  69.549  1.00  0.00    -0.308 NA 
HETATM   12  C   UNL     1     -11.470  15.309  69.857  1.00  0.00    -0.304 C  
HETATM   13  H   UNL     1     -10.652  17.164  70.263  1.00  0.00     0.000 HD 
HETATM   14  C   UNL     1     -11.290  14.150  68.858  1.00  0.00    -0.308 C  
BRANCH  14  15
HETATM   15  C   UNL     1     -12.256  12.997  69.208  1.00  0.00    -0.089 C  
BRANCH  15  16
HETATM   16  O   UNL     1     -11.918  12.473  70.498  1.00  0.00    -0.326 OA 
BRANCH  16  17
HETATM   17  C   UNL     1     -12.096  11.133  70.714  1.00  0.00    -0.357 A  
HETATM   18  C   UNL     1     -11.342  10.110  70.133  1.00  0.00    -0.372 A  
HETATM   19  C   UNL     1     -11.609   8.811  70.522  1.00  0.00    -0.147 A  
HETATM   20  C   UNL     1     -12.592   8.506  71.432  1.00  0.00    -0.283 A  
HETATM   21  C   UNL     1     -13.373   9.487  72.003  1.00  0.00    -0.535 A  
HETATM   22  O   UNL     1     -12.676   7.173  71.679  1.00  0.00    -0.352 OA 
HETATM   23  C   UNL     1     -13.109  10.814  71.642  1.00  0.00    -0.551 A  
HETATM   24  C   UNL     1     -11.584   6.679  70.872  1.00  0.00    -0.361 C  
HETATM   25  O   UNL     1     -10.950   7.705  70.081  1.00  0.00    -0.255 OA 
ENDBRANCH  16  17
ENDBRANCH  15  16
ENDBRANCH  14  15
ENDBRANCH   5   8
TORSDOF 4
ENDMDL
MODEL       31
REMARK 921   NORMALIZED FREE ENERGY PREDICTED BY IDOCK:   -6.62 KCAL/MOL
REMARK 922        TOTAL FREE ENERGY PREDICTED BY IDOCK:   -8.94 KCAL/MOL
REMARK 923 INTER-LIGAND FREE ENERGY PREDICTED BY IDOCK:   -8.30 KCAL/MOL
REMARK 924 INTRA-LIGAND FREE ENERGY PREDICTED BY IDOCK:   -0.64 KCAL/MOL
REMARK 927      BINDING AFFINITY PREDICTED BY RF-SCORE:    0.00 PKD
ROOT
HETATM    1  F   UNL     1      -7.227   7.895  66.497  1.00  0.00    -0.075 F  
HETATM    2  C   UNL     1      -8.149   8.800  66.144  1.00  0.00    -0.107 A  
HETATM    3  C   UNL     1      -7.832   9.774  65.207  1.00  0.00    -0.120 A  
HETATM    4  C   UNL     1      -8.787  10.735  64.853  1.00  0.00    -0.176 A  
HETATM    5  C   UNL     1     -10.055  10.737  65.455  1.00  0.00    -0.335 A  
HETATM    6  C   UNL     1      -9.412   8.747  66.716  1.00  0.00    -0.249 A  
HETATM    7  C   UNL     1     -10.363   9.709  66.368  1.00  0.00    -0.246 A  
ENDROOT
BRANCH   5   8
HETATM    8  C   UNL     1     -11.121  11.781  65.140  1.00  0.00    -0.341 C  
HETATM    9  C   UNL     1     -11.169  12.020  63.619  1.00  0.00    -0.528 C  
HETATM   10  C   UNL     1     -12.259  13.018  63.249  1.00  0.00    -0.382 C  
HETATM   11  N   UNL     1     -12.066  14.281  63.950  1.00  0.00    -0.862 NA 
HETATM   12  C   UNL     1     -12.112  14.102  65.402  1.00  0.00    -0.410 C  
HETATM   13  H   UNL     1     -12.735  14.987  63.640  1.00  0.00     0.000 HD 
HETATM   14  C   UNL     1     -11.019  13.135  65.898  1.00  0.00    -0.288 C  
BRANCH  14  15
HETATM   15  C   UNL     1     -11.126  12.958  67.428  1.00  0.00    -0.273 C  
BRANCH  15  16
HETATM   16  O   UNL     1     -10.994  14.236  68.061  1.00  0.00    -0.241 OA 
BRANCH  16  17
HETATM   17  C   UNL     1     -11.442  14.365  69.349  1.00  0.00    -0.288 A  
HETATM   18  C   UNL     1     -11.363  15.525  70.124  1.00  0.00    -0.339 A  
HETATM   19  C   UNL     1     -11.935  15.501  71.381  1.00  0.00    -0.394 A  
HETATM   20  C   UNL     1     -12.548  14.380  71.886  1.00  0.00    -0.337 A  
HETATM   21  C   UNL     1     -12.620  13.211  71.161  1.00  0.00    -0.403 A  
HETATM   22  O   UNL     1     -13.052  14.580  73.132  1.00  0.00    -0.520 OA 
HETATM   23  C   UNL     1     -12.066  13.215  69.875  1.00  0.00    -0.357 A  
HETATM   24  C   UNL     1     -12.746  15.978  73.326  1.00  0.00    -0.537 C  
HETATM   25  O   UNL     1     -11.975  16.549  72.249  1.00  0.00    -0.494 OA 
ENDBRANCH  16  17
ENDBRANCH  15  16
ENDBRANCH  14  15
ENDBRANCH   5   8
TORSDOF 4
ENDMDL
MODEL       32
REMARK 921   NORMALIZED FREE ENERGY PREDICTED BY IDOCK:   -6.61 KCAL/MOL
REMARK 922        TOTAL FREE ENERGY PREDICTED BY IDOCK:   -8.94 KCAL/MOL
REMARK 923 INTER-LIGAND FREE ENERGY PREDICTED BY IDOCK:   -8.01 KCAL/MOL
REMARK 924 INTRA-LIGAND FREE ENERGY PREDICTED BY IDOCK:   -0.93 KCAL/MOL
REMARK 927      BINDING AFFINITY PREDICTED BY RF-SCORE:    0.00 PKD
ROOT
HETATM    1  F   UNL     1      -8.053   9.199  69.061  1.00  0.00    -0.095 F  
HETATM    2  C   UNL     1      -8.877   9.886  68.260  1.00  0.00    -0.119 A  
HETATM    3  C   UNL     1      -8.350  10.716  67.280  1.00  0.00    -0.120 A  
HETATM    4  C   UNL     1      -9.210  11.453  66.457  1.00  0.00    -0.200 A  
HETATM    5  C   UNL     1     -10.601  11.380  66.630  1.00  0.00    -0.302 A  
HETATM    6  C   UNL     1     -10.249   9.755  68.418  1.00  0.00    -0.210 A  
HETATM    7  C   UNL     1     -11.108  10.495  67.602  1.00  0.00    -0.375 A  
ENDROOT
BRANCH   5   8
HETATM    8  C   UNL     1     -11.584  12.189  65.791  1.00  0.00    -0.414 C  
HETATM    9  C   UNL     1     -11.528  11.706  64.330  1.00  0.00    -0.332 C  
HETATM   10  C   UNL     1     -12.535  12.449  63.461  1.00  0.00    -0.500 C  
HETATM   11  N   UNL     1     -12.311  13.889  63.523  1.00  0.00    -1.087 NA 
HETATM   12  C   UNL     1     -12.453  14.395  64.889  1.00  0.00    -0.357 C  
HETATM   13  H   UNL     1     -12.918  14.390  62.875  1.00  0.00     0.000 HD 
HETATM   14  C   UNL     1     -11.448  13.737  65.855  1.00  0.00    -0.330 C  
BRANCH  14  15
HETATM   15  C   UNL     1     -11.655  14.283  67.284  1.00  0.00    -0.377 C  
BRANCH  15  16
HETATM   16  O   UNL     1     -10.414  14.801  67.776  1.00  0.00    -0.250 OA 
BRANCH  16  17
HETATM   17  C   UNL     1     -10.040  16.058  67.383  1.00  0.00    -0.258 A  
HETATM   18  C   UNL     1     -10.714  17.241  67.695  1.00  0.00    -0.307 A  
HETATM   19  C   UNL     1     -10.154  18.433  67.278  1.00  0.00    -0.352 A  
HETATM   20  C   UNL     1      -8.985  18.481  66.559  1.00  0.00    -0.293 A  
HETATM   21  C   UNL     1      -8.308  17.333  66.208  1.00  0.00    -0.289 A  
HETATM   22  O   UNL     1      -8.607  19.752  66.263  1.00  0.00    -0.351 OA 
HETATM   23  C   UNL     1      -8.843  16.112  66.637  1.00  0.00    -0.298 A  
HETATM   24  C   UNL     1      -9.638  20.504  66.940  1.00  0.00    -0.356 C  
HETATM   25  O   UNL     1     -10.661  19.671  67.525  1.00  0.00    -0.442 OA 
ENDBRANCH  16  17
ENDBRANCH  15  16
ENDBRANCH  14  15
ENDBRANCH   5   8
TORSDOF 4
ENDMDL
MODEL       33
REMARK 921   NORMALIZED FREE ENERGY PREDICTED BY IDOCK:   -6.61 KCAL/MOL
REMARK 922        TOTAL FREE ENERGY PREDICTED BY IDOCK:   -8.93 KCAL/MOL
REMARK 923 INTER-LIGAND FREE ENERGY PREDICTED BY IDOCK:   -7.48 KCAL/MOL
REMARK 924 INTRA-LIGAND FREE ENERGY PREDICTED BY IDOCK:   -1.46 KCAL/MOL
REMARK 927      BINDING AFFINITY PREDICTED BY RF-SCORE:    0.00 PKD
ROOT
HETATM    1  F   UNL     1      -9.720  13.614  66.325  1.00  0.00    -0.270 F  
HETATM    2  C   UNL     1      -9.878  12.483  67.025  1.00  0.00    -0.217 A  
HETATM    3  C   UNL     1     -10.979  11.673  66.781  1.00  0.00    -0.341 A  
HETATM    4  C   UNL     1     -11.159  10.502  67.528  1.00  0.00    -0.358 A  
HETATM    5  C   UNL     1     -10.248  10.152  68.537  1.00  0.00    -0.194 A  
HETATM    6  C   UNL     1      -8.936  12.134  67.980  1.00  0.00    -0.189 A  
HETATM    7  C   UNL     1      -9.117  10.969  68.730  1.00  0.00    -0.161 A  
ENDROOT
BRANCH   5   8
HETATM    8  C   UNL     1     -10.414   8.911  69.409  1.00  0.00    -0.228 C  
HETATM    9  C   UNL     1     -10.215   7.651  68.546  1.00  0.00    -0.220 C  
HETATM   10  C   UNL     1     -10.317   6.383  69.386  1.00  0.00    -0.209 C  
HETATM   11  N   UNL     1     -11.598   6.321  70.080  1.00  0.00    -0.405 NA 
HETATM   12  C   UNL     1     -11.776   7.460  70.982  1.00  0.00    -0.297 C  
HETATM   13  H   UNL     1     -11.715   5.435  70.570  1.00  0.00     0.000 HD 
HETATM   14  C   UNL     1     -11.731   8.804  70.229  1.00  0.00     0.061 C  
BRANCH  14  15
HETATM   15  C   UNL     1     -11.895   9.972  71.226  1.00  0.00    -0.385 C  
BRANCH  15  16
HETATM   16  O   UNL     1     -12.899  10.870  70.739  1.00  0.00    -0.331 OA 
BRANCH  16  17
HETATM   17  C   UNL     1     -12.765  12.202  71.030  1.00  0.00    -0.228 A  
HETATM   18  C   UNL     1     -13.207  12.825  72.200  1.00  0.00    -0.546 A  
HETATM   19  C   UNL     1     -12.922  14.167  72.364  1.00  0.00    -0.391 A  
HETATM   20  C   UNL     1     -12.249  14.895  71.412  1.00  0.00    -0.333 A  
HETATM   21  C   UNL     1     -11.824  14.319  70.234  1.00  0.00    -0.377 A  
HETATM   22  O   UNL     1     -12.065  16.189  71.780  1.00  0.00    -0.472 OA 
HETATM   23  C   UNL     1     -12.081  12.955  70.053  1.00  0.00    -0.357 A  
HETATM   24  C   UNL     1     -12.640  16.177  73.105  1.00  0.00    -0.498 C  
HETATM   25  O   UNL     1     -13.249  14.916  73.452  1.00  0.00    -0.530 OA 
ENDBRANCH  16  17
ENDBRANCH  15  16
ENDBRANCH  14  15
ENDBRANCH   5   8
TORSDOF 4
ENDMDL
MODEL       34
REMARK 921   NORMALIZED FREE ENERGY PREDICTED BY IDOCK:   -6.60 KCAL/MOL
REMARK 922        TOTAL FREE ENERGY PREDICTED BY IDOCK:   -8.93 KCAL/MOL
REMARK 923 INTER-LIGAND FREE ENERGY PREDICTED BY IDOCK:   -8.23 KCAL/MOL
REMARK 924 INTRA-LIGAND FREE ENERGY PREDICTED BY IDOCK:   -0.69 KCAL/MOL
REMARK 927      BINDING AFFINITY PREDICTED BY RF-SCORE:    0.00 PKD
ROOT
HETATM    1  F   UNL     1      -9.167  14.887  65.792  1.00  0.00    -0.324 F  
HETATM    2  C   UNL     1     -10.019  14.769  66.819  1.00  0.00    -0.251 A  
HETATM    3  C   UNL     1      -9.632  15.191  68.084  1.00  0.00    -0.205 A  
HETATM    4  C   UNL     1     -10.512  15.047  69.164  1.00  0.00    -0.247 A  
HETATM    5  C   UNL     1     -11.774  14.458  68.983  1.00  0.00    -0.345 A  
HETATM    6  C   UNL     1     -11.279  14.231  66.603  1.00  0.00    -0.337 A  
HETATM    7  C   UNL     1     -12.155  14.082  67.680  1.00  0.00    -0.344 A  
ENDROOT
BRANCH   5   8
HETATM    8  C   UNL     1     -12.757  14.239  70.127  1.00  0.00    -0.246 C  
HETATM    9  C   UNL     1     -13.022  15.580  70.837  1.00  0.00    -0.526 C  
HETATM   10  C   UNL     1     -14.045  15.422  71.957  1.00  0.00    -0.549 C  
HETATM   11  N   UNL     1     -13.606  14.420  72.922  1.00  0.00    -0.618 NA 
HETATM   12  C   UNL     1     -13.438  13.108  72.294  1.00  0.00    -0.568 C  
HETATM   13  H   UNL     1     -14.236  14.372  73.723  1.00  0.00     0.000 HD 
HETATM   14  C   UNL     1     -12.389  13.140  71.165  1.00  0.00    -0.295 C  
BRANCH  14  15
HETATM   15  C   UNL     1     -12.268  11.744  70.519  1.00  0.00    -0.347 C  
BRANCH  15  16
HETATM   16  O   UNL     1     -13.169  10.841  71.172  1.00  0.00    -0.324 OA 
BRANCH  16  17
HETATM   17  C   UNL     1     -12.736   9.565  71.416  1.00  0.00    -0.358 A  
HETATM   18  C   UNL     1     -11.424   9.198  71.723  1.00  0.00    -0.452 A  
HETATM   19  C   UNL     1     -11.177   7.870  72.016  1.00  0.00    -0.287 A  
HETATM   20  C   UNL     1     -12.167   6.918  71.990  1.00  0.00    -0.282 A  
HETATM   21  C   UNL     1     -13.467   7.240  71.664  1.00  0.00    -0.428 A  
HETATM   22  O   UNL     1     -11.709   5.682  72.321  1.00  0.00    -0.247 OA 
HETATM   23  C   UNL     1     -13.748   8.582  71.383  1.00  0.00    -0.286 A  
HETATM   24  C   UNL     1     -10.329   5.979  72.626  1.00  0.00    -0.196 C  
HETATM   25  O   UNL     1      -9.969   7.351  72.365  1.00  0.00    -0.170 OA 
ENDBRANCH  16  17
ENDBRANCH  15  16
ENDBRANCH  14  15
ENDBRANCH   5   8
TORSDOF 4
ENDMDL
MODEL       35
REMARK 921   NORMALIZED FREE ENERGY PREDICTED BY IDOCK:   -6.60 KCAL/MOL
REMARK 922        TOTAL FREE ENERGY PREDICTED BY IDOCK:   -8.92 KCAL/MOL
REMARK 923 INTER-LIGAND FREE ENERGY PREDICTED BY IDOCK:   -7.94 KCAL/MOL
REMARK 924 INTRA-LIGAND FREE ENERGY PREDICTED BY IDOCK:   -0.99 KCAL/MOL
REMARK 927      BINDING AFFINITY PREDICTED BY RF-SCORE:    0.00 PKD
ROOT
HETATM    1  F   UNL     1     -13.135  12.325  72.118  1.00  0.00    -0.540 F  
HETATM    2  C   UNL     1     -12.633  12.801  70.971  1.00  0.00    -0.271 A  
HETATM    3  C   UNL     1     -11.982  11.940  70.097  1.00  0.00    -0.413 A  
HETATM    4  C   UNL     1     -11.436  12.439  68.908  1.00  0.00    -0.355 A  
HETATM    5  C   UNL     1     -11.518  13.807  68.603  1.00  0.00    -0.336 A  
HETATM    6  C   UNL     1     -12.774  14.147  70.670  1.00  0.00    -0.389 A  
HETATM    7  C   UNL     1     -12.223  14.647  69.488  1.00  0.00    -0.297 A  
ENDROOT
BRANCH   5   8
HETATM    8  C   UNL     1     -10.907  14.414  67.345  1.00  0.00    -0.293 C  
HETATM    9  C   UNL     1     -10.197  15.732  67.707  1.00  0.00    -0.251 C  
HETATM   10  C   UNL     1      -9.522  16.351  66.488  1.00  0.00    -0.272 C  
HETATM   11  N   UNL     1     -10.487  16.576  65.419  1.00  0.00    -0.602 NA 
HETATM   12  C   UNL     1     -11.111  15.325  64.986  1.00  0.00    -0.426 C  
HETATM   13  H   UNL     1     -10.067  17.074  64.634  1.00  0.00     0.000 HD 
HETATM   14  C   UNL     1     -11.863  14.628  66.137  1.00  0.00    -0.282 C  
BRANCH  14  15
HETATM   15  C   UNL     1     -12.479  13.303  65.638  1.00  0.00    -0.451 C  
BRANCH  15  16
HETATM   16  O   UNL     1     -11.834  12.912  64.420  1.00  0.00    -0.342 OA 
BRANCH  16  17
HETATM   17  C   UNL     1     -10.939  11.876  64.470  1.00  0.00    -0.322 A  
HETATM   18  C   UNL     1     -10.628  11.127  65.607  1.00  0.00    -0.286 A  
HETATM   19  C   UNL     1      -9.756  10.065  65.462  1.00  0.00    -0.289 A  
HETATM   20  C   UNL     1      -9.182   9.748  64.254  1.00  0.00    -0.232 A  
HETATM   21  C   UNL     1      -9.445  10.483  63.118  1.00  0.00    -0.367 A  
HETATM   22  O   UNL     1      -8.368   8.664  64.333  1.00  0.00    -0.164 OA 
HETATM   23  C   UNL     1     -10.342  11.552  63.234  1.00  0.00    -0.435 A  
HETATM   24  C   UNL     1      -8.550   8.290  65.717  1.00  0.00    -0.161 C  
HETATM   25  O   UNL     1      -9.373   9.217  66.455  1.00  0.00    -0.164 OA 
ENDBRANCH  16  17
ENDBRANCH  15  16
ENDBRANCH  14  15
ENDBRANCH   5   8
TORSDOF 4
ENDMDL
MODEL       36
REMARK 921   NORMALIZED FREE ENERGY PREDICTED BY IDOCK:   -6.58 KCAL/MOL
REMARK 922        TOTAL FREE ENERGY PREDICTED BY IDOCK:   -8.90 KCAL/MOL
REMARK 923 INTER-LIGAND FREE ENERGY PREDICTED BY IDOCK:   -7.28 KCAL/MOL
REMARK 924 INTRA-LIGAND FREE ENERGY PREDICTED BY IDOCK:   -1.62 KCAL/MOL
REMARK 927      BINDING AFFINITY PREDICTED BY RF-SCORE:    0.00 PKD
ROOT
HETATM    1  F   UNL     1      -8.255   6.170  68.910  1.00  0.00    -0.106 F  
HETATM    2  C   UNL     1      -8.675   7.109  68.052  1.00  0.00    -0.127 A  
HETATM    3  C   UNL     1      -7.760   8.000  67.507  1.00  0.00    -0.106 A  
HETATM    4  C   UNL     1      -8.200   8.996  66.628  1.00  0.00    -0.118 A  
HETATM    5  C   UNL     1      -9.562   9.119  66.311  1.00  0.00    -0.321 A  
HETATM    6  C   UNL     1     -10.019   7.175  67.716  1.00  0.00    -0.192 A  
HETATM    7  C   UNL     1     -10.459   8.172  66.844  1.00  0.00    -0.379 A  
ENDROOT
BRANCH   5   8
HETATM    8  C   UNL     1     -10.105  10.208  65.392  1.00  0.00    -0.342 C  
HETATM    9  C   UNL     1      -9.322  10.195  64.066  1.00  0.00    -0.339 C  
HETATM   10  C   UNL     1      -9.866  11.232  63.091  1.00  0.00    -0.375 C  
HETATM   11  N   UNL     1      -9.833  12.566  63.681  1.00  0.00    -0.667 NA 
HETATM   12  C   UNL     1     -10.647  12.636  64.894  1.00  0.00    -0.307 C  
HETATM   13  H   UNL     1     -10.106  13.280  63.006  1.00  0.00     0.000 HD 
HETATM   14  C   UNL     1     -10.160  11.649  65.974  1.00  0.00    -0.259 C  
BRANCH  14  15
HETATM   15  C   UNL     1     -11.065  11.742  67.220  1.00  0.00    -0.287 C  
BRANCH  15  16
HETATM   16  O   UNL     1     -10.258  11.643  68.399  1.00  0.00    -0.195 OA 
BRANCH  16  17
HETATM   17  C   UNL     1     -10.736  10.900  69.446  1.00  0.00    -0.225 A  
HETATM   18  C   UNL     1     -12.042  10.942  69.941  1.00  0.00    -0.428 A  
HETATM   19  C   UNL     1     -12.375  10.067  70.957  1.00  0.00    -0.360 A  
HETATM   20  C   UNL     1     -11.466   9.190  71.496  1.00  0.00    -0.367 A  
HETATM   21  C   UNL     1     -10.162   9.141  71.052  1.00  0.00    -0.372 A  
HETATM   22  O   UNL     1     -12.006   8.415  72.473  1.00  0.00    -0.393 OA 
HETATM   23  C   UNL     1      -9.804  10.003  70.008  1.00  0.00    -0.247 A  
HETATM   24  C   UNL     1     -13.381   8.857  72.438  1.00  0.00    -0.440 C  
HETATM   25  O   UNL     1     -13.605   9.954  71.529  1.00  0.00    -0.328 OA 
ENDBRANCH  16  17
ENDBRANCH  15  16
ENDBRANCH  14  15
ENDBRANCH   5   8
TORSDOF 4
ENDMDL
MODEL       37
REMARK 921   NORMALIZED FREE ENERGY PREDICTED BY IDOCK:   -6.58 KCAL/MOL
REMARK 922        TOTAL FREE ENERGY PREDICTED BY IDOCK:   -8.90 KCAL/MOL
REMARK 923 INTER-LIGAND FREE ENERGY PREDICTED BY IDOCK:   -8.10 KCAL/MOL
REMARK 924 INTRA-LIGAND FREE ENERGY PREDICTED BY IDOCK:   -0.80 KCAL/MOL
REMARK 927      BINDING AFFINITY PREDICTED BY RF-SCORE:    0.00 PKD
ROOT
HETATM    1  F   UNL     1      -8.134  19.979  65.589  1.00  0.00    -0.347 F  
HETATM    2  C   UNL     1      -8.842  19.133  66.348  1.00  0.00    -0.338 A  
HETATM    3  C   UNL     1      -8.255  17.959  66.799  1.00  0.00    -0.273 A  
HETATM    4  C   UNL     1      -9.000  17.062  67.573  1.00  0.00    -0.220 A  
HETATM    5  C   UNL     1     -10.345  17.327  67.878  1.00  0.00    -0.360 A  
HETATM    6  C   UNL     1     -10.153  19.445  66.678  1.00  0.00    -0.503 A  
HETATM    7  C   UNL     1     -10.899  18.548  67.444  1.00  0.00    -0.342 A  
ENDROOT
BRANCH   5   8
HETATM    8  C   UNL     1     -11.217  16.370  68.682  1.00  0.00    -0.332 C  
HETATM    9  C   UNL     1     -10.786  16.405  70.160  1.00  0.00    -0.265 C  
HETATM   10  C   UNL     1     -11.668  15.503  71.016  1.00  0.00    -0.381 C  
HETATM   11  N   UNL     1     -11.646  14.132  70.518  1.00  0.00    -0.494 NA 
HETATM   12  C   UNL     1     -12.142  14.053  69.143  1.00  0.00    -0.337 C  
HETATM   13  H   UNL     1     -12.157  13.502  71.136  1.00  0.00     0.000 HD 
HETATM   14  C   UNL     1     -11.295  14.901  68.175  1.00  0.00    -0.326 C  
BRANCH  14  15
HETATM   15  C   UNL     1     -11.873  14.806  66.747  1.00  0.00    -0.257 C  
BRANCH  15  16
HETATM   16  O   UNL     1     -12.336  13.471  66.513  1.00  0.00    -0.392 OA 
BRANCH  16  17
HETATM   17  C   UNL     1     -11.582  12.661  65.704  1.00  0.00    -0.377 A  
HETATM   18  C   UNL     1     -10.576  11.794  66.135  1.00  0.00    -0.301 A  
HETATM   19  C   UNL     1      -9.966  10.992  65.189  1.00  0.00    -0.278 A  
HETATM   20  C   UNL     1     -10.304  11.043  63.858  1.00  0.00    -0.372 A  
HETATM   21  C   UNL     1     -11.272  11.907  63.394  1.00  0.00    -0.463 A  
HETATM   22  O   UNL     1      -9.591  10.163  63.107  1.00  0.00    -0.300 OA 
HETATM   23  C   UNL     1     -11.920  12.715  64.335  1.00  0.00    -0.469 A  
HETATM   24  C   UNL     1      -8.814   9.503  64.129  1.00  0.00    -0.211 C  
HETATM   25  O   UNL     1      -8.995  10.073  65.442  1.00  0.00    -0.158 OA 
ENDBRANCH  16  17
ENDBRANCH  15  16
ENDBRANCH  14  15
ENDBRANCH   5   8
TORSDOF 4
ENDMDL
MODEL       38
REMARK 921   NORMALIZED FREE ENERGY PREDICTED BY IDOCK:   -6.57 KCAL/MOL
REMARK 922        TOTAL FREE ENERGY PREDICTED BY IDOCK:   -8.89 KCAL/MOL
REMARK 923 INTER-LIGAND FREE ENERGY PREDICTED BY IDOCK:   -8.03 KCAL/MOL
REMARK 924 INTRA-LIGAND FREE ENERGY PREDICTED BY IDOCK:   -0.85 KCAL/MOL
REMARK 927      BINDING AFFINITY PREDICTED BY RF-SCORE:    0.00 PKD
ROOT
HETATM    1  F   UNL     1     -14.318   8.864  72.845  1.00  0.00    -0.457 F  
HETATM    2  C   UNL     1     -13.283   9.003  72.007  1.00  0.00    -0.429 A  
HETATM    3  C   UNL     1     -12.671   7.875  71.478  1.00  0.00    -0.342 A  
HETATM    4  C   UNL     1     -11.574   8.017  70.619  1.00  0.00    -0.203 A  
HETATM    5  C   UNL     1     -11.072   9.291  70.307  1.00  0.00    -0.289 A  
HETATM    6  C   UNL     1     -12.840  10.275  71.674  1.00  0.00    -0.568 A  
HETATM    7  C   UNL     1     -11.742  10.418  70.823  1.00  0.00    -0.464 A  
ENDROOT
BRANCH   5   8
HETATM    8  C   UNL     1      -9.857   9.506  69.412  1.00  0.00    -0.194 C  
HETATM    9  C   UNL     1      -8.603   9.689  70.287  1.00  0.00    -0.234 C  
HETATM   10  C   UNL     1      -7.350   9.853  69.433  1.00  0.00    -0.091 C  
HETATM   11  N   UNL     1      -7.492  10.977  68.516  1.00  0.00    -0.098 NA 
HETATM   12  C   UNL     1      -8.621  10.788  67.605  1.00  0.00    -0.123 C  
HETATM   13  H   UNL     1      -6.626  11.154  68.006  1.00  0.00     0.000 HD 
HETATM   14  C   UNL     1      -9.956  10.649  68.362  1.00  0.00    -0.176 C  
BRANCH  14  15
HETATM   15  C   UNL     1     -11.109  10.425  67.361  1.00  0.00    -0.226 C  
BRANCH  15  16
HETATM   16  O   UNL     1     -12.061  11.488  67.491  1.00  0.00    -0.614 OA 
BRANCH  16  17
HETATM   17  C   UNL     1     -11.773  12.686  66.893  1.00  0.00    -0.383 A  
HETATM   18  C   UNL     1     -11.371  13.848  67.557  1.00  0.00    -0.342 A  
HETATM   19  C   UNL     1     -11.047  14.951  66.790  1.00  0.00    -0.335 A  
HETATM   20  C   UNL     1     -11.130  14.938  65.418  1.00  0.00    -0.364 A  
HETATM   21  C   UNL     1     -11.549  13.819  64.733  1.00  0.00    -0.377 A  
HETATM   22  O   UNL     1     -10.754  16.121  64.864  1.00  0.00    -0.612 OA 
HETATM   23  C   UNL     1     -11.864  12.681  65.486  1.00  0.00    -0.479 A  
HETATM   24  C   UNL     1     -10.358  16.857  66.042  1.00  0.00    -0.325 C  
HETATM   25  O   UNL     1     -10.609  16.145  67.271  1.00  0.00    -0.307 OA 
ENDBRANCH  16  17
ENDBRANCH  15  16
ENDBRANCH  14  15
ENDBRANCH   5   8
TORSDOF 4
ENDMDL
MODEL       39
REMARK 921   NORMALIZED FREE ENERGY PREDICTED BY IDOCK:   -6.54 KCAL/MOL
REMARK 922        TOTAL FREE ENERGY PREDICTED BY IDOCK:   -8.85 KCAL/MOL
REMARK 923 INTER-LIGAND FREE ENERGY PREDICTED BY IDOCK:   -7.19 KCAL/MOL
REMARK 924 INTRA-LIGAND FREE ENERGY PREDICTED BY IDOCK:   -1.66 KCAL/MOL
REMARK 927      BINDING AFFINITY PREDICTED BY RF-SCORE:    0.00 PKD
ROOT
HETATM    1  F   UNL     1      -7.387   9.366  66.121  1.00  0.00    -0.090 F  
HETATM    2  C   UNL     1      -8.138   9.409  67.229  1.00  0.00    -0.110 A  
HETATM    3  C   UNL     1      -7.880  10.369  68.198  1.00  0.00    -0.108 A  
HETATM    4  C   UNL     1      -8.649  10.401  69.367  1.00  0.00    -0.143 A  
HETATM    5  C   UNL     1      -9.664   9.455  69.581  1.00  0.00    -0.202 A  
HETATM    6  C   UNL     1      -9.169   8.495  67.391  1.00  0.00    -0.163 A  
HETATM    7  C   UNL     1      -9.932   8.522  68.560  1.00  0.00    -0.201 A  
ENDROOT
BRANCH   5   8
HETATM    8  C   UNL     1     -10.506   9.416  70.851  1.00  0.00    -0.381 C  
HETATM    9  C   UNL     1     -10.411   8.015  71.484  1.00  0.00    -0.258 C  
HETATM   10  C   UNL     1     -11.194   7.943  72.790  1.00  0.00    -0.405 C  
HETATM   11  N   UNL     1     -12.591   8.303  72.577  1.00  0.00    -0.580 NA 
HETATM   12  C   UNL     1     -12.720   9.668  72.064  1.00  0.00    -0.385 C  
HETATM   13  H   UNL     1     -13.145   8.169  73.423  1.00  0.00     0.000 HD 
HETATM   14  C   UNL     1     -11.994   9.849  70.717  1.00  0.00    -0.410 C  
BRANCH  14  15
HETATM   15  C   UNL     1     -12.137  11.307  70.232  1.00  0.00    -0.373 C  
BRANCH  15  16
HETATM   16  O   UNL     1     -12.389  11.314  68.822  1.00  0.00    -0.518 OA 
BRANCH  16  17
HETATM   17  C   UNL     1     -11.747  12.253  68.058  1.00  0.00    -0.356 A  
HETATM   18  C   UNL     1     -11.675  13.619  68.342  1.00  0.00    -0.393 A  
HETATM   19  C   UNL     1     -10.920  14.414  67.502  1.00  0.00    -0.293 A  
HETATM   20  C   UNL     1     -10.270  13.907  66.403  1.00  0.00    -0.292 A  
HETATM   21  C   UNL     1     -10.342  12.570  66.077  1.00  0.00    -0.277 A  
HETATM   22  O   UNL     1      -9.577  14.858  65.723  1.00  0.00    -0.326 OA 
HETATM   23  C   UNL     1     -11.084  11.739  66.925  1.00  0.00    -0.361 A  
HETATM   24  C   UNL     1      -9.810  16.011  66.562  1.00  0.00    -0.267 C  
HETATM   25  O   UNL     1     -10.719  15.751  67.651  1.00  0.00    -0.297 OA 
ENDBRANCH  16  17
ENDBRANCH  15  16
ENDBRANCH  14  15
ENDBRANCH   5   8
TORSDOF 4
ENDMDL
MODEL       40
REMARK 921   NORMALIZED FREE ENERGY PREDICTED BY IDOCK:   -6.54 KCAL/MOL
REMARK 922        TOTAL FREE ENERGY PREDICTED BY IDOCK:   -8.85 KCAL/MOL
REMARK 923 INTER-LIGAND FREE ENERGY PREDICTED BY IDOCK:   -7.74 KCAL/MOL
REMARK 924 INTRA-LIGAND FREE ENERGY PREDICTED BY IDOCK:   -1.10 KCAL/MOL
REMARK 927      BINDING AFFINITY PREDICTED BY RF-SCORE:    0.00 PKD
ROOT
HETATM    1  F   UNL     1      -6.401  13.424  69.625  1.00  0.00    -0.102 F  
HETATM    2  C   UNL     1      -6.752  14.558  69.005  1.00  0.00    -0.105 A  
HETATM    3  C   UNL     1      -6.815  14.593  67.619  1.00  0.00    -0.204 A  
HETATM    4  C   UNL     1      -7.159  15.784  66.969  1.00  0.00    -0.169 A  
HETATM    5  C   UNL     1      -7.418  16.951  67.705  1.00  0.00    -0.176 A  
HETATM    6  C   UNL     1      -7.053  15.683  69.759  1.00  0.00    -0.107 A  
HETATM    7  C   UNL     1      -7.390  16.873  69.111  1.00  0.00    -0.197 A  
ENDROOT
BRANCH   5   8
HETATM    8  C   UNL     1      -7.757  18.286  67.050  1.00  0.00    -0.232 C  
HETATM    9  C   UNL     1      -6.596  19.273  67.270  1.00  0.00    -0.204 C  
HETATM   10  C   UNL     1      -6.866  20.608  66.586  1.00  0.00    -0.271 C  
HETATM   11  N   UNL     1      -8.117  21.190  67.058  1.00  0.00    -0.630 NA 
HETATM   12  C   UNL     1      -9.256  20.315  66.777  1.00  0.00    -0.327 C  
HETATM   13  H   UNL     1      -8.261  22.125  66.677  1.00  0.00     0.000 HD 
HETATM   14  C   UNL     1      -9.109  18.940  67.457  1.00  0.00    -0.307 C  
BRANCH  14  15
HETATM   15  C   UNL     1     -10.319  18.047  67.109  1.00  0.00    -0.374 C  
BRANCH  15  16
HETATM   16  O   UNL     1     -10.011  17.267  65.947  1.00  0.00    -0.490 OA 
BRANCH  16  17
HETATM   17  C   UNL     1     -10.644  16.061  65.796  1.00  0.00    -0.353 A  
HETATM   18  C   UNL     1     -11.249  15.604  64.623  1.00  0.00    -0.380 A  
HETATM   19  C   UNL     1     -11.777  14.327  64.625  1.00  0.00    -0.430 A  
HETATM   20  C   UNL     1     -11.740  13.521  65.737  1.00  0.00    -0.345 A  
HETATM   21  C   UNL     1     -11.176  13.950  66.919  1.00  0.00    -0.324 A  
HETATM   22  O   UNL     1     -12.303  12.304  65.516  1.00  0.00    -0.602 OA 
HETATM   23  C   UNL     1     -10.616  15.233  66.938  1.00  0.00    -0.304 A  
HETATM   24  C   UNL     1     -12.636  12.412  64.114  1.00  0.00    -0.403 C  
HETATM   25  O   UNL     1     -12.369  13.717  63.563  1.00  0.00    -0.706 OA 
ENDBRANCH  16  17
ENDBRANCH  15  16
ENDBRANCH  14  15
ENDBRANCH   5   8
TORSDOF 4
ENDMDL
MODEL       41
REMARK 921   NORMALIZED FREE ENERGY PREDICTED BY IDOCK:   -6.52 KCAL/MOL
REMARK 922        TOTAL FREE ENERGY PREDICTED BY IDOCK:   -8.83 KCAL/MOL
REMARK 923 INTER-LIGAND FREE ENERGY PREDICTED BY IDOCK:   -8.15 KCAL/MOL
REMARK 924 INTRA-LIGAND FREE ENERGY PREDICTED BY IDOCK:   -0.68 KCAL/MOL
REMARK 927      BINDING AFFINITY PREDICTED BY RF-SCORE:    0.00 PKD
ROOT
HETATM    1  F   UNL     1      -8.818  15.149  66.024  1.00  0.00    -0.312 F  
HETATM    2  C   UNL     1      -9.729  14.955  66.987  1.00  0.00    -0.235 A  
HETATM    3  C   UNL     1      -9.439  15.330  68.292  1.00  0.00    -0.205 A  
HETATM    4  C   UNL     1     -10.380  15.108  69.304  1.00  0.00    -0.258 A  
HETATM    5  C   UNL     1     -11.605  14.486  69.017  1.00  0.00    -0.330 A  
HETATM    6  C   UNL     1     -10.952  14.386  66.666  1.00  0.00    -0.318 A  
HETATM    7  C   UNL     1     -11.889  14.158  67.676  1.00  0.00    -0.427 A  
ENDROOT
BRANCH   5   8
HETATM    8  C   UNL     1     -12.651  14.181  70.084  1.00  0.00    -0.325 C  
HETATM    9  C   UNL     1     -12.976  15.469  70.863  1.00  0.00    -0.526 C  
HETATM   10  C   UNL     1     -14.060  15.227  71.907  1.00  0.00    -0.557 C  
HETATM   11  N   UNL     1     -13.665  14.168  72.828  1.00  0.00    -0.666 NA 
HETATM   12  C   UNL     1     -13.441  12.903  72.128  1.00  0.00    -0.522 C  
HETATM   13  H   UNL     1     -14.339  14.060  73.586  1.00  0.00     0.000 HD 
HETATM   14  C   UNL     1     -12.328  13.020  71.067  1.00  0.00    -0.335 C  
BRANCH  14  15
HETATM   15  C   UNL     1     -12.149  11.671  70.340  1.00  0.00    -0.373 C  
BRANCH  15  16
HETATM   16  O   UNL     1     -12.022  10.624  71.309  1.00  0.00    -0.331 OA 
BRANCH  16  17
HETATM   17  C   UNL     1     -11.683   9.373  70.866  1.00  0.00    -0.308 A  
HETATM   18  C   UNL     1     -10.605   9.073  70.031  1.00  0.00    -0.246 A  
HETATM   19  C   UNL     1     -10.364   7.743  69.741  1.00  0.00    -0.221 A  
HETATM   20  C   UNL     1     -11.156   6.732  70.227  1.00  0.00    -0.310 A  
HETATM   21  C   UNL     1     -12.245   6.994  71.031  1.00  0.00    -0.419 A  
HETATM   22  O   UNL     1     -10.734   5.503  69.831  1.00  0.00    -0.319 OA 
HETATM   23  C   UNL     1     -12.499   8.332  71.356  1.00  0.00    -0.315 A  
HETATM   24  C   UNL     1      -9.541   5.853  69.095  1.00  0.00    -0.136 C  
HETATM   25  O   UNL     1      -9.341   7.276  68.974  1.00  0.00    -0.148 OA 
ENDBRANCH  16  17
ENDBRANCH  15  16
ENDBRANCH  14  15
ENDBRANCH   5   8
TORSDOF 4
ENDMDL
MODEL       42
REMARK 921   NORMALIZED FREE ENERGY PREDICTED BY IDOCK:   -6.51 KCAL/MOL
REMARK 922        TOTAL FREE ENERGY PREDICTED BY IDOCK:   -8.82 KCAL/MOL
REMARK 923 INTER-LIGAND FREE ENERGY PREDICTED BY IDOCK:   -6.88 KCAL/MOL
REMARK 924 INTRA-LIGAND FREE ENERGY PREDICTED BY IDOCK:   -1.94 KCAL/MOL
REMARK 927      BINDING AFFINITY PREDICTED BY RF-SCORE:    0.00 PKD
ROOT
HETATM    1  F   UNL     1      -9.294  14.639  65.593  1.00  0.00    -0.300 F  
HETATM    2  C   UNL     1     -10.097  14.571  66.663  1.00  0.00    -0.272 A  
HETATM    3  C   UNL     1      -9.572  14.784  67.931  1.00  0.00    -0.210 A  
HETATM    4  C   UNL     1     -10.405  14.691  69.052  1.00  0.00    -0.237 A  
HETATM    5  C   UNL     1     -11.762  14.360  68.909  1.00  0.00    -0.357 A  
HETATM    6  C   UNL     1     -11.445  14.294  66.489  1.00  0.00    -0.368 A  
HETATM    7  C   UNL     1     -12.275  14.194  67.608  1.00  0.00    -0.231 A  
ENDROOT
BRANCH   5   8
HETATM    8  C   UNL     1     -12.707  14.205  70.096  1.00  0.00    -0.227 C  
HETATM    9  C   UNL     1     -12.755  15.525  70.887  1.00  0.00    -0.525 C  
HETATM   10  C   UNL     1     -13.731  15.437  72.054  1.00  0.00    -0.509 C  
HETATM   11  N   UNL     1     -13.382  14.332  72.940  1.00  0.00    -0.623 NA 
HETATM   12  C   UNL     1     -13.421  13.048  72.238  1.00  0.00    -0.547 C  
HETATM   13  H   UNL     1     -13.971  14.320  73.772  1.00  0.00     0.000 HD 
HETATM   14  C   UNL     1     -12.436  13.009  71.053  1.00  0.00    -0.385 C  
BRANCH  14  15
HETATM   15  C   UNL     1     -12.534  11.648  70.332  1.00  0.00    -0.221 C  
BRANCH  15  16
HETATM   16  O   UNL     1     -11.250  11.014  70.343  1.00  0.00    -0.232 OA 
BRANCH  16  17
HETATM   17  C   UNL     1     -10.552  10.954  69.165  1.00  0.00    -0.220 A  
HETATM   18  C   UNL     1      -9.163  11.027  69.041  1.00  0.00    -0.077 A  
HETATM   19  C   UNL     1      -8.618  10.873  67.780  1.00  0.00    -0.128 A  
HETATM   20  C   UNL     1      -9.397  10.675  66.666  1.00  0.00    -0.165 A  
HETATM   21  C   UNL     1     -10.772  10.626  66.748  1.00  0.00    -0.272 A  
HETATM   22  O   UNL     1      -8.659  10.537  65.534  1.00  0.00    -0.169 OA 
HETATM   23  C   UNL     1     -11.347  10.759  68.017  1.00  0.00    -0.378 A  
HETATM   24  C   UNL     1      -7.321  10.600  66.075  1.00  0.00    -0.132 C  
HETATM   25  O   UNL     1      -7.289  10.884  67.488  1.00  0.00    -0.092 OA 
ENDBRANCH  16  17
ENDBRANCH  15  16
ENDBRANCH  14  15
ENDBRANCH   5   8
TORSDOF 4
ENDMDL
MODEL       43
REMARK 921   NORMALIZED FREE ENERGY PREDICTED BY IDOCK:   -6.47 KCAL/MOL
REMARK 922        TOTAL FREE ENERGY PREDICTED BY IDOCK:   -8.77 KCAL/MOL
REMARK 923 INTER-LIGAND FREE ENERGY PREDICTED BY IDOCK:   -7.65 KCAL/MOL
REMARK 924 INTRA-LIGAND FREE ENERGY PREDICTED BY IDOCK:   -1.12 KCAL/MOL
REMARK 927      BINDING AFFINITY PREDICTED BY RF-SCORE:    0.00 PKD
ROOT
HETATM    1  F   UNL     1     -13.649  15.074  73.173  1.00  0.00    -0.513 F  
HETATM    2  C   UNL     1     -12.905  15.222  72.068  1.00  0.00    -0.358 A  
HETATM    3  C   UNL     1     -11.522  15.264  72.173  1.00  0.00    -0.499 A  
HETATM    4  C   UNL     1     -10.743  15.441  71.023  1.00  0.00    -0.081 A  
HETATM    5  C   UNL     1     -11.350  15.601  69.767  1.00  0.00    -0.327 A  
HETATM    6  C   UNL     1     -13.529  15.325  70.834  1.00  0.00    -0.441 A  
HETATM    7  C   UNL     1     -12.753  15.508  69.687  1.00  0.00     0.092 A  
ENDROOT
BRANCH   5   8
HETATM    8  C   UNL     1     -10.556  15.837  68.487  1.00  0.00    -0.253 C  
HETATM    9  C   UNL     1     -10.760  17.290  68.020  1.00  0.00    -0.367 C  
HETATM   10  C   UNL     1      -9.941  17.591  66.770  1.00  0.00    -0.313 C  
HETATM   11  N   UNL     1     -10.276  16.665  65.695  1.00  0.00    -0.557 NA 
HETATM   12  C   UNL     1     -10.001  15.279  66.075  1.00  0.00    -0.319 C  
HETATM   13  H   UNL     1      -9.803  16.914  64.826  1.00  0.00     0.000 HD 
HETATM   14  C   UNL     1     -10.813  14.849  67.313  1.00  0.00    -0.306 C  
BRANCH  14  15
HETATM   15  C   UNL     1     -10.469  13.392  67.689  1.00  0.00    -0.241 C  
BRANCH  15  16
HETATM   16  O   UNL     1     -11.665  12.713  68.089  1.00  0.00    -0.315 OA 
BRANCH  16  17
HETATM   17  C   UNL     1     -11.542  11.619  68.905  1.00  0.00    -0.314 A  
HETATM   18  C   UNL     1     -12.110  11.486  70.174  1.00  0.00    -0.432 A  
HETATM   19  C   UNL     1     -11.947  10.281  70.831  1.00  0.00    -0.375 A  
HETATM   20  C   UNL     1     -11.234   9.240  70.286  1.00  0.00    -0.231 A  
HETATM   21  C   UNL     1     -10.636   9.348  69.049  1.00  0.00    -0.233 A  
HETATM   22  O   UNL     1     -11.209   8.148  71.093  1.00  0.00    -0.247 OA 
HETATM   23  C   UNL     1     -10.804  10.551  68.353  1.00  0.00    -0.284 A  
HETATM   24  C   UNL     1     -12.048   8.597  72.180  1.00  0.00    -0.381 C  
HETATM   25  O   UNL     1     -12.460   9.973  72.053  1.00  0.00    -0.357 OA 
ENDBRANCH  16  17
ENDBRANCH  15  16
ENDBRANCH  14  15
ENDBRANCH   5   8
TORSDOF 4
ENDMDL
MODEL       44
REMARK 921   NORMALIZED FREE ENERGY PREDICTED BY IDOCK:   -6.47 KCAL/MOL
REMARK 922        TOTAL FREE ENERGY PREDICTED BY IDOCK:   -8.77 KCAL/MOL
REMARK 923 INTER-LIGAND FREE ENERGY PREDICTED BY IDOCK:   -8.18 KCAL/MOL
REMARK 924 INTRA-LIGAND FREE ENERGY PREDICTED BY IDOCK:   -0.59 KCAL/MOL
REMARK 927      BINDING AFFINITY PREDICTED BY RF-SCORE:    0.00 PKD
ROOT
HETATM    1  F   UNL     1      -8.295  19.530  68.812  1.00  0.00    -0.377 F  
HETATM    2  C   UNL     1      -8.807  18.420  68.265  1.00  0.00    -0.305 A  
HETATM    3  C   UNL     1      -7.996  17.594  67.498  1.00  0.00    -0.210 A  
HETATM    4  C   UNL     1      -8.534  16.446  66.906  1.00  0.00    -0.254 A  
HETATM    5  C   UNL     1      -9.895  16.134  67.060  1.00  0.00    -0.248 A  
HETATM    6  C   UNL     1     -10.142  18.108  68.476  1.00  0.00    -0.413 A  
HETATM    7  C   UNL     1     -10.682  16.966  67.880  1.00  0.00    -0.344 A  
ENDROOT
BRANCH   5   8
HETATM    8  C   UNL     1     -10.546  14.920  66.406  1.00  0.00    -0.307 C  
HETATM    9  C   UNL     1     -11.140  15.330  65.046  1.00  0.00    -0.436 C  
HETATM   10  C   UNL     1     -11.756  14.135  64.327  1.00  0.00    -0.345 C  
HETATM   11  N   UNL     1     -12.779  13.504  65.153  1.00  0.00    -0.682 NA 
HETATM   12  C   UNL     1     -12.223  13.017  66.416  1.00  0.00    -0.280 C  
HETATM   13  H   UNL     1     -13.262  12.762  64.647  1.00  0.00     0.000 HD 
HETATM   14  C   UNL     1     -11.604  14.155  67.251  1.00  0.00    -0.399 C  
BRANCH  14  15
HETATM   15  C   UNL     1     -11.010  13.588  68.558  1.00  0.00    -0.267 C  
BRANCH  15  16
HETATM   16  O   UNL     1     -10.719  12.196  68.379  1.00  0.00    -0.211 OA 
BRANCH  16  17
HETATM   17  C   UNL     1     -11.104  11.327  69.365  1.00  0.00    -0.257 A  
HETATM   18  C   UNL     1     -12.200  11.498  70.215  1.00  0.00    -0.415 A  
HETATM   19  C   UNL     1     -12.489  10.483  71.107  1.00  0.00    -0.412 A  
HETATM   20  C   UNL     1     -11.728   9.342  71.191  1.00  0.00    -0.345 A  
HETATM   21  C   UNL     1     -10.624   9.153  70.388  1.00  0.00    -0.275 A  
HETATM   22  O   UNL     1     -12.196   8.472  72.123  1.00  0.00    -0.336 OA 
HETATM   23  C   UNL     1     -10.321  10.158  69.461  1.00  0.00    -0.263 A  
HETATM   24  C   UNL     1     -13.382   9.165  72.568  1.00  0.00    -0.417 C  
HETATM   25  O   UNL     1     -13.534  10.473  71.978  1.00  0.00    -0.379 OA 
ENDBRANCH  16  17
ENDBRANCH  15  16
ENDBRANCH  14  15
ENDBRANCH   5   8
TORSDOF 4
ENDMDL
MODEL       45
REMARK 921   NORMALIZED FREE ENERGY PREDICTED BY IDOCK:   -6.46 KCAL/MOL
REMARK 922        TOTAL FREE ENERGY PREDICTED BY IDOCK:   -8.75 KCAL/MOL
REMARK 923 INTER-LIGAND FREE ENERGY PREDICTED BY IDOCK:   -7.69 KCAL/MOL
REMARK 924 INTRA-LIGAND FREE ENERGY PREDICTED BY IDOCK:   -1.06 KCAL/MOL
REMARK 927      BINDING AFFINITY PREDICTED BY RF-SCORE:    0.00 PKD
ROOT
HETATM    1  F   UNL     1      -6.848   8.463  66.775  1.00  0.00    -0.064 F  
HETATM    2  C   UNL     1      -7.830   9.287  66.385  1.00  0.00    -0.103 A  
HETATM    3  C   UNL     1      -7.664  10.660  66.509  1.00  0.00    -0.137 A  
HETATM    4  C   UNL     1      -8.698  11.522  66.123  1.00  0.00    -0.131 A  
HETATM    5  C   UNL     1      -9.911  11.010  65.636  1.00  0.00    -0.287 A  
HETATM    6  C   UNL     1      -8.998   8.756  65.858  1.00  0.00    -0.240 A  
HETATM    7  C   UNL     1     -10.032   9.615  65.480  1.00  0.00    -0.279 A  
ENDROOT
BRANCH   5   8
HETATM    8  C   UNL     1     -11.086  11.897  65.239  1.00  0.00    -0.354 C  
HETATM    9  C   UNL     1     -11.087  12.090  63.711  1.00  0.00    -0.510 C  
HETATM   10  C   UNL     1     -12.278  12.927  63.259  1.00  0.00    -0.397 C  
HETATM   11  N   UNL     1     -12.286  14.222  63.930  1.00  0.00    -0.986 NA 
HETATM   12  C   UNL     1     -12.382  14.073  65.383  1.00  0.00    -0.478 C  
HETATM   13  H   UNL     1     -13.024  14.825  63.567  1.00  0.00     0.000 HD 
HETATM   14  C   UNL     1     -11.198  13.271  65.959  1.00  0.00    -0.316 C  
BRANCH  14  15
HETATM   15  C   UNL     1     -11.358  13.119  67.487  1.00  0.00    -0.298 C  
BRANCH  15  16
HETATM   16  O   UNL     1     -12.167  11.970  67.765  1.00  0.00    -0.474 OA 
BRANCH  16  17
HETATM   17  C   UNL     1     -11.880  11.238  68.887  1.00  0.00    -0.345 A  
HETATM   18  C   UNL     1     -12.783  10.930  69.907  1.00  0.00    -0.110 A  
HETATM   19  C   UNL     1     -12.343  10.115  70.933  1.00  0.00    -0.363 A  
HETATM   20  C   UNL     1     -11.059   9.629  70.984  1.00  0.00    -0.368 A  
HETATM   21  C   UNL     1     -10.135   9.936  70.009  1.00  0.00    -0.308 A  
HETATM   22  O   UNL     1     -10.844   8.840  72.069  1.00  0.00    -0.332 OA 
HETATM   23  C   UNL     1     -10.560  10.744  68.948  1.00  0.00    -0.246 A  
HETATM   24  C   UNL     1     -12.162   8.828  72.659  1.00  0.00    -0.168 C  
HETATM   25  O   UNL     1     -13.098   9.692  71.983  1.00  0.00    -0.397 OA 
ENDBRANCH  16  17
ENDBRANCH  15  16
ENDBRANCH  14  15
ENDBRANCH   5   8
TORSDOF 4
ENDMDL
MODEL       46
REMARK 921   NORMALIZED FREE ENERGY PREDICTED BY IDOCK:   -6.45 KCAL/MOL
REMARK 922        TOTAL FREE ENERGY PREDICTED BY IDOCK:   -8.74 KCAL/MOL
REMARK 923 INTER-LIGAND FREE ENERGY PREDICTED BY IDOCK:   -8.16 KCAL/MOL
REMARK 924 INTRA-LIGAND FREE ENERGY PREDICTED BY IDOCK:   -0.58 KCAL/MOL
REMARK 927      BINDING AFFINITY PREDICTED BY RF-SCORE:    0.00 PKD
ROOT
HETATM    1  F   UNL     1     -12.482   5.832  71.846  1.00  0.00    -0.156 F  
HETATM    2  C   UNL     1     -12.440   7.167  71.744  1.00  0.00    -0.350 A  
HETATM    3  C   UNL     1     -13.602   7.873  71.462  1.00  0.00    -0.363 A  
HETATM    4  C   UNL     1     -13.556   9.266  71.333  1.00  0.00    -0.358 A  
HETATM    5  C   UNL     1     -12.339   9.955  71.461  1.00  0.00    -0.504 A  
HETATM    6  C   UNL     1     -11.234   7.828  71.927  1.00  0.00    -0.310 A  
HETATM    7  C   UNL     1     -11.185   9.217  71.792  1.00  0.00    -0.413 A  
ENDROOT
BRANCH   5   8
HETATM    8  C   UNL     1     -12.220  11.465  71.291  1.00  0.00    -0.240 C  
HETATM    9  C   UNL     1     -13.394  12.155  72.010  1.00  0.00    -0.470 C  
HETATM   10  C   UNL     1     -13.289  13.673  71.915  1.00  0.00    -0.425 C  
HETATM   11  N   UNL     1     -13.231  14.102  70.522  1.00  0.00    -0.307 NA 
HETATM   12  C   UNL     1     -12.068  13.538  69.835  1.00  0.00    -0.341 C  
HETATM   13  H   UNL     1     -13.254  15.118  70.443  1.00  0.00     0.000 HD 
HETATM   14  C   UNL     1     -12.090  11.997  69.835  1.00  0.00    -0.334 C  
BRANCH  14  15
HETATM   15  C   UNL     1     -10.833  11.451  69.124  1.00  0.00    -0.213 C  
BRANCH  15  16
HETATM   16  O   UNL     1     -11.116  11.279  67.730  1.00  0.00    -0.230 OA 
BRANCH  16  17
HETATM   17  C   UNL     1     -11.010  12.373  66.912  1.00  0.00    -0.265 A  
HETATM   18  C   UNL     1     -12.012  12.853  66.066  1.00  0.00    -0.505 A  
HETATM   19  C   UNL     1     -11.761  14.017  65.364  1.00  0.00    -0.342 A  
HETATM   20  C   UNL     1     -10.566  14.687  65.460  1.00  0.00    -0.355 A  
HETATM   21  C   UNL     1      -9.545  14.225  66.263  1.00  0.00    -0.310 A  
HETATM   22  O   UNL     1     -10.537  15.810  64.697  1.00  0.00    -0.479 OA 
HETATM   23  C   UNL     1      -9.781  13.059  67.001  1.00  0.00    -0.235 A  
HETATM   24  C   UNL     1     -11.879  15.809  64.163  1.00  0.00    -0.030 C  
HETATM   25  O   UNL     1     -12.636  14.636  64.526  1.00  0.00    -0.626 OA 
ENDBRANCH  16  17
ENDBRANCH  15  16
ENDBRANCH  14  15
ENDBRANCH   5   8
TORSDOF 4
ENDMDL
MODEL       47
REMARK 921   NORMALIZED FREE ENERGY PREDICTED BY IDOCK:   -6.44 KCAL/MOL
REMARK 922        TOTAL FREE ENERGY PREDICTED BY IDOCK:   -8.72 KCAL/MOL
REMARK 923 INTER-LIGAND FREE ENERGY PREDICTED BY IDOCK:   -8.05 KCAL/MOL
REMARK 924 INTRA-LIGAND FREE ENERGY PREDICTED BY IDOCK:   -0.67 KCAL/MOL
REMARK 927      BINDING AFFINITY PREDICTED BY RF-SCORE:    0.00 PKD
ROOT
HETATM    1  F   UNL     1     -10.442  10.884  62.851  1.00  0.00    -0.318 F  
HETATM    2  C   UNL     1     -10.642  11.440  64.053  1.00  0.00    -0.383 A  
HETATM    3  C   UNL     1     -11.825  12.120  64.309  1.00  0.00    -0.460 A  
HETATM    4  C   UNL     1     -12.026  12.721  65.557  1.00  0.00    -0.497 A  
HETATM    5  C   UNL     1     -11.031  12.665  66.545  1.00  0.00    -0.302 A  
HETATM    6  C   UNL     1      -9.664  11.325  65.030  1.00  0.00    -0.293 A  
HETATM    7  C   UNL     1      -9.860  11.930  66.273  1.00  0.00    -0.246 A  
ENDROOT
BRANCH   5   8
HETATM    8  C   UNL     1     -11.177  13.335  67.907  1.00  0.00    -0.302 C  
HETATM    9  C   UNL     1     -12.032  12.443  68.826  1.00  0.00    -0.276 C  
HETATM   10  C   UNL     1     -12.160  13.045  70.221  1.00  0.00    -0.314 C  
HETATM   11  N   UNL     1     -12.726  14.388  70.155  1.00  0.00    -0.500 NA 
HETATM   12  C   UNL     1     -11.883  15.287  69.365  1.00  0.00    -0.343 C  
HETATM   13  H   UNL     1     -12.903  14.765  71.086  1.00  0.00     0.000 HD 
HETATM   14  C   UNL     1     -11.716  14.794  67.915  1.00  0.00    -0.367 C  
BRANCH  14  15
HETATM   15  C   UNL     1     -10.800  15.759  67.132  1.00  0.00    -0.289 C  
BRANCH  15  16
HETATM   16  O   UNL     1     -11.143  17.109  67.464  1.00  0.00    -0.178 OA 
BRANCH  16  17
HETATM   17  C   UNL     1     -10.165  18.064  67.367  1.00  0.00    -0.363 A  
HETATM   18  C   UNL     1      -9.130  18.073  66.430  1.00  0.00    -0.251 A  
HETATM   19  C   UNL     1      -8.272  19.156  66.427  1.00  0.00    -0.314 A  
HETATM   20  C   UNL     1      -8.397  20.193  67.320  1.00  0.00    -0.341 A  
HETATM   21  C   UNL     1      -9.389  20.203  68.276  1.00  0.00    -0.236 A  
HETATM   22  O   UNL     1      -7.458  21.157  67.132  1.00  0.00    -0.380 OA 
HETATM   23  C   UNL     1     -10.285  19.127  68.287  1.00  0.00    -0.486 A  
HETATM   24  C   UNL     1      -6.769  20.641  65.972  1.00  0.00    -0.197 C  
HETATM   25  O   UNL     1      -7.235  19.338  65.564  1.00  0.00    -0.416 OA 
ENDBRANCH  16  17
ENDBRANCH  15  16
ENDBRANCH  14  15
ENDBRANCH   5   8
TORSDOF 4
ENDMDL
MODEL       48
REMARK 921   NORMALIZED FREE ENERGY PREDICTED BY IDOCK:   -6.44 KCAL/MOL
REMARK 922        TOTAL FREE ENERGY PREDICTED BY IDOCK:   -8.72 KCAL/MOL
REMARK 923 INTER-LIGAND FREE ENERGY PREDICTED BY IDOCK:   -7.25 KCAL/MOL
REMARK 924 INTRA-LIGAND FREE ENERGY PREDICTED BY IDOCK:   -1.48 KCAL/MOL
REMARK 927      BINDING AFFINITY PREDICTED BY RF-SCORE:    0.00 PKD
ROOT
HETATM    1  F   UNL     1     -11.280  20.207  65.050  1.00  0.00    -0.443 F  
HETATM    2  C   UNL     1     -10.431  19.753  65.982  1.00  0.00    -0.506 A  
HETATM    3  C   UNL     1      -9.063  19.810  65.753  1.00  0.00    -0.014 A  
HETATM    4  C   UNL     1      -8.176  19.315  66.716  1.00  0.00    -0.301 A  
HETATM    5  C   UNL     1      -8.657  18.739  67.902  1.00  0.00    -0.321 A  
HETATM    6  C   UNL     1     -10.932  19.236  67.168  1.00  0.00    -0.439 A  
HETATM    7  C   UNL     1     -10.048  18.736  68.126  1.00  0.00    -0.427 A  
ENDROOT
BRANCH   5   8
HETATM    8  C   UNL     1      -7.741  18.148  68.968  1.00  0.00    -0.130 C  
HETATM    9  C   UNL     1      -6.679  19.190  69.364  1.00  0.00    -0.317 C  
HETATM   10  C   UNL     1      -5.771  18.664  70.469  1.00  0.00    -0.154 C  
HETATM   11  N   UNL     1      -5.127  17.420  70.063  1.00  0.00    -0.175 NA 
HETATM   12  C   UNL     1      -6.112  16.377  69.771  1.00  0.00    -0.212 C  
HETATM   13  H   UNL     1      -4.447  17.107  70.756  1.00  0.00     0.000 HD 
HETATM   14  C   UNL     1      -7.066  16.787  68.632  1.00  0.00    -0.195 C  
BRANCH  14  15
HETATM   15  C   UNL     1      -8.099  15.668  68.381  1.00  0.00    -0.137 C  
BRANCH  15  16
HETATM   16  O   UNL     1      -7.988  15.219  67.025  1.00  0.00    -0.204 OA 
BRANCH  16  17
HETATM   17  C   UNL     1      -9.141  14.901  66.357  1.00  0.00    -0.258 A  
HETATM   18  C   UNL     1      -9.755  13.646  66.351  1.00  0.00    -0.300 A  
HETATM   19  C   UNL     1     -10.958  13.520  65.683  1.00  0.00    -0.289 A  
HETATM   20  C   UNL     1     -11.542  14.572  65.019  1.00  0.00    -0.382 A  
HETATM   21  C   UNL     1     -10.949  15.816  64.981  1.00  0.00    -0.431 A  
HETATM   22  O   UNL     1     -12.724  14.232  64.443  1.00  0.00    -0.661 OA 
HETATM   23  C   UNL     1      -9.740  15.976  65.668  1.00  0.00    -0.273 A  
HETATM   24  C   UNL     1     -12.853  12.861  64.880  1.00  0.00    -0.295 C  
HETATM   25  O   UNL     1     -11.702  12.383  65.606  1.00  0.00    -0.381 OA 
ENDBRANCH  16  17
ENDBRANCH  15  16
ENDBRANCH  14  15
ENDBRANCH   5   8
TORSDOF 4
ENDMDL
MODEL       49
REMARK 921   NORMALIZED FREE ENERGY PREDICTED BY IDOCK:   -6.43 KCAL/MOL
REMARK 922        TOTAL FREE ENERGY PREDICTED BY IDOCK:   -8.71 KCAL/MOL
REMARK 923 INTER-LIGAND FREE ENERGY PREDICTED BY IDOCK:   -7.71 KCAL/MOL
REMARK 924 INTRA-LIGAND FREE ENERGY PREDICTED BY IDOCK:   -1.01 KCAL/MOL
REMARK 927      BINDING AFFINITY PREDICTED BY RF-SCORE:    0.00 PKD
ROOT
HETATM    1  F   UNL     1      -9.651   9.672  63.948  1.00  0.00    -0.298 F  
HETATM    2  C   UNL     1     -10.012  10.847  64.480  1.00  0.00    -0.317 A  
HETATM    3  C   UNL     1     -11.046  11.573  63.905  1.00  0.00    -0.458 A  
HETATM    4  C   UNL     1     -11.409  12.813  64.445  1.00  0.00    -0.394 A  
HETATM    5  C   UNL     1     -10.721  13.341  65.548  1.00  0.00    -0.299 A  
HETATM    6  C   UNL     1      -9.349  11.321  65.602  1.00  0.00    -0.245 A  
HETATM    7  C   UNL     1      -9.706  12.561  66.137  1.00  0.00    -0.259 A  
ENDROOT
BRANCH   5   8
HETATM    8  C   UNL     1     -11.044  14.702  66.154  1.00  0.00    -0.334 C  
HETATM    9  C   UNL     1     -10.025  15.741  65.649  1.00  0.00    -0.378 C  
HETATM   10  C   UNL     1     -10.341  17.133  66.185  1.00  0.00    -0.322 C  
HETATM   11  N   UNL     1     -10.377  17.131  67.643  1.00  0.00    -0.333 NA 
HETATM   12  C   UNL     1     -11.405  16.222  68.153  1.00  0.00    -0.248 C  
HETATM   13  H   UNL     1     -10.495  18.073  68.015  1.00  0.00     0.000 HD 
HETATM   14  C   UNL     1     -11.162  14.768  67.703  1.00  0.00    -0.332 C  
BRANCH  14  15
HETATM   15  C   UNL     1     -12.284  13.855  68.243  1.00  0.00    -0.150 C  
BRANCH  15  16
HETATM   16  O   UNL     1     -12.054  13.595  69.633  1.00  0.00    -0.316 OA 
BRANCH  16  17
HETATM   17  C   UNL     1     -11.915  12.291  70.029  1.00  0.00    -0.304 A  
HETATM   18  C   UNL     1     -12.560  11.701  71.118  1.00  0.00    -0.439 A  
HETATM   19  C   UNL     1     -12.363  10.350  71.331  1.00  0.00    -0.397 A  
HETATM   20  C   UNL     1     -11.547   9.593  70.525  1.00  0.00    -0.272 A  
HETATM   21  C   UNL     1     -10.873  10.148  69.459  1.00  0.00    -0.289 A  
HETATM   22  O   UNL     1     -11.506   8.289  70.904  1.00  0.00    -0.274 OA 
HETATM   23  C   UNL     1     -11.072  11.511  69.209  1.00  0.00    -0.305 A  
HETATM   24  C   UNL     1     -12.446   8.298  72.001  1.00  0.00    -0.351 C  
HETATM   25  O   UNL     1     -12.938   9.615  72.321  1.00  0.00    -0.395 OA 
ENDBRANCH  16  17
ENDBRANCH  15  16
ENDBRANCH  14  15
ENDBRANCH   5   8
TORSDOF 4
ENDMDL
MODEL       50
REMARK 921   NORMALIZED FREE ENERGY PREDICTED BY IDOCK:   -6.43 KCAL/MOL
REMARK 922        TOTAL FREE ENERGY PREDICTED BY IDOCK:   -8.71 KCAL/MOL
REMARK 923 INTER-LIGAND FREE ENERGY PREDICTED BY IDOCK:   -8.34 KCAL/MOL
REMARK 924 INTRA-LIGAND FREE ENERGY PREDICTED BY IDOCK:   -0.37 KCAL/MOL
REMARK 927      BINDING AFFINITY PREDICTED BY RF-SCORE:    0.00 PKD
ROOT
HETATM    1  F   UNL     1     -12.959  11.385  62.773  1.00  0.00    -0.380 F  
HETATM    2  C   UNL     1     -12.237  12.125  63.625  1.00  0.00    -0.562 A  
HETATM    3  C   UNL     1     -10.851  12.110  63.544  1.00  0.00    -0.518 A  
HETATM    4  C   UNL     1     -10.094  12.865  64.449  1.00  0.00    -0.265 A  
HETATM    5  C   UNL     1     -10.723  13.617  65.453  1.00  0.00    -0.311 A  
HETATM    6  C   UNL     1     -12.885  12.901  64.575  1.00  0.00    -0.273 A  
HETATM    7  C   UNL     1     -12.131  13.648  65.481  1.00  0.00    -0.440 A  
ENDROOT
BRANCH   5   8
HETATM    8  C   UNL     1      -9.950  14.425  66.490  1.00  0.00    -0.291 C  
HETATM    9  C   UNL     1      -9.328  15.661  65.814  1.00  0.00    -0.303 C  
HETATM   10  C   UNL     1      -8.589  16.532  66.824  1.00  0.00    -0.230 C  
HETATM   11  N   UNL     1      -7.559  15.765  67.515  1.00  0.00    -0.152 NA 
HETATM   12  C   UNL     1      -8.133  14.635  68.248  1.00  0.00    -0.143 C  
HETATM   13  H   UNL     1      -6.998  16.359  68.126  1.00  0.00     0.000 HD 
HETATM   14  C   UNL     1      -8.876  13.660  67.314  1.00  0.00    -0.227 C  
BRANCH  14  15
HETATM   15  C   UNL     1      -9.484  12.503  68.135  1.00  0.00    -0.214 C  
BRANCH  15  16
HETATM   16  O   UNL     1     -10.912  12.557  68.042  1.00  0.00    -0.214 OA 
BRANCH  16  17
HETATM   17  C   UNL     1     -11.619  12.879  69.170  1.00  0.00    -0.322 A  
HETATM   18  C   UNL     1     -12.027  14.165  69.532  1.00  0.00    -0.389 A  
HETATM   19  C   UNL     1     -12.801  14.300  70.669  1.00  0.00    -0.314 A  
HETATM   20  C   UNL     1     -13.152  13.225  71.448  1.00  0.00    -0.277 A  
HETATM   21  C   UNL     1     -12.744  11.946  71.136  1.00  0.00    -0.384 A  
HETATM   22  O   UNL     1     -13.924  13.580  72.508  1.00  0.00    -0.701 OA 
HETATM   23  C   UNL     1     -11.976  11.779  69.977  1.00  0.00    -0.421 A  
HETATM   24  C   UNL     1     -14.075  14.997  72.268  1.00  0.00    -0.513 C  
HETATM   25  O   UNL     1     -13.307  15.471  71.144  1.00  0.00    -0.500 OA 
ENDBRANCH  16  17
ENDBRANCH  15  16
ENDBRANCH  14  15
ENDBRANCH   5   8
TORSDOF 4
ENDMDL
MODEL       51
REMARK 921   NORMALIZED FREE ENERGY PREDICTED BY IDOCK:   -6.43 KCAL/MOL
REMARK 922        TOTAL FREE ENERGY PREDICTED BY IDOCK:   -8.71 KCAL/MOL
REMARK 923 INTER-LIGAND FREE ENERGY PREDICTED BY IDOCK:   -6.68 KCAL/MOL
REMARK 924 INTRA-LIGAND FREE ENERGY PREDICTED BY IDOCK:   -2.03 KCAL/MOL
REMARK 927      BINDING AFFINITY PREDICTED BY RF-SCORE:    0.00 PKD
ROOT
HETATM    1  F   UNL     1      -8.193  10.218  65.168  1.00  0.00    -0.139 F  
HETATM    2  C   UNL     1      -8.857  10.382  66.319  1.00  0.00    -0.152 A  
HETATM    3  C   UNL     1      -8.253  11.061  67.369  1.00  0.00    -0.122 A  
HETATM    4  C   UNL     1      -8.937  11.214  68.582  1.00  0.00    -0.162 A  
HETATM    5  C   UNL     1     -10.217  10.666  68.754  1.00  0.00    -0.204 A  
HETATM    6  C   UNL     1     -10.142   9.876  66.445  1.00  0.00    -0.308 A  
HETATM    7  C   UNL     1     -10.822  10.022  67.656  1.00  0.00    -0.336 A  
ENDROOT
BRANCH   5   8
HETATM    8  C   UNL     1     -10.993  10.766  70.063  1.00  0.00    -0.280 C  
HETATM    9  C   UNL     1     -11.570   9.384  70.422  1.00  0.00    -0.241 C  
HETATM   10  C   UNL     1     -12.309   9.421  71.754  1.00  0.00    -0.394 C  
HETATM   11  N   UNL     1     -13.372  10.419  71.730  1.00  0.00    -0.382 NA 
HETATM   12  C   UNL     1     -12.842  11.762  71.487  1.00  0.00    -0.345 C  
HETATM   13  H   UNL     1     -13.933  10.389  72.582  1.00  0.00     0.000 HD 
HETATM   14  C   UNL     1     -12.103  11.853  70.137  1.00  0.00    -0.382 C  
BRANCH  14  15
HETATM   15  C   UNL     1     -11.541  13.277  69.939  1.00  0.00    -0.190 C  
BRANCH  15  16
HETATM   16  O   UNL     1     -12.236  13.914  68.861  1.00  0.00    -0.354 OA 
BRANCH  16  17
HETATM   17  C   UNL     1     -11.812  13.660  67.583  1.00  0.00    -0.369 A  
HETATM   18  C   UNL     1     -12.582  13.078  66.573  1.00  0.00     0.258 A  
HETATM   19  C   UNL     1     -12.018  12.964  65.317  1.00  0.00    -0.419 A  
HETATM   20  C   UNL     1     -10.736  13.381  65.048  1.00  0.00    -0.343 A  
HETATM   21  C   UNL     1      -9.939  13.933  66.028  1.00  0.00    -0.325 A  
HETATM   22  O   UNL     1     -10.388  13.188  63.749  1.00  0.00    -0.311 OA 
HETATM   23  C   UNL     1     -10.494  14.079  67.305  1.00  0.00    -0.268 A  
HETATM   24  C   UNL     1     -11.623  12.665  63.214  1.00  0.00    -0.353 C  
HETATM   25  O   UNL     1     -12.637  12.454  64.218  1.00  0.00    -0.562 OA 
ENDBRANCH  16  17
ENDBRANCH  15  16
ENDBRANCH  14  15
ENDBRANCH   5   8
TORSDOF 4
ENDMDL
MODEL       52
REMARK 921   NORMALIZED FREE ENERGY PREDICTED BY IDOCK:   -6.42 KCAL/MOL
REMARK 922        TOTAL FREE ENERGY PREDICTED BY IDOCK:   -8.70 KCAL/MOL
REMARK 923 INTER-LIGAND FREE ENERGY PREDICTED BY IDOCK:   -7.35 KCAL/MOL
REMARK 924 INTRA-LIGAND FREE ENERGY PREDICTED BY IDOCK:   -1.35 KCAL/MOL
REMARK 927      BINDING AFFINITY PREDICTED BY RF-SCORE:    0.00 PKD
ROOT
HETATM    1  F   UNL     1     -12.502  15.063  70.811  1.00  0.00    -0.307 F  
HETATM    2  C   UNL     1     -12.480  13.724  70.858  1.00  0.00    -0.377 A  
HETATM    3  C   UNL     1     -11.877  13.011  69.831  1.00  0.00    -0.377 A  
HETATM    4  C   UNL     1     -11.872  11.611  69.867  1.00  0.00    -0.434 A  
HETATM    5  C   UNL     1     -12.493  10.922  70.920  1.00  0.00    -0.507 A  
HETATM    6  C   UNL     1     -13.055  13.069  71.937  1.00  0.00    -0.483 A  
HETATM    7  C   UNL     1     -13.057  11.673  71.970  1.00  0.00    -0.433 A  
ENDROOT
BRANCH   5   8
HETATM    8  C   UNL     1     -12.555   9.400  70.992  1.00  0.00    -0.291 C  
HETATM    9  C   UNL     1     -13.981   8.964  71.377  1.00  0.00    -0.299 C  
HETATM   10  C   UNL     1     -14.108   7.445  71.408  1.00  0.00    -0.358 C  
HETATM   11  N   UNL     1     -13.138   6.863  72.329  1.00  0.00    -0.524 NA 
HETATM   12  C   UNL     1     -11.765   7.180  71.934  1.00  0.00    -0.292 C  
HETATM   13  H   UNL     1     -13.275   5.857  72.428  1.00  0.00     0.000 HD 
HETATM   14  C   UNL     1     -11.510   8.700  71.907  1.00  0.00    -0.419 C  
BRANCH  14  15
HETATM   15  C   UNL     1     -10.060   8.983  71.460  1.00  0.00    -0.339 C  
BRANCH  15  16
HETATM   16  O   UNL     1      -9.820   8.342  70.201  1.00  0.00    -0.178 OA 
BRANCH  16  17
HETATM   17  C   UNL     1      -9.551   9.134  69.117  1.00  0.00    -0.161 A  
HETATM   18  C   UNL     1     -10.045   8.937  67.826  1.00  0.00    -0.263 A  
HETATM   19  C   UNL     1      -9.732   9.879  66.864  1.00  0.00    -0.186 A  
HETATM   20  C   UNL     1      -8.945  10.971  67.137  1.00  0.00    -0.143 A  
HETATM   21  C   UNL     1      -8.417  11.182  68.393  1.00  0.00    -0.151 A  
HETATM   22  O   UNL     1      -8.774  11.773  66.054  1.00  0.00    -0.126 OA 
HETATM   23  C   UNL     1      -8.736  10.253  69.391  1.00  0.00    -0.168 A  
HETATM   24  C   UNL     1      -9.604  11.097  65.084  1.00  0.00    -0.234 C  
HETATM   25  O   UNL     1     -10.156   9.857  65.571  1.00  0.00    -0.303 OA 
ENDBRANCH  16  17
ENDBRANCH  15  16
ENDBRANCH  14  15
ENDBRANCH   5   8
TORSDOF 4
ENDMDL
MODEL       53
REMARK 921   NORMALIZED FREE ENERGY PREDICTED BY IDOCK:   -6.41 KCAL/MOL
REMARK 922        TOTAL FREE ENERGY PREDICTED BY IDOCK:   -8.69 KCAL/MOL
REMARK 923 INTER-LIGAND FREE ENERGY PREDICTED BY IDOCK:   -7.67 KCAL/MOL
REMARK 924 INTRA-LIGAND FREE ENERGY PREDICTED BY IDOCK:   -1.02 KCAL/MOL
REMARK 927      BINDING AFFINITY PREDICTED BY RF-SCORE:    0.00 PKD
ROOT
HETATM    1  F   UNL     1     -13.848   6.850  72.035  1.00  0.00    -0.378 F  
HETATM    2  C   UNL     1     -12.767   7.437  71.504  1.00  0.00    -0.372 A  
HETATM    3  C   UNL     1     -12.475   8.756  71.824  1.00  0.00    -0.407 A  
HETATM    4  C   UNL     1     -11.359   9.378  71.252  1.00  0.00    -0.436 A  
HETATM    5  C   UNL     1     -10.545   8.688  70.340  1.00  0.00    -0.244 A  
HETATM    6  C   UNL     1     -11.950   6.715  70.646  1.00  0.00    -0.404 A  
HETATM    7  C   UNL     1     -10.841   7.337  70.070  1.00  0.00    -0.271 A  
ENDROOT
BRANCH   5   8
HETATM    8  C   UNL     1      -9.341   9.326  69.655  1.00  0.00    -0.187 C  
HETATM    9  C   UNL     1      -8.234   9.576  70.697  1.00  0.00    -0.155 C  
HETATM   10  C   UNL     1      -6.986  10.163  70.049  1.00  0.00    -0.145 C  
HETATM   11  N   UNL     1      -7.301  11.401  69.344  1.00  0.00    -0.319 NA 
HETATM   12  C   UNL     1      -8.282  11.178  68.281  1.00  0.00    -0.134 C  
HETATM   13  H   UNL     1      -6.459  11.851  68.986  1.00  0.00     0.000 HD 
HETATM   14  C   UNL     1      -9.609  10.617  68.830  1.00  0.00    -0.204 C  
BRANCH  14  15
HETATM   15  C   UNL     1     -10.599  10.375  67.671  1.00  0.00    -0.257 C  
BRANCH  15  16
HETATM   16  O   UNL     1     -11.871  10.939  68.009  1.00  0.00    -0.585 OA 
BRANCH  16  17
HETATM   17  C   UNL     1     -11.899  12.224  68.483  1.00  0.00    -0.307 A  
HETATM   18  C   UNL     1     -12.025  12.591  69.825  1.00  0.00    -0.359 A  
HETATM   19  C   UNL     1     -11.959  13.936  70.135  1.00  0.00    -0.332 A  
HETATM   20  C   UNL     1     -11.797  14.903  69.173  1.00  0.00    -0.307 A  
HETATM   21  C   UNL     1     -11.697  14.578  67.837  1.00  0.00    -0.381 A  
HETATM   22  O   UNL     1     -11.745  16.155  69.697  1.00  0.00    -0.294 OA 
HETATM   23  C   UNL     1     -11.741  13.221  67.498  1.00  0.00    -0.410 A  
HETATM   24  C   UNL     1     -11.823  15.860  71.108  1.00  0.00    -0.438 C  
HETATM   25  O   UNL     1     -12.031  14.461  71.389  1.00  0.00    -0.344 OA 
ENDBRANCH  16  17
ENDBRANCH  15  16
ENDBRANCH  14  15
ENDBRANCH   5   8
TORSDOF 4
ENDMDL
MODEL       54
REMARK 921   NORMALIZED FREE ENERGY PREDICTED BY IDOCK:   -6.41 KCAL/MOL
REMARK 922        TOTAL FREE ENERGY PREDICTED BY IDOCK:   -8.69 KCAL/MOL
REMARK 923 INTER-LIGAND FREE ENERGY PREDICTED BY IDOCK:   -7.25 KCAL/MOL
REMARK 924 INTRA-LIGAND FREE ENERGY PREDICTED BY IDOCK:   -1.44 KCAL/MOL
REMARK 927      BINDING AFFINITY PREDICTED BY RF-SCORE:    0.00 PKD
ROOT
HETATM    1  F   UNL     1     -11.165  15.918  71.716  1.00  0.00    -0.404 F  
HETATM    2  C   UNL     1     -11.048  15.237  70.569  1.00  0.00    -0.306 A  
HETATM    3  C   UNL     1      -9.896  15.369  69.805  1.00  0.00    -0.236 A  
HETATM    4  C   UNL     1      -9.782  14.676  68.594  1.00  0.00    -0.220 A  
HETATM    5  C   UNL     1     -10.833  13.868  68.132  1.00  0.00    -0.262 A  
HETATM    6  C   UNL     1     -12.080  14.404  70.161  1.00  0.00    -0.397 A  
HETATM    7  C   UNL     1     -11.970  13.718  68.950  1.00  0.00    -0.394 A  
ENDROOT
BRANCH   5   8
HETATM    8  C   UNL     1     -10.782  13.122  66.803  1.00  0.00    -0.274 C  
HETATM    9  C   UNL     1      -9.965  11.828  66.974  1.00  0.00    -0.224 C  
HETATM   10  C   UNL     1      -9.932  11.018  65.683  1.00  0.00    -0.248 C  
HETATM   11  N   UNL     1      -9.391  11.813  64.586  1.00  0.00    -0.427 NA 
HETATM   12  C   UNL     1     -10.204  13.004  64.335  1.00  0.00    -0.311 C  
HETATM   13  H   UNL     1      -9.278  11.254  63.740  1.00  0.00     0.000 HD 
HETATM   14  C   UNL     1     -10.275  13.924  65.570  1.00  0.00    -0.348 C  
BRANCH  14  15
HETATM   15  C   UNL     1     -11.162  15.149  65.264  1.00  0.00    -0.358 C  
BRANCH  15  16
HETATM   16  O   UNL     1     -10.332  16.245  64.863  1.00  0.00    -0.578 OA 
BRANCH  16  17
HETATM   17  C   UNL     1      -9.846  17.076  65.838  1.00  0.00    -0.177 A  
HETATM   18  C   UNL     1     -10.599  18.001  66.564  1.00  0.00    -0.263 A  
HETATM   19  C   UNL     1      -9.961  18.706  67.567  1.00  0.00    -0.338 A  
HETATM   20  C   UNL     1      -8.626  18.539  67.845  1.00  0.00    -0.287 A  
HETATM   21  C   UNL     1      -7.847  17.656  67.129  1.00  0.00    -0.229 A  
HETATM   22  O   UNL     1      -8.207  19.321  68.874  1.00  0.00    -0.358 OA 
HETATM   23  C   UNL     1      -8.474  16.913  66.122  1.00  0.00    -0.281 A  
HETATM   24  C   UNL     1      -9.450  19.949  69.259  1.00  0.00     0.030 C  
HETATM   25  O   UNL     1     -10.551  19.618  68.387  1.00  0.00    -0.361 OA 
ENDBRANCH  16  17
ENDBRANCH  15  16
ENDBRANCH  14  15
ENDBRANCH   5   8
TORSDOF 4
ENDMDL
MODEL       55
REMARK 921   NORMALIZED FREE ENERGY PREDICTED BY IDOCK:   -6.41 KCAL/MOL
REMARK 922        TOTAL FREE ENERGY PREDICTED BY IDOCK:   -8.68 KCAL/MOL
REMARK 923 INTER-LIGAND FREE ENERGY PREDICTED BY IDOCK:   -7.29 KCAL/MOL
REMARK 924 INTRA-LIGAND FREE ENERGY PREDICTED BY IDOCK:   -1.40 KCAL/MOL
REMARK 927      BINDING AFFINITY PREDICTED BY RF-SCORE:    0.00 PKD
ROOT
HETATM    1  F   UNL     1     -10.058   8.565  66.168  1.00  0.00    -0.340 F  
HETATM    2  C   UNL     1     -10.049   7.885  67.322  1.00  0.00    -0.238 A  
HETATM    3  C   UNL     1     -11.039   6.944  67.574  1.00  0.00    -0.283 A  
HETATM    4  C   UNL     1     -11.044   6.249  68.789  1.00  0.00    -0.424 A  
HETATM    5  C   UNL     1     -10.072   6.512  69.766  1.00  0.00    -0.207 A  
HETATM    6  C   UNL     1      -9.046   8.127  68.249  1.00  0.00    -0.135 A  
HETATM    7  C   UNL     1      -9.054   7.438  69.464  1.00  0.00    -0.143 A  
ENDROOT
BRANCH   5   8
HETATM    8  C   UNL     1     -10.051   5.816  71.123  1.00  0.00    -0.257 C  
HETATM    9  C   UNL     1      -9.788   4.312  70.922  1.00  0.00    -0.259 C  
HETATM   10  C   UNL     1      -9.703   3.580  72.256  1.00  0.00    -0.155 C  
HETATM   11  N   UNL     1     -10.921   3.778  73.034  1.00  0.00    -0.122 NA 
HETATM   12  C   UNL     1     -11.148   5.194  73.325  1.00  0.00    -0.327 C  
HETATM   13  H   UNL     1     -10.914   3.219  73.887  1.00  0.00     0.000 HD 
HETATM   14  C   UNL     1     -11.290   6.031  72.038  1.00  0.00    -0.345 C  
BRANCH  14  15
HETATM   15  C   UNL     1     -11.501   7.518  72.396  1.00  0.00    -0.315 C  
BRANCH  15  16
HETATM   16  O   UNL     1     -12.580   8.044  71.616  1.00  0.00    -0.306 OA 
BRANCH  16  17
HETATM   17  C   UNL     1     -12.576   9.384  71.332  1.00  0.00    -0.348 A  
HETATM   18  C   UNL     1     -13.243  10.370  72.062  1.00  0.00    -0.497 A  
HETATM   19  C   UNL     1     -13.069  11.686  71.679  1.00  0.00    -0.351 A  
HETATM   20  C   UNL     1     -12.288  12.039  70.605  1.00  0.00    -0.304 A  
HETATM   21  C   UNL     1     -11.638  11.090  69.845  1.00  0.00    -0.416 A  
HETATM   22  O   UNL     1     -12.245  13.383  70.412  1.00  0.00    -0.343 OA 
HETATM   23  C   UNL     1     -11.782   9.750  70.225  1.00  0.00    -0.253 A  
HETATM   24  C   UNL     1     -13.033  13.841  71.533  1.00  0.00    -0.363 C  
HETATM   25  O   UNL     1     -13.617  12.767  72.298  1.00  0.00    -0.556 OA 
ENDBRANCH  16  17
ENDBRANCH  15  16
ENDBRANCH  14  15
ENDBRANCH   5   8
TORSDOF 4
ENDMDL
MODEL       56
REMARK 921   NORMALIZED FREE ENERGY PREDICTED BY IDOCK:   -6.40 KCAL/MOL
REMARK 922        TOTAL FREE ENERGY PREDICTED BY IDOCK:   -8.67 KCAL/MOL
REMARK 923 INTER-LIGAND FREE ENERGY PREDICTED BY IDOCK:   -7.84 KCAL/MOL
REMARK 924 INTRA-LIGAND FREE ENERGY PREDICTED BY IDOCK:   -0.83 KCAL/MOL
REMARK 927      BINDING AFFINITY PREDICTED BY RF-SCORE:    0.00 PKD
ROOT
HETATM    1  F   UNL     1     -10.708  17.217  69.715  1.00  0.00    -0.315 F  
HETATM    2  C   UNL     1     -10.794  16.413  68.646  1.00  0.00    -0.331 A  
HETATM    3  C   UNL     1     -11.767  15.423  68.608  1.00  0.00    -0.371 A  
HETATM    4  C   UNL     1     -11.843  14.566  67.503  1.00  0.00    -0.404 A  
HETATM    5  C   UNL     1     -10.930  14.684  66.444  1.00  0.00    -0.325 A  
HETATM    6  C   UNL     1      -9.913  16.585  67.590  1.00  0.00    -0.254 A  
HETATM    7  C   UNL     1      -9.984  15.727  66.490  1.00  0.00    -0.283 A  
ENDROOT
BRANCH   5   8
HETATM    8  C   UNL     1     -10.940  13.756  65.234  1.00  0.00    -0.322 C  
HETATM    9  C   UNL     1     -12.141  14.102  64.334  1.00  0.00    -0.486 C  
HETATM   10  C   UNL     1     -12.161  13.234  63.080  1.00  0.00    -0.145 C  
HETATM   11  N   UNL     1     -12.186  11.819  63.429  1.00  0.00    -0.821 NA 
HETATM   12  C   UNL     1     -11.006  11.437  64.206  1.00  0.00    -0.321 C  
HETATM   13  H   UNL     1     -12.294  11.232  62.602  1.00  0.00     0.000 HD 
HETATM   14  C   UNL     1     -10.903  12.228  65.525  1.00  0.00    -0.319 C  
BRANCH  14  15
HETATM   15  C   UNL     1      -9.631  11.810  66.293  1.00  0.00    -0.225 C  
BRANCH  15  16
HETATM   16  O   UNL     1      -9.834  10.516  66.873  1.00  0.00    -0.181 OA 
BRANCH  16  17
HETATM   17  C   UNL     1     -10.437  10.448  68.101  1.00  0.00    -0.188 A  
HETATM   18  C   UNL     1     -11.162  11.476  68.706  1.00  0.00    -0.309 A  
HETATM   19  C   UNL     1     -11.769  11.210  69.919  1.00  0.00    -0.355 A  
HETATM   20  C   UNL     1     -11.660   9.990  70.541  1.00  0.00    -0.323 A  
HETATM   21  C   UNL     1     -10.929   8.962  69.985  1.00  0.00    -0.217 A  
HETATM   22  O   UNL     1     -12.344   9.941  71.714  1.00  0.00    -0.383 OA 
HETATM   23  C   UNL     1     -10.321   9.199  68.747  1.00  0.00    -0.235 A  
HETATM   24  C   UNL     1     -12.954  11.250  71.725  1.00  0.00    -0.414 C  
HETATM   25  O   UNL     1     -12.536  12.084  70.626  1.00  0.00    -0.315 OA 
ENDBRANCH  16  17
ENDBRANCH  15  16
ENDBRANCH  14  15
ENDBRANCH   5   8
TORSDOF 4
ENDMDL
MODEL       57
REMARK 921   NORMALIZED FREE ENERGY PREDICTED BY IDOCK:   -6.39 KCAL/MOL
REMARK 922        TOTAL FREE ENERGY PREDICTED BY IDOCK:   -8.67 KCAL/MOL
REMARK 923 INTER-LIGAND FREE ENERGY PREDICTED BY IDOCK:   -8.51 KCAL/MOL
REMARK 924 INTRA-LIGAND FREE ENERGY PREDICTED BY IDOCK:   -0.16 KCAL/MOL
REMARK 927      BINDING AFFINITY PREDICTED BY RF-SCORE:    0.00 PKD
ROOT
HETATM    1  F   UNL     1     -11.977   6.517  71.021  1.00  0.00    -0.378 F  
HETATM    2  C   UNL     1     -12.060   7.850  71.122  1.00  0.00    -0.276 A  
HETATM    3  C   UNL     1     -13.185   8.428  71.696  1.00  0.00    -0.360 A  
HETATM    4  C   UNL     1     -13.283   9.821  71.782  1.00  0.00    -0.532 A  
HETATM    5  C   UNL     1     -12.266  10.642  71.270  1.00  0.00    -0.447 A  
HETATM    6  C   UNL     1     -11.016   8.637  70.656  1.00  0.00    -0.274 A  
HETATM    7  C   UNL     1     -11.117  10.027  70.735  1.00  0.00    -0.407 A  
ENDROOT
BRANCH   5   8
HETATM    8  C   UNL     1     -12.336  12.165  71.299  1.00  0.00    -0.176 C  
HETATM    9  C   UNL     1     -13.455  12.607  72.261  1.00  0.00    -0.541 C  
HETATM   10  C   UNL     1     -13.528  14.126  72.366  1.00  0.00    -0.517 C  
HETATM   11  N   UNL     1     -13.728  14.727  71.053  1.00  0.00    -0.555 NA 
HETATM   12  C   UNL     1     -12.629  14.404  70.141  1.00  0.00    -0.286 C  
HETATM   13  H   UNL     1     -13.871  15.735  71.121  1.00  0.00     0.000 HD 
HETATM   14  C   UNL     1     -12.486  12.884  69.928  1.00  0.00    -0.034 C  
BRANCH  14  15
HETATM   15  C   UNL     1     -11.300  12.594  68.983  1.00  0.00    -0.292 C  
BRANCH  15  16
HETATM   16  O   UNL     1     -11.783  12.480  67.640  1.00  0.00    -0.340 OA 
BRANCH  16  17
HETATM   17  C   UNL     1     -11.687  13.577  66.826  1.00  0.00    -0.391 A  
HETATM   18  C   UNL     1     -11.067  14.783  67.160  1.00  0.00    -0.333 A  
HETATM   19  C   UNL     1     -10.995  15.763  66.188  1.00  0.00    -0.169 A  
HETATM   20  C   UNL     1     -11.527  15.591  64.934  1.00  0.00    -0.279 A  
HETATM   21  C   UNL     1     -12.171  14.425  64.579  1.00  0.00    -0.483 A  
HETATM   22  O   UNL     1     -11.334  16.672  64.134  1.00  0.00    -1.141 OA 
HETATM   23  C   UNL     1     -12.239  13.408  65.539  1.00  0.00    -0.499 A  
HETATM   24  C   UNL     1     -10.557  17.519  65.008  1.00  0.00     0.513 C  
HETATM   25  O   UNL     1     -10.400  16.978  66.336  1.00  0.00    -0.315 OA 
ENDBRANCH  16  17
ENDBRANCH  15  16
ENDBRANCH  14  15
ENDBRANCH   5   8
TORSDOF 4
ENDMDL
MODEL       58
REMARK 921   NORMALIZED FREE ENERGY PREDICTED BY IDOCK:   -6.38 KCAL/MOL
REMARK 922        TOTAL FREE ENERGY PREDICTED BY IDOCK:   -8.65 KCAL/MOL
REMARK 923 INTER-LIGAND FREE ENERGY PREDICTED BY IDOCK:   -6.70 KCAL/MOL
REMARK 924 INTRA-LIGAND FREE ENERGY PREDICTED BY IDOCK:   -1.95 KCAL/MOL
REMARK 927      BINDING AFFINITY PREDICTED BY RF-SCORE:    0.00 PKD
ROOT
HETATM    1  F   UNL     1     -10.669   7.328  73.656  1.00  0.00    -0.374 F  
HETATM    2  C   UNL     1     -10.700   8.174  72.617  1.00  0.00    -0.351 A  
HETATM    3  C   UNL     1     -11.920   8.638  72.145  1.00  0.00    -0.449 A  
HETATM    4  C   UNL     1     -11.956   9.503  71.045  1.00  0.00    -0.407 A  
HETATM    5  C   UNL     1     -10.770   9.886  70.399  1.00  0.00    -0.379 A  
HETATM    6  C   UNL     1      -9.510   8.577  72.030  1.00  0.00    -0.364 A  
HETATM    7  C   UNL     1      -9.545   9.435  70.928  1.00  0.00    -0.301 A  
ENDROOT
BRANCH   5   8
HETATM    8  C   UNL     1     -10.749  10.793  69.173  1.00  0.00    -0.265 C  
HETATM    9  C   UNL     1     -11.700  11.983  69.401  1.00  0.00    -0.402 C  
HETATM   10  C   UNL     1     -11.672  12.949  68.223  1.00  0.00    -0.350 C  
HETATM   11  N   UNL     1     -12.014  12.263  66.982  1.00  0.00    -0.590 NA 
HETATM   12  C   UNL     1     -11.070  11.185  66.687  1.00  0.00    -0.189 C  
HETATM   13  H   UNL     1     -12.090  12.917  66.203  1.00  0.00     0.000 HD 
HETATM   14  C   UNL     1     -11.044  10.121  67.801  1.00  0.00    -0.293 C  
BRANCH  14  15
HETATM   15  C   UNL     1     -10.016   9.022  67.457  1.00  0.00    -0.207 C  
BRANCH  15  16
HETATM   16  O   UNL     1     -10.640   7.738  67.574  1.00  0.00    -0.260 OA 
BRANCH  16  17
HETATM   17  C   UNL     1     -10.170   6.879  68.532  1.00  0.00    -0.177 A  
HETATM   18  C   UNL     1      -8.824   6.629  68.807  1.00  0.00    -0.126 A  
HETATM   19  C   UNL     1      -8.526   5.787  69.861  1.00  0.00    -0.123 A  
HETATM   20  C   UNL     1      -9.503   5.185  70.616  1.00  0.00    -0.170 A  
HETATM   21  C   UNL     1     -10.841   5.386  70.355  1.00  0.00    -0.208 A  
HETATM   22  O   UNL     1      -8.990   4.409  71.607  1.00  0.00    -0.118 OA 
HETATM   23  C   UNL     1     -11.170   6.252  69.305  1.00  0.00    -0.458 A  
HETATM   24  C   UNL     1      -7.576   4.648  71.432  1.00  0.00    -0.078 C  
HETATM   25  O   UNL     1      -7.273   5.464  70.282  1.00  0.00    -0.062 OA 
ENDBRANCH  16  17
ENDBRANCH  15  16
ENDBRANCH  14  15
ENDBRANCH   5   8
TORSDOF 4
ENDMDL
MODEL       59
REMARK 921   NORMALIZED FREE ENERGY PREDICTED BY IDOCK:   -6.36 KCAL/MOL
REMARK 922        TOTAL FREE ENERGY PREDICTED BY IDOCK:   -8.63 KCAL/MOL
REMARK 923 INTER-LIGAND FREE ENERGY PREDICTED BY IDOCK:   -7.27 KCAL/MOL
REMARK 924 INTRA-LIGAND FREE ENERGY PREDICTED BY IDOCK:   -1.36 KCAL/MOL
REMARK 927      BINDING AFFINITY PREDICTED BY RF-SCORE:    0.00 PKD
ROOT
HETATM    1  F   UNL     1      -8.374   9.922  65.328  1.00  0.00    -0.128 F  
HETATM    2  C   UNL     1      -8.891   9.877  66.563  1.00  0.00    -0.139 A  
HETATM    3  C   UNL     1      -8.393  10.719  67.547  1.00  0.00    -0.115 A  
HETATM    4  C   UNL     1      -8.916  10.657  68.845  1.00  0.00    -0.172 A  
HETATM    5  C   UNL     1      -9.924   9.734  69.165  1.00  0.00    -0.195 A  
HETATM    6  C   UNL     1      -9.923   8.991  66.839  1.00  0.00    -0.313 A  
HETATM    7  C   UNL     1     -10.441   8.925  68.135  1.00  0.00    -0.254 A  
ENDROOT
BRANCH   5   8
HETATM    8  C   UNL     1     -10.503   9.594  70.569  1.00  0.00    -0.367 C  
HETATM    9  C   UNL     1     -10.249   8.165  71.086  1.00  0.00    -0.234 C  
HETATM   10  C   UNL     1     -10.763   7.992  72.510  1.00  0.00    -0.341 C  
HETATM   11  N   UNL     1     -12.184   8.311  72.592  1.00  0.00    -0.576 NA 
HETATM   12  C   UNL     1     -12.446   9.695  72.197  1.00  0.00    -0.273 C  
HETATM   13  H   UNL     1     -12.559   8.110  73.518  1.00  0.00     0.000 HD 
HETATM   14  C   UNL     1     -12.000   9.976  70.749  1.00  0.00    -0.426 C  
BRANCH  14  15
HETATM   15  C   UNL     1     -12.273  11.453  70.390  1.00  0.00    -0.362 C  
BRANCH  15  16
HETATM   16  O   UNL     1     -12.526  11.558  68.984  1.00  0.00    -0.309 OA 
BRANCH  16  17
HETATM   17  C   UNL     1     -12.006  12.635  68.316  1.00  0.00    -0.222 A  
HETATM   18  C   UNL     1     -11.530  12.623  67.003  1.00  0.00    -0.406 A  
HETATM   19  C   UNL     1     -11.108  13.820  66.457  1.00  0.00    -0.306 A  
HETATM   20  C   UNL     1     -11.125  14.995  67.169  1.00  0.00    -0.332 A  
HETATM   21  C   UNL     1     -11.562  15.039  68.476  1.00  0.00    -0.348 A  
HETATM   22  O   UNL     1     -10.680  16.052  66.440  1.00  0.00    -0.301 OA 
HETATM   23  C   UNL     1     -12.014  13.843  69.045  1.00  0.00    -0.402 A  
HETATM   24  C   UNL     1     -10.447  15.418  65.163  1.00  0.00    -0.411 C  
HETATM   25  O   UNL     1     -10.648  13.990  65.188  1.00  0.00    -0.337 OA 
ENDBRANCH  16  17
ENDBRANCH  15  16
ENDBRANCH  14  15
ENDBRANCH   5   8
TORSDOF 4
ENDMDL
MODEL       60
REMARK 921   NORMALIZED FREE ENERGY PREDICTED BY IDOCK:   -6.32 KCAL/MOL
REMARK 922        TOTAL FREE ENERGY PREDICTED BY IDOCK:   -8.58 KCAL/MOL
REMARK 923 INTER-LIGAND FREE ENERGY PREDICTED BY IDOCK:   -8.36 KCAL/MOL
REMARK 924 INTRA-LIGAND FREE ENERGY PREDICTED BY IDOCK:   -0.22 KCAL/MOL
REMARK 927      BINDING AFFINITY PREDICTED BY RF-SCORE:    0.00 PKD
ROOT
HETATM    1  F   UNL     1     -13.493  13.048  72.854  1.00  0.00    -0.543 F  
HETATM    2  C   UNL     1     -13.011  12.542  71.711  1.00  0.00    -0.313 A  
HETATM    3  C   UNL     1     -12.985  11.166  71.526  1.00  0.00    -0.542 A  
HETATM    4  C   UNL     1     -12.460  10.633  70.343  1.00  0.00    -0.421 A  
HETATM    5  C   UNL     1     -11.938  11.477  69.350  1.00  0.00    -0.392 A  
HETATM    6  C   UNL     1     -12.549  13.400  70.724  1.00  0.00    -0.369 A  
HETATM    7  C   UNL     1     -12.020  12.870  69.546  1.00  0.00    -0.346 A  
ENDROOT
BRANCH   5   8
HETATM    8  C   UNL     1     -11.317  10.954  68.059  1.00  0.00    -0.382 C  
HETATM    9  C   UNL     1     -10.410   9.751  68.379  1.00  0.00    -0.230 C  
HETATM   10  C   UNL     1      -9.809   9.157  67.111  1.00  0.00    -0.195 C  
HETATM   11  N   UNL     1      -9.062  10.166  66.369  1.00  0.00    -0.150 NA 
HETATM   12  C   UNL     1      -9.921  11.281  65.966  1.00  0.00    -0.231 C  
HETATM   13  H   UNL     1      -8.578   9.760  65.569  1.00  0.00     0.000 HD 
HETATM   14  C   UNL     1     -10.556  11.987  67.180  1.00  0.00    -0.255 C  
BRANCH  14  15
HETATM   15  C   UNL     1     -11.471  13.135  66.703  1.00  0.00    -0.348 C  
BRANCH  15  16
HETATM   16  O   UNL     1     -10.710  14.042  65.897  1.00  0.00    -0.284 OA 
BRANCH  16  17
HETATM   17  C   UNL     1     -10.570  15.332  66.337  1.00  0.00    -0.308 A  
HETATM   18  C   UNL     1     -10.437  16.457  65.520  1.00  0.00    -0.349 A  
HETATM   19  C   UNL     1     -10.382  17.695  66.132  1.00  0.00    -0.334 A  
HETATM   20  C   UNL     1     -10.431  17.841  67.497  1.00  0.00    -0.372 A  
HETATM   21  C   UNL     1     -10.533  16.750  68.334  1.00  0.00    -0.339 A  
HETATM   22  O   UNL     1     -10.375  19.142  67.884  1.00  0.00    -0.379 OA 
HETATM   23  C   UNL     1     -10.612  15.485  67.738  1.00  0.00    -0.281 A  
HETATM   24  C   UNL     1     -10.355  19.804  66.601  1.00  0.00    -0.496 C  
HETATM   25  O   UNL     1     -10.287  18.890  65.487  1.00  0.00    -0.499 OA 
ENDBRANCH  16  17
ENDBRANCH  15  16
ENDBRANCH  14  15
ENDBRANCH   5   8
TORSDOF 4
ENDMDL
MODEL       61
REMARK 921   NORMALIZED FREE ENERGY PREDICTED BY IDOCK:   -6.27 KCAL/MOL
REMARK 922        TOTAL FREE ENERGY PREDICTED BY IDOCK:   -8.52 KCAL/MOL
REMARK 923 INTER-LIGAND FREE ENERGY PREDICTED BY IDOCK:   -7.44 KCAL/MOL
REMARK 924 INTRA-LIGAND FREE ENERGY PREDICTED BY IDOCK:   -1.08 KCAL/MOL
REMARK 927      BINDING AFFINITY PREDICTED BY RF-SCORE:    0.00 PKD
ROOT
HETATM    1  F   UNL     1      -9.480  10.451  65.508  1.00  0.00    -0.197 F  
HETATM    2  C   UNL     1      -9.715  10.114  66.783  1.00  0.00    -0.187 A  
HETATM    3  C   UNL     1     -10.264   8.873  67.075  1.00  0.00    -0.345 A  
HETATM    4  C   UNL     1     -10.532   8.527  68.405  1.00  0.00    -0.215 A  
HETATM    5  C   UNL     1     -10.272   9.433  69.445  1.00  0.00    -0.214 A  
HETATM    6  C   UNL     1      -9.400  11.008  67.795  1.00  0.00    -0.162 A  
HETATM    7  C   UNL     1      -9.672  10.667  69.121  1.00  0.00    -0.205 A  
ENDROOT
BRANCH   5   8
HETATM    8  C   UNL     1     -10.579   9.128  70.907  1.00  0.00    -0.341 C  
HETATM    9  C   UNL     1      -9.553   8.114  71.444  1.00  0.00    -0.212 C  
HETATM   10  C   UNL     1      -9.786   7.819  72.921  1.00  0.00    -0.249 C  
HETATM   11  N   UNL     1     -11.141   7.328  73.144  1.00  0.00    -0.526 NA 
HETATM   12  C   UNL     1     -12.143   8.312  72.731  1.00  0.00    -0.140 C  
HETATM   13  H   UNL     1     -11.279   7.040  74.113  1.00  0.00     0.000 HD 
HETATM   14  C   UNL     1     -12.026   8.659  71.233  1.00  0.00    -0.339 C  
BRANCH  14  15
HETATM   15  C   UNL     1     -13.084   9.717  70.854  1.00  0.00    -0.218 C  
BRANCH  15  16
HETATM   16  O   UNL     1     -13.169  10.695  71.897  1.00  0.00    -0.461 OA 
BRANCH  16  17
HETATM   17  C   UNL     1     -12.971  12.009  71.564  1.00  0.00    -0.304 A  
HETATM   18  C   UNL     1     -12.134  12.472  70.546  1.00  0.00    -0.361 A  
HETATM   19  C   UNL     1     -12.111  13.831  70.297  1.00  0.00    -0.355 A  
HETATM   20  C   UNL     1     -12.860  14.722  71.026  1.00  0.00    -0.352 A  
HETATM   21  C   UNL     1     -13.675  14.304  72.056  1.00  0.00    -0.542 A  
HETATM   22  O   UNL     1     -12.697  16.004  70.607  1.00  0.00    -0.356 OA 
HETATM   23  C   UNL     1     -13.732  12.929  72.316  1.00  0.00    -0.553 A  
HETATM   24  C   UNL     1     -11.811  15.809  69.482  1.00  0.00    -0.347 C  
HETATM   25  O   UNL     1     -11.380  14.442  69.325  1.00  0.00    -0.257 OA 
ENDBRANCH  16  17
ENDBRANCH  15  16
ENDBRANCH  14  15
ENDBRANCH   5   8
TORSDOF 4
ENDMDL
MODEL       62
REMARK 921   NORMALIZED FREE ENERGY PREDICTED BY IDOCK:   -6.25 KCAL/MOL
REMARK 922        TOTAL FREE ENERGY PREDICTED BY IDOCK:   -8.49 KCAL/MOL
REMARK 923 INTER-LIGAND FREE ENERGY PREDICTED BY IDOCK:   -6.57 KCAL/MOL
REMARK 924 INTRA-LIGAND FREE ENERGY PREDICTED BY IDOCK:   -1.93 KCAL/MOL
REMARK 927      BINDING AFFINITY PREDICTED BY RF-SCORE:    0.00 PKD
ROOT
HETATM    1  F   UNL     1      -8.075  10.687  63.609  1.00  0.00    -0.158 F  
HETATM    2  C   UNL     1      -8.489  10.098  64.738  1.00  0.00    -0.174 A  
HETATM    3  C   UNL     1      -7.555   9.599  65.636  1.00  0.00    -0.107 A  
HETATM    4  C   UNL     1      -7.986   8.962  66.806  1.00  0.00    -0.107 A  
HETATM    5  C   UNL     1      -9.356   8.801  67.068  1.00  0.00    -0.200 A  
HETATM    6  C   UNL     1      -9.848   9.999  64.998  1.00  0.00    -0.374 A  
HETATM    7  C   UNL     1     -10.279   9.358  66.161  1.00  0.00    -0.264 A  
ENDROOT
BRANCH   5   8
HETATM    8  C   UNL     1      -9.884   8.081  68.304  1.00  0.00    -0.190 C  
HETATM    9  C   UNL     1     -10.564   6.767  67.878  1.00  0.00    -0.296 C  
HETATM   10  C   UNL     1     -11.061   5.983  69.087  1.00  0.00    -0.335 C  
HETATM   11  N   UNL     1     -11.978   6.788  69.886  1.00  0.00    -0.659 NA 
HETATM   12  C   UNL     1     -11.331   8.001  70.387  1.00  0.00    -0.187 C  
HETATM   13  H   UNL     1     -12.389   6.244  70.645  1.00  0.00     0.000 HD 
HETATM   14  C   UNL     1     -10.820   8.897  69.241  1.00  0.00    -0.113 C  
BRANCH  14  15
HETATM   15  C   UNL     1     -10.123  10.147  69.820  1.00  0.00    -0.231 C  
BRANCH  15  16
HETATM   16  O   UNL     1     -10.974  11.286  69.645  1.00  0.00    -0.227 OA 
BRANCH  16  17
HETATM   17  C   UNL     1     -10.832  12.025  68.500  1.00  0.00    -0.233 A  
HETATM   18  C   UNL     1     -11.879  12.544  67.734  1.00  0.00    -0.375 A  
HETATM   19  C   UNL     1     -11.554  13.333  66.648  1.00  0.00    -0.365 A  
HETATM   20  C   UNL     1     -10.252  13.597  66.297  1.00  0.00    -0.296 A  
HETATM   21  C   UNL     1      -9.195  13.078  67.013  1.00  0.00    -0.232 A  
HETATM   22  O   UNL     1     -10.160  14.402  65.207  1.00  0.00    -0.369 OA 
HETATM   23  C   UNL     1      -9.497  12.292  68.131  1.00  0.00    -0.213 A  
HETATM   24  C   UNL     1     -11.556  14.673  64.953  1.00  0.00    -0.405 C  
HETATM   25  O   UNL     1     -12.446  13.940  65.819  1.00  0.00    -0.457 OA 
ENDBRANCH  16  17
ENDBRANCH  15  16
ENDBRANCH  14  15
ENDBRANCH   5   8
TORSDOF 4
ENDMDL
MODEL       63
REMARK 921   NORMALIZED FREE ENERGY PREDICTED BY IDOCK:   -6.25 KCAL/MOL
REMARK 922        TOTAL FREE ENERGY PREDICTED BY IDOCK:   -8.49 KCAL/MOL
REMARK 923 INTER-LIGAND FREE ENERGY PREDICTED BY IDOCK:   -6.46 KCAL/MOL
REMARK 924 INTRA-LIGAND FREE ENERGY PREDICTED BY IDOCK:   -2.03 KCAL/MOL
REMARK 927      BINDING AFFINITY PREDICTED BY RF-SCORE:    0.00 PKD
ROOT
HETATM    1  F   UNL     1     -11.554  11.861  69.234  1.00  0.00    -0.272 F  
HETATM    2  C   UNL     1     -11.151  13.083  68.861  1.00  0.00    -0.262 A  
HETATM    3  C   UNL     1      -9.838  13.280  68.457  1.00  0.00    -0.169 A  
HETATM    4  C   UNL     1      -9.409  14.561  68.089  1.00  0.00    -0.197 A  
HETATM    5  C   UNL     1     -10.289  15.653  68.148  1.00  0.00    -0.246 A  
HETATM    6  C   UNL     1     -12.056  14.134  68.880  1.00  0.00    -0.339 A  
HETATM    7  C   UNL     1     -11.627  15.414  68.519  1.00  0.00    -0.373 A  
ENDROOT
BRANCH   5   8
HETATM    8  C   UNL     1      -9.868  17.076  67.798  1.00  0.00    -0.271 C  
HETATM    9  C   UNL     1     -10.253  18.021  68.952  1.00  0.00    -0.320 C  
HETATM   10  C   UNL     1      -9.802  19.450  68.672  1.00  0.00    -0.443 C  
HETATM   11  N   UNL     1     -10.364  19.935  67.417  1.00  0.00    -0.426 NA 
HETATM   12  C   UNL     1      -9.938  19.112  66.285  1.00  0.00    -0.401 C  
HETATM   13  H   UNL     1     -10.146  20.919  67.266  1.00  0.00     0.000 HD 
HETATM   14  C   UNL     1     -10.378  17.643  66.442  1.00  0.00    -0.345 C  
BRANCH  14  15
HETATM   15  C   UNL     1      -9.883  16.812  65.239  1.00  0.00     0.490 C  
BRANCH  15  16
HETATM   16  O   UNL     1     -10.997  16.141  64.638  1.00  0.00    -0.642 OA 
BRANCH  16  17
HETATM   17  C   UNL     1     -11.104  14.787  64.815  1.00  0.00    -0.383 A  
HETATM   18  C   UNL     1     -10.055  13.870  64.712  1.00  0.00    -0.247 A  
HETATM   19  C   UNL     1     -10.326  12.545  64.998  1.00  0.00    -0.299 A  
HETATM   20  C   UNL     1     -11.581  12.114  65.351  1.00  0.00    -0.330 A  
HETATM   21  C   UNL     1     -12.645  12.986  65.435  1.00  0.00    -0.481 A  
HETATM   22  O   UNL     1     -11.622  10.779  65.600  1.00  0.00     0.405 OA 
HETATM   23  C   UNL     1     -12.393  14.338  65.171  1.00  0.00    -0.427 A  
HETATM   24  C   UNL     1     -10.231  10.431  65.429  1.00  0.00    -0.259 C  
HETATM   25  O   UNL     1      -9.417  11.533  64.978  1.00  0.00    -0.222 OA 
ENDBRANCH  16  17
ENDBRANCH  15  16
ENDBRANCH  14  15
ENDBRANCH   5   8
TORSDOF 4
ENDMDL
MODEL       64
REMARK 921   NORMALIZED FREE ENERGY PREDICTED BY IDOCK:   -6.20 KCAL/MOL
REMARK 922        TOTAL FREE ENERGY PREDICTED BY IDOCK:   -8.43 KCAL/MOL
REMARK 923 INTER-LIGAND FREE ENERGY PREDICTED BY IDOCK:   -6.99 KCAL/MOL
REMARK 924 INTRA-LIGAND FREE ENERGY PREDICTED BY IDOCK:   -1.44 KCAL/MOL
REMARK 927      BINDING AFFINITY PREDICTED BY RF-SCORE:    0.00 PKD
ROOT
HETATM    1  F   UNL     1      -8.624  10.977  65.204  1.00  0.00    -0.183 F  
HETATM    2  C   UNL     1      -9.221  10.950  66.403  1.00  0.00    -0.174 A  
HETATM    3  C   UNL     1      -8.481  11.225  67.545  1.00  0.00    -0.131 A  
HETATM    4  C   UNL     1      -9.097  11.175  68.802  1.00  0.00    -0.144 A  
HETATM    5  C   UNL     1     -10.451  10.825  68.920  1.00  0.00    -0.228 A  
HETATM    6  C   UNL     1     -10.573  10.652  66.487  1.00  0.00    -0.257 A  
HETATM    7  C   UNL     1     -11.187  10.595  67.740  1.00  0.00    -0.383 A  
ENDROOT
BRANCH   5   8
HETATM    8  C   UNL     1     -11.165  10.714  70.262  1.00  0.00    -0.365 C  
HETATM    9  C   UNL     1     -11.503   9.238  70.541  1.00  0.00    -0.296 C  
HETATM   10  C   UNL     1     -12.170   9.069  71.902  1.00  0.00    -0.381 C  
HETATM   11  N   UNL     1     -13.374   9.887  71.993  1.00  0.00    -0.442 NA 
HETATM   12  C   UNL     1     -13.071  11.309  71.828  1.00  0.00    -0.422 C  
HETATM   13  H   UNL     1     -13.879   9.712  72.862  1.00  0.00     0.000 HD 
HETATM   14  C   UNL     1     -12.424  11.605  70.460  1.00  0.00    -0.344 C  
BRANCH  14  15
HETATM   15  C   UNL     1     -12.100  13.110  70.345  1.00  0.00    -0.317 C  
BRANCH  15  16
HETATM   16  O   UNL     1     -12.598  13.606  69.096  1.00  0.00    -0.041 OA 
BRANCH  16  17
HETATM   17  C   UNL     1     -11.858  14.553  68.440  1.00  0.00    -0.316 A  
HETATM   18  C   UNL     1     -11.536  15.819  68.935  1.00  0.00    -0.400 A  
HETATM   19  C   UNL     1     -10.715  16.623  68.168  1.00  0.00    -0.349 A  
HETATM   20  C   UNL     1     -10.234  16.224  66.945  1.00  0.00    -0.288 A  
HETATM   21  C   UNL     1     -10.554  14.993  66.413  1.00  0.00    -0.310 A  
HETATM   22  O   UNL     1      -9.437  17.160  66.368  1.00  0.00    -0.257 OA 
HETATM   23  C   UNL     1     -11.368  14.151  67.179  1.00  0.00    -0.348 A  
HETATM   24  C   UNL     1      -9.414  18.169  67.402  1.00  0.00    -0.255 C  
HETATM   25  O   UNL     1     -10.280  17.865  68.515  1.00  0.00    -0.363 OA 
ENDBRANCH  16  17
ENDBRANCH  15  16
ENDBRANCH  14  15
ENDBRANCH   5   8
TORSDOF 4
ENDMDL
MODEL       65
REMARK 921   NORMALIZED FREE ENERGY PREDICTED BY IDOCK:   -6.19 KCAL/MOL
REMARK 922        TOTAL FREE ENERGY PREDICTED BY IDOCK:   -8.42 KCAL/MOL
REMARK 923 INTER-LIGAND FREE ENERGY PREDICTED BY IDOCK:   -7.45 KCAL/MOL
REMARK 924 INTRA-LIGAND FREE ENERGY PREDICTED BY IDOCK:   -0.97 KCAL/MOL
REMARK 927      BINDING AFFINITY PREDICTED BY RF-SCORE:    0.00 PKD
ROOT
HETATM    1  F   UNL     1      -7.929   9.716  64.535  1.00  0.00    -0.118 F  
HETATM    2  C   UNL     1      -8.531   9.889  65.719  1.00  0.00    -0.135 A  
HETATM    3  C   UNL     1      -8.165  10.958  66.527  1.00  0.00    -0.157 A  
HETATM    4  C   UNL     1      -8.776  11.128  67.775  1.00  0.00    -0.132 A  
HETATM    5  C   UNL     1      -9.738  10.212  68.229  1.00  0.00    -0.154 A  
HETATM    6  C   UNL     1      -9.516   8.999  66.121  1.00  0.00    -0.318 A  
HETATM    7  C   UNL     1     -10.121   9.164  67.369  1.00  0.00    -0.289 A  
ENDROOT
BRANCH   5   8
HETATM    8  C   UNL     1     -10.408  10.322  69.594  1.00  0.00    -0.281 C  
HETATM    9  C   UNL     1     -10.259   8.986  70.346  1.00  0.00    -0.250 C  
HETATM   10  C   UNL     1     -10.866   9.065  71.742  1.00  0.00    -0.367 C  
HETATM   11  N   UNL     1     -12.270   9.450  71.676  1.00  0.00    -0.365 NA 
HETATM   12  C   UNL     1     -12.438  10.763  71.051  1.00  0.00    -0.420 C  
HETATM   13  H   UNL     1     -12.711   9.416  72.595  1.00  0.00     0.000 HD 
HETATM   14  C   UNL     1     -11.891  10.790  69.610  1.00  0.00    -0.392 C  
BRANCH  14  15
HETATM   15  C   UNL     1     -12.066  12.199  69.006  1.00  0.00    -0.153 C  
BRANCH  15  16
HETATM   16  O   UNL     1     -12.176  12.093  67.582  1.00  0.00    -0.462 OA 
BRANCH  16  17
HETATM   17  C   UNL     1     -11.947  13.216  66.833  1.00  0.00    -0.362 A  
HETATM   18  C   UNL     1     -11.378  14.402  67.302  1.00  0.00    -0.357 A  
HETATM   19  C   UNL     1     -11.149  15.414  66.389  1.00  0.00    -0.230 A  
HETATM   20  C   UNL     1     -11.481  15.292  65.062  1.00  0.00    -0.300 A  
HETATM   21  C   UNL     1     -12.070  14.147  64.570  1.00  0.00    -0.489 A  
HETATM   22  O   UNL     1     -11.159  16.397  64.341  1.00  0.00    -0.825 OA 
HETATM   23  C   UNL     1     -12.294  13.099  65.470  1.00  0.00    -0.529 A  
HETATM   24  C   UNL     1     -10.520  17.204  65.355  1.00  0.00    -0.080 C  
HETATM   25  O   UNL     1     -10.575  16.615  66.671  1.00  0.00    -0.286 OA 
ENDBRANCH  16  17
ENDBRANCH  15  16
ENDBRANCH  14  15
ENDBRANCH   5   8
TORSDOF 4
ENDMDL
MODEL       66
REMARK 921   NORMALIZED FREE ENERGY PREDICTED BY IDOCK:   -6.19 KCAL/MOL
REMARK 922        TOTAL FREE ENERGY PREDICTED BY IDOCK:   -8.42 KCAL/MOL
REMARK 923 INTER-LIGAND FREE ENERGY PREDICTED BY IDOCK:   -7.25 KCAL/MOL
REMARK 924 INTRA-LIGAND FREE ENERGY PREDICTED BY IDOCK:   -1.18 KCAL/MOL
REMARK 927      BINDING AFFINITY PREDICTED BY RF-SCORE:    0.00 PKD
ROOT
HETATM    1  F   UNL     1     -10.024   9.613  70.836  1.00  0.00    -0.320 F  
HETATM    2  C   UNL     1     -10.028   9.785  69.508  1.00  0.00    -0.214 A  
HETATM    3  C   UNL     1     -10.494   8.769  68.685  1.00  0.00    -0.213 A  
HETATM    4  C   UNL     1     -10.477   8.937  67.295  1.00  0.00    -0.348 A  
HETATM    5  C   UNL     1      -9.970  10.115  66.724  1.00  0.00    -0.266 A  
HETATM    6  C   UNL     1      -9.569  10.980  68.972  1.00  0.00    -0.136 A  
HETATM    7  C   UNL     1      -9.546  11.146  67.586  1.00  0.00    -0.180 A  
ENDROOT
BRANCH   5   8
HETATM    8  C   UNL     1      -9.889  10.338  65.218  1.00  0.00    -0.372 C  
HETATM    9  C   UNL     1      -8.463  10.020  64.730  1.00  0.00    -0.180 C  
HETATM   10  C   UNL     1      -8.347  10.176  63.219  1.00  0.00    -0.170 C  
HETATM   11  N   UNL     1      -8.731  11.520  62.805  1.00  0.00    -0.625 NA 
HETATM   12  C   UNL     1     -10.117  11.819  63.170  1.00  0.00    -0.354 C  
HETATM   13  H   UNL     1      -8.569  11.665  61.808  1.00  0.00     0.000 HD 
HETATM   14  C   UNL     1     -10.343  11.730  64.692  1.00  0.00    -0.336 C  
BRANCH  14  15
HETATM   15  C   UNL     1     -11.821  12.026  65.024  1.00  0.00    -0.228 C  
BRANCH  15  16
HETATM   16  O   UNL     1     -12.048  13.439  64.952  1.00  0.00    -0.356 OA 
BRANCH  16  17
HETATM   17  C   UNL     1     -11.710  14.201  66.039  1.00  0.00    -0.382 A  
HETATM   18  C   UNL     1     -12.023  13.902  67.368  1.00  0.00    -0.436 A  
HETATM   19  C   UNL     1     -11.538  14.744  68.350  1.00  0.00    -0.324 A  
HETATM   20  C   UNL     1     -10.789  15.858  68.055  1.00  0.00    -0.317 A  
HETATM   21  C   UNL     1     -10.486  16.198  66.755  1.00  0.00    -0.294 A  
HETATM   22  O   UNL     1     -10.405  16.536  69.168  1.00  0.00    -0.276 OA 
HETATM   23  C   UNL     1     -10.948  15.350  65.742  1.00  0.00    -0.311 A  
HETATM   24  C   UNL     1     -10.940  15.681  70.202  1.00  0.00    -0.339 C  
HETATM   25  O   UNL     1     -11.720  14.582  69.688  1.00  0.00    -0.271 OA 
ENDBRANCH  16  17
ENDBRANCH  15  16
ENDBRANCH  14  15
ENDBRANCH   5   8
TORSDOF 4
ENDMDL
MODEL       67
REMARK 921   NORMALIZED FREE ENERGY PREDICTED BY IDOCK:   -6.19 KCAL/MOL
REMARK 922        TOTAL FREE ENERGY PREDICTED BY IDOCK:   -8.42 KCAL/MOL
REMARK 923 INTER-LIGAND FREE ENERGY PREDICTED BY IDOCK:   -7.73 KCAL/MOL
REMARK 924 INTRA-LIGAND FREE ENERGY PREDICTED BY IDOCK:   -0.69 KCAL/MOL
REMARK 927      BINDING AFFINITY PREDICTED BY RF-SCORE:    0.00 PKD
ROOT
HETATM    1  F   UNL     1      -8.984   6.061  65.307  1.00  0.00    -0.150 F  
HETATM    2  C   UNL     1      -9.327   6.378  66.563  1.00  0.00    -0.155 A  
HETATM    3  C   UNL     1     -10.614   6.114  67.011  1.00  0.00    -0.384 A  
HETATM    4  C   UNL     1     -10.982   6.466  68.315  1.00  0.00    -0.396 A  
HETATM    5  C   UNL     1     -10.068   7.107  69.166  1.00  0.00    -0.183 A  
HETATM    6  C   UNL     1      -8.388   6.964  67.400  1.00  0.00    -0.122 A  
HETATM    7  C   UNL     1      -8.756   7.321  68.699  1.00  0.00    -0.127 A  
ENDROOT
BRANCH   5   8
HETATM    8  C   UNL     1     -10.423   7.550  70.581  1.00  0.00    -0.221 C  
HETATM    9  C   UNL     1     -10.988   6.352  71.366  1.00  0.00    -0.316 C  
HETATM   10  C   UNL     1     -11.308   6.732  72.807  1.00  0.00    -0.190 C  
HETATM   11  N   UNL     1     -12.244   7.849  72.852  1.00  0.00    -0.612 NA 
HETATM   12  C   UNL     1     -11.695   9.037  72.197  1.00  0.00    -0.296 C  
HETATM   13  H   UNL     1     -12.537   8.053  73.808  1.00  0.00     0.000 HD 
HETATM   14  C   UNL     1     -11.369   8.778  70.713  1.00  0.00    -0.313 C  
BRANCH  14  15
HETATM   15  C   UNL     1     -10.770  10.049  70.075  1.00  0.00    -0.299 C  
BRANCH  15  16
HETATM   16  O   UNL     1     -11.814  10.798  69.442  1.00  0.00    -0.294 OA 
BRANCH  16  17
HETATM   17  C   UNL     1     -12.146  12.016  69.975  1.00  0.00    -0.280 A  
HETATM   18  C   UNL     1     -12.885  12.216  71.144  1.00  0.00    -0.313 A  
HETATM   19  C   UNL     1     -13.064  13.515  71.580  1.00  0.00    -0.344 A  
HETATM   20  C   UNL     1     -12.562  14.594  70.893  1.00  0.00    -0.342 A  
HETATM   21  C   UNL     1     -11.853  14.435  69.722  1.00  0.00    -0.375 A  
HETATM   22  O   UNL     1     -12.843  15.775  71.503  1.00  0.00    -0.456 OA 
HETATM   23  C   UNL     1     -11.639  13.127  69.269  1.00  0.00    -0.370 A  
HETATM   24  C   UNL     1     -13.520  15.310  72.691  1.00  0.00    -0.507 C  
HETATM   25  O   UNL     1     -13.726  13.883  72.710  1.00  0.00    -0.686 OA 
ENDBRANCH  16  17
ENDBRANCH  15  16
ENDBRANCH  14  15
ENDBRANCH   5   8
TORSDOF 4
ENDMDL
MODEL       68
REMARK 921   NORMALIZED FREE ENERGY PREDICTED BY IDOCK:   -6.16 KCAL/MOL
REMARK 922        TOTAL FREE ENERGY PREDICTED BY IDOCK:   -8.39 KCAL/MOL
REMARK 923 INTER-LIGAND FREE ENERGY PREDICTED BY IDOCK:   -7.39 KCAL/MOL
REMARK 924 INTRA-LIGAND FREE ENERGY PREDICTED BY IDOCK:   -1.00 KCAL/MOL
REMARK 927      BINDING AFFINITY PREDICTED BY RF-SCORE:    0.00 PKD
ROOT
HETATM    1  F   UNL     1      -8.065   9.331  69.209  1.00  0.00    -0.093 F  
HETATM    2  C   UNL     1      -8.917  10.040  68.457  1.00  0.00    -0.124 A  
HETATM    3  C   UNL     1     -10.281   9.796  68.548  1.00  0.00    -0.209 A  
HETATM    4  C   UNL     1     -11.172  10.519  67.746  1.00  0.00    -0.344 A  
HETATM    5  C   UNL     1     -10.697  11.474  66.833  1.00  0.00    -0.304 A  
HETATM    6  C   UNL     1      -8.425  11.014  67.600  1.00  0.00    -0.121 A  
HETATM    7  C   UNL     1      -9.312  11.731  66.795  1.00  0.00    -0.199 A  
ENDROOT
BRANCH   5   8
HETATM    8  C   UNL     1     -11.615  12.263  65.906  1.00  0.00    -0.450 C  
HETATM    9  C   UNL     1     -11.467  11.733  64.468  1.00  0.00    -0.322 C  
HETATM   10  C   UNL     1     -12.409  12.456  63.511  1.00  0.00    -0.546 C  
HETATM   11  N   UNL     1     -12.175  13.895  63.543  1.00  0.00    -1.050 NA 
HETATM   12  C   UNL     1     -12.402  14.446  64.880  1.00  0.00    -0.405 C  
HETATM   13  H   UNL     1     -12.734  14.379  62.840  1.00  0.00     0.000 HD 
HETATM   14  C   UNL     1     -11.469  13.811  65.930  1.00  0.00    -0.330 C  
BRANCH  14  15
HETATM   15  C   UNL     1     -11.765  14.405  67.324  1.00  0.00    -0.404 C  
BRANCH  15  16
HETATM   16  O   UNL     1     -11.488  15.810  67.308  1.00  0.00    -0.149 OA 
BRANCH  16  17
HETATM   17  C   UNL     1     -10.178  16.208  67.335  1.00  0.00    -0.272 A  
HETATM   18  C   UNL     1      -9.510  16.873  66.304  1.00  0.00    -0.298 A  
HETATM   19  C   UNL     1      -8.205  17.269  66.530  1.00  0.00    -0.276 A  
HETATM   20  C   UNL     1      -7.555  17.009  67.712  1.00  0.00    -0.170 A  
HETATM   21  C   UNL     1      -8.174  16.330  68.739  1.00  0.00    -0.227 A  
HETATM   22  O   UNL     1      -6.287  17.496  67.726  1.00  0.00    -0.149 OA 
HETATM   23  C   UNL     1      -9.503  15.937  68.544  1.00  0.00    -0.209 A  
HETATM   24  C   UNL     1      -6.237  18.154  66.441  1.00  0.00    -0.191 C  
HETATM   25  O   UNL     1      -7.425  17.952  65.649  1.00  0.00    -0.544 OA 
ENDBRANCH  16  17
ENDBRANCH  15  16
ENDBRANCH  14  15
ENDBRANCH   5   8
TORSDOF 4
ENDMDL
MODEL       69
REMARK 921   NORMALIZED FREE ENERGY PREDICTED BY IDOCK:   -6.16 KCAL/MOL
REMARK 922        TOTAL FREE ENERGY PREDICTED BY IDOCK:   -8.38 KCAL/MOL
REMARK 923 INTER-LIGAND FREE ENERGY PREDICTED BY IDOCK:   -7.29 KCAL/MOL
REMARK 924 INTRA-LIGAND FREE ENERGY PREDICTED BY IDOCK:   -1.09 KCAL/MOL
REMARK 927      BINDING AFFINITY PREDICTED BY RF-SCORE:    0.00 PKD
ROOT
HETATM    1  F   UNL     1     -12.700   6.175  71.994  1.00  0.00    -0.366 F  
HETATM    2  C   UNL     1     -12.587   7.495  71.798  1.00  0.00    -0.334 A  
HETATM    3  C   UNL     1     -11.330   8.084  71.788  1.00  0.00    -0.318 A  
HETATM    4  C   UNL     1     -11.211   9.467  71.606  1.00  0.00    -0.431 A  
HETATM    5  C   UNL     1     -12.354  10.268  71.459  1.00  0.00    -0.488 A  
HETATM    6  C   UNL     1     -13.730   8.256  71.602  1.00  0.00    -0.404 A  
HETATM    7  C   UNL     1     -13.613   9.637  71.428  1.00  0.00    -0.343 A  
ENDROOT
BRANCH   5   8
HETATM    8  C   UNL     1     -12.289  11.783  71.298  1.00  0.00    -0.250 C  
HETATM    9  C   UNL     1     -13.355  12.438  72.197  1.00  0.00    -0.508 C  
HETATM   10  C   UNL     1     -13.293  13.959  72.112  1.00  0.00    -0.463 C  
HETATM   11  N   UNL     1     -13.451  14.409  70.734  1.00  0.00    -0.420 NA 
HETATM   12  C   UNL     1     -12.394  13.879  69.872  1.00  0.00    -0.300 C  
HETATM   13  H   UNL     1     -13.504  15.426  70.677  1.00  0.00     0.000 HD 
HETATM   14  C   UNL     1     -12.388  12.338  69.849  1.00  0.00    -0.121 C  
BRANCH  14  15
HETATM   15  C   UNL     1     -11.242  11.829  68.949  1.00  0.00    -0.253 C  
BRANCH  15  16
HETATM   16  O   UNL     1     -11.764  10.886  68.006  1.00  0.00    -0.540 OA 
BRANCH  16  17
HETATM   17  C   UNL     1     -10.883  10.042  67.384  1.00  0.00    -0.249 A  
HETATM   18  C   UNL     1     -10.203  10.312  66.194  1.00  0.00    -0.285 A  
HETATM   19  C   UNL     1      -9.290   9.376  65.745  1.00  0.00    -0.239 A  
HETATM   20  C   UNL     1      -9.057   8.200  66.417  1.00  0.00    -0.183 A  
HETATM   21  C   UNL     1      -9.730   7.889  67.578  1.00  0.00    -0.204 A  
HETATM   22  O   UNL     1      -8.114   7.433  65.809  1.00  0.00    -0.114 OA 
HETATM   23  C   UNL     1     -10.645   8.830  68.065  1.00  0.00    -0.218 A  
HETATM   24  C   UNL     1      -7.730   8.293  64.715  1.00  0.00    -0.114 C  
HETATM   25  O   UNL     1      -8.523   9.495  64.628  1.00  0.00    -0.144 OA 
ENDBRANCH  16  17
ENDBRANCH  15  16
ENDBRANCH  14  15
ENDBRANCH   5   8
TORSDOF 4
ENDMDL
MODEL       70
REMARK 921   NORMALIZED FREE ENERGY PREDICTED BY IDOCK:   -6.14 KCAL/MOL
REMARK 922        TOTAL FREE ENERGY PREDICTED BY IDOCK:   -8.36 KCAL/MOL
REMARK 923 INTER-LIGAND FREE ENERGY PREDICTED BY IDOCK:   -7.24 KCAL/MOL
REMARK 924 INTRA-LIGAND FREE ENERGY PREDICTED BY IDOCK:   -1.12 KCAL/MOL
REMARK 927      BINDING AFFINITY PREDICTED BY RF-SCORE:    0.00 PKD
ROOT
HETATM    1  F   UNL     1     -12.819  12.035  71.666  1.00  0.00    -0.458 F  
HETATM    2  C   UNL     1     -12.258  11.260  70.729  1.00  0.00    -0.380 A  
HETATM    3  C   UNL     1     -11.746  10.018  71.080  1.00  0.00    -0.479 A  
HETATM    4  C   UNL     1     -11.138   9.216  70.106  1.00  0.00    -0.248 A  
HETATM    5  C   UNL     1     -11.020   9.667  68.782  1.00  0.00    -0.153 A  
HETATM    6  C   UNL     1     -12.200  11.708  69.417  1.00  0.00    -0.246 A  
HETATM    7  C   UNL     1     -11.589  10.912  68.447  1.00  0.00    -0.346 A  
ENDROOT
BRANCH   5   8
HETATM    8  C   UNL     1     -10.333   8.856  67.689  1.00  0.00    -0.313 C  
HETATM    9  C   UNL     1     -10.605   7.357  67.917  1.00  0.00    -0.255 C  
HETATM   10  C   UNL     1      -9.984   6.507  66.815  1.00  0.00    -0.166 C  
HETATM   11  N   UNL     1      -8.549   6.748  66.721  1.00  0.00    -0.116 NA 
HETATM   12  C   UNL     1      -8.259   8.149  66.409  1.00  0.00    -0.108 C  
HETATM   13  H   UNL     1      -8.107   6.118  66.052  1.00  0.00     0.000 HD 
HETATM   14  C   UNL     1      -8.811   9.105  67.485  1.00  0.00    -0.124 C  
BRANCH  14  15
HETATM   15  C   UNL     1      -8.505  10.567  67.098  1.00  0.00    -0.127 C  
BRANCH  15  16
HETATM   16  O   UNL     1      -8.637  10.718  65.679  1.00  0.00    -0.178 OA 
BRANCH  16  17
HETATM   17  C   UNL     1      -9.626  11.542  65.209  1.00  0.00    -0.218 A  
HETATM   18  C   UNL     1      -9.887  12.836  65.665  1.00  0.00    -0.190 A  
HETATM   19  C   UNL     1     -10.877  13.558  65.025  1.00  0.00    -0.340 A  
HETATM   20  C   UNL     1     -11.610  13.035  63.987  1.00  0.00    -0.430 A  
HETATM   21  C   UNL     1     -11.398  11.752  63.531  1.00  0.00    -0.496 A  
HETATM   22  O   UNL     1     -12.520  13.917  63.497  1.00  0.00    -0.810 OA 
HETATM   23  C   UNL     1     -10.386  11.007  64.149  1.00  0.00    -0.434 A  
HETATM   24  C   UNL     1     -12.228  15.081  64.301  1.00  0.00    -0.293 C  
HETATM   25  O   UNL     1     -11.236  14.837  65.320  1.00  0.00    -0.336 OA 
ENDBRANCH  16  17
ENDBRANCH  15  16
ENDBRANCH  14  15
ENDBRANCH   5   8
TORSDOF 4
ENDMDL
MODEL       71
REMARK 921   NORMALIZED FREE ENERGY PREDICTED BY IDOCK:   -6.14 KCAL/MOL
REMARK 922        TOTAL FREE ENERGY PREDICTED BY IDOCK:   -8.36 KCAL/MOL
REMARK 923 INTER-LIGAND FREE ENERGY PREDICTED BY IDOCK:   -7.46 KCAL/MOL
REMARK 924 INTRA-LIGAND FREE ENERGY PREDICTED BY IDOCK:   -0.90 KCAL/MOL
REMARK 927      BINDING AFFINITY PREDICTED BY RF-SCORE:    0.00 PKD
ROOT
HETATM    1  F   UNL     1     -13.671  10.909  72.326  1.00  0.00    -0.420 F  
HETATM    2  C   UNL     1     -13.113   9.778  71.874  1.00  0.00    -0.446 A  
HETATM    3  C   UNL     1     -13.856   8.605  71.856  1.00  0.00    -0.481 A  
HETATM    4  C   UNL     1     -13.268   7.417  71.405  1.00  0.00    -0.395 A  
HETATM    5  C   UNL     1     -11.925   7.396  70.995  1.00  0.00    -0.337 A  
HETATM    6  C   UNL     1     -11.801   9.796  71.426  1.00  0.00    -0.488 A  
HETATM    7  C   UNL     1     -11.211   8.610  70.983  1.00  0.00    -0.321 A  
ENDROOT
BRANCH   5   8
HETATM    8  C   UNL     1     -11.220   6.125  70.534  1.00  0.00    -0.403 C  
HETATM    9  C   UNL     1     -10.537   5.453  71.739  1.00  0.00    -0.286 C  
HETATM   10  C   UNL     1      -9.863   4.146  71.337  1.00  0.00    -0.184 C  
HETATM   11  N   UNL     1      -8.894   4.370  70.271  1.00  0.00    -0.077 NA 
HETATM   12  C   UNL     1      -9.530   4.920  69.074  1.00  0.00    -0.144 C  
HETATM   13  H   UNL     1      -8.370   3.520  70.058  1.00  0.00     0.000 HD 
HETATM   14  C   UNL     1     -10.215   6.272  69.355  1.00  0.00    -0.238 C  
BRANCH  14  15
HETATM   15  C   UNL     1     -10.893   6.797  68.071  1.00  0.00    -0.235 C  
BRANCH  15  16
HETATM   16  O   UNL     1      -9.944   7.555  67.312  1.00  0.00    -0.172 OA 
BRANCH  16  17
HETATM   17  C   UNL     1     -10.283   8.831  66.948  1.00  0.00    -0.287 A  
HETATM   18  C   UNL     1     -11.046   9.717  67.712  1.00  0.00    -0.142 A  
HETATM   19  C   UNL     1     -11.231  10.997  67.224  1.00  0.00    -0.258 A  
HETATM   20  C   UNL     1     -10.710  11.403  66.019  1.00  0.00    -0.263 A  
HETATM   21  C   UNL     1      -9.976  10.547  65.227  1.00  0.00    -0.364 A  
HETATM   22  O   UNL     1     -11.000  12.700  65.738  1.00  0.00    -0.270 OA 
HETATM   23  C   UNL     1      -9.757   9.251  65.708  1.00  0.00    -0.339 A  
HETATM   24  C   UNL     1     -11.705  13.085  66.939  1.00  0.00    -0.383 C  
HETATM   25  O   UNL     1     -11.916  11.989  67.853  1.00  0.00    -0.526 OA 
ENDBRANCH  16  17
ENDBRANCH  15  16
ENDBRANCH  14  15
ENDBRANCH   5   8
TORSDOF 4
ENDMDL
MODEL       72
REMARK 921   NORMALIZED FREE ENERGY PREDICTED BY IDOCK:   -6.14 KCAL/MOL
REMARK 922        TOTAL FREE ENERGY PREDICTED BY IDOCK:   -8.36 KCAL/MOL
REMARK 923 INTER-LIGAND FREE ENERGY PREDICTED BY IDOCK:   -7.51 KCAL/MOL
REMARK 924 INTRA-LIGAND FREE ENERGY PREDICTED BY IDOCK:   -0.84 KCAL/MOL
REMARK 927      BINDING AFFINITY PREDICTED BY RF-SCORE:    0.00 PKD
ROOT
HETATM    1  F   UNL     1      -8.237  16.438  66.781  1.00  0.00    -0.188 F  
HETATM    2  C   UNL     1      -9.166  16.174  67.710  1.00  0.00    -0.202 A  
HETATM    3  C   UNL     1      -8.776  15.714  68.961  1.00  0.00    -0.240 A  
HETATM    4  C   UNL     1      -9.746  15.416  69.925  1.00  0.00    -0.154 A  
HETATM    5  C   UNL     1     -11.111  15.554  69.630  1.00  0.00    -0.280 A  
HETATM    6  C   UNL     1     -10.506  16.369  67.410  1.00  0.00    -0.309 A  
HETATM    7  C   UNL     1     -11.474  16.065  68.369  1.00  0.00    -0.331 A  
ENDROOT
BRANCH   5   8
HETATM    8  C   UNL     1     -12.213  15.207  70.625  1.00  0.00    -0.401 C  
HETATM    9  C   UNL     1     -12.132  16.161  71.832  1.00  0.00    -0.548 C  
HETATM   10  C   UNL     1     -13.250  15.888  72.831  1.00  0.00    -0.527 C  
HETATM   11  N   UNL     1     -13.215  14.502  73.283  1.00  0.00    -0.596 NA 
HETATM   12  C   UNL     1     -13.386  13.569  72.168  1.00  0.00    -0.500 C  
HETATM   13  H   UNL     1     -13.899  14.332  74.020  1.00  0.00     0.000 HD 
HETATM   14  C   UNL     1     -12.279  13.729  71.107  1.00  0.00    -0.362 C  
BRANCH  14  15
HETATM   15  C   UNL     1     -12.519  12.745  69.943  1.00  0.00     0.050 C  
BRANCH  15  16
HETATM   16  O   UNL     1     -11.490  11.748  69.947  1.00  0.00    -0.272 OA 
BRANCH  16  17
HETATM   17  C   UNL     1     -11.780  10.526  70.494  1.00  0.00    -0.350 A  
HETATM   18  C   UNL     1     -13.053  10.081  70.857  1.00  0.00    -0.381 A  
HETATM   19  C   UNL     1     -13.176   8.787  71.326  1.00  0.00    -0.164 A  
HETATM   20  C   UNL     1     -12.094   7.952  71.461  1.00  0.00    -0.306 A  
HETATM   21  C   UNL     1     -10.820   8.367  71.139  1.00  0.00    -0.286 A  
HETATM   22  O   UNL     1     -12.440   6.723  71.926  1.00  0.00    -0.346 OA 
HETATM   23  C   UNL     1     -10.671   9.667  70.642  1.00  0.00    -0.388 A  
HETATM   24  C   UNL     1     -13.876   6.859  72.002  1.00  0.00    -0.006 C  
HETATM   25  O   UNL     1     -14.341   8.188  71.691  1.00  0.00    -0.426 OA 
ENDBRANCH  16  17
ENDBRANCH  15  16
ENDBRANCH  14  15
ENDBRANCH   5   8
TORSDOF 4
ENDMDL
MODEL       73
REMARK 921   NORMALIZED FREE ENERGY PREDICTED BY IDOCK:   -6.13 KCAL/MOL
REMARK 922        TOTAL FREE ENERGY PREDICTED BY IDOCK:   -8.34 KCAL/MOL
REMARK 923 INTER-LIGAND FREE ENERGY PREDICTED BY IDOCK:   -7.63 KCAL/MOL
REMARK 924 INTRA-LIGAND FREE ENERGY PREDICTED BY IDOCK:   -0.71 KCAL/MOL
REMARK 927      BINDING AFFINITY PREDICTED BY RF-SCORE:    0.00 PKD
ROOT
HETATM    1  F   UNL     1     -11.395   5.752  70.685  1.00  0.00    -0.355 F  
HETATM    2  C   UNL     1     -11.068   6.668  69.764  1.00  0.00    -0.342 A  
HETATM    3  C   UNL     1     -11.146   6.345  68.416  1.00  0.00    -0.374 A  
HETATM    4  C   UNL     1     -10.783   7.294  67.453  1.00  0.00    -0.358 A  
HETATM    5  C   UNL     1     -10.317   8.561  67.838  1.00  0.00    -0.281 A  
HETATM    6  C   UNL     1     -10.661   7.930  70.171  1.00  0.00    -0.237 A  
HETATM    7  C   UNL     1     -10.292   8.874  69.211  1.00  0.00    -0.221 A  
ENDROOT
BRANCH   5   8
HETATM    8  C   UNL     1      -9.869   9.619  66.836  1.00  0.00    -0.257 C  
HETATM    9  C   UNL     1      -8.434   9.309  66.371  1.00  0.00    -0.128 C  
HETATM   10  C   UNL     1      -7.961  10.311  65.325  1.00  0.00    -0.148 C  
HETATM   11  N   UNL     1      -8.039  11.673  65.838  1.00  0.00    -0.351 NA 
HETATM   12  C   UNL     1      -9.411  12.032  66.200  1.00  0.00    -0.232 C  
HETATM   13  H   UNL     1      -7.639  12.344  65.182  1.00  0.00     0.000 HD 
HETATM   14  C   UNL     1      -9.982  11.103  67.288  1.00  0.00    -0.211 C  
BRANCH  14  15
HETATM   15  C   UNL     1     -11.437  11.505  67.615  1.00  0.00    -0.285 C  
BRANCH  15  16
HETATM   16  O   UNL     1     -11.473  12.889  67.982  1.00  0.00    -0.277 OA 
BRANCH  16  17
HETATM   17  C   UNL     1     -11.944  13.212  69.227  1.00  0.00    -0.292 A  
HETATM   18  C   UNL     1     -12.078  14.508  69.732  1.00  0.00    -0.380 A  
HETATM   19  C   UNL     1     -12.642  14.656  70.985  1.00  0.00    -0.329 A  
HETATM   20  C   UNL     1     -13.046  13.581  71.739  1.00  0.00    -0.387 A  
HETATM   21  C   UNL     1     -12.902  12.288  71.283  1.00  0.00    -0.337 A  
HETATM   22  O   UNL     1     -13.584  13.953  72.930  1.00  0.00    -0.680 OA 
HETATM   23  C   UNL     1     -12.352  12.111  70.008  1.00  0.00    -0.167 A  
HETATM   24  C   UNL     1     -13.536  15.391  72.809  1.00  0.00    -0.538 C  
HETATM   25  O   UNL     1     -12.875  15.842  71.610  1.00  0.00    -0.465 OA 
ENDBRANCH  16  17
ENDBRANCH  15  16
ENDBRANCH  14  15
ENDBRANCH   5   8
TORSDOF 4
ENDMDL
MODEL       74
REMARK 921   NORMALIZED FREE ENERGY PREDICTED BY IDOCK:   -6.08 KCAL/MOL
REMARK 922        TOTAL FREE ENERGY PREDICTED BY IDOCK:   -8.28 KCAL/MOL
REMARK 923 INTER-LIGAND FREE ENERGY PREDICTED BY IDOCK:   -6.91 KCAL/MOL
REMARK 924 INTRA-LIGAND FREE ENERGY PREDICTED BY IDOCK:   -1.37 KCAL/MOL
REMARK 927      BINDING AFFINITY PREDICTED BY RF-SCORE:    0.00 PKD
ROOT
HETATM    1  F   UNL     1      -8.590   9.812  65.528  1.00  0.00    -0.128 F  
HETATM    2  C   UNL     1      -9.101   9.754  66.765  1.00  0.00    -0.146 A  
HETATM    3  C   UNL     1      -8.536  10.517  67.778  1.00  0.00    -0.118 A  
HETATM    4  C   UNL     1      -9.054  10.441  69.077  1.00  0.00    -0.193 A  
HETATM    5  C   UNL     1     -10.124   9.581  69.370  1.00  0.00    -0.206 A  
HETATM    6  C   UNL     1     -10.192   8.935  67.016  1.00  0.00    -0.345 A  
HETATM    7  C   UNL     1     -10.705   8.854  68.312  1.00  0.00    -0.135 A  
ENDROOT
BRANCH   5   8
HETATM    8  C   UNL     1     -10.703   9.426  70.772  1.00  0.00    -0.373 C  
HETATM    9  C   UNL     1     -10.088   8.184  71.444  1.00  0.00    -0.248 C  
HETATM   10  C   UNL     1     -10.596   8.018  72.871  1.00  0.00    -0.329 C  
HETATM   11  N   UNL     1     -12.052   7.935  72.898  1.00  0.00    -0.615 NA 
HETATM   12  C   UNL     1     -12.668   9.145  72.352  1.00  0.00    -0.340 C  
HETATM   13  H   UNL     1     -12.397   7.731  73.835  1.00  0.00     0.000 HD 
HETATM   14  C   UNL     1     -12.253   9.393  70.888  1.00  0.00    -0.297 C  
BRANCH  14  15
HETATM   15  C   UNL     1     -12.906  10.691  70.368  1.00  0.00    -0.207 C  
BRANCH  15  16
HETATM   16  O   UNL     1     -12.186  11.820  70.877  1.00  0.00    -0.362 OA 
BRANCH  16  17
HETATM   17  C   UNL     1     -11.974  12.881  70.037  1.00  0.00    -0.309 A  
HETATM   18  C   UNL     1     -11.729  14.196  70.438  1.00  0.00    -0.312 A  
HETATM   19  C   UNL     1     -11.462  15.131  69.456  1.00  0.00    -0.296 A  
HETATM   20  C   UNL     1     -11.453  14.808  68.120  1.00  0.00    -0.323 A  
HETATM   21  C   UNL     1     -11.719  13.526  67.688  1.00  0.00    -0.398 A  
HETATM   22  O   UNL     1     -11.156  15.872  67.330  1.00  0.00    -0.281 OA 
HETATM   23  C   UNL     1     -11.972  12.556  68.665  1.00  0.00    -0.268 A  
HETATM   24  C   UNL     1     -10.910  16.888  68.327  1.00  0.00    -0.357 C  
HETATM   25  O   UNL     1     -11.172  16.442  69.673  1.00  0.00    -0.323 OA 
ENDBRANCH  16  17
ENDBRANCH  15  16
ENDBRANCH  14  15
ENDBRANCH   5   8
TORSDOF 4
ENDMDL
MODEL       75
REMARK 921   NORMALIZED FREE ENERGY PREDICTED BY IDOCK:   -6.07 KCAL/MOL
REMARK 922        TOTAL FREE ENERGY PREDICTED BY IDOCK:   -8.27 KCAL/MOL
REMARK 923 INTER-LIGAND FREE ENERGY PREDICTED BY IDOCK:   -6.53 KCAL/MOL
REMARK 924 INTRA-LIGAND FREE ENERGY PREDICTED BY IDOCK:   -1.74 KCAL/MOL
REMARK 927      BINDING AFFINITY PREDICTED BY RF-SCORE:    0.00 PKD
ROOT
HETATM    1  F   UNL     1     -10.736  10.007  71.108  1.00  0.00    -0.376 F  
HETATM    2  C   UNL     1     -10.715  10.537  69.877  1.00  0.00    -0.247 A  
HETATM    3  C   UNL     1     -11.903  10.691  69.176  1.00  0.00    -0.287 A  
HETATM    4  C   UNL     1     -11.882  11.223  67.881  1.00  0.00    -0.209 A  
HETATM    5  C   UNL     1     -10.667  11.580  67.275  1.00  0.00    -0.286 A  
HETATM    6  C   UNL     1      -9.506  10.929  69.323  1.00  0.00    -0.048 A  
HETATM    7  C   UNL     1      -9.483  11.454  68.029  1.00  0.00    -0.181 A  
ENDROOT
BRANCH   5   8
HETATM    8  C   UNL     1     -10.578  12.125  65.855  1.00  0.00    -0.293 C  
HETATM    9  C   UNL     1     -11.835  12.961  65.548  1.00  0.00    -0.455 C  
HETATM   10  C   UNL     1     -11.766  13.575  64.155  1.00  0.00    -0.411 C  
HETATM   11  N   UNL     1     -11.590  12.541  63.141  1.00  0.00    -0.744 NA 
HETATM   12  C   UNL     1     -10.351  11.790  63.350  1.00  0.00    -0.439 C  
HETATM   13  H   UNL     1     -11.636  12.930  62.199  1.00  0.00     0.000 HD 
HETATM   14  C   UNL     1     -10.327  11.089  64.722  1.00  0.00    -0.389 C  
BRANCH  14  15
HETATM   15  C   UNL     1      -8.993  10.334  64.905  1.00  0.00    -0.201 C  
BRANCH  15  16
HETATM   16  O   UNL     1      -9.253   8.928  64.983  1.00  0.00    -0.130 OA 
BRANCH  16  17
HETATM   17  C   UNL     1      -9.336   8.356  66.225  1.00  0.00    -0.219 A  
HETATM   18  C   UNL     1     -10.488   7.805  66.789  1.00  0.00    -0.318 A  
HETATM   19  C   UNL     1     -10.376   7.201  68.027  1.00  0.00    -0.194 A  
HETATM   20  C   UNL     1      -9.185   7.150  68.711  1.00  0.00    -0.136 A  
HETATM   21  C   UNL     1      -8.035   7.708  68.197  1.00  0.00    -0.123 A  
HETATM   22  O   UNL     1      -9.296   6.500  69.899  1.00  0.00    -0.151 OA 
HETATM   23  C   UNL     1      -8.118   8.308  66.935  1.00  0.00    -0.103 A  
HETATM   24  C   UNL     1     -10.679   6.087  69.852  1.00  0.00    -0.325 C  
HETATM   25  O   UNL     1     -11.387   6.589  68.701  1.00  0.00    -0.265 OA 
ENDBRANCH  16  17
ENDBRANCH  15  16
ENDBRANCH  14  15
ENDBRANCH   5   8
TORSDOF 4
ENDMDL
MODEL       76
REMARK 921   NORMALIZED FREE ENERGY PREDICTED BY IDOCK:   -6.02 KCAL/MOL
REMARK 922        TOTAL FREE ENERGY PREDICTED BY IDOCK:   -8.21 KCAL/MOL
REMARK 923 INTER-LIGAND FREE ENERGY PREDICTED BY IDOCK:   -7.50 KCAL/MOL
REMARK 924 INTRA-LIGAND FREE ENERGY PREDICTED BY IDOCK:   -0.72 KCAL/MOL
REMARK 927      BINDING AFFINITY PREDICTED BY RF-SCORE:    0.00 PKD
ROOT
HETATM    1  F   UNL     1      -8.435  15.938  66.718  1.00  0.00    -0.196 F  
HETATM    2  C   UNL     1      -9.428  15.489  67.497  1.00  0.00    -0.208 A  
HETATM    3  C   UNL     1     -10.670  15.218  66.939  1.00  0.00    -0.313 A  
HETATM    4  C   UNL     1     -11.716  14.771  67.755  1.00  0.00    -0.368 A  
HETATM    5  C   UNL     1     -11.527  14.617  69.137  1.00  0.00    -0.320 A  
HETATM    6  C   UNL     1      -9.199  15.296  68.851  1.00  0.00    -0.211 A  
HETATM    7  C   UNL     1     -10.244  14.856  69.667  1.00  0.00    -0.112 A  
ENDROOT
BRANCH   5   8
HETATM    8  C   UNL     1     -12.639  14.172  70.081  1.00  0.00    -0.325 C  
HETATM    9  C   UNL     1     -13.154  15.388  70.873  1.00  0.00    -0.528 C  
HETATM   10  C   UNL     1     -14.307  15.003  71.793  1.00  0.00    -0.580 C  
HETATM   11  N   UNL     1     -13.908  13.940  72.708  1.00  0.00    -0.688 NA 
HETATM   12  C   UNL     1     -13.502  12.734  71.985  1.00  0.00    -0.444 C  
HETATM   13  H   UNL     1     -14.640  13.739  73.389  1.00  0.00     0.000 HD 
HETATM   14  C   UNL     1     -12.308  12.998  71.047  1.00  0.00    -0.335 C  
BRANCH  14  15
HETATM   15  C   UNL     1     -11.937  11.705  70.290  1.00  0.00    -0.358 C  
BRANCH  15  16
HETATM   16  O   UNL     1     -12.181  10.575  71.135  1.00  0.00    -0.346 OA 
BRANCH  16  17
HETATM   17  C   UNL     1     -11.393   9.467  70.973  1.00  0.00    -0.352 A  
HETATM   18  C   UNL     1     -11.676   8.191  71.465  1.00  0.00    -0.325 A  
HETATM   19  C   UNL     1     -10.805   7.167  71.143  1.00  0.00    -0.239 A  
HETATM   20  C   UNL     1      -9.679   7.375  70.384  1.00  0.00    -0.175 A  
HETATM   21  C   UNL     1      -9.354   8.627  69.906  1.00  0.00    -0.160 A  
HETATM   22  O   UNL     1      -8.972   6.234  70.177  1.00  0.00    -0.147 OA 
HETATM   23  C   UNL     1     -10.231   9.677  70.201  1.00  0.00    -0.313 A  
HETATM   24  C   UNL     1      -9.822   5.268  70.835  1.00  0.00    -0.194 C  
HETATM   25  O   UNL     1     -10.948   5.865  71.511  1.00  0.00    -0.259 OA 
ENDBRANCH  16  17
ENDBRANCH  15  16
ENDBRANCH  14  15
ENDBRANCH   5   8
TORSDOF 4
ENDMDL
MODEL       77
REMARK 921   NORMALIZED FREE ENERGY PREDICTED BY IDOCK:   -6.01 KCAL/MOL
REMARK 922        TOTAL FREE ENERGY PREDICTED BY IDOCK:   -8.19 KCAL/MOL
REMARK 923 INTER-LIGAND FREE ENERGY PREDICTED BY IDOCK:   -7.95 KCAL/MOL
REMARK 924 INTRA-LIGAND FREE ENERGY PREDICTED BY IDOCK:   -0.24 KCAL/MOL
REMARK 927      BINDING AFFINITY PREDICTED BY RF-SCORE:    0.00 PKD
ROOT
HETATM    1  F   UNL     1     -10.026  21.161  67.246  1.00  0.00    -0.594 F  
HETATM    2  C   UNL     1      -9.746  19.853  67.327  1.00  0.00    -0.387 A  
HETATM    3  C   UNL     1     -10.318  18.971  66.421  1.00  0.00    -0.520 A  
HETATM    4  C   UNL     1     -10.045  17.601  66.518  1.00  0.00    -0.350 A  
HETATM    5  C   UNL     1      -9.217  17.108  67.539  1.00  0.00    -0.233 A  
HETATM    6  C   UNL     1      -8.883  19.399  68.314  1.00  0.00    -0.382 A  
HETATM    7  C   UNL     1      -8.615  18.033  68.415  1.00  0.00    -0.298 A  
ENDROOT
BRANCH   5   8
HETATM    8  C   UNL     1      -8.916  15.624  67.718  1.00  0.00    -0.176 C  
HETATM    9  C   UNL     1      -7.421  15.369  67.449  1.00  0.00    -0.239 C  
HETATM   10  C   UNL     1      -7.060  13.905  67.670  1.00  0.00    -0.177 C  
HETATM   11  N   UNL     1      -7.877  13.037  66.831  1.00  0.00    -0.401 NA 
HETATM   12  C   UNL     1      -9.302  13.186  67.131  1.00  0.00    -0.235 C  
HETATM   13  H   UNL     1      -7.581  12.063  66.901  1.00  0.00     0.000 HD 
HETATM   14  C   UNL     1      -9.790  14.630  66.902  1.00  0.00    -0.252 C  
BRANCH  14  15
HETATM   15  C   UNL     1     -11.289  14.742  67.257  1.00  0.00    -0.357 C  
BRANCH  15  16
HETATM   16  O   UNL     1     -11.421  15.116  68.633  1.00  0.00    -0.292 OA 
BRANCH  16  17
HETATM   17  C   UNL     1     -11.880  14.174  69.515  1.00  0.00    -0.322 A  
HETATM   18  C   UNL     1     -11.646  12.799  69.429  1.00  0.00    -0.361 A  
HETATM   19  C   UNL     1     -12.122  11.998  70.449  1.00  0.00    -0.321 A  
HETATM   20  C   UNL     1     -12.825  12.508  71.513  1.00  0.00    -0.265 A  
HETATM   21  C   UNL     1     -13.099  13.854  71.616  1.00  0.00    -0.446 A  
HETATM   22  O   UNL     1     -13.187  11.549  72.405  1.00  0.00    -0.268 OA 
HETATM   23  C   UNL     1     -12.610  14.691  70.606  1.00  0.00    -0.419 A  
HETATM   24  C   UNL     1     -12.569  10.384  71.814  1.00  0.00    -0.367 C  
HETATM   25  O   UNL     1     -11.954  10.651  70.537  1.00  0.00    -0.291 OA 
ENDBRANCH  16  17
ENDBRANCH  15  16
ENDBRANCH  14  15
ENDBRANCH   5   8
TORSDOF 4
ENDMDL
MODEL       78
REMARK 921   NORMALIZED FREE ENERGY PREDICTED BY IDOCK:   -6.00 KCAL/MOL
REMARK 922        TOTAL FREE ENERGY PREDICTED BY IDOCK:   -8.19 KCAL/MOL
REMARK 923 INTER-LIGAND FREE ENERGY PREDICTED BY IDOCK:   -6.85 KCAL/MOL
REMARK 924 INTRA-LIGAND FREE ENERGY PREDICTED BY IDOCK:   -1.34 KCAL/MOL
REMARK 927      BINDING AFFINITY PREDICTED BY RF-SCORE:    0.00 PKD
ROOT
HETATM    1  F   UNL     1      -8.997   5.374  65.208  1.00  0.00    -0.156 F  
HETATM    2  C   UNL     1      -9.278   5.840  66.432  1.00  0.00    -0.151 A  
HETATM    3  C   UNL     1      -8.242   6.195  67.286  1.00  0.00    -0.106 A  
HETATM    4  C   UNL     1      -8.533   6.659  68.575  1.00  0.00    -0.122 A  
HETATM    5  C   UNL     1      -9.861   6.747  69.020  1.00  0.00    -0.152 A  
HETATM    6  C   UNL     1     -10.601   5.965  66.828  1.00  0.00    -0.368 A  
HETATM    7  C   UNL     1     -10.891   6.423  68.115  1.00  0.00    -0.386 A  
ENDROOT
BRANCH   5   8
HETATM    8  C   UNL     1     -10.236   7.207  70.424  1.00  0.00    -0.203 C  
HETATM    9  C   UNL     1     -10.954   6.062  71.163  1.00  0.00    -0.341 C  
HETATM   10  C   UNL     1     -11.300   6.456  72.594  1.00  0.00    -0.231 C  
HETATM   11  N   UNL     1     -12.122   7.661  72.615  1.00  0.00    -0.576 NA 
HETATM   12  C   UNL     1     -11.427   8.795  72.005  1.00  0.00    -0.371 C  
HETATM   13  H   UNL     1     -12.437   7.881  73.560  1.00  0.00     0.000 HD 
HETATM   14  C   UNL     1     -11.061   8.522  70.533  1.00  0.00    -0.265 C  
BRANCH  14  15
HETATM   15  C   UNL     1     -10.308   9.734  69.943  1.00  0.00    -0.254 C  
BRANCH  15  16
HETATM   16  O   UNL     1     -11.253  10.635  69.354  1.00  0.00    -0.231 OA 
BRANCH  16  17
HETATM   17  C   UNL     1     -11.132  10.911  68.018  1.00  0.00    -0.293 A  
HETATM   18  C   UNL     1     -11.722  11.990  67.356  1.00  0.00    -0.352 A  
HETATM   19  C   UNL     1     -11.433  12.162  66.015  1.00  0.00    -0.370 A  
HETATM   20  C   UNL     1     -10.613  11.301  65.327  1.00  0.00    -0.261 A  
HETATM   21  C   UNL     1     -10.037  10.210  65.942  1.00  0.00    -0.325 A  
HETATM   22  O   UNL     1     -10.454  11.661  64.027  1.00  0.00    -0.299 OA 
HETATM   23  C   UNL     1     -10.297  10.026  67.305  1.00  0.00    -0.293 A  
HETATM   24  C   UNL     1     -11.214  12.889  63.993  1.00  0.00    -0.412 C  
HETATM   25  O   UNL     1     -11.895  13.174  65.232  1.00  0.00    -0.330 OA 
ENDBRANCH  16  17
ENDBRANCH  15  16
ENDBRANCH  14  15
ENDBRANCH   5   8
TORSDOF 4
ENDMDL
MODEL       79
REMARK 921   NORMALIZED FREE ENERGY PREDICTED BY IDOCK:   -5.99 KCAL/MOL
REMARK 922        TOTAL FREE ENERGY PREDICTED BY IDOCK:   -8.17 KCAL/MOL
REMARK 923 INTER-LIGAND FREE ENERGY PREDICTED BY IDOCK:   -7.57 KCAL/MOL
REMARK 924 INTRA-LIGAND FREE ENERGY PREDICTED BY IDOCK:   -0.60 KCAL/MOL
REMARK 927      BINDING AFFINITY PREDICTED BY RF-SCORE:    0.00 PKD
ROOT
HETATM    1  F   UNL     1     -12.576  15.694  64.124  1.00  0.00    -0.375 F  
HETATM    2  C   UNL     1     -11.930  14.606  64.564  1.00  0.00    -0.460 A  
HETATM    3  C   UNL     1     -10.808  14.751  65.369  1.00  0.00    -0.372 A  
HETATM    4  C   UNL     1     -10.118  13.616  65.810  1.00  0.00    -0.311 A  
HETATM    5  C   UNL     1     -10.536  12.332  65.426  1.00  0.00    -0.309 A  
HETATM    6  C   UNL     1     -12.395  13.347  64.212  1.00  0.00    -0.396 A  
HETATM    7  C   UNL     1     -11.704  12.214  64.647  1.00  0.00    -0.400 A  
ENDROOT
BRANCH   5   8
HETATM    8  C   UNL     1      -9.801  11.062  65.843  1.00  0.00    -0.278 C  
HETATM    9  C   UNL     1      -9.575  10.173  64.606  1.00  0.00    -0.379 C  
HETATM   10  C   UNL     1      -8.794   8.914  64.963  1.00  0.00    -0.140 C  
HETATM   11  N   UNL     1      -9.477   8.159  66.006  1.00  0.00    -0.410 NA 
HETATM   12  C   UNL     1      -9.622   8.946  67.231  1.00  0.00    -0.164 C  
HETATM   13  H   UNL     1      -9.013   7.269  66.188  1.00  0.00     0.000 HD 
HETATM   14  C   UNL     1     -10.436  10.233  66.996  1.00  0.00    -0.304 C  
BRANCH  14  15
HETATM   15  C   UNL     1     -10.538  11.040  68.308  1.00  0.00    -0.187 C  
BRANCH  15  16
HETATM   16  O   UNL     1     -11.600  10.507  69.109  1.00  0.00    -0.261 OA 
BRANCH  16  17
HETATM   17  C   UNL     1     -11.265   9.745  70.196  1.00  0.00    -0.272 A  
HETATM   18  C   UNL     1      -9.971   9.557  70.688  1.00  0.00    -0.342 A  
HETATM   19  C   UNL     1      -9.822   8.814  71.844  1.00  0.00    -0.324 A  
HETATM   20  C   UNL     1     -10.891   8.250  72.496  1.00  0.00    -0.351 A  
HETATM   21  C   UNL     1     -12.178   8.392  72.023  1.00  0.00    -0.419 A  
HETATM   22  O   UNL     1     -10.521   7.574  73.615  1.00  0.00    -0.349 OA 
HETATM   23  C   UNL     1     -12.359   9.157  70.865  1.00  0.00    -0.197 A  
HETATM   24  C   UNL     1      -9.101   7.838  73.631  1.00  0.00    -0.286 C  
HETATM   25  O   UNL     1      -8.641   8.563  72.472  1.00  0.00    -0.284 OA 
ENDBRANCH  16  17
ENDBRANCH  15  16
ENDBRANCH  14  15
ENDBRANCH   5   8
TORSDOF 4
ENDMDL
MODEL       80
REMARK 921   NORMALIZED FREE ENERGY PREDICTED BY IDOCK:   -5.96 KCAL/MOL
REMARK 922        TOTAL FREE ENERGY PREDICTED BY IDOCK:   -8.13 KCAL/MOL
REMARK 923 INTER-LIGAND FREE ENERGY PREDICTED BY IDOCK:   -7.28 KCAL/MOL
REMARK 924 INTRA-LIGAND FREE ENERGY PREDICTED BY IDOCK:   -0.85 KCAL/MOL
REMARK 927      BINDING AFFINITY PREDICTED BY RF-SCORE:    0.00 PKD
ROOT
HETATM    1  F   UNL     1      -5.446  13.168  69.501  1.00  0.00    -0.074 F  
HETATM    2  C   UNL     1      -6.273  14.097  69.004  1.00  0.00    -0.094 A  
HETATM    3  C   UNL     1      -6.887  13.884  67.777  1.00  0.00    -0.184 A  
HETATM    4  C   UNL     1      -7.733  14.864  67.244  1.00  0.00    -0.227 A  
HETATM    5  C   UNL     1      -7.948  16.071  67.928  1.00  0.00    -0.146 A  
HETATM    6  C   UNL     1      -6.509  15.258  69.725  1.00  0.00    -0.169 A  
HETATM    7  C   UNL     1      -7.348  16.239  69.192  1.00  0.00    -0.218 A  
ENDROOT
BRANCH   5   8
HETATM    8  C   UNL     1      -8.827  17.190  67.379  1.00  0.00    -0.218 C  
HETATM    9  C   UNL     1      -7.950  18.413  67.050  1.00  0.00    -0.238 C  
HETATM   10  C   UNL     1      -8.777  19.541  66.445  1.00  0.00    -0.361 C  
HETATM   11  N   UNL     1      -9.862  19.927  67.340  1.00  0.00    -0.382 NA 
HETATM   12  C   UNL     1     -10.769  18.807  67.597  1.00  0.00    -0.385 C  
HETATM   13  H   UNL     1     -10.365  20.741  66.989  1.00  0.00     0.000 HD 
HETATM   14  C   UNL     1     -10.043  17.615  68.250  1.00  0.00    -0.362 C  
BRANCH  14  15
HETATM   15  C   UNL     1     -11.035  16.453  68.475  1.00  0.00    -0.350 C  
BRANCH  15  16
HETATM   16  O   UNL     1     -11.564  16.535  69.804  1.00  0.00    -0.097 OA 
BRANCH  16  17
HETATM   17  C   UNL     1     -12.094  15.399  70.356  1.00  0.00    -0.372 A  
HETATM   18  C   UNL     1     -11.795  14.091  69.966  1.00  0.00    -0.388 A  
HETATM   19  C   UNL     1     -12.365  13.057  70.684  1.00  0.00    -0.310 A  
HETATM   20  C   UNL     1     -13.219  13.280  71.737  1.00  0.00    -0.405 A  
HETATM   21  C   UNL     1     -13.558  14.556  72.130  1.00  0.00    -0.516 A  
HETATM   22  O   UNL     1     -13.653  12.126  72.307  1.00  0.00    -0.432 OA 
HETATM   23  C   UNL     1     -12.978  15.622  71.433  1.00  0.00    -0.555 A  
HETATM   24  C   UNL     1     -12.918  11.151  71.536  1.00  0.00    -0.437 C  
HETATM   25  O   UNL     1     -12.156  11.732  70.459  1.00  0.00    -0.363 OA 
ENDBRANCH  16  17
ENDBRANCH  15  16
ENDBRANCH  14  15
ENDBRANCH   5   8
TORSDOF 4
ENDMDL
MODEL       81
REMARK 921   NORMALIZED FREE ENERGY PREDICTED BY IDOCK:   -5.95 KCAL/MOL
REMARK 922        TOTAL FREE ENERGY PREDICTED BY IDOCK:   -8.12 KCAL/MOL
REMARK 923 INTER-LIGAND FREE ENERGY PREDICTED BY IDOCK:   -7.49 KCAL/MOL
REMARK 924 INTRA-LIGAND FREE ENERGY PREDICTED BY IDOCK:   -0.63 KCAL/MOL
REMARK 927      BINDING AFFINITY PREDICTED BY RF-SCORE:    0.00 PKD
ROOT
HETATM    1  F   UNL     1     -11.827  16.455  72.032  1.00  0.00    -0.501 F  
HETATM    2  C   UNL     1     -11.724  15.848  70.842  1.00  0.00    -0.420 A  
HETATM    3  C   UNL     1     -12.366  14.635  70.632  1.00  0.00    -0.398 A  
HETATM    4  C   UNL     1     -12.241  13.988  69.397  1.00  0.00    -0.336 A  
HETATM    5  C   UNL     1     -11.451  14.541  68.377  1.00  0.00    -0.328 A  
HETATM    6  C   UNL     1     -10.980  16.443  69.834  1.00  0.00    -0.339 A  
HETATM    7  C   UNL     1     -10.849  15.795  68.604  1.00  0.00    -0.278 A  
ENDROOT
BRANCH   5   8
HETATM    8  C   UNL     1     -11.244  13.863  67.027  1.00  0.00    -0.327 C  
HETATM    9  C   UNL     1     -12.245  14.438  66.007  1.00  0.00    -0.352 C  
HETATM   10  C   UNL     1     -12.040  13.829  64.625  1.00  0.00    -0.421 C  
HETATM   11  N   UNL     1     -12.155  12.376  64.677  1.00  0.00    -0.414 NA 
HETATM   12  C   UNL     1     -11.152  11.789  65.567  1.00  0.00    -0.280 C  
HETATM   13  H   UNL     1     -12.113  11.964  63.745  1.00  0.00     0.000 HD 
HETATM   14  C   UNL     1     -11.291  12.308  67.012  1.00  0.00    -0.395 C  
BRANCH  14  15
HETATM   15  C   UNL     1     -10.196  11.682  67.904  1.00  0.00    -0.189 C  
BRANCH  15  16
HETATM   16  O   UNL     1      -9.739  10.464  67.305  1.00  0.00    -0.160 OA 
BRANCH  16  17
HETATM   17  C   UNL     1      -9.986   9.290  67.967  1.00  0.00    -0.182 A  
HETATM   18  C   UNL     1     -10.017   9.131  69.354  1.00  0.00    -0.192 A  
HETATM   19  C   UNL     1     -10.357   7.889  69.855  1.00  0.00    -0.224 A  
HETATM   20  C   UNL     1     -10.639   6.822  69.037  1.00  0.00    -0.230 A  
HETATM   21  C   UNL     1     -10.590   6.935  67.664  1.00  0.00    -0.328 A  
HETATM   22  O   UNL     1     -10.960   5.702  69.735  1.00  0.00    -0.345 OA 
HETATM   23  C   UNL     1     -10.268   8.189  67.131  1.00  0.00    -0.366 A  
HETATM   24  C   UNL     1     -10.917   6.206  71.088  1.00  0.00    -0.284 C  
HETATM   25  O   UNL     1     -10.466   7.573  71.174  1.00  0.00    -0.206 OA 
ENDBRANCH  16  17
ENDBRANCH  15  16
ENDBRANCH  14  15
ENDBRANCH   5   8
TORSDOF 4
ENDMDL
MODEL       82
REMARK 921   NORMALIZED FREE ENERGY PREDICTED BY IDOCK:   -5.95 KCAL/MOL
REMARK 922        TOTAL FREE ENERGY PREDICTED BY IDOCK:   -8.12 KCAL/MOL
REMARK 923 INTER-LIGAND FREE ENERGY PREDICTED BY IDOCK:   -7.19 KCAL/MOL
REMARK 924 INTRA-LIGAND FREE ENERGY PREDICTED BY IDOCK:   -0.93 KCAL/MOL
REMARK 927      BINDING AFFINITY PREDICTED BY RF-SCORE:    0.00 PKD
ROOT
HETATM    1  F   UNL     1     -13.512  13.284  72.765  1.00  0.00    -0.602 F  
HETATM    2  C   UNL     1     -12.893  13.239  71.577  1.00  0.00    -0.327 A  
HETATM    3  C   UNL     1     -12.655  12.012  70.973  1.00  0.00    -0.370 A  
HETATM    4  C   UNL     1     -11.988  11.960  69.743  1.00  0.00    -0.377 A  
HETATM    5  C   UNL     1     -11.535  13.137  69.127  1.00  0.00    -0.358 A  
HETATM    6  C   UNL     1     -12.502  14.420  70.965  1.00  0.00    -0.425 A  
HETATM    7  C   UNL     1     -11.831  14.370  69.742  1.00  0.00    -0.375 A  
ENDROOT
BRANCH   5   8
HETATM    8  C   UNL     1     -10.768  13.141  67.809  1.00  0.00    -0.252 C  
HETATM    9  C   UNL     1     -11.637  13.786  66.714  1.00  0.00    -0.394 C  
HETATM   10  C   UNL     1     -10.891  13.862  65.387  1.00  0.00    -0.319 C  
HETATM   11  N   UNL     1     -10.449  12.538  64.963  1.00  0.00    -0.290 NA 
HETATM   12  C   UNL     1      -9.543  11.937  65.942  1.00  0.00    -0.231 C  
HETATM   13  H   UNL     1     -10.031  12.564  64.034  1.00  0.00     0.000 HD 
HETATM   14  C   UNL     1     -10.210  11.773  67.322  1.00  0.00    -0.226 C  
BRANCH  14  15
HETATM   15  C   UNL     1      -9.208  11.161  68.323  1.00  0.00    -0.169 C  
BRANCH  15  16
HETATM   16  O   UNL     1      -9.313   9.732  68.283  1.00  0.00    -0.129 OA 
BRANCH  16  17
HETATM   17  C   UNL     1      -9.792   9.092  69.395  1.00  0.00    -0.183 A  
HETATM   18  C   UNL     1     -10.709   8.037  69.392  1.00  0.00    -0.167 A  
HETATM   19  C   UNL     1     -11.028   7.456  70.604  1.00  0.00    -0.256 A  
HETATM   20  C   UNL     1     -10.493   7.896  71.791  1.00  0.00    -0.221 A  
HETATM   21  C   UNL     1      -9.608   8.952  71.834  1.00  0.00    -0.326 A  
HETATM   22  O   UNL     1     -10.931   7.177  72.857  1.00  0.00    -0.283 OA 
HETATM   23  C   UNL     1      -9.252   9.545  70.617  1.00  0.00    -0.243 A  
HETATM   24  C   UNL     1     -11.751   6.188  72.197  1.00  0.00    -0.309 C  
HETATM   25  O   UNL     1     -11.873   6.404  70.776  1.00  0.00    -0.361 OA 
ENDBRANCH  16  17
ENDBRANCH  15  16
ENDBRANCH  14  15
ENDBRANCH   5   8
TORSDOF 4
ENDMDL
MODEL       83
REMARK 921   NORMALIZED FREE ENERGY PREDICTED BY IDOCK:   -5.95 KCAL/MOL
REMARK 922        TOTAL FREE ENERGY PREDICTED BY IDOCK:   -8.12 KCAL/MOL
REMARK 923 INTER-LIGAND FREE ENERGY PREDICTED BY IDOCK:   -7.29 KCAL/MOL
REMARK 924 INTRA-LIGAND FREE ENERGY PREDICTED BY IDOCK:   -0.83 KCAL/MOL
REMARK 927      BINDING AFFINITY PREDICTED BY RF-SCORE:    0.00 PKD
ROOT
HETATM    1  F   UNL     1      -6.575  21.032  64.487  1.00  0.00    -0.324 F  
HETATM    2  C   UNL     1      -6.719  20.127  65.464  1.00  0.00    -0.283 A  
HETATM    3  C   UNL     1      -6.414  18.795  65.218  1.00  0.00    -0.290 A  
HETATM    4  C   UNL     1      -6.586  17.844  66.230  1.00  0.00    -0.288 A  
HETATM    5  C   UNL     1      -7.087  18.220  67.486  1.00  0.00    -0.204 A  
HETATM    6  C   UNL     1      -7.167  20.534  66.712  1.00  0.00    -0.331 A  
HETATM    7  C   UNL     1      -7.345  19.585  67.721  1.00  0.00    -0.297 A  
ENDROOT
BRANCH   5   8
HETATM    8  C   UNL     1      -7.334  17.223  68.613  1.00  0.00    -0.238 C  
HETATM    9  C   UNL     1      -5.996  16.587  69.034  1.00  0.00    -0.150 C  
HETATM   10  C   UNL     1      -6.183  15.621  70.199  1.00  0.00    -0.084 C  
HETATM   11  N   UNL     1      -7.149  14.582  69.860  1.00  0.00    -0.371 NA 
HETATM   12  C   UNL     1      -8.461  15.151  69.548  1.00  0.00    -0.144 C  
HETATM   13  H   UNL     1      -7.213  13.878  70.596  1.00  0.00     0.000 HD 
HETATM   14  C   UNL     1      -8.398  16.120  68.351  1.00  0.00    -0.179 C  
BRANCH  14  15
HETATM   15  C   UNL     1      -9.798  16.711  68.078  1.00  0.00    -0.245 C  
BRANCH  15  16
HETATM   16  O   UNL     1     -10.773  15.663  68.131  1.00  0.00    -0.267 OA 
BRANCH  16  17
HETATM   17  C   UNL     1     -11.098  15.027  66.962  1.00  0.00    -0.334 A  
HETATM   18  C   UNL     1     -11.730  13.786  66.862  1.00  0.00    -0.424 A  
HETATM   19  C   UNL     1     -12.052  13.325  65.600  1.00  0.00    -0.441 A  
HETATM   20  C   UNL     1     -11.752  14.035  64.462  1.00  0.00    -0.413 A  
HETATM   21  C   UNL     1     -11.104  15.250  64.522  1.00  0.00    -0.260 A  
HETATM   22  O   UNL     1     -12.168  13.406  63.332  1.00  0.00    -0.661 OA 
HETATM   23  C   UNL     1     -10.784  15.749  65.791  1.00  0.00    -0.337 A  
HETATM   24  C   UNL     1     -12.828  12.251  63.894  1.00  0.00    -0.298 C  
HETATM   25  O   UNL     1     -12.695  12.158  65.327  1.00  0.00    -0.430 OA 
ENDBRANCH  16  17
ENDBRANCH  15  16
ENDBRANCH  14  15
ENDBRANCH   5   8
TORSDOF 4
ENDMDL
MODEL       84
REMARK 921   NORMALIZED FREE ENERGY PREDICTED BY IDOCK:   -5.94 KCAL/MOL
REMARK 922        TOTAL FREE ENERGY PREDICTED BY IDOCK:   -8.11 KCAL/MOL
REMARK 923 INTER-LIGAND FREE ENERGY PREDICTED BY IDOCK:   -7.44 KCAL/MOL
REMARK 924 INTRA-LIGAND FREE ENERGY PREDICTED BY IDOCK:   -0.68 KCAL/MOL
REMARK 927      BINDING AFFINITY PREDICTED BY RF-SCORE:    0.00 PKD
ROOT
HETATM    1  F   UNL     1     -12.771  15.140  63.938  1.00  0.00    -0.363 F  
HETATM    2  C   UNL     1     -11.978  14.080  64.141  1.00  0.00    -0.408 A  
HETATM    3  C   UNL     1     -10.882  14.195  64.987  1.00  0.00    -0.408 A  
HETATM    4  C   UNL     1     -10.038  13.095  65.183  1.00  0.00    -0.239 A  
HETATM    5  C   UNL     1     -10.275  11.884  64.513  1.00  0.00    -0.320 A  
HETATM    6  C   UNL     1     -12.264  12.881  63.507  1.00  0.00    -0.595 A  
HETATM    7  C   UNL     1     -11.419  11.785  63.697  1.00  0.00    -0.524 A  
ENDROOT
BRANCH   5   8
HETATM    8  C   UNL     1      -9.368  10.667  64.655  1.00  0.00    -0.280 C  
HETATM    9  C   UNL     1      -9.166  10.015  63.274  1.00  0.00    -0.317 C  
HETATM   10  C   UNL     1      -8.220   8.823  63.357  1.00  0.00    -0.170 C  
HETATM   11  N   UNL     1      -8.711   7.836  64.311  1.00  0.00    -0.260 NA 
HETATM   12  C   UNL     1      -8.823   8.400  65.657  1.00  0.00    -0.156 C  
HETATM   13  H   UNL     1      -8.137   6.994  64.306  1.00  0.00     0.000 HD 
HETATM   14  C   UNL     1      -9.793   9.597  65.701  1.00  0.00    -0.369 C  
BRANCH  14  15
HETATM   15  C   UNL     1      -9.856  10.172  67.133  1.00  0.00    -0.187 C  
BRANCH  15  16
HETATM   16  O   UNL     1      -9.564   9.132  68.073  1.00  0.00    -0.143 OA 
BRANCH  16  17
HETATM   17  C   UNL     1     -10.400   8.982  69.147  1.00  0.00    -0.219 A  
HETATM   18  C   UNL     1     -11.108  10.010  69.774  1.00  0.00    -0.319 A  
HETATM   19  C   UNL     1     -11.968   9.669  70.800  1.00  0.00    -0.277 A  
HETATM   20  C   UNL     1     -12.124   8.372  71.225  1.00  0.00    -0.284 A  
HETATM   21  C   UNL     1     -11.421   7.337  70.648  1.00  0.00    -0.322 A  
HETATM   22  O   UNL     1     -13.026   8.260  72.235  1.00  0.00    -0.316 OA 
HETATM   23  C   UNL     1     -10.558   7.653  69.592  1.00  0.00    -0.243 A  
HETATM   24  C   UNL     1     -13.472   9.629  72.351  1.00  0.00    -0.333 C  
HETATM   25  O   UNL     1     -12.753  10.539  71.493  1.00  0.00    -0.387 OA 
ENDBRANCH  16  17
ENDBRANCH  15  16
ENDBRANCH  14  15
ENDBRANCH   5   8
TORSDOF 4
ENDMDL
MODEL       85
REMARK 921   NORMALIZED FREE ENERGY PREDICTED BY IDOCK:   -5.93 KCAL/MOL
REMARK 922        TOTAL FREE ENERGY PREDICTED BY IDOCK:   -8.10 KCAL/MOL
REMARK 923 INTER-LIGAND FREE ENERGY PREDICTED BY IDOCK:   -7.29 KCAL/MOL
REMARK 924 INTRA-LIGAND FREE ENERGY PREDICTED BY IDOCK:   -0.80 KCAL/MOL
REMARK 927      BINDING AFFINITY PREDICTED BY RF-SCORE:    0.00 PKD
ROOT
HETATM    1  F   UNL     1      -7.771   7.427  65.715  1.00  0.00    -0.085 F  
HETATM    2  C   UNL     1      -8.504   7.834  66.760  1.00  0.00    -0.126 A  
HETATM    3  C   UNL     1      -9.890   7.781  66.690  1.00  0.00    -0.295 A  
HETATM    4  C   UNL     1     -10.658   8.228  67.772  1.00  0.00    -0.236 A  
HETATM    5  C   UNL     1     -10.040   8.753  68.918  1.00  0.00    -0.210 A  
HETATM    6  C   UNL     1      -7.867   8.300  67.901  1.00  0.00    -0.114 A  
HETATM    7  C   UNL     1      -8.632   8.752  68.978  1.00  0.00    -0.132 A  
ENDROOT
BRANCH   5   8
HETATM    8  C   UNL     1     -10.824   9.291  70.110  1.00  0.00    -0.275 C  
HETATM    9  C   UNL     1     -11.360   8.113  70.944  1.00  0.00    -0.286 C  
HETATM   10  C   UNL     1     -12.107   8.602  72.179  1.00  0.00    -0.381 C  
HETATM   11  N   UNL     1     -13.200   9.492  71.806  1.00  0.00    -0.394 NA 
HETATM   12  C   UNL     1     -12.711  10.673  71.093  1.00  0.00    -0.422 C  
HETATM   13  H   UNL     1     -13.763   9.751  72.616  1.00  0.00     0.000 HD 
HETATM   14  C   UNL     1     -11.969  10.297  69.796  1.00  0.00    -0.176 C  
BRANCH  14  15
HETATM   15  C   UNL     1     -11.451  11.572  69.097  1.00  0.00    -0.297 C  
BRANCH  15  16
HETATM   16  O   UNL     1     -12.021  11.657  67.785  1.00  0.00    -0.608 OA 
BRANCH  16  17
HETATM   17  C   UNL     1     -11.692  12.736  67.009  1.00  0.00    -0.374 A  
HETATM   18  C   UNL     1     -12.366  13.141  65.855  1.00  0.00    -0.462 A  
HETATM   19  C   UNL     1     -11.944  14.301  65.234  1.00  0.00    -0.389 A  
HETATM   20  C   UNL     1     -10.884  15.039  65.703  1.00  0.00    -0.349 A  
HETATM   21  C   UNL     1     -10.178  14.653  66.822  1.00  0.00    -0.268 A  
HETATM   22  O   UNL     1     -10.647  16.145  64.951  1.00  0.00    -0.622 OA 
HETATM   23  C   UNL     1     -10.599  13.492  67.482  1.00  0.00    -0.247 A  
HETATM   24  C   UNL     1     -11.725  16.057  63.994  1.00  0.00     0.220 C  
HETATM   25  O   UNL     1     -12.507  14.852  64.125  1.00  0.00    -0.763 OA 
ENDBRANCH  16  17
ENDBRANCH  15  16
ENDBRANCH  14  15
ENDBRANCH   5   8
TORSDOF 4
ENDMDL
MODEL       86
REMARK 921   NORMALIZED FREE ENERGY PREDICTED BY IDOCK:   -5.92 KCAL/MOL
REMARK 922        TOTAL FREE ENERGY PREDICTED BY IDOCK:   -8.08 KCAL/MOL
REMARK 923 INTER-LIGAND FREE ENERGY PREDICTED BY IDOCK:   -6.69 KCAL/MOL
REMARK 924 INTRA-LIGAND FREE ENERGY PREDICTED BY IDOCK:   -1.39 KCAL/MOL
REMARK 927      BINDING AFFINITY PREDICTED BY RF-SCORE:    0.00 PKD
ROOT
HETATM    1  F   UNL     1      -8.867   7.770  65.109  1.00  0.00    -0.124 F  
HETATM    2  C   UNL     1      -9.269   7.738  66.386  1.00  0.00    -0.180 A  
HETATM    3  C   UNL     1      -8.447   8.257  67.378  1.00  0.00    -0.125 A  
HETATM    4  C   UNL     1      -8.855   8.205  68.716  1.00  0.00    -0.138 A  
HETATM    5  C   UNL     1     -10.077   7.609  69.068  1.00  0.00    -0.199 A  
HETATM    6  C   UNL     1     -10.504   7.191  66.700  1.00  0.00    -0.205 A  
HETATM    7  C   UNL     1     -10.908   7.132  68.036  1.00  0.00    -0.193 A  
ENDROOT
BRANCH   5   8
HETATM    8  C   UNL     1     -10.554   7.487  70.510  1.00  0.00    -0.232 C  
HETATM    9  C   UNL     1     -10.959   6.028  70.793  1.00  0.00    -0.364 C  
HETATM   10  C   UNL     1     -11.393   5.843  72.242  1.00  0.00    -0.298 C  
HETATM   11  N   UNL     1     -12.492   6.743  72.573  1.00  0.00    -0.479 NA 
HETATM   12  C   UNL     1     -12.106   8.145  72.407  1.00  0.00    -0.348 C  
HETATM   13  H   UNL     1     -12.852   6.564  73.511  1.00  0.00     0.000 HD 
HETATM   14  C   UNL     1     -11.684   8.458  70.958  1.00  0.00    -0.296 C  
BRANCH  14  15
HETATM   15  C   UNL     1     -11.262   9.939  70.840  1.00  0.00    -0.360 C  
BRANCH  15  16
HETATM   16  O   UNL     1     -12.322  10.685  70.231  1.00  0.00    -0.304 OA 
BRANCH  16  17
HETATM   17  C   UNL     1     -12.008  11.515  69.188  1.00  0.00    -0.320 A  
HETATM   18  C   UNL     1     -12.032  12.911  69.225  1.00  0.00    -0.313 A  
HETATM   19  C   UNL     1     -11.611  13.594  68.100  1.00  0.00    -0.332 A  
HETATM   20  C   UNL     1     -11.199  12.946  66.961  1.00  0.00    -0.288 A  
HETATM   21  C   UNL     1     -11.189  11.570  66.879  1.00  0.00    -0.363 A  
HETATM   22  O   UNL     1     -10.817  13.807  65.982  1.00  0.00    -0.281 OA 
HETATM   23  C   UNL     1     -11.591  10.854  68.013  1.00  0.00    -0.295 A  
HETATM   24  C   UNL     1     -10.970  15.072  66.661  1.00  0.00    -0.325 C  
HETATM   25  O   UNL     1     -11.541  14.947  67.980  1.00  0.00    -0.324 OA 
ENDBRANCH  16  17
ENDBRANCH  15  16
ENDBRANCH  14  15
ENDBRANCH   5   8
TORSDOF 4
ENDMDL
MODEL       87
REMARK 921   NORMALIZED FREE ENERGY PREDICTED BY IDOCK:   -5.90 KCAL/MOL
REMARK 922        TOTAL FREE ENERGY PREDICTED BY IDOCK:   -8.06 KCAL/MOL
REMARK 923 INTER-LIGAND FREE ENERGY PREDICTED BY IDOCK:   -7.51 KCAL/MOL
REMARK 924 INTRA-LIGAND FREE ENERGY PREDICTED BY IDOCK:   -0.55 KCAL/MOL
REMARK 927      BINDING AFFINITY PREDICTED BY RF-SCORE:    0.00 PKD
ROOT
HETATM    1  F   UNL     1     -11.893  16.008  69.163  1.00  0.00    -0.352 F  
HETATM    2  C   UNL     1     -11.972  14.720  69.520  1.00  0.00    -0.311 A  
HETATM    3  C   UNL     1     -11.566  13.734  68.630  1.00  0.00    -0.369 A  
HETATM    4  C   UNL     1     -11.670  12.386  68.992  1.00  0.00    -0.372 A  
HETATM    5  C   UNL     1     -12.205  12.020  70.238  1.00  0.00    -0.348 A  
HETATM    6  C   UNL     1     -12.456  14.388  70.777  1.00  0.00    -0.423 A  
HETATM    7  C   UNL     1     -12.566  13.043  71.136  1.00  0.00    -0.388 A  
ENDROOT
BRANCH   5   8
HETATM    8  C   UNL     1     -12.380  10.568  70.670  1.00  0.00    -0.449 C  
HETATM    9  C   UNL     1     -13.408  10.496  71.814  1.00  0.00    -0.446 C  
HETATM   10  C   UNL     1     -13.659   9.056  72.245  1.00  0.00    -0.484 C  
HETATM   11  N   UNL     1     -12.414   8.411  72.647  1.00  0.00    -0.587 NA 
HETATM   12  C   UNL     1     -11.448   8.377  71.548  1.00  0.00    -0.278 C  
HETATM   13  H   UNL     1     -12.582   7.478  73.024  1.00  0.00     0.000 HD 
HETATM   14  C   UNL     1     -11.088   9.792  71.055  1.00  0.00    -0.431 C  
BRANCH  14  15
HETATM   15  C   UNL     1     -10.089   9.703  69.881  1.00  0.00    -0.246 C  
BRANCH  15  16
HETATM   16  O   UNL     1     -10.657   8.902  68.837  1.00  0.00    -0.217 OA 
BRANCH  16  17
HETATM   17  C   UNL     1     -10.154   9.045  67.571  1.00  0.00    -0.228 A  
HETATM   18  C   UNL     1      -9.370   8.105  66.899  1.00  0.00    -0.219 A  
HETATM   19  C   UNL     1      -9.010   8.380  65.593  1.00  0.00    -0.134 A  
HETATM   20  C   UNL     1      -9.379   9.542  64.961  1.00  0.00    -0.229 A  
HETATM   21  C   UNL     1     -10.128  10.504  65.604  1.00  0.00    -0.333 A  
HETATM   22  O   UNL     1      -8.930   9.603  63.680  1.00  0.00    -0.232 OA 
HETATM   23  C   UNL     1     -10.524  10.241  66.920  1.00  0.00    -0.291 A  
HETATM   24  C   UNL     1      -8.294   8.312  63.556  1.00  0.00    -0.015 C  
HETATM   25  O   UNL     1      -8.279   7.562  64.788  1.00  0.00    -0.129 OA 
ENDBRANCH  16  17
ENDBRANCH  15  16
ENDBRANCH  14  15
ENDBRANCH   5   8
TORSDOF 4
ENDMDL
MODEL       88
REMARK 921   NORMALIZED FREE ENERGY PREDICTED BY IDOCK:   -5.90 KCAL/MOL
REMARK 922        TOTAL FREE ENERGY PREDICTED BY IDOCK:   -8.06 KCAL/MOL
REMARK 923 INTER-LIGAND FREE ENERGY PREDICTED BY IDOCK:   -6.28 KCAL/MOL
REMARK 924 INTRA-LIGAND FREE ENERGY PREDICTED BY IDOCK:   -1.78 KCAL/MOL
REMARK 927      BINDING AFFINITY PREDICTED BY RF-SCORE:    0.00 PKD
ROOT
HETATM    1  F   UNL     1      -5.841  13.529  69.476  1.00  0.00    -0.084 F  
HETATM    2  C   UNL     1      -6.469  14.570  68.914  1.00  0.00    -0.092 A  
HETATM    3  C   UNL     1      -7.633  15.062  69.489  1.00  0.00    -0.181 A  
HETATM    4  C   UNL     1      -8.305  16.134  68.890  1.00  0.00    -0.233 A  
HETATM    5  C   UNL     1      -7.826  16.702  67.699  1.00  0.00    -0.189 A  
HETATM    6  C   UNL     1      -5.945  15.145  67.765  1.00  0.00    -0.150 A  
HETATM    7  C   UNL     1      -6.618  16.211  67.164  1.00  0.00    -0.208 A  
ENDROOT
BRANCH   5   8
HETATM    8  C   UNL     1      -8.536  17.844  66.980  1.00  0.00    -0.248 C  
HETATM    9  C   UNL     1      -8.409  19.131  67.816  1.00  0.00    -0.325 C  
HETATM   10  C   UNL     1      -9.058  20.316  67.111  1.00  0.00    -0.378 C  
HETATM   11  N   UNL     1     -10.460  20.042  66.819  1.00  0.00    -0.439 NA 
HETATM   12  C   UNL     1     -10.609  18.877  65.945  1.00  0.00    -0.373 C  
HETATM   13  H   UNL     1     -10.928  20.861  66.432  1.00  0.00     0.000 HD 
HETATM   14  C   UNL     1     -10.019  17.602  66.579  1.00  0.00    -0.332 C  
BRANCH  14  15
HETATM   15  C   UNL     1     -10.176  16.411  65.610  1.00  0.00    -0.324 C  
BRANCH  15  16
HETATM   16  O   UNL     1     -11.244  15.571  66.063  1.00  0.00    -0.247 OA 
BRANCH  16  17
HETATM   17  C   UNL     1     -10.922  14.464  66.804  1.00  0.00    -0.314 A  
HETATM   18  C   UNL     1     -11.723  13.889  67.792  1.00  0.00    -0.401 A  
HETATM   19  C   UNL     1     -11.275  12.726  68.390  1.00  0.00    -0.278 A  
HETATM   20  C   UNL     1     -10.075  12.147  68.058  1.00  0.00    -0.204 A  
HETATM   21  C   UNL     1      -9.246  12.703  67.107  1.00  0.00    -0.214 A  
HETATM   22  O   UNL     1      -9.836  11.007  68.757  1.00  0.00    -0.191 OA 
HETATM   23  C   UNL     1      -9.686  13.870  66.471  1.00  0.00    -0.303 A  
HETATM   24  C   UNL     1     -11.059  10.896  69.518  1.00  0.00    -0.268 C  
HETATM   25  O   UNL     1     -11.944  12.022  69.343  1.00  0.00    -0.301 OA 
ENDBRANCH  16  17
ENDBRANCH  15  16
ENDBRANCH  14  15
ENDBRANCH   5   8
TORSDOF 4
ENDMDL
MODEL       89
REMARK 921   NORMALIZED FREE ENERGY PREDICTED BY IDOCK:   -5.89 KCAL/MOL
REMARK 922        TOTAL FREE ENERGY PREDICTED BY IDOCK:   -8.05 KCAL/MOL
REMARK 923 INTER-LIGAND FREE ENERGY PREDICTED BY IDOCK:   -7.85 KCAL/MOL
REMARK 924 INTRA-LIGAND FREE ENERGY PREDICTED BY IDOCK:   -0.20 KCAL/MOL
REMARK 927      BINDING AFFINITY PREDICTED BY RF-SCORE:    0.00 PKD
ROOT
HETATM    1  F   UNL     1     -12.371  14.629  72.501  1.00  0.00    -0.384 F  
HETATM    2  C   UNL     1     -12.241  14.438  71.182  1.00  0.00    -0.350 A  
HETATM    3  C   UNL     1     -12.283  13.150  70.666  1.00  0.00    -0.402 A  
HETATM    4  C   UNL     1     -12.125  12.946  69.291  1.00  0.00    -0.234 A  
HETATM    5  C   UNL     1     -11.899  14.031  68.429  1.00  0.00    -0.397 A  
HETATM    6  C   UNL     1     -12.072  15.533  70.346  1.00  0.00    -0.426 A  
HETATM    7  C   UNL     1     -11.907  15.330  68.975  1.00  0.00    -0.342 A  
ENDROOT
BRANCH   5   8
HETATM    8  C   UNL     1     -11.680  13.867  66.929  1.00  0.00    -0.425 C  
HETATM    9  C   UNL     1     -11.557  12.370  66.591  1.00  0.00    -0.447 C  
HETATM   10  C   UNL     1     -11.391  12.151  65.092  1.00  0.00    -0.327 C  
HETATM   11  N   UNL     1     -10.231  12.877  64.587  1.00  0.00    -0.491 NA 
HETATM   12  C   UNL     1     -10.361  14.318  64.808  1.00  0.00    -0.343 C  
HETATM   13  H   UNL     1     -10.055  12.664  63.605  1.00  0.00     0.000 HD 
HETATM   14  C   UNL     1     -10.497  14.661  66.305  1.00  0.00    -0.302 C  
BRANCH  14  15
HETATM   15  C   UNL     1     -10.658  16.186  66.483  1.00  0.00    -0.268 C  
BRANCH  15  16
HETATM   16  O   UNL     1      -9.649  16.860  65.721  1.00  0.00    -0.515 OA 
BRANCH  16  17
HETATM   17  C   UNL     1      -8.649  17.501  66.403  1.00  0.00    -0.240 A  
HETATM   18  C   UNL     1      -8.832  18.433  67.426  1.00  0.00    -0.262 A  
HETATM   19  C   UNL     1      -7.707  18.927  68.059  1.00  0.00    -0.271 A  
HETATM   20  C   UNL     1      -6.438  18.546  67.698  1.00  0.00    -0.204 A  
HETATM   21  C   UNL     1      -6.219  17.650  66.674  1.00  0.00    -0.221 A  
HETATM   22  O   UNL     1      -5.481  19.142  68.457  1.00  0.00    -0.193 OA 
HETATM   23  C   UNL     1      -7.343  17.119  66.031  1.00  0.00    -0.170 A  
HETATM   24  C   UNL     1      -6.298  19.889  69.384  1.00  0.00    -0.339 C  
HETATM   25  O   UNL     1      -7.708  19.813  69.092  1.00  0.00    -0.297 OA 
ENDBRANCH  16  17
ENDBRANCH  15  16
ENDBRANCH  14  15
ENDBRANCH   5   8
TORSDOF 4
ENDMDL
MODEL       90
REMARK 921   NORMALIZED FREE ENERGY PREDICTED BY IDOCK:   -5.88 KCAL/MOL
REMARK 922        TOTAL FREE ENERGY PREDICTED BY IDOCK:   -8.03 KCAL/MOL
REMARK 923 INTER-LIGAND FREE ENERGY PREDICTED BY IDOCK:   -5.98 KCAL/MOL
REMARK 924 INTRA-LIGAND FREE ENERGY PREDICTED BY IDOCK:   -2.05 KCAL/MOL
REMARK 927      BINDING AFFINITY PREDICTED BY RF-SCORE:    0.00 PKD
ROOT
HETATM    1  F   UNL     1     -11.726  10.543  67.560  1.00  0.00    -0.318 F  
HETATM    2  C   UNL     1     -10.817  11.523  67.650  1.00  0.00    -0.227 A  
HETATM    3  C   UNL     1      -9.715  11.518  66.806  1.00  0.00    -0.220 A  
HETATM    4  C   UNL     1      -8.752  12.529  66.915  1.00  0.00    -0.182 A  
HETATM    5  C   UNL     1      -8.878  13.534  67.887  1.00  0.00    -0.190 A  
HETATM    6  C   UNL     1     -10.993  12.533  68.585  1.00  0.00    -0.291 A  
HETATM    7  C   UNL     1     -10.030  13.537  68.699  1.00  0.00    -0.149 A  
ENDROOT
BRANCH   5   8
HETATM    8  C   UNL     1      -7.842  14.636  68.079  1.00  0.00    -0.136 C  
HETATM    9  C   UNL     1      -7.381  14.653  69.548  1.00  0.00    -0.107 C  
HETATM   10  C   UNL     1      -6.302  15.705  69.778  1.00  0.00    -0.170 C  
HETATM   11  N   UNL     1      -6.774  17.027  69.384  1.00  0.00    -0.233 NA 
HETATM   12  C   UNL     1      -7.130  17.068  67.965  1.00  0.00    -0.163 C  
HETATM   13  H   UNL     1      -6.095  17.751  69.619  1.00  0.00     0.000 HD 
HETATM   14  C   UNL     1      -8.249  16.066  67.622  1.00  0.00    -0.162 C  
BRANCH  14  15
HETATM   15  C   UNL     1      -8.569  16.128  66.113  1.00  0.00    -0.296 C  
BRANCH  15  16
HETATM   16  O   UNL     1      -9.969  16.377  65.937  1.00  0.00    -0.322 OA 
BRANCH  16  17
HETATM   17  C   UNL     1     -10.753  15.349  65.484  1.00  0.00    -0.384 A  
HETATM   18  C   UNL     1     -10.417  14.462  64.459  1.00  0.00    -0.113 A  
HETATM   19  C   UNL     1     -11.296  13.434  64.180  1.00  0.00    -0.364 A  
HETATM   20  C   UNL     1     -12.480  13.278  64.860  1.00  0.00    -0.409 A  
HETATM   21  C   UNL     1     -12.857  14.150  65.858  1.00  0.00    -0.294 A  
HETATM   22  O   UNL     1     -13.185  12.197  64.435  1.00  0.00    -0.758 OA 
HETATM   23  C   UNL     1     -11.973  15.190  66.174  1.00  0.00     0.193 A  
HETATM   24  C   UNL     1     -12.275  11.649  63.457  1.00  0.00    -0.246 C  
HETATM   25  O   UNL     1     -11.108  12.468  63.240  1.00  0.00    -0.438 OA 
ENDBRANCH  16  17
ENDBRANCH  15  16
ENDBRANCH  14  15
ENDBRANCH   5   8
TORSDOF 4
ENDMDL
MODEL       91
REMARK 921   NORMALIZED FREE ENERGY PREDICTED BY IDOCK:   -5.87 KCAL/MOL
REMARK 922        TOTAL FREE ENERGY PREDICTED BY IDOCK:   -8.02 KCAL/MOL
REMARK 923 INTER-LIGAND FREE ENERGY PREDICTED BY IDOCK:   -7.01 KCAL/MOL
REMARK 924 INTRA-LIGAND FREE ENERGY PREDICTED BY IDOCK:   -1.00 KCAL/MOL
REMARK 927      BINDING AFFINITY PREDICTED BY RF-SCORE:    0.00 PKD
ROOT
HETATM    1  F   UNL     1     -11.456  14.697  67.671  1.00  0.00    -0.292 F  
HETATM    2  C   UNL     1     -11.611  13.547  68.340  1.00  0.00    -0.343 A  
HETATM    3  C   UNL     1     -11.343  12.342  67.705  1.00  0.00    -0.362 A  
HETATM    4  C   UNL     1     -11.527  11.137  68.395  1.00  0.00    -0.377 A  
HETATM    5  C   UNL     1     -12.004  11.136  69.715  1.00  0.00    -0.428 A  
HETATM    6  C   UNL     1     -12.034  13.577  69.660  1.00  0.00    -0.397 A  
HETATM    7  C   UNL     1     -12.224  12.375  70.347  1.00  0.00    -0.370 A  
ENDROOT
BRANCH   5   8
HETATM    8  C   UNL     1     -12.262   9.855  70.501  1.00  0.00    -0.260 C  
HETATM    9  C   UNL     1     -13.622   9.960  71.217  1.00  0.00    -0.265 C  
HETATM   10  C   UNL     1     -13.950   8.678  71.974  1.00  0.00    -0.446 C  
HETATM   11  N   UNL     1     -12.900   8.360  72.934  1.00  0.00    -0.686 NA 
HETATM   12  C   UNL     1     -11.610   8.160  72.273  1.00  0.00    -0.374 C  
HETATM   13  H   UNL     1     -13.152   7.558  73.511  1.00  0.00     0.000 HD 
HETATM   14  C   UNL     1     -11.156   9.415  71.503  1.00  0.00    -0.446 C  
BRANCH  14  15
HETATM   15  C   UNL     1      -9.807   9.145  70.802  1.00  0.00    -0.270 C  
BRANCH  15  16
HETATM   16  O   UNL     1      -9.648   7.734  70.613  1.00  0.00    -0.167 OA 
BRANCH  16  17
HETATM   17  C   UNL     1      -9.589   7.260  69.329  1.00  0.00    -0.156 A  
HETATM   18  C   UNL     1      -8.527   7.451  68.442  1.00  0.00    -0.125 A  
HETATM   19  C   UNL     1      -8.601   6.837  67.206  1.00  0.00    -0.120 A  
HETATM   20  C   UNL     1      -9.681   6.076  66.829  1.00  0.00    -0.153 A  
HETATM   21  C   UNL     1     -10.758   5.891  67.668  1.00  0.00    -0.352 A  
HETATM   22  O   UNL     1      -9.542   5.557  65.581  1.00  0.00    -0.084 OA 
HETATM   23  C   UNL     1     -10.699   6.485  68.934  1.00  0.00    -0.318 A  
HETATM   24  C   UNL     1      -8.216   6.021  65.243  1.00  0.00    -0.138 C  
HETATM   25  O   UNL     1      -7.644   6.892  66.240  1.00  0.00    -0.085 OA 
ENDBRANCH  16  17
ENDBRANCH  15  16
ENDBRANCH  14  15
ENDBRANCH   5   8
TORSDOF 4
ENDMDL
MODEL       92
REMARK 921   NORMALIZED FREE ENERGY PREDICTED BY IDOCK:   -5.87 KCAL/MOL
REMARK 922        TOTAL FREE ENERGY PREDICTED BY IDOCK:   -8.02 KCAL/MOL
REMARK 923 INTER-LIGAND FREE ENERGY PREDICTED BY IDOCK:   -7.39 KCAL/MOL
REMARK 924 INTRA-LIGAND FREE ENERGY PREDICTED BY IDOCK:   -0.63 KCAL/MOL
REMARK 927      BINDING AFFINITY PREDICTED BY RF-SCORE:    0.00 PKD
ROOT
HETATM    1  F   UNL     1     -13.662  16.407  73.560  1.00  0.00    -0.628 F  
HETATM    2  C   UNL     1     -13.161  15.720  72.525  1.00  0.00    -0.474 A  
HETATM    3  C   UNL     1     -11.840  15.915  72.146  1.00  0.00    -0.615 A  
HETATM    4  C   UNL     1     -11.321  15.215  71.050  1.00  0.00    -0.358 A  
HETATM    5  C   UNL     1     -12.131  14.335  70.315  1.00  0.00    -0.403 A  
HETATM    6  C   UNL     1     -13.969  14.817  71.849  1.00  0.00    -0.577 A  
HETATM    7  C   UNL     1     -13.454  14.124  70.752  1.00  0.00    -0.037 A  
ENDROOT
BRANCH   5   8
HETATM    8  C   UNL     1     -11.633  13.577  69.090  1.00  0.00    -0.359 C  
HETATM    9  C   UNL     1     -11.924  14.404  67.824  1.00  0.00    -0.368 C  
HETATM   10  C   UNL     1     -11.394  13.711  66.574  1.00  0.00    -0.319 C  
HETATM   11  N   UNL     1     -11.962  12.374  66.442  1.00  0.00    -0.607 NA 
HETATM   12  C   UNL     1     -11.621  11.531  67.589  1.00  0.00    -0.247 C  
HETATM   13  H   UNL     1     -11.687  11.937  65.563  1.00  0.00     0.000 HD 
HETATM   14  C   UNL     1     -12.147  12.119  68.913  1.00  0.00    -0.187 C  
BRANCH  14  15
HETATM   15  C   UNL     1     -11.740  11.210  70.092  1.00  0.00    -0.353 C  
BRANCH  15  16
HETATM   16  O   UNL     1     -11.860   9.839  69.695  1.00  0.00     0.001 OA 
BRANCH  16  17
HETATM   17  C   UNL     1     -10.955   8.941  70.197  1.00  0.00    -0.227 A  
HETATM   18  C   UNL     1     -10.246   7.999  69.449  1.00  0.00    -0.210 A  
HETATM   19  C   UNL     1      -9.314   7.220  70.109  1.00  0.00    -0.155 A  
HETATM   20  C   UNL     1      -9.089   7.334  71.460  1.00  0.00    -0.140 A  
HETATM   21  C   UNL     1      -9.790   8.233  72.233  1.00  0.00    -0.364 A  
HETATM   22  O   UNL     1      -8.124   6.484  71.899  1.00  0.00    -0.104 OA 
HETATM   23  C   UNL     1     -10.726   9.049  71.585  1.00  0.00    -0.441 A  
HETATM   24  C   UNL     1      -7.718   5.871  70.656  1.00  0.00    -0.097 C  
HETATM   25  O   UNL     1      -8.518   6.282  69.529  1.00  0.00    -0.125 OA 
ENDBRANCH  16  17
ENDBRANCH  15  16
ENDBRANCH  14  15
ENDBRANCH   5   8
TORSDOF 4
ENDMDL
MODEL       93
REMARK 921   NORMALIZED FREE ENERGY PREDICTED BY IDOCK:   -5.85 KCAL/MOL
REMARK 922        TOTAL FREE ENERGY PREDICTED BY IDOCK:   -7.99 KCAL/MOL
REMARK 923 INTER-LIGAND FREE ENERGY PREDICTED BY IDOCK:   -7.25 KCAL/MOL
REMARK 924 INTRA-LIGAND FREE ENERGY PREDICTED BY IDOCK:   -0.74 KCAL/MOL
REMARK 927      BINDING AFFINITY PREDICTED BY RF-SCORE:    0.00 PKD
ROOT
HETATM    1  F   UNL     1     -13.740   6.484  71.756  1.00  0.00    -0.304 F  
HETATM    2  C   UNL     1     -12.537   7.006  71.482  1.00  0.00    -0.385 A  
HETATM    3  C   UNL     1     -12.106   8.135  72.166  1.00  0.00    -0.408 A  
HETATM    4  C   UNL     1     -10.860   8.696  71.865  1.00  0.00    -0.419 A  
HETATM    5  C   UNL     1     -10.050   8.141  70.861  1.00  0.00    -0.215 A  
HETATM    6  C   UNL     1     -11.735   6.407  70.522  1.00  0.00    -0.385 A  
HETATM    7  C   UNL     1     -10.494   6.970  70.217  1.00  0.00    -0.227 A  
ENDROOT
BRANCH   5   8
HETATM    8  C   UNL     1      -8.702   8.732  70.462  1.00  0.00    -0.196 C  
HETATM    9  C   UNL     1      -7.770   8.750  71.688  1.00  0.00    -0.117 C  
HETATM   10  C   UNL     1      -6.388   9.282  71.326  1.00  0.00    -0.072 C  
HETATM   11  N   UNL     1      -6.482  10.617  70.746  1.00  0.00    -0.383 NA 
HETATM   12  C   UNL     1      -7.286  10.615  69.522  1.00  0.00    -0.140 C  
HETATM   13  H   UNL     1      -5.560  11.021  70.585  1.00  0.00     0.000 HD 
HETATM   14  C   UNL     1      -8.726  10.129  69.779  1.00  0.00    -0.148 C  
BRANCH  14  15
HETATM   15  C   UNL     1      -9.522  10.120  68.457  1.00  0.00    -0.158 C  
BRANCH  15  16
HETATM   16  O   UNL     1     -10.690  10.936  68.604  1.00  0.00    -0.178 OA 
BRANCH  16  17
HETATM   17  C   UNL     1     -11.107  11.663  67.520  1.00  0.00    -0.276 A  
HETATM   18  C   UNL     1     -10.931  11.301  66.183  1.00  0.00    -0.252 A  
HETATM   19  C   UNL     1     -11.482  12.118  65.215  1.00  0.00    -0.336 A  
HETATM   20  C   UNL     1     -12.166  13.268  65.529  1.00  0.00    -0.457 A  
HETATM   21  C   UNL     1     -12.334  13.670  66.836  1.00  0.00    -0.309 A  
HETATM   22  O   UNL     1     -12.633  13.912  64.428  1.00  0.00    -0.647 OA 
HETATM   23  C   UNL     1     -11.803  12.849  67.838  1.00  0.00    -0.388 A  
HETATM   24  C   UNL     1     -12.225  12.998  63.387  1.00  0.00    -0.472 C  
HETATM   25  O   UNL     1     -11.432  11.896  63.873  1.00  0.00    -0.381 OA 
ENDBRANCH  16  17
ENDBRANCH  15  16
ENDBRANCH  14  15
ENDBRANCH   5   8
TORSDOF 4
ENDMDL
MODEL       94
REMARK 921   NORMALIZED FREE ENERGY PREDICTED BY IDOCK:   -5.84 KCAL/MOL
REMARK 922        TOTAL FREE ENERGY PREDICTED BY IDOCK:   -7.99 KCAL/MOL
REMARK 923 INTER-LIGAND FREE ENERGY PREDICTED BY IDOCK:   -6.53 KCAL/MOL
REMARK 924 INTRA-LIGAND FREE ENERGY PREDICTED BY IDOCK:   -1.46 KCAL/MOL
REMARK 927      BINDING AFFINITY PREDICTED BY RF-SCORE:    0.00 PKD
ROOT
HETATM    1  F   UNL     1     -12.781  11.571  63.094  1.00  0.00    -0.655 F  
HETATM    2  C   UNL     1     -12.238  12.501  63.891  1.00  0.00    -0.503 A  
HETATM    3  C   UNL     1     -10.899  12.835  63.745  1.00  0.00    -0.416 A  
HETATM    4  C   UNL     1     -10.324  13.789  64.592  1.00  0.00    -0.393 A  
HETATM    5  C   UNL     1     -11.083  14.395  65.605  1.00  0.00    -0.321 A  
HETATM    6  C   UNL     1     -13.025  13.121  64.850  1.00  0.00    -0.213 A  
HETATM    7  C   UNL     1     -12.451  14.069  65.700  1.00  0.00    -0.531 A  
ENDROOT
BRANCH   5   8
HETATM    8  C   UNL     1     -10.502  15.410  66.583  1.00  0.00    -0.293 C  
HETATM    9  C   UNL     1     -10.086  16.679  65.815  1.00  0.00    -0.301 C  
HETATM   10  C   UNL     1      -9.548  17.747  66.760  1.00  0.00    -0.300 C  
HETATM   11  N   UNL     1      -8.423  17.236  67.533  1.00  0.00    -0.202 NA 
HETATM   12  C   UNL     1      -8.811  16.085  68.350  1.00  0.00    -0.188 C  
HETATM   13  H   UNL     1      -7.996  17.969  68.100  1.00  0.00     0.000 HD 
HETATM   14  C   UNL     1      -9.337  14.920  67.490  1.00  0.00    -0.193 C  
BRANCH  14  15
HETATM   15  C   UNL     1      -9.757  13.743  68.396  1.00  0.00    -0.219 C  
BRANCH  15  16
HETATM   16  O   UNL     1      -8.785  12.696  68.293  1.00  0.00    -0.183 OA 
BRANCH  16  17
HETATM   17  C   UNL     1      -9.234  11.420  68.081  1.00  0.00    -0.178 A  
HETATM   18  C   UNL     1      -8.644  10.258  68.583  1.00  0.00    -0.128 A  
HETATM   19  C   UNL     1      -9.274   9.054  68.334  1.00  0.00    -0.136 A  
HETATM   20  C   UNL     1     -10.432   8.972  67.599  1.00  0.00    -0.260 A  
HETATM   21  C   UNL     1     -11.026  10.094  67.065  1.00  0.00    -0.162 A  
HETATM   22  O   UNL     1     -10.887   7.696  67.486  1.00  0.00    -0.223 OA 
HETATM   23  C   UNL     1     -10.419  11.330  67.321  1.00  0.00    -0.249 A  
HETATM   24  C   UNL     1      -9.918   6.992  68.294  1.00  0.00    -0.153 C  
HETATM   25  O   UNL     1      -8.853   7.837  68.775  1.00  0.00    -0.134 OA 
ENDBRANCH  16  17
ENDBRANCH  15  16
ENDBRANCH  14  15
ENDBRANCH   5   8
TORSDOF 4
ENDMDL
MODEL       95
REMARK 921   NORMALIZED FREE ENERGY PREDICTED BY IDOCK:   -5.84 KCAL/MOL
REMARK 922        TOTAL FREE ENERGY PREDICTED BY IDOCK:   -7.99 KCAL/MOL
REMARK 923 INTER-LIGAND FREE ENERGY PREDICTED BY IDOCK:   -5.91 KCAL/MOL
REMARK 924 INTRA-LIGAND FREE ENERGY PREDICTED BY IDOCK:   -2.08 KCAL/MOL
REMARK 927      BINDING AFFINITY PREDICTED BY RF-SCORE:    0.00 PKD
ROOT
HETATM    1  F   UNL     1     -11.534  11.015  63.858  1.00  0.00    -0.325 F  
HETATM    2  C   UNL     1     -11.465  12.260  64.347  1.00  0.00    -0.354 A  
HETATM    3  C   UNL     1     -10.256  12.942  64.325  1.00  0.00    -0.337 A  
HETATM    4  C   UNL     1     -10.176  14.234  64.857  1.00  0.00    -0.361 A  
HETATM    5  C   UNL     1     -11.303  14.839  65.435  1.00  0.00    -0.356 A  
HETATM    6  C   UNL     1     -12.606  12.854  64.866  1.00  0.00    -0.525 A  
HETATM    7  C   UNL     1     -12.526  14.141  65.403  1.00  0.00    -0.488 A  
ENDROOT
BRANCH   5   8
HETATM    8  C   UNL     1     -11.267  16.227  66.066  1.00  0.00     0.262 C  
HETATM    9  C   UNL     1     -10.610  17.217  65.086  1.00  0.00     0.031 C  
HETATM   10  C   UNL     1     -10.601  18.632  65.651  1.00  0.00    -0.132 C  
HETATM   11  N   UNL     1      -9.918  18.673  66.938  1.00  0.00    -0.325 NA 
HETATM   12  C   UNL     1     -10.577  17.813  67.922  1.00  0.00    -0.382 C  
HETATM   13  H   UNL     1      -9.824  19.628  67.282  1.00  0.00     0.000 HD 
HETATM   14  C   UNL     1     -10.609  16.339  67.471  1.00  0.00    -0.310 C  
BRANCH  14  15
HETATM   15  C   UNL     1     -11.336  15.480  68.527  1.00  0.00    -0.351 C  
BRANCH  15  16
HETATM   16  O   UNL     1     -10.392  14.606  69.157  1.00  0.00    -0.238 OA 
BRANCH  16  17
HETATM   17  C   UNL     1     -10.114  13.412  68.547  1.00  0.00    -0.207 A  
HETATM   18  C   UNL     1     -11.029  12.378  68.333  1.00  0.00    -0.272 A  
HETATM   19  C   UNL     1     -10.597  11.268  67.632  1.00  0.00    -0.213 A  
HETATM   20  C   UNL     1      -9.309  11.151  67.168  1.00  0.00    -0.165 A  
HETATM   21  C   UNL     1      -8.373  12.139  67.386  1.00  0.00    -0.174 A  
HETATM   22  O   UNL     1      -9.102   9.988  66.496  1.00  0.00    -0.145 OA 
HETATM   23  C   UNL     1      -8.791  13.283  68.076  1.00  0.00    -0.190 A  
HETATM   24  C   UNL     1     -10.429   9.418  66.530  1.00  0.00    -0.129 C  
HETATM   25  O   UNL     1     -11.363  10.191  67.310  1.00  0.00    -0.221 OA 
ENDBRANCH  16  17
ENDBRANCH  15  16
ENDBRANCH  14  15
ENDBRANCH   5   8
TORSDOF 4
ENDMDL
MODEL       96
REMARK 921   NORMALIZED FREE ENERGY PREDICTED BY IDOCK:   -5.83 KCAL/MOL
REMARK 922        TOTAL FREE ENERGY PREDICTED BY IDOCK:   -7.97 KCAL/MOL
REMARK 923 INTER-LIGAND FREE ENERGY PREDICTED BY IDOCK:   -7.34 KCAL/MOL
REMARK 924 INTRA-LIGAND FREE ENERGY PREDICTED BY IDOCK:   -0.63 KCAL/MOL
REMARK 927      BINDING AFFINITY PREDICTED BY RF-SCORE:    0.00 PKD
ROOT
HETATM    1  F   UNL     1     -12.121   6.206  71.220  1.00  0.00    -0.342 F  
HETATM    2  C   UNL     1     -11.497   7.218  70.601  1.00  0.00    -0.293 A  
HETATM    3  C   UNL     1     -11.400   8.452  71.230  1.00  0.00    -0.314 A  
HETATM    4  C   UNL     1     -10.769   9.517  70.576  1.00  0.00    -0.359 A  
HETATM    5  C   UNL     1     -10.255   9.355  69.279  1.00  0.00    -0.209 A  
HETATM    6  C   UNL     1     -10.952   7.016  69.342  1.00  0.00    -0.232 A  
HETATM    7  C   UNL     1     -10.328   8.079  68.686  1.00  0.00    -0.224 A  
ENDROOT
BRANCH   5   8
HETATM    8  C   UNL     1      -9.594  10.488  68.502  1.00  0.00    -0.164 C  
HETATM    9  C   UNL     1      -8.065  10.397  68.666  1.00  0.00    -0.118 C  
HETATM   10  C   UNL     1      -7.356  11.479  67.861  1.00  0.00    -0.094 C  
HETATM   11  N   UNL     1      -7.825  12.805  68.247  1.00  0.00    -0.136 NA 
HETATM   12  C   UNL     1      -9.261  12.956  68.012  1.00  0.00    -0.212 C  
HETATM   13  H   UNL     1      -7.292  13.540  67.782  1.00  0.00     0.000 HD 
HETATM   14  C   UNL     1     -10.087  11.930  68.814  1.00  0.00    -0.133 C  
BRANCH  14  15
HETATM   15  C   UNL     1     -11.590  12.112  68.512  1.00  0.00    -0.315 C  
BRANCH  15  16
HETATM   16  O   UNL     1     -11.886  13.510  68.410  1.00  0.00    -0.341 OA 
BRANCH  16  17
HETATM   17  C   UNL     1     -12.017  14.227  69.569  1.00  0.00    -0.336 A  
HETATM   18  C   UNL     1     -12.653  13.782  70.730  1.00  0.00    -0.410 A  
HETATM   19  C   UNL     1     -12.628  14.609  71.838  1.00  0.00    -0.339 A  
HETATM   20  C   UNL     1     -12.024  15.842  71.817  1.00  0.00    -0.494 A  
HETATM   21  C   UNL     1     -11.411  16.324  70.681  1.00  0.00    -0.297 A  
HETATM   22  O   UNL     1     -12.105  16.481  73.013  1.00  0.00    -0.513 OA 
HETATM   23  C   UNL     1     -11.405  15.497  69.551  1.00  0.00    -0.317 A  
HETATM   24  C   UNL     1     -12.771  15.477  73.810  1.00  0.00    -0.597 C  
HETATM   25  O   UNL     1     -13.168  14.317  73.052  1.00  0.00    -0.554 OA 
ENDBRANCH  16  17
ENDBRANCH  15  16
ENDBRANCH  14  15
ENDBRANCH   5   8
TORSDOF 4
ENDMDL
MODEL       97
REMARK 921   NORMALIZED FREE ENERGY PREDICTED BY IDOCK:   -5.83 KCAL/MOL
REMARK 922        TOTAL FREE ENERGY PREDICTED BY IDOCK:   -7.97 KCAL/MOL
REMARK 923 INTER-LIGAND FREE ENERGY PREDICTED BY IDOCK:   -7.67 KCAL/MOL
REMARK 924 INTRA-LIGAND FREE ENERGY PREDICTED BY IDOCK:   -0.30 KCAL/MOL
REMARK 927      BINDING AFFINITY PREDICTED BY RF-SCORE:    0.00 PKD
ROOT
HETATM    1  F   UNL     1     -13.897  15.725  73.213  1.00  0.00    -0.589 F  
HETATM    2  C   UNL     1     -13.101  15.385  72.190  1.00  0.00    -0.406 A  
HETATM    3  C   UNL     1     -11.793  15.849  72.154  1.00  0.00    -0.615 A  
HETATM    4  C   UNL     1     -10.967  15.515  71.074  1.00  0.00    -0.314 A  
HETATM    5  C   UNL     1     -11.457  14.734  70.015  1.00  0.00    -0.321 A  
HETATM    6  C   UNL     1     -13.595  14.570  71.183  1.00  0.00    -0.368 A  
HETATM    7  C   UNL     1     -12.774  14.241  70.102  1.00  0.00    -0.246 A  
ENDROOT
BRANCH   5   8
HETATM    8  C   UNL     1     -10.617  14.372  68.795  1.00  0.00    -0.256 C  
HETATM    9  C   UNL     1     -10.033  15.656  68.177  1.00  0.00    -0.217 C  
HETATM   10  C   UNL     1      -9.138  15.340  66.984  1.00  0.00    -0.225 C  
HETATM   11  N   UNL     1      -9.870  14.585  65.974  1.00  0.00    -0.307 NA 
HETATM   12  C   UNL     1     -10.358  13.311  66.505  1.00  0.00    -0.285 C  
HETATM   13  H   UNL     1      -9.311  14.448  65.132  1.00  0.00     0.000 HD 
HETATM   14  C   UNL     1     -11.310  13.512  67.699  1.00  0.00    -0.326 C  
BRANCH  14  15
HETATM   15  C   UNL     1     -11.775  12.142  68.239  1.00  0.00    -0.342 C  
BRANCH  15  16
HETATM   16  O   UNL     1     -10.764  11.606  69.100  1.00  0.00    -0.208 OA 
BRANCH  16  17
HETATM   17  C   UNL     1     -10.986  10.380  69.668  1.00  0.00    -0.277 A  
HETATM   18  C   UNL     1     -10.535   9.158  69.164  1.00  0.00    -0.230 A  
HETATM   19  C   UNL     1     -10.787   8.020  69.907  1.00  0.00    -0.217 A  
HETATM   20  C   UNL     1     -11.475   8.059  71.095  1.00  0.00    -0.276 A  
HETATM   21  C   UNL     1     -11.959   9.243  71.608  1.00  0.00    -0.448 A  
HETATM   22  O   UNL     1     -11.599   6.832  71.665  1.00  0.00    -0.264 OA 
HETATM   23  C   UNL     1     -11.700  10.413  70.885  1.00  0.00    -0.455 A  
HETATM   24  C   UNL     1     -10.847   6.025  70.732  1.00  0.00    -0.292 C  
HETATM   25  O   UNL     1     -10.391   6.761  69.579  1.00  0.00    -0.187 OA 
ENDBRANCH  16  17
ENDBRANCH  15  16
ENDBRANCH  14  15
ENDBRANCH   5   8
TORSDOF 4
ENDMDL
MODEL       98
REMARK 921   NORMALIZED FREE ENERGY PREDICTED BY IDOCK:   -5.82 KCAL/MOL
REMARK 922        TOTAL FREE ENERGY PREDICTED BY IDOCK:   -7.96 KCAL/MOL
REMARK 923 INTER-LIGAND FREE ENERGY PREDICTED BY IDOCK:   -7.25 KCAL/MOL
REMARK 924 INTRA-LIGAND FREE ENERGY PREDICTED BY IDOCK:   -0.71 KCAL/MOL
REMARK 927      BINDING AFFINITY PREDICTED BY RF-SCORE:    0.00 PKD
ROOT
HETATM    1  F   UNL     1     -10.685   4.667  65.274  1.00  0.00    -0.255 F  
HETATM    2  C   UNL     1     -10.474   5.009  66.552  1.00  0.00    -0.276 A  
HETATM    3  C   UNL     1      -9.790   4.139  67.391  1.00  0.00    -0.152 A  
HETATM    4  C   UNL     1      -9.589   4.484  68.733  1.00  0.00    -0.227 A  
HETATM    5  C   UNL     1     -10.092   5.690  69.244  1.00  0.00    -0.281 A  
HETATM    6  C   UNL     1     -10.937   6.230  67.018  1.00  0.00    -0.442 A  
HETATM    7  C   UNL     1     -10.742   6.572  68.358  1.00  0.00    -0.339 A  
ENDROOT
BRANCH   5   8
HETATM    8  C   UNL     1      -9.939   6.100  70.705  1.00  0.00    -0.229 C  
HETATM    9  C   UNL     1      -8.758   5.333  71.329  1.00  0.00    -0.136 C  
HETATM   10  C   UNL     1      -8.530   5.750  72.778  1.00  0.00    -0.119 C  
HETATM   11  N   UNL     1      -9.736   5.550  73.572  1.00  0.00    -0.146 NA 
HETATM   12  C   UNL     1     -10.854   6.343  73.059  1.00  0.00    -0.259 C  
HETATM   13  H   UNL     1      -9.569   5.737  74.560  1.00  0.00     0.000 HD 
HETATM   14  C   UNL     1     -11.202   5.974  71.603  1.00  0.00    -0.328 C  
BRANCH  14  15
HETATM   15  C   UNL     1     -12.367   6.854  71.100  1.00  0.00    -0.370 C  
BRANCH  15  16
HETATM   16  O   UNL     1     -12.609   7.902  72.046  1.00  0.00    -0.312 OA 
BRANCH  16  17
HETATM   17  C   UNL     1     -12.519   9.197  71.608  1.00  0.00    -0.359 A  
HETATM   18  C   UNL     1     -13.225  10.282  72.133  1.00  0.00    -0.443 A  
HETATM   19  C   UNL     1     -12.956  11.536  71.620  1.00  0.00    -0.394 A  
HETATM   20  C   UNL     1     -12.045  11.735  70.611  1.00  0.00    -0.311 A  
HETATM   21  C   UNL     1     -11.352  10.684  70.050  1.00  0.00    -0.400 A  
HETATM   22  O   UNL     1     -11.927  13.044  70.267  1.00  0.00    -0.337 OA 
HETATM   23  C   UNL     1     -11.591   9.405  70.566  1.00  0.00    -0.291 A  
HETATM   24  C   UNL     1     -12.818  13.656  71.225  1.00  0.00    -0.344 C  
HETATM   25  O   UNL     1     -13.527  12.698  72.038  1.00  0.00    -0.498 OA 
ENDBRANCH  16  17
ENDBRANCH  15  16
ENDBRANCH  14  15
ENDBRANCH   5   8
TORSDOF 4
ENDMDL
MODEL       99
REMARK 921   NORMALIZED FREE ENERGY PREDICTED BY IDOCK:   -5.76 KCAL/MOL
REMARK 922        TOTAL FREE ENERGY PREDICTED BY IDOCK:   -7.89 KCAL/MOL
REMARK 923 INTER-LIGAND FREE ENERGY PREDICTED BY IDOCK:   -6.69 KCAL/MOL
REMARK 924 INTRA-LIGAND FREE ENERGY PREDICTED BY IDOCK:   -1.20 KCAL/MOL
REMARK 927      BINDING AFFINITY PREDICTED BY RF-SCORE:    0.00 PKD
ROOT
HETATM    1  F   UNL     1      -8.210   6.343  66.964  1.00  0.00    -0.108 F  
HETATM    2  C   UNL     1      -8.872   7.127  67.825  1.00  0.00    -0.124 A  
HETATM    3  C   UNL     1      -8.176   8.063  68.577  1.00  0.00    -0.126 A  
HETATM    4  C   UNL     1      -8.862   8.868  69.494  1.00  0.00    -0.144 A  
HETATM    5  C   UNL     1     -10.246   8.719  69.679  1.00  0.00    -0.210 A  
HETATM    6  C   UNL     1     -10.248   6.995  67.950  1.00  0.00    -0.224 A  
HETATM    7  C   UNL     1     -10.932   7.793  68.869  1.00  0.00     0.082 A  
ENDROOT
BRANCH   5   8
HETATM    8  C   UNL     1     -11.040   9.538  70.691  1.00  0.00    -0.364 C  
HETATM    9  C   UNL     1     -11.813   8.587  71.624  1.00  0.00    -0.370 C  
HETATM   10  C   UNL     1     -12.580   9.359  72.691  1.00  0.00     0.014 C  
HETATM   11  N   UNL     1     -13.494  10.318  72.080  1.00  0.00    -0.534 NA 
HETATM   12  C   UNL     1     -12.777  11.297  71.262  1.00  0.00    -0.405 C  
HETATM   13  H   UNL     1     -14.079  10.774  72.780  1.00  0.00     0.000 HD 
HETATM   14  C   UNL     1     -11.992  10.626  70.118  1.00  0.00    -0.417 C  
BRANCH  14  15
HETATM   15  C   UNL     1     -11.233  11.695  69.302  1.00  0.00    -0.265 C  
BRANCH  15  16
HETATM   16  O   UNL     1     -12.019  12.065  68.163  1.00  0.00    -0.465 OA 
BRANCH  16  17
HETATM   17  C   UNL     1     -11.452  11.938  66.922  1.00  0.00    -0.322 A  
HETATM   18  C   UNL     1     -10.640  10.881  66.505  1.00  0.00    -0.295 A  
HETATM   19  C   UNL     1     -10.214  10.874  65.191  1.00  0.00    -0.297 A  
HETATM   20  C   UNL     1     -10.544  11.874  64.308  1.00  0.00    -0.334 A  
HETATM   21  C   UNL     1     -11.319  12.946  64.693  1.00  0.00    -0.361 A  
HETATM   22  O   UNL     1     -10.031  11.663  63.068  1.00  0.00    -0.383 OA 
HETATM   23  C   UNL     1     -11.782  12.966  66.014  1.00  0.00    -0.456 A  
HETATM   24  C   UNL     1      -9.397  10.379  63.253  1.00  0.00    -0.304 C  
HETATM   25  O   UNL     1      -9.448   9.907  64.615  1.00  0.00    -0.276 OA 
ENDBRANCH  16  17
ENDBRANCH  15  16
ENDBRANCH  14  15
ENDBRANCH   5   8
TORSDOF 4
ENDMDL
MODEL      100
REMARK 921   NORMALIZED FREE ENERGY PREDICTED BY IDOCK:   -5.74 KCAL/MOL
REMARK 922        TOTAL FREE ENERGY PREDICTED BY IDOCK:   -7.87 KCAL/MOL
REMARK 923 INTER-LIGAND FREE ENERGY PREDICTED BY IDOCK:   -7.16 KCAL/MOL
REMARK 924 INTRA-LIGAND FREE ENERGY PREDICTED BY IDOCK:   -0.71 KCAL/MOL
REMARK 927      BINDING AFFINITY PREDICTED BY RF-SCORE:    0.00 PKD
ROOT
HETATM    1  F   UNL     1     -12.764  15.514  63.957  1.00  0.00    -0.370 F  
HETATM    2  C   UNL     1     -12.042  14.455  64.346  1.00  0.00    -0.470 A  
HETATM    3  C   UNL     1     -11.107  14.598  65.363  1.00  0.00    -0.349 A  
HETATM    4  C   UNL     1     -10.335  13.498  65.756  1.00  0.00    -0.296 A  
HETATM    5  C   UNL     1     -10.480  12.258  65.115  1.00  0.00    -0.320 A  
HETATM    6  C   UNL     1     -12.243  13.228  63.732  1.00  0.00    -0.508 A  
HETATM    7  C   UNL     1     -11.469  12.132  64.119  1.00  0.00    -0.460 A  
ENDROOT
BRANCH   5   8
HETATM    8  C   UNL     1      -9.640  11.036  65.473  1.00  0.00    -0.263 C  
HETATM    9  C   UNL     1      -9.037  10.438  64.189  1.00  0.00    -0.272 C  
HETATM   10  C   UNL     1      -8.141   9.244  64.501  1.00  0.00    -0.139 C  
HETATM   11  N   UNL     1      -8.878   8.221  65.234  1.00  0.00    -0.378 NA 
HETATM   12  C   UNL     1      -9.384   8.734  66.508  1.00  0.00    -0.203 C  
HETATM   13  H   UNL     1      -8.317   7.380  65.368  1.00  0.00     0.000 HD 
HETATM   14  C   UNL     1     -10.339   9.928  66.310  1.00  0.00    -0.233 C  
BRANCH  14  15
HETATM   15  C   UNL     1     -10.823  10.448  67.681  1.00  0.00    -0.306 C  
BRANCH  15  16
HETATM   16  O   UNL     1      -9.695  10.623  68.545  1.00  0.00    -0.160 OA 
BRANCH  16  17
HETATM   17  C   UNL     1      -9.682   9.941  69.733  1.00  0.00    -0.236 A  
HETATM   18  C   UNL     1     -10.810   9.577  70.472  1.00  0.00    -0.352 A  
HETATM   19  C   UNL     1     -10.618   8.822  71.613  1.00  0.00    -0.331 A  
HETATM   20  C   UNL     1      -9.367   8.447  72.042  1.00  0.00    -0.262 A  
HETATM   21  C   UNL     1      -8.231   8.812  71.353  1.00  0.00    -0.203 A  
HETATM   22  O   UNL     1      -9.408   7.701  73.176  1.00  0.00    -0.185 OA 
HETATM   23  C   UNL     1      -8.400   9.560  70.181  1.00  0.00    -0.212 A  
HETATM   24  C   UNL     1     -10.835   7.590  73.374  1.00  0.00    -0.285 C  
HETATM   25  O   UNL     1     -11.604   8.359  72.427  1.00  0.00    -0.367 OA 
ENDBRANCH  16  17
ENDBRANCH  15  16
ENDBRANCH  14  15
ENDBRANCH   5   8
TORSDOF 4
ENDMDL
MODEL      101
REMARK 921   NORMALIZED FREE ENERGY PREDICTED BY IDOCK:   -5.74 KCAL/MOL
REMARK 922        TOTAL FREE ENERGY PREDICTED BY IDOCK:   -7.86 KCAL/MOL
REMARK 923 INTER-LIGAND FREE ENERGY PREDICTED BY IDOCK:   -6.32 KCAL/MOL
REMARK 924 INTRA-LIGAND FREE ENERGY PREDICTED BY IDOCK:   -1.54 KCAL/MOL
REMARK 927      BINDING AFFINITY PREDICTED BY RF-SCORE:    0.00 PKD
ROOT
HETATM    1  F   UNL     1     -11.882  16.086  64.256  1.00  0.00    -0.463 F  
HETATM    2  C   UNL     1     -11.530  14.918  64.810  1.00  0.00    -0.410 A  
HETATM    3  C   UNL     1     -12.472  13.906  64.938  1.00  0.00    -0.420 A  
HETATM    4  C   UNL     1     -12.111  12.693  65.537  1.00  0.00    -0.515 A  
HETATM    5  C   UNL     1     -10.813  12.499  66.033  1.00  0.00    -0.309 A  
HETATM    6  C   UNL     1     -10.225  14.734  65.245  1.00  0.00    -0.415 A  
HETATM    7  C   UNL     1      -9.867  13.527  65.849  1.00  0.00    -0.255 A  
ENDROOT
BRANCH   5   8
HETATM    8  C   UNL     1     -10.374  11.216  66.731  1.00  0.00    -0.284 C  
HETATM    9  C   UNL     1     -10.612  10.018  65.793  1.00  0.00     0.049 C  
HETATM   10  C   UNL     1     -10.137   8.716  66.427  1.00  0.00    -0.224 C  
HETATM   11  N   UNL     1     -10.798   8.491  67.707  1.00  0.00    -0.495 NA 
HETATM   12  C   UNL     1     -10.512   9.569  68.655  1.00  0.00    -0.211 C  
HETATM   13  H   UNL     1     -10.558   7.579  68.096  1.00  0.00     0.000 HD 
HETATM   14  C   UNL     1     -10.989  10.938  68.132  1.00  0.00    -0.302 C  
BRANCH  14  15
HETATM   15  C   UNL     1     -10.642  12.042  69.153  1.00  0.00    -0.025 C  
BRANCH  15  16
HETATM   16  O   UNL     1     -11.594  13.107  69.039  1.00  0.00    -0.271 OA 
BRANCH  16  17
HETATM   17  C   UNL     1     -11.117  14.386  68.926  1.00  0.00    -0.259 A  
HETATM   18  C   UNL     1      -9.782  14.771  69.073  1.00  0.00    -0.190 A  
HETATM   19  C   UNL     1      -9.464  16.097  68.852  1.00  0.00    -0.244 A  
HETATM   20  C   UNL     1     -10.414  17.032  68.518  1.00  0.00    -0.373 A  
HETATM   21  C   UNL     1     -11.744  16.694  68.393  1.00  0.00     0.288 A  
HETATM   22  O   UNL     1      -9.884  18.269  68.334  1.00  0.00    -0.329 OA 
HETATM   23  C   UNL     1     -12.090  15.352  68.592  1.00  0.00    -0.126 A  
HETATM   24  C   UNL     1      -8.479  17.991  68.522  1.00  0.00    -0.305 C  
HETATM   25  O   UNL     1      -8.214  16.630  68.921  1.00  0.00    -0.235 OA 
ENDBRANCH  16  17
ENDBRANCH  15  16
ENDBRANCH  14  15
ENDBRANCH   5   8
TORSDOF 4
ENDMDL
MODEL      102
REMARK 921   NORMALIZED FREE ENERGY PREDICTED BY IDOCK:   -5.74 KCAL/MOL
REMARK 922        TOTAL FREE ENERGY PREDICTED BY IDOCK:   -7.86 KCAL/MOL
REMARK 923 INTER-LIGAND FREE ENERGY PREDICTED BY IDOCK:   -7.10 KCAL/MOL
REMARK 924 INTRA-LIGAND FREE ENERGY PREDICTED BY IDOCK:   -0.76 KCAL/MOL
REMARK 927      BINDING AFFINITY PREDICTED BY RF-SCORE:    0.00 PKD
ROOT
HETATM    1  F   UNL     1     -11.734  11.194  63.682  1.00  0.00    -0.352 F  
HETATM    2  C   UNL     1     -11.489  12.291  64.410  1.00  0.00    -0.354 A  
HETATM    3  C   UNL     1     -10.219  12.852  64.403  1.00  0.00    -0.342 A  
HETATM    4  C   UNL     1      -9.955  13.985  65.181  1.00  0.00    -0.257 A  
HETATM    5  C   UNL     1     -10.956  14.546  65.989  1.00  0.00    -0.324 A  
HETATM    6  C   UNL     1     -12.511  12.856  65.159  1.00  0.00    -0.561 A  
HETATM    7  C   UNL     1     -12.247  13.982  65.941  1.00  0.00    -0.481 A  
ENDROOT
BRANCH   5   8
HETATM    8  C   UNL     1     -10.717  15.754  66.887  1.00  0.00    -0.299 C  
HETATM    9  C   UNL     1     -10.461  16.997  66.015  1.00  0.00    -0.280 C  
HETATM   10  C   UNL     1     -10.269  18.244  66.870  1.00  0.00    -0.375 C  
HETATM   11  N   UNL     1      -9.176  18.061  67.817  1.00  0.00    -0.259 NA 
HETATM   12  C   UNL     1      -9.435  16.943  68.726  1.00  0.00    -0.264 C  
HETATM   13  H   UNL     1      -8.978  18.920  68.330  1.00  0.00     0.000 HD 
HETATM   14  C   UNL     1      -9.606  15.612  67.967  1.00  0.00    -0.203 C  
BRANCH  14  15
HETATM   15  C   UNL     1      -9.903  14.472  68.965  1.00  0.00    -0.138 C  
BRANCH  15  16
HETATM   16  O   UNL     1     -11.320  14.335  69.118  1.00  0.00    -0.249 OA 
BRANCH  16  17
HETATM   17  C   UNL     1     -11.871  14.658  70.329  1.00  0.00    -0.303 A  
HETATM   18  C   UNL     1     -11.190  15.240  71.401  1.00  0.00    -0.364 A  
HETATM   19  C   UNL     1     -11.919  15.570  72.527  1.00  0.00    -0.455 A  
HETATM   20  C   UNL     1     -13.268  15.324  72.624  1.00  0.00    -0.455 A  
HETATM   21  C   UNL     1     -13.966  14.725  71.598  1.00  0.00    -0.559 A  
HETATM   22  O   UNL     1     -13.788  15.737  73.809  1.00  0.00    -0.038 OA 
HETATM   23  C   UNL     1     -13.254  14.400  70.437  1.00  0.00     0.022 A  
HETATM   24  C   UNL     1     -12.624  16.337  74.420  1.00  0.00    -0.383 C  
HETATM   25  O   UNL     1     -11.421  16.170  73.642  1.00  0.00     0.172 OA 
ENDBRANCH  16  17
ENDBRANCH  15  16
ENDBRANCH  14  15
ENDBRANCH   5   8
TORSDOF 4
ENDMDL
MODEL      103
REMARK 921   NORMALIZED FREE ENERGY PREDICTED BY IDOCK:   -5.74 KCAL/MOL
REMARK 922        TOTAL FREE ENERGY PREDICTED BY IDOCK:   -7.86 KCAL/MOL
REMARK 923 INTER-LIGAND FREE ENERGY PREDICTED BY IDOCK:   -7.08 KCAL/MOL
REMARK 924 INTRA-LIGAND FREE ENERGY PREDICTED BY IDOCK:   -0.78 KCAL/MOL
REMARK 927      BINDING AFFINITY PREDICTED BY RF-SCORE:    0.00 PKD
ROOT
HETATM    1  F   UNL     1      -8.367  10.330  65.716  1.00  0.00    -0.130 F  
HETATM    2  C   UNL     1      -8.739   9.738  66.859  1.00  0.00    -0.135 A  
HETATM    3  C   UNL     1      -8.133  10.106  68.052  1.00  0.00    -0.112 A  
HETATM    4  C   UNL     1      -8.503   9.472  69.244  1.00  0.00    -0.139 A  
HETATM    5  C   UNL     1      -9.465   8.449  69.240  1.00  0.00    -0.155 A  
HETATM    6  C   UNL     1      -9.729   8.767  66.834  1.00  0.00    -0.273 A  
HETATM    7  C   UNL     1     -10.095   8.129  68.021  1.00  0.00    -0.241 A  
ENDROOT
BRANCH   5   8
HETATM    8  C   UNL     1      -9.879   7.695  70.499  1.00  0.00    -0.183 C  
HETATM    9  C   UNL     1      -9.842   6.181  70.224  1.00  0.00    -0.206 C  
HETATM   10  C   UNL     1     -10.196   5.381  71.472  1.00  0.00    -0.219 C  
HETATM   11  N   UNL     1     -11.506   5.768  71.982  1.00  0.00    -0.240 NA 
HETATM   12  C   UNL     1     -11.544   7.185  72.344  1.00  0.00    -0.253 C  
HETATM   13  H   UNL     1     -11.794   5.176  72.761  1.00  0.00     0.000 HD 
HETATM   14  C   UNL     1     -11.238   8.097  71.139  1.00  0.00    -0.289 C  
BRANCH  14  15
HETATM   15  C   UNL     1     -11.264   9.577  71.578  1.00  0.00    -0.367 C  
BRANCH  15  16
HETATM   16  O   UNL     1     -12.554  10.131  71.294  1.00  0.00    -0.336 OA 
BRANCH  16  17
HETATM   17  C   UNL     1     -12.687  11.494  71.317  1.00  0.00    -0.364 A  
HETATM   18  C   UNL     1     -13.386  12.225  72.280  1.00  0.00    -0.375 A  
HETATM   19  C   UNL     1     -13.356  13.604  72.192  1.00  0.00    -0.494 A  
HETATM   20  C   UNL     1     -12.686  14.259  71.187  1.00  0.00    -0.360 A  
HETATM   21  C   UNL     1     -12.010  13.569  70.204  1.00  0.00    -0.399 A  
HETATM   22  O   UNL     1     -12.775  15.610  71.297  1.00  0.00    -0.430 OA 
HETATM   23  C   UNL     1     -12.008  12.171  70.282  1.00  0.00    -0.389 A  
HETATM   24  C   UNL     1     -13.520  15.731  72.529  1.00  0.00    -0.498 C  
HETATM   25  O   UNL     1     -13.953  14.463  73.062  1.00  0.00    -0.490 OA 
ENDBRANCH  16  17
ENDBRANCH  15  16
ENDBRANCH  14  15
ENDBRANCH   5   8
TORSDOF 4
ENDMDL
MODEL      104
REMARK 921   NORMALIZED FREE ENERGY PREDICTED BY IDOCK:   -5.74 KCAL/MOL
REMARK 922        TOTAL FREE ENERGY PREDICTED BY IDOCK:   -7.86 KCAL/MOL
REMARK 923 INTER-LIGAND FREE ENERGY PREDICTED BY IDOCK:   -6.67 KCAL/MOL
REMARK 924 INTRA-LIGAND FREE ENERGY PREDICTED BY IDOCK:   -1.19 KCAL/MOL
REMARK 927      BINDING AFFINITY PREDICTED BY RF-SCORE:    0.00 PKD
ROOT
HETATM    1  F   UNL     1      -7.516  16.133  68.177  1.00  0.00    -0.124 F  
HETATM    2  C   UNL     1      -7.787  14.830  68.028  1.00  0.00    -0.130 A  
HETATM    3  C   UNL     1      -7.060  13.890  68.746  1.00  0.00    -0.109 A  
HETATM    4  C   UNL     1      -7.326  12.526  68.575  1.00  0.00    -0.115 A  
HETATM    5  C   UNL     1      -8.305  12.099  67.665  1.00  0.00    -0.163 A  
HETATM    6  C   UNL     1      -8.796  14.437  67.161  1.00  0.00    -0.244 A  
HETATM    7  C   UNL     1      -9.057  13.076  66.984  1.00  0.00    -0.230 A  
ENDROOT
BRANCH   5   8
HETATM    8  C   UNL     1      -8.611  10.627  67.406  1.00  0.00    -0.122 C  
HETATM    9  C   UNL     1      -8.251  10.279  65.950  1.00  0.00    -0.148 C  
HETATM   10  C   UNL     1      -8.488   8.801  65.659  1.00  0.00    -0.160 C  
HETATM   11  N   UNL     1      -9.871   8.433  65.937  1.00  0.00    -0.457 NA 
HETATM   12  C   UNL     1     -10.216   8.663  67.341  1.00  0.00    -0.262 C  
HETATM   13  H   UNL     1     -10.065   7.471  65.658  1.00  0.00     0.000 HD 
HETATM   14  C   UNL     1     -10.051  10.143  67.739  1.00  0.00    -0.216 C  
BRANCH  14  15
HETATM   15  C   UNL     1     -10.399  10.329  69.232  1.00  0.00    -0.231 C  
BRANCH  15  16
HETATM   16  O   UNL     1     -11.794  10.633  69.357  1.00  0.00    -0.283 OA 
BRANCH  16  17
HETATM   17  C   UNL     1     -12.142  11.846  69.891  1.00  0.00    -0.272 A  
HETATM   18  C   UNL     1     -12.765  12.039  71.126  1.00  0.00    -0.365 A  
HETATM   19  C   UNL     1     -12.977  13.338  71.545  1.00  0.00    -0.337 A  
HETATM   20  C   UNL     1     -12.617  14.423  70.782  1.00  0.00    -0.357 A  
HETATM   21  C   UNL     1     -12.027  14.268  69.546  1.00  0.00    -0.384 A  
HETATM   22  O   UNL     1     -12.905  15.604  71.388  1.00  0.00    -0.439 OA 
HETATM   23  C   UNL     1     -11.782  12.962  69.107  1.00  0.00    -0.376 A  
HETATM   24  C   UNL     1     -13.425  15.139  72.653  1.00  0.00    -0.475 C  
HETATM   25  O   UNL     1     -13.539  13.703  72.729  1.00  0.00    -0.672 OA 
ENDBRANCH  16  17
ENDBRANCH  15  16
ENDBRANCH  14  15
ENDBRANCH   5   8
TORSDOF 4
ENDMDL
MODEL      105
REMARK 921   NORMALIZED FREE ENERGY PREDICTED BY IDOCK:   -5.72 KCAL/MOL
REMARK 922        TOTAL FREE ENERGY PREDICTED BY IDOCK:   -7.84 KCAL/MOL
REMARK 923 INTER-LIGAND FREE ENERGY PREDICTED BY IDOCK:   -7.47 KCAL/MOL
REMARK 924 INTRA-LIGAND FREE ENERGY PREDICTED BY IDOCK:   -0.37 KCAL/MOL
REMARK 927      BINDING AFFINITY PREDICTED BY RF-SCORE:    0.00 PKD
ROOT
HETATM    1  F   UNL     1     -13.161  12.161  63.284  1.00  0.00    -0.550 F  
HETATM    2  C   UNL     1     -12.320  12.707  64.173  1.00  0.00    -0.436 A  
HETATM    3  C   UNL     1     -12.031  14.063  64.104  1.00  0.00    -0.439 A  
HETATM    4  C   UNL     1     -11.134  14.630  65.017  1.00  0.00    -0.401 A  
HETATM    5  C   UNL     1     -10.505  13.835  65.988  1.00  0.00    -0.297 A  
HETATM    6  C   UNL     1     -11.752  11.908  65.155  1.00  0.00    -0.244 A  
HETATM    7  C   UNL     1     -10.852  12.471  66.062  1.00  0.00    -0.309 A  
ENDROOT
BRANCH   5   8
HETATM    8  C   UNL     1      -9.490  14.388  66.982  1.00  0.00    -0.255 C  
HETATM    9  C   UNL     1      -8.396  13.335  67.235  1.00  0.00    -0.182 C  
HETATM   10  C   UNL     1      -7.326  13.864  68.183  1.00  0.00    -0.123 C  
HETATM   11  N   UNL     1      -7.916  14.289  69.447  1.00  0.00    -0.351 NA 
HETATM   12  C   UNL     1      -8.894  15.360  69.249  1.00  0.00    -0.258 C  
HETATM   13  H   UNL     1      -7.201  14.557  70.122  1.00  0.00     0.000 HD 
HETATM   14  C   UNL     1     -10.052  14.921  68.331  1.00  0.00    -0.225 C  
BRANCH  14  15
HETATM   15  C   UNL     1     -11.040  16.090  68.132  1.00  0.00    -0.344 C  
BRANCH  15  16
HETATM   16  O   UNL     1     -10.621  17.203  68.930  1.00  0.00    -0.337 OA 
BRANCH  16  17
HETATM   17  C   UNL     1      -9.847  18.166  68.337  1.00  0.00    -0.370 A  
HETATM   18  C   UNL     1      -8.683  18.718  68.876  1.00  0.00    -0.233 A  
HETATM   19  C   UNL     1      -7.983  19.627  68.106  1.00  0.00    -0.318 A  
HETATM   20  C   UNL     1      -8.408  20.009  66.857  1.00  0.00    -0.326 A  
HETATM   21  C   UNL     1      -9.566  19.506  66.306  1.00  0.00    -0.466 A  
HETATM   22  O   UNL     1      -7.566  20.900  66.271  1.00  0.00     0.044 OA 
HETATM   23  C   UNL     1     -10.284  18.567  67.057  1.00  0.00    -0.410 A  
HETATM   24  C   UNL     1      -6.524  20.982  67.269  1.00  0.00    -0.351 C  
HETATM   25  O   UNL     1      -6.819  20.233  68.465  1.00  0.00    -0.292 OA 
ENDBRANCH  16  17
ENDBRANCH  15  16
ENDBRANCH  14  15
ENDBRANCH   5   8
TORSDOF 4
ENDMDL
MODEL      106
REMARK 921   NORMALIZED FREE ENERGY PREDICTED BY IDOCK:   -5.67 KCAL/MOL
REMARK 922        TOTAL FREE ENERGY PREDICTED BY IDOCK:   -7.78 KCAL/MOL
REMARK 923 INTER-LIGAND FREE ENERGY PREDICTED BY IDOCK:   -7.06 KCAL/MOL
REMARK 924 INTRA-LIGAND FREE ENERGY PREDICTED BY IDOCK:   -0.72 KCAL/MOL
REMARK 927      BINDING AFFINITY PREDICTED BY RF-SCORE:    0.00 PKD
ROOT
HETATM    1  F   UNL     1     -14.383   6.944  72.174  1.00  0.00    -0.437 F  
HETATM    2  C   UNL     1     -13.243   7.456  71.690  1.00  0.00    -0.362 A  
HETATM    3  C   UNL     1     -13.040   8.829  71.719  1.00  0.00    -0.406 A  
HETATM    4  C   UNL     1     -11.859   9.368  71.193  1.00  0.00    -0.413 A  
HETATM    5  C   UNL     1     -10.890   8.534  70.614  1.00  0.00    -0.255 A  
HETATM    6  C   UNL     1     -12.279   6.605  71.171  1.00  0.00    -0.357 A  
HETATM    7  C   UNL     1     -11.104   7.142  70.640  1.00  0.00    -0.294 A  
ENDROOT
BRANCH   5   8
HETATM    8  C   UNL     1      -9.604   9.067  69.990  1.00  0.00    -0.203 C  
HETATM    9  C   UNL     1      -8.451   8.930  71.001  1.00  0.00    -0.244 C  
HETATM   10  C   UNL     1      -7.130   9.400  70.402  1.00  0.00    -0.104 C  
HETATM   11  N   UNL     1      -7.232  10.779  69.939  1.00  0.00    -0.320 NA 
HETATM   12  C   UNL     1      -8.258  10.923  68.905  1.00  0.00    -0.141 C  
HETATM   13  H   UNL     1      -6.330  11.134  69.621  1.00  0.00     0.000 HD 
HETATM   14  C   UNL     1      -9.653  10.511  69.415  1.00  0.00    -0.170 C  
BRANCH  14  15
HETATM   15  C   UNL     1     -10.692  10.656  68.283  1.00  0.00    -0.219 C  
BRANCH  15  16
HETATM   16  O   UNL     1     -11.645  11.664  68.642  1.00  0.00    -0.259 OA 
BRANCH  16  17
HETATM   17  C   UNL     1     -11.353  12.965  68.327  1.00  0.00    -0.291 A  
HETATM   18  C   UNL     1     -10.674  13.391  67.183  1.00  0.00    -0.268 A  
HETATM   19  C   UNL     1     -10.532  14.751  66.986  1.00  0.00    -0.270 A  
HETATM   20  C   UNL     1     -11.013  15.675  67.882  1.00  0.00    -0.319 A  
HETATM   21  C   UNL     1     -11.663  15.290  69.034  1.00  0.00    -0.368 A  
HETATM   22  O   UNL     1     -10.776  16.954  67.487  1.00  0.00    -0.329 OA 
HETATM   23  C   UNL     1     -11.839  13.917  69.248  1.00  0.00    -0.394 A  
HETATM   24  C   UNL     1     -10.151  16.729  66.205  1.00  0.00    -0.345 C  
HETATM   25  O   UNL     1      -9.929  15.333  65.915  1.00  0.00    -0.291 OA 
ENDBRANCH  16  17
ENDBRANCH  15  16
ENDBRANCH  14  15
ENDBRANCH   5   8
TORSDOF 4
ENDMDL
MODEL      107
REMARK 921   NORMALIZED FREE ENERGY PREDICTED BY IDOCK:   -5.67 KCAL/MOL
REMARK 922        TOTAL FREE ENERGY PREDICTED BY IDOCK:   -7.78 KCAL/MOL
REMARK 923 INTER-LIGAND FREE ENERGY PREDICTED BY IDOCK:   -6.71 KCAL/MOL
REMARK 924 INTRA-LIGAND FREE ENERGY PREDICTED BY IDOCK:   -1.07 KCAL/MOL
REMARK 927      BINDING AFFINITY PREDICTED BY RF-SCORE:    0.00 PKD
ROOT
HETATM    1  F   UNL     1      -8.476  10.690  66.149  1.00  0.00    -0.136 F  
HETATM    2  C   UNL     1      -9.155  10.314  67.240  1.00  0.00    -0.138 A  
HETATM    3  C   UNL     1      -8.586  10.480  68.495  1.00  0.00    -0.135 A  
HETATM    4  C   UNL     1      -9.285  10.066  69.636  1.00  0.00    -0.236 A  
HETATM    5  C   UNL     1     -10.547   9.463  69.520  1.00  0.00    -0.237 A  
HETATM    6  C   UNL     1     -10.423   9.768  67.101  1.00  0.00    -0.316 A  
HETATM    7  C   UNL     1     -11.118   9.350  68.237  1.00  0.00     0.005 A  
ENDROOT
BRANCH   5   8
HETATM    8  C   UNL     1     -11.337   8.957  70.722  1.00  0.00    -0.325 C  
HETATM    9  C   UNL     1     -11.533   7.434  70.600  1.00  0.00    -0.307 C  
HETATM   10  C   UNL     1     -12.272   6.872  71.808  1.00  0.00    -0.356 C  
HETATM   11  N   UNL     1     -13.560   7.532  71.983  1.00  0.00    -0.529 NA 
HETATM   12  C   UNL     1     -13.401   8.971  72.198  1.00  0.00    -0.455 C  
HETATM   13  H   UNL     1     -14.103   7.101  72.731  1.00  0.00     0.000 HD 
HETATM   14  C   UNL     1     -12.696   9.656  71.011  1.00  0.00    -0.354 C  
BRANCH  14  15
HETATM   15  C   UNL     1     -12.528  11.164  71.296  1.00  0.00    -0.360 C  
BRANCH  15  16
HETATM   16  O   UNL     1     -12.606  11.890  70.064  1.00  0.00    -0.065 OA 
BRANCH  16  17
HETATM   17  C   UNL     1     -12.086  13.157  70.030  1.00  0.00    -0.305 A  
HETATM   18  C   UNL     1     -11.381  13.716  68.961  1.00  0.00    -0.333 A  
HETATM   19  C   UNL     1     -10.992  15.038  69.066  1.00  0.00    -0.249 A  
HETATM   20  C   UNL     1     -11.257  15.793  70.183  1.00  0.00    -0.349 A  
HETATM   21  C   UNL     1     -11.925  15.266  71.266  1.00  0.00    -0.409 A  
HETATM   22  O   UNL     1     -10.798  17.067  70.070  1.00  0.00    -0.130 OA 
HETATM   23  C   UNL     1     -12.349  13.934  71.177  1.00  0.00    -0.440 A  
HETATM   24  C   UNL     1     -10.273  17.046  68.724  1.00  0.00    -0.317 C  
HETATM   25  O   UNL     1     -10.329  15.743  68.109  1.00  0.00    -0.234 OA 
ENDBRANCH  16  17
ENDBRANCH  15  16
ENDBRANCH  14  15
ENDBRANCH   5   8
TORSDOF 4
ENDMDL
MODEL      108
REMARK 921   NORMALIZED FREE ENERGY PREDICTED BY IDOCK:   -5.66 KCAL/MOL
REMARK 922        TOTAL FREE ENERGY PREDICTED BY IDOCK:   -7.77 KCAL/MOL
REMARK 923 INTER-LIGAND FREE ENERGY PREDICTED BY IDOCK:   -7.07 KCAL/MOL
REMARK 924 INTRA-LIGAND FREE ENERGY PREDICTED BY IDOCK:   -0.70 KCAL/MOL
REMARK 927      BINDING AFFINITY PREDICTED BY RF-SCORE:    0.00 PKD
ROOT
HETATM    1  F   UNL     1      -8.839  16.418  66.511  1.00  0.00    -0.214 F  
HETATM    2  C   UNL     1      -9.749  16.002  67.401  1.00  0.00    -0.232 A  
HETATM    3  C   UNL     1      -9.604  16.339  68.740  1.00  0.00    -0.242 A  
HETATM    4  C   UNL     1     -10.541  15.886  69.676  1.00  0.00    -0.301 A  
HETATM    5  C   UNL     1     -11.614  15.073  69.277  1.00  0.00    -0.338 A  
HETATM    6  C   UNL     1     -10.827  15.243  66.972  1.00  0.00    -0.321 A  
HETATM    7  C   UNL     1     -11.759  14.786  67.906  1.00  0.00    -0.367 A  
ENDROOT
BRANCH   5   8
HETATM    8  C   UNL     1     -12.642  14.518  70.257  1.00  0.00    -0.378 C  
HETATM    9  C   UNL     1     -13.022  15.610  71.273  1.00  0.00    -0.556 C  
HETATM   10  C   UNL     1     -14.091  15.118  72.242  1.00  0.00    -0.534 C  
HETATM   11  N   UNL     1     -13.646  13.917  72.938  1.00  0.00    -0.647 NA 
HETATM   12  C   UNL     1     -13.368  12.826  72.003  1.00  0.00    -0.466 C  
HETATM   13  H   UNL     1     -14.313  13.632  73.655  1.00  0.00     0.000 HD 
HETATM   14  C   UNL     1     -12.265  13.201  70.993  1.00  0.00    -0.257 C  
BRANCH  14  15
HETATM   15  C   UNL     1     -12.028  12.031  70.014  1.00  0.00    -0.324 C  
BRANCH  15  16
HETATM   16  O   UNL     1     -11.731  10.844  70.759  1.00  0.00    -0.328 OA 
BRANCH  16  17
HETATM   17  C   UNL     1     -10.675  10.074  70.348  1.00  0.00    -0.307 A  
HETATM   18  C   UNL     1      -9.804  10.384  69.302  1.00  0.00    -0.243 A  
HETATM   19  C   UNL     1      -8.743   9.528  69.070  1.00  0.00    -0.142 A  
HETATM   20  C   UNL     1      -8.543   8.391  69.815  1.00  0.00    -0.132 A  
HETATM   21  C   UNL     1      -9.399   8.040  70.837  1.00  0.00    -0.169 A  
HETATM   22  O   UNL     1      -7.437   7.703  69.427  1.00  0.00    -0.085 OA 
HETATM   23  C   UNL     1     -10.470   8.901  71.106  1.00  0.00    -0.336 A  
HETATM   24  C   UNL     1      -6.925   8.576  68.397  1.00  0.00    -0.066 C  
HETATM   25  O   UNL     1      -7.787   9.697  68.117  1.00  0.00    -0.086 OA 
ENDBRANCH  16  17
ENDBRANCH  15  16
ENDBRANCH  14  15
ENDBRANCH   5   8
TORSDOF 4
ENDMDL
MODEL      109
REMARK 921   NORMALIZED FREE ENERGY PREDICTED BY IDOCK:   -5.66 KCAL/MOL
REMARK 922        TOTAL FREE ENERGY PREDICTED BY IDOCK:   -7.76 KCAL/MOL
REMARK 923 INTER-LIGAND FREE ENERGY PREDICTED BY IDOCK:   -6.26 KCAL/MOL
REMARK 924 INTRA-LIGAND FREE ENERGY PREDICTED BY IDOCK:   -1.50 KCAL/MOL
REMARK 927      BINDING AFFINITY PREDICTED BY RF-SCORE:    0.00 PKD
ROOT
HETATM    1  F   UNL     1      -6.547  13.083  69.779  1.00  0.00    -0.112 F  
HETATM    2  C   UNL     1      -7.340  12.654  68.788  1.00  0.00    -0.066 A  
HETATM    3  C   UNL     1      -7.797  11.343  68.791  1.00  0.00    -0.128 A  
HETATM    4  C   UNL     1      -8.607  10.886  67.745  1.00  0.00    -0.128 A  
HETATM    5  C   UNL     1      -8.943  11.735  66.679  1.00  0.00    -0.195 A  
HETATM    6  C   UNL     1      -7.700  13.529  67.774  1.00  0.00    -0.163 A  
HETATM    7  C   UNL     1      -8.503  13.073  66.726  1.00  0.00    -0.009 A  
ENDROOT
BRANCH   5   8
HETATM    8  C   UNL     1      -9.788  11.283  65.493  1.00  0.00    -0.274 C  
HETATM    9  C   UNL     1      -8.865  10.953  64.305  1.00  0.00    -0.059 C  
HETATM   10  C   UNL     1      -9.662  10.442  63.110  1.00  0.00    -0.252 C  
HETATM   11  N   UNL     1     -10.673  11.412  62.707  1.00  0.00    -0.627 NA 
HETATM   12  C   UNL     1     -11.624  11.676  63.787  1.00  0.00    -0.332 C  
HETATM   13  H   UNL     1     -11.149  11.123  61.853  1.00  0.00     0.000 HD 
HETATM   14  C   UNL     1     -10.930  12.238  65.043  1.00  0.00    -0.344 C  
BRANCH  14  15
HETATM   15  C   UNL     1     -11.969  12.474  66.160  1.00  0.00    -0.366 C  
BRANCH  15  16
HETATM   16  O   UNL     1     -12.385  13.844  66.136  1.00  0.00    -0.452 OA 
BRANCH  16  17
HETATM   17  C   UNL     1     -11.538  14.783  66.663  1.00  0.00    -0.313 A  
HETATM   18  C   UNL     1     -10.825  15.734  65.929  1.00  0.00    -0.272 A  
HETATM   19  C   UNL     1     -10.072  16.657  66.629  1.00  0.00    -0.301 A  
HETATM   20  C   UNL     1      -9.991  16.648  68.001  1.00  0.00    -0.258 A  
HETATM   21  C   UNL     1     -10.658  15.706  68.754  1.00  0.00    -0.238 A  
HETATM   22  O   UNL     1      -9.208  17.648  68.483  1.00  0.00    -0.273 OA 
HETATM   23  C   UNL     1     -11.446  14.772  68.070  1.00  0.00    -0.351 A  
HETATM   24  C   UNL     1      -8.861  18.332  67.259  1.00  0.00    -0.255 C  
HETATM   25  O   UNL     1      -9.347  17.666  66.075  1.00  0.00    -0.494 OA 
ENDBRANCH  16  17
ENDBRANCH  15  16
ENDBRANCH  14  15
ENDBRANCH   5   8
TORSDOF 4
ENDMDL
MODEL      110
REMARK 921   NORMALIZED FREE ENERGY PREDICTED BY IDOCK:   -5.65 KCAL/MOL
REMARK 922        TOTAL FREE ENERGY PREDICTED BY IDOCK:   -7.75 KCAL/MOL
REMARK 923 INTER-LIGAND FREE ENERGY PREDICTED BY IDOCK:   -7.05 KCAL/MOL
REMARK 924 INTRA-LIGAND FREE ENERGY PREDICTED BY IDOCK:   -0.70 KCAL/MOL
REMARK 927      BINDING AFFINITY PREDICTED BY RF-SCORE:    0.00 PKD
ROOT
HETATM    1  F   UNL     1      -7.483   6.916  65.661  1.00  0.00    -0.074 F  
HETATM    2  C   UNL     1      -8.181   7.569  66.599  1.00  0.00    -0.125 A  
HETATM    3  C   UNL     1      -9.568   7.513  66.587  1.00  0.00    -0.263 A  
HETATM    4  C   UNL     1     -10.300   8.214  67.553  1.00  0.00    -0.330 A  
HETATM    5  C   UNL     1      -9.645   8.993  68.520  1.00  0.00    -0.161 A  
HETATM    6  C   UNL     1      -7.507   8.289  67.574  1.00  0.00    -0.094 A  
HETATM    7  C   UNL     1      -8.236   8.994  68.534  1.00  0.00    -0.112 A  
ENDROOT
BRANCH   5   8
HETATM    8  C   UNL     1     -10.389   9.810  69.571  1.00  0.00    -0.247 C  
HETATM    9  C   UNL     1     -11.054   8.857  70.582  1.00  0.00    -0.306 C  
HETATM   10  C   UNL     1     -11.766   9.629  71.686  1.00  0.00    -0.369 C  
HETATM   11  N   UNL     1     -12.758  10.539  71.125  1.00  0.00    -0.383 NA 
HETATM   12  C   UNL     1     -12.142  11.521  70.232  1.00  0.00    -0.359 C  
HETATM   13  H   UNL     1     -13.305  10.992  71.857  1.00  0.00     0.000 HD 
HETATM   14  C   UNL     1     -11.421  10.848  69.047  1.00  0.00    -0.371 C  
BRANCH  14  15
HETATM   15  C   UNL     1     -10.767  11.922  68.151  1.00  0.00    -0.215 C  
BRANCH  15  16
HETATM   16  O   UNL     1     -11.780  12.806  67.656  1.00  0.00    -0.339 OA 
BRANCH  16  17
HETATM   17  C   UNL     1     -11.391  14.035  67.193  1.00  0.00    -0.331 A  
HETATM   18  C   UNL     1     -11.175  15.168  67.980  1.00  0.00    -0.329 A  
HETATM   19  C   UNL     1     -10.711  16.309  67.356  1.00  0.00    -0.287 A  
HETATM   20  C   UNL     1     -10.482  16.362  66.002  1.00  0.00    -0.323 A  
HETATM   21  C   UNL     1     -10.711  15.272  65.191  1.00  0.00    -0.455 A  
HETATM   22  O   UNL     1     -10.017  17.574  65.600  1.00  0.00    -0.561 OA 
HETATM   23  C   UNL     1     -11.162  14.096  65.802  1.00  0.00    -0.312 A  
HETATM   24  C   UNL     1      -9.913  18.257  66.868  1.00  0.00    -0.349 C  
HETATM   25  O   UNL     1     -10.419  17.485  67.976  1.00  0.00    -0.356 OA 
ENDBRANCH  16  17
ENDBRANCH  15  16
ENDBRANCH  14  15
ENDBRANCH   5   8
TORSDOF 4
ENDMDL
MODEL      111
REMARK 921   NORMALIZED FREE ENERGY PREDICTED BY IDOCK:   -5.64 KCAL/MOL
REMARK 922        TOTAL FREE ENERGY PREDICTED BY IDOCK:   -7.74 KCAL/MOL
REMARK 923 INTER-LIGAND FREE ENERGY PREDICTED BY IDOCK:   -7.20 KCAL/MOL
REMARK 924 INTRA-LIGAND FREE ENERGY PREDICTED BY IDOCK:   -0.54 KCAL/MOL
REMARK 927      BINDING AFFINITY PREDICTED BY RF-SCORE:    0.00 PKD
ROOT
HETATM    1  F   UNL     1     -12.147  15.838  68.299  1.00  0.00    -0.302 F  
HETATM    2  C   UNL     1     -11.591  14.896  67.526  1.00  0.00    -0.339 A  
HETATM    3  C   UNL     1     -12.373  13.859  67.035  1.00  0.00    -0.287 A  
HETATM    4  C   UNL     1     -11.789  12.861  66.246  1.00  0.00    -0.477 A  
HETATM    5  C   UNL     1     -10.413  12.886  65.966  1.00  0.00    -0.290 A  
HETATM    6  C   UNL     1     -10.240  14.973  67.221  1.00  0.00    -0.242 A  
HETATM    7  C   UNL     1      -9.655  13.974  66.440  1.00  0.00    -0.299 A  
ENDROOT
BRANCH   5   8
HETATM    8  C   UNL     1      -9.715  11.806  65.147  1.00  0.00    -0.228 C  
HETATM    9  C   UNL     1     -10.222  11.858  63.694  1.00  0.00    -0.466 C  
HETATM   10  C   UNL     1      -9.511  10.831  62.821  1.00  0.00    -0.331 C  
HETATM   11  N   UNL     1      -9.675   9.487  63.363  1.00  0.00    -0.315 NA 
HETATM   12  C   UNL     1      -9.115   9.379  64.711  1.00  0.00    -0.193 C  
HETATM   13  H   UNL     1      -9.284   8.782  62.739  1.00  0.00     0.000 HD 
HETATM   14  C   UNL     1      -9.793  10.352  65.696  1.00  0.00    -0.321 C  
BRANCH  14  15
HETATM   15  C   UNL     1      -9.150  10.220  67.093  1.00  0.00    -0.142 C  
BRANCH  15  16
HETATM   16  O   UNL     1      -9.872  11.035  68.024  1.00  0.00    -0.164 OA 
BRANCH  16  17
HETATM   17  C   UNL     1     -10.556  10.409  69.032  1.00  0.00    -0.221 A  
HETATM   18  C   UNL     1     -10.414   9.069  69.398  1.00  0.00    -0.229 A  
HETATM   19  C   UNL     1     -11.129   8.619  70.492  1.00  0.00    -0.242 A  
HETATM   20  C   UNL     1     -11.977   9.436  71.199  1.00  0.00    -0.337 A  
HETATM   21  C   UNL     1     -12.162  10.756  70.849  1.00  0.00    -0.487 A  
HETATM   22  O   UNL     1     -12.568   8.796  72.241  1.00  0.00    -0.370 OA 
HETATM   23  C   UNL     1     -11.433  11.243  69.757  1.00  0.00    -0.386 A  
HETATM   24  C   UNL     1     -11.942   7.497  72.150  1.00  0.00    -0.285 C  
HETATM   25  O   UNL     1     -11.082   7.357  71.000  1.00  0.00    -0.248 OA 
ENDBRANCH  16  17
ENDBRANCH  15  16
ENDBRANCH  14  15
ENDBRANCH   5   8
TORSDOF 4
ENDMDL
MODEL      112
REMARK 921   NORMALIZED FREE ENERGY PREDICTED BY IDOCK:   -5.62 KCAL/MOL
REMARK 922        TOTAL FREE ENERGY PREDICTED BY IDOCK:   -7.72 KCAL/MOL
REMARK 923 INTER-LIGAND FREE ENERGY PREDICTED BY IDOCK:   -6.56 KCAL/MOL
REMARK 924 INTRA-LIGAND FREE ENERGY PREDICTED BY IDOCK:   -1.15 KCAL/MOL
REMARK 927      BINDING AFFINITY PREDICTED BY RF-SCORE:    0.00 PKD
ROOT
HETATM    1  F   UNL     1     -11.580  14.882  67.597  1.00  0.00    -0.316 F  
HETATM    2  C   UNL     1     -11.698  13.723  68.258  1.00  0.00    -0.359 A  
HETATM    3  C   UNL     1     -11.713  12.527  67.553  1.00  0.00    -0.439 A  
HETATM    4  C   UNL     1     -11.860  11.317  68.239  1.00  0.00    -0.299 A  
HETATM    5  C   UNL     1     -12.017  11.301  69.634  1.00  0.00    -0.423 A  
HETATM    6  C   UNL     1     -11.800  13.733  69.642  1.00  0.00    -0.393 A  
HETATM    7  C   UNL     1     -11.953  12.526  70.327  1.00  0.00    -0.364 A  
ENDROOT
BRANCH   5   8
HETATM    8  C   UNL     1     -12.221  10.018  70.431  1.00  0.00    -0.249 C  
HETATM    9  C   UNL     1     -13.270  10.261  71.532  1.00  0.00    -0.484 C  
HETATM   10  C   UNL     1     -13.549   8.988  72.323  1.00  0.00    -0.484 C  
HETATM   11  N   UNL     1     -12.322   8.460  72.907  1.00  0.00    -0.598 NA 
HETATM   12  C   UNL     1     -11.337   8.128  71.876  1.00  0.00    -0.296 C  
HETATM   13  H   UNL     1     -12.509   7.662  73.514  1.00  0.00     0.000 HD 
HETATM   14  C   UNL     1     -10.947   9.359  71.034  1.00  0.00    -0.409 C  
BRANCH  14  15
HETATM   15  C   UNL     1      -9.930   8.952  69.946  1.00  0.00    -0.188 C  
BRANCH  15  16
HETATM   16  O   UNL     1      -8.606   9.257  70.401  1.00  0.00    -0.180 OA 
BRANCH  16  17
HETATM   17  C   UNL     1      -7.947  10.302  69.808  1.00  0.00    -0.126 A  
HETATM   18  C   UNL     1      -8.496  11.182  68.873  1.00  0.00    -0.095 A  
HETATM   19  C   UNL     1      -7.710  12.229  68.432  1.00  0.00    -0.141 A  
HETATM   20  C   UNL     1      -6.419  12.408  68.866  1.00  0.00    -0.090 A  
HETATM   21  C   UNL     1      -5.835  11.543  69.766  1.00  0.00    -0.104 A  
HETATM   22  O   UNL     1      -5.833  13.504  68.316  1.00  0.00    -0.081 OA 
HETATM   23  C   UNL     1      -6.618  10.485  70.244  1.00  0.00    -0.138 A  
HETATM   24  C   UNL     1      -6.929  14.034  67.539  1.00  0.00    -0.148 C  
HETATM   25  O   UNL     1      -8.099  13.191  67.552  1.00  0.00    -0.158 OA 
ENDBRANCH  16  17
ENDBRANCH  15  16
ENDBRANCH  14  15
ENDBRANCH   5   8
TORSDOF 4
ENDMDL
MODEL      113
REMARK 921   NORMALIZED FREE ENERGY PREDICTED BY IDOCK:   -5.62 KCAL/MOL
REMARK 922        TOTAL FREE ENERGY PREDICTED BY IDOCK:   -7.71 KCAL/MOL
REMARK 923 INTER-LIGAND FREE ENERGY PREDICTED BY IDOCK:   -7.19 KCAL/MOL
REMARK 924 INTRA-LIGAND FREE ENERGY PREDICTED BY IDOCK:   -0.52 KCAL/MOL
REMARK 927      BINDING AFFINITY PREDICTED BY RF-SCORE:    0.00 PKD
ROOT
HETATM    1  F   UNL     1     -11.195   5.308  73.989  1.00  0.00    -0.292 F  
HETATM    2  C   UNL     1     -11.120   5.532  72.670  1.00  0.00    -0.282 A  
HETATM    3  C   UNL     1     -10.135   4.902  71.921  1.00  0.00    -0.262 A  
HETATM    4  C   UNL     1     -10.040   5.152  70.548  1.00  0.00    -0.326 A  
HETATM    5  C   UNL     1     -10.917   6.054  69.924  1.00  0.00    -0.458 A  
HETATM    6  C   UNL     1     -12.032   6.388  72.070  1.00  0.00    -0.375 A  
HETATM    7  C   UNL     1     -11.933   6.644  70.701  1.00  0.00    -0.404 A  
ENDROOT
BRANCH   5   8
HETATM    8  C   UNL     1     -10.835   6.397  68.440  1.00  0.00    -0.383 C  
HETATM    9  C   UNL     1     -10.471   5.132  67.642  1.00  0.00    -0.130 C  
HETATM   10  C   UNL     1     -10.432   5.413  66.144  1.00  0.00    -0.154 C  
HETATM   11  N   UNL     1      -9.491   6.485  65.842  1.00  0.00    -0.387 NA 
HETATM   12  C   UNL     1      -9.866   7.732  66.512  1.00  0.00    -0.185 C  
HETATM   13  H   UNL     1      -9.387   6.619  64.837  1.00  0.00     0.000 HD 
HETATM   14  C   UNL     1      -9.899   7.575  68.045  1.00  0.00    -0.177 C  
BRANCH  14  15
HETATM   15  C   UNL     1     -10.324   8.906  68.702  1.00  0.00    -0.204 C  
BRANCH  15  16
HETATM   16  O   UNL     1      -9.579   9.980  68.116  1.00  0.00    -0.138 OA 
BRANCH  16  17
HETATM   17  C   UNL     1     -10.275  11.061  67.643  1.00  0.00    -0.182 A  
HETATM   18  C   UNL     1     -10.756  11.209  66.340  1.00  0.00    -0.303 A  
HETATM   19  C   UNL     1     -11.505  12.334  66.053  1.00  0.00    -0.381 A  
HETATM   20  C   UNL     1     -11.764  13.302  66.993  1.00  0.00    -0.389 A  
HETATM   21  C   UNL     1     -11.281  13.202  68.280  1.00  0.00    -0.307 A  
HETATM   22  O   UNL     1     -12.527  14.313  66.503  1.00  0.00    -0.428 OA 
HETATM   23  C   UNL     1     -10.536  12.061  68.603  1.00  0.00    -0.253 A  
HETATM   24  C   UNL     1     -12.778  13.836  65.163  1.00  0.00    -0.397 C  
HETATM   25  O   UNL     1     -12.073  12.617  64.849  1.00  0.00    -0.389 OA 
ENDBRANCH  16  17
ENDBRANCH  15  16
ENDBRANCH  14  15
ENDBRANCH   5   8
TORSDOF 4
ENDMDL
MODEL      114
REMARK 921   NORMALIZED FREE ENERGY PREDICTED BY IDOCK:   -5.61 KCAL/MOL
REMARK 922        TOTAL FREE ENERGY PREDICTED BY IDOCK:   -7.71 KCAL/MOL
REMARK 923 INTER-LIGAND FREE ENERGY PREDICTED BY IDOCK:   -7.28 KCAL/MOL
REMARK 924 INTRA-LIGAND FREE ENERGY PREDICTED BY IDOCK:   -0.43 KCAL/MOL
REMARK 927      BINDING AFFINITY PREDICTED BY RF-SCORE:    0.00 PKD
ROOT
HETATM    1  F   UNL     1     -13.172  15.745  71.523  1.00  0.00    -0.482 F  
HETATM    2  C   UNL     1     -13.029  14.416  71.440  1.00  0.00    -0.335 A  
HETATM    3  C   UNL     1     -12.293  13.868  70.398  1.00  0.00    -0.433 A  
HETATM    4  C   UNL     1     -12.161  12.478  70.297  1.00  0.00    -0.345 A  
HETATM    5  C   UNL     1     -12.788  11.631  71.225  1.00  0.00    -0.430 A  
HETATM    6  C   UNL     1     -13.615  13.605  72.400  1.00  0.00    -0.703 A  
HETATM    7  C   UNL     1     -13.490  12.218  72.296  1.00  0.00    -0.365 A  
ENDROOT
BRANCH   5   8
HETATM    8  C   UNL     1     -12.714  10.111  71.142  1.00  0.00    -0.494 C  
HETATM    9  C   UNL     1     -13.732   9.495  72.119  1.00  0.00    -0.447 C  
HETATM   10  C   UNL     1     -13.735   7.973  72.032  1.00  0.00    -0.261 C  
HETATM   11  N   UNL     1     -12.403   7.437  72.290  1.00  0.00    -0.490 NA 
HETATM   12  C   UNL     1     -11.428   7.930  71.316  1.00  0.00    -0.265 C  
HETATM   13  H   UNL     1     -12.411   6.418  72.327  1.00  0.00     0.000 HD 
HETATM   14  C   UNL     1     -11.312   9.467  71.344  1.00  0.00    -0.451 C  
BRANCH  14  15
HETATM   15  C   UNL     1     -10.294   9.938  70.283  1.00  0.00    -0.281 C  
BRANCH  15  16
HETATM   16  O   UNL     1     -10.736   9.520  68.986  1.00  0.00    -0.222 OA 
BRANCH  16  17
HETATM   17  C   UNL     1      -9.873   8.781  68.220  1.00  0.00    -0.165 A  
HETATM   18  C   UNL     1      -8.482   8.778  68.339  1.00  0.00    -0.130 A  
HETATM   19  C   UNL     1      -7.767   7.914  67.533  1.00  0.00    -0.117 A  
HETATM   20  C   UNL     1      -8.378   7.089  66.619  1.00  0.00    -0.118 A  
HETATM   21  C   UNL     1      -9.746   7.087  66.456  1.00  0.00    -0.189 A  
HETATM   22  O   UNL     1      -7.491   6.315  65.942  1.00  0.00    -0.078 OA 
HETATM   23  C   UNL     1     -10.496   7.939  67.275  1.00  0.00    -0.390 A  
HETATM   24  C   UNL     1      -6.255   6.696  66.584  1.00  0.00    -0.040 C  
HETATM   25  O   UNL     1      -6.415   7.761  67.543  1.00  0.00    -0.052 OA 
ENDBRANCH  16  17
ENDBRANCH  15  16
ENDBRANCH  14  15
ENDBRANCH   5   8
TORSDOF 4
ENDMDL
MODEL      115
REMARK 921   NORMALIZED FREE ENERGY PREDICTED BY IDOCK:   -5.61 KCAL/MOL
REMARK 922        TOTAL FREE ENERGY PREDICTED BY IDOCK:   -7.70 KCAL/MOL
REMARK 923 INTER-LIGAND FREE ENERGY PREDICTED BY IDOCK:   -7.11 KCAL/MOL
REMARK 924 INTRA-LIGAND FREE ENERGY PREDICTED BY IDOCK:   -0.59 KCAL/MOL
REMARK 927      BINDING AFFINITY PREDICTED BY RF-SCORE:    0.00 PKD
ROOT
HETATM    1  F   UNL     1     -13.676  12.915  72.069  1.00  0.00    -0.506 F  
HETATM    2  C   UNL     1     -13.016  11.886  71.521  1.00  0.00    -0.323 A  
HETATM    3  C   UNL     1     -13.317  10.589  71.915  1.00  0.00    -0.461 A  
HETATM    4  C   UNL     1     -12.613   9.513  71.362  1.00  0.00    -0.447 A  
HETATM    5  C   UNL     1     -11.588   9.735  70.429  1.00  0.00    -0.327 A  
HETATM    6  C   UNL     1     -12.043  12.130  70.563  1.00  0.00    -0.383 A  
HETATM    7  C   UNL     1     -11.336  11.058  70.015  1.00  0.00    -0.358 A  
ENDROOT
BRANCH   5   8
HETATM    8  C   UNL     1     -10.761   8.607  69.822  1.00  0.00    -0.215 C  
HETATM    9  C   UNL     1      -9.922   7.937  70.927  1.00  0.00    -0.196 C  
HETATM   10  C   UNL     1      -9.118   6.764  70.379  1.00  0.00    -0.153 C  
HETATM   11  N   UNL     1      -8.256   7.194  69.284  1.00  0.00    -0.127 NA 
HETATM   12  C   UNL     1      -9.033   7.749  68.174  1.00  0.00    -0.127 C  
HETATM   13  H   UNL     1      -7.645   6.439  68.971  1.00  0.00     0.000 HD 
HETATM   14  C   UNL     1      -9.862   8.974  68.608  1.00  0.00    -0.177 C  
BRANCH  14  15
HETATM   15  C   UNL     1     -10.682   9.504  67.412  1.00  0.00    -0.227 C  
BRANCH  15  16
HETATM   16  O   UNL     1      -9.810  10.193  66.509  1.00  0.00    -0.193 OA 
BRANCH  16  17
HETATM   17  C   UNL     1     -10.130  11.479  66.160  1.00  0.00    -0.229 A  
HETATM   18  C   UNL     1     -11.131  11.849  65.259  1.00  0.00    -0.354 A  
HETATM   19  C   UNL     1     -11.371  13.198  65.079  1.00  0.00    -0.299 A  
HETATM   20  C   UNL     1     -10.648  14.164  65.736  1.00  0.00    -0.300 A  
HETATM   21  C   UNL     1      -9.635  13.835  66.610  1.00  0.00    -0.295 A  
HETATM   22  O   UNL     1     -11.056  15.422  65.423  1.00  0.00    -0.343 OA 
HETATM   23  C   UNL     1      -9.385  12.474  66.826  1.00  0.00    -0.230 A  
HETATM   24  C   UNL     1     -12.167  15.134  64.546  1.00  0.00    -0.267 C  
HETATM   25  O   UNL     1     -12.326  13.728  64.268  1.00  0.00    -0.572 OA 
ENDBRANCH  16  17
ENDBRANCH  15  16
ENDBRANCH  14  15
ENDBRANCH   5   8
TORSDOF 4
ENDMDL
MODEL      116
REMARK 921   NORMALIZED FREE ENERGY PREDICTED BY IDOCK:   -5.58 KCAL/MOL
REMARK 922        TOTAL FREE ENERGY PREDICTED BY IDOCK:   -7.67 KCAL/MOL
REMARK 923 INTER-LIGAND FREE ENERGY PREDICTED BY IDOCK:   -6.90 KCAL/MOL
REMARK 924 INTRA-LIGAND FREE ENERGY PREDICTED BY IDOCK:   -0.76 KCAL/MOL
REMARK 927      BINDING AFFINITY PREDICTED BY RF-SCORE:    0.00 PKD
ROOT
HETATM    1  F   UNL     1     -10.415  11.950  63.894  1.00  0.00    -0.295 F  
HETATM    2  C   UNL     1     -10.720  12.210  65.172  1.00  0.00    -0.292 A  
HETATM    3  C   UNL     1     -11.957  12.756  65.487  1.00  0.00    -0.497 A  
HETATM    4  C   UNL     1     -12.269  13.049  66.820  1.00  0.00    -0.261 A  
HETATM    5  C   UNL     1     -11.332  12.819  67.839  1.00  0.00    -0.339 A  
HETATM    6  C   UNL     1      -9.795  11.924  66.166  1.00  0.00    -0.254 A  
HETATM    7  C   UNL     1     -10.103  12.223  67.495  1.00  0.00    -0.206 A  
ENDROOT
BRANCH   5   8
HETATM    8  C   UNL     1     -11.599  13.156  69.302  1.00  0.00    -0.370 C  
HETATM    9  C   UNL     1     -12.304  11.966  69.980  1.00  0.00    -0.202 C  
HETATM   10  C   UNL     1     -12.543  12.234  71.461  1.00  0.00    -0.152 C  
HETATM   11  N   UNL     1     -13.323  13.453  71.648  1.00  0.00    -0.363 NA 
HETATM   12  C   UNL     1     -12.633  14.621  71.098  1.00  0.00    -0.334 C  
HETATM   13  H   UNL     1     -13.568  13.592  72.628  1.00  0.00     0.000 HD 
HETATM   14  C   UNL     1     -12.372  14.476  69.586  1.00  0.00    -0.284 C  
BRANCH  14  15
HETATM   15  C   UNL     1     -11.621  15.718  69.059  1.00  0.00    -0.400 C  
BRANCH  15  16
HETATM   16  O   UNL     1     -10.230  15.598  69.378  1.00  0.00    -0.224 OA 
BRANCH  16  17
HETATM   17  C   UNL     1      -9.390  16.606  68.982  1.00  0.00    -0.227 A  
HETATM   18  C   UNL     1      -9.791  17.832  68.446  1.00  0.00    -0.347 A  
HETATM   19  C   UNL     1      -8.812  18.767  68.170  1.00  0.00    -0.306 A  
HETATM   20  C   UNL     1      -7.478  18.516  68.386  1.00  0.00    -0.296 A  
HETATM   21  C   UNL     1      -7.045  17.307  68.887  1.00  0.00    -0.242 A  
HETATM   22  O   UNL     1      -6.690  19.573  68.058  1.00  0.00    -0.233 OA 
HETATM   23  C   UNL     1      -8.020  16.350  69.194  1.00  0.00    -0.204 A  
HETATM   24  C   UNL     1      -7.688  20.545  67.677  1.00  0.00    -0.253 C  
HETATM   25  O   UNL     1      -9.030  20.016  67.677  1.00  0.00    -0.323 OA 
ENDBRANCH  16  17
ENDBRANCH  15  16
ENDBRANCH  14  15
ENDBRANCH   5   8
TORSDOF 4
ENDMDL
MODEL      117
REMARK 921   NORMALIZED FREE ENERGY PREDICTED BY IDOCK:   -5.58 KCAL/MOL
REMARK 922        TOTAL FREE ENERGY PREDICTED BY IDOCK:   -7.66 KCAL/MOL
REMARK 923 INTER-LIGAND FREE ENERGY PREDICTED BY IDOCK:   -6.96 KCAL/MOL
REMARK 924 INTRA-LIGAND FREE ENERGY PREDICTED BY IDOCK:   -0.70 KCAL/MOL
REMARK 927      BINDING AFFINITY PREDICTED BY RF-SCORE:    0.00 PKD
ROOT
HETATM    1  F   UNL     1      -7.992  19.689  69.121  1.00  0.00    -0.392 F  
HETATM    2  C   UNL     1      -8.585  18.640  68.535  1.00  0.00    -0.340 A  
HETATM    3  C   UNL     1      -7.936  17.413  68.502  1.00  0.00    -0.266 A  
HETATM    4  C   UNL     1      -8.543  16.322  67.870  1.00  0.00    -0.173 A  
HETATM    5  C   UNL     1      -9.793  16.463  67.247  1.00  0.00    -0.245 A  
HETATM    6  C   UNL     1      -9.844  18.794  67.973  1.00  0.00    -0.386 A  
HETATM    7  C   UNL     1     -10.448  17.707  67.336  1.00  0.00    -0.356 A  
ENDROOT
BRANCH   5   8
HETATM    8  C   UNL     1     -10.485  15.322  66.509  1.00  0.00    -0.299 C  
HETATM    9  C   UNL     1     -10.853  15.782  65.086  1.00  0.00    -0.444 C  
HETATM   10  C   UNL     1     -11.499  14.655  64.289  1.00  0.00    -0.161 C  
HETATM   11  N   UNL     1     -12.681  14.146  64.974  1.00  0.00    -0.679 NA 
HETATM   12  C   UNL     1     -12.348  13.613  66.295  1.00  0.00    -0.412 C  
HETATM   13  H   UNL     1     -13.174  13.457  64.407  1.00  0.00     0.000 HD 
HETATM   14  C   UNL     1     -11.720  14.684  67.208  1.00  0.00    -0.406 C  
BRANCH  14  15
HETATM   15  C   UNL     1     -11.363  14.067  68.577  1.00  0.00    -0.277 C  
BRANCH  15  16
HETATM   16  O   UNL     1     -10.160  13.300  68.450  1.00  0.00    -0.238 OA 
BRANCH  16  17
HETATM   17  C   UNL     1     -10.273  11.975  68.119  1.00  0.00    -0.201 A  
HETATM   18  C   UNL     1      -9.618  11.345  67.058  1.00  0.00    -0.192 A  
HETATM   19  C   UNL     1      -9.788   9.982  66.913  1.00  0.00    -0.197 A  
HETATM   20  C   UNL     1     -10.587   9.250  67.757  1.00  0.00    -0.246 A  
HETATM   21  C   UNL     1     -11.271   9.843  68.796  1.00  0.00    -0.122 A  
HETATM   22  O   UNL     1     -10.603   7.928  67.442  1.00  0.00    -0.279 OA 
HETATM   23  C   UNL     1     -11.099  11.221  68.978  1.00  0.00    -0.301 A  
HETATM   24  C   UNL     1      -9.665   7.901  66.344  1.00  0.00    -0.165 C  
HETATM   25  O   UNL     1      -9.200   9.211  65.958  1.00  0.00    -0.181 OA 
ENDBRANCH  16  17
ENDBRANCH  15  16
ENDBRANCH  14  15
ENDBRANCH   5   8
TORSDOF 4
ENDMDL
MODEL      118
REMARK 921   NORMALIZED FREE ENERGY PREDICTED BY IDOCK:   -5.57 KCAL/MOL
REMARK 922        TOTAL FREE ENERGY PREDICTED BY IDOCK:   -7.66 KCAL/MOL
REMARK 923 INTER-LIGAND FREE ENERGY PREDICTED BY IDOCK:   -6.22 KCAL/MOL
REMARK 924 INTRA-LIGAND FREE ENERGY PREDICTED BY IDOCK:   -1.44 KCAL/MOL
REMARK 927      BINDING AFFINITY PREDICTED BY RF-SCORE:    0.00 PKD
ROOT
HETATM    1  F   UNL     1     -11.900  12.946  65.389  1.00  0.00    -0.354 F  
HETATM    2  C   UNL     1     -11.457  14.124  65.849  1.00  0.00    -0.338 A  
HETATM    3  C   UNL     1     -10.834  15.010  64.980  1.00  0.00    -0.439 A  
HETATM    4  C   UNL     1     -10.350  16.232  65.463  1.00  0.00    -0.363 A  
HETATM    5  C   UNL     1     -10.467  16.559  66.823  1.00  0.00    -0.269 A  
HETATM    6  C   UNL     1     -11.632  14.444  67.187  1.00  0.00    -0.406 A  
HETATM    7  C   UNL     1     -11.144  15.660  67.671  1.00  0.00    -0.305 A  
ENDROOT
BRANCH   5   8
HETATM    8  C   UNL     1      -9.924  17.856  67.413  1.00  0.00    -0.325 C  
HETATM    9  C   UNL     1     -10.328  19.037  66.511  1.00  0.00    -0.512 C  
HETATM   10  C   UNL     1      -9.853  20.365  67.090  1.00  0.00    -0.461 C  
HETATM   11  N   UNL     1      -8.409  20.356  67.291  1.00  0.00    -0.364 NA 
HETATM   12  C   UNL     1      -8.003  19.302  68.222  1.00  0.00    -0.326 C  
HETATM   13  H   UNL     1      -8.068  21.270  67.590  1.00  0.00     0.000 HD 
HETATM   14  C   UNL     1      -8.399  17.902  67.715  1.00  0.00    -0.241 C  
BRANCH  14  15
HETATM   15  C   UNL     1      -7.973  16.830  68.741  1.00  0.00    -0.250 C  
BRANCH  15  16
HETATM   16  O   UNL     1      -6.956  16.002  68.166  1.00  0.00    -0.115 OA 
BRANCH  16  17
HETATM   17  C   UNL     1      -7.061  14.646  68.330  1.00  0.00    -0.115 A  
HETATM   18  C   UNL     1      -6.413  13.895  69.313  1.00  0.00    -0.115 A  
HETATM   19  C   UNL     1      -6.692  12.543  69.381  1.00  0.00    -0.022 A  
HETATM   20  C   UNL     1      -7.558  11.929  68.509  1.00  0.00    -0.127 A  
HETATM   21  C   UNL     1      -8.192  12.634  67.509  1.00  0.00    -0.178 A  
HETATM   22  O   UNL     1      -7.696  10.601  68.762  1.00  0.00    -0.100 OA 
HETATM   23  C   UNL     1      -7.943  14.009  67.431  1.00  0.00    -0.191 A  
HETATM   24  C   UNL     1      -6.871  10.464  69.939  1.00  0.00    -0.143 C  
HETATM   25  O   UNL     1      -6.175  11.676  70.294  1.00  0.00    -0.159 OA 
ENDBRANCH  16  17
ENDBRANCH  15  16
ENDBRANCH  14  15
ENDBRANCH   5   8
TORSDOF 4
ENDMDL
MODEL      119
REMARK 921   NORMALIZED FREE ENERGY PREDICTED BY IDOCK:   -5.55 KCAL/MOL
REMARK 922        TOTAL FREE ENERGY PREDICTED BY IDOCK:   -7.63 KCAL/MOL
REMARK 923 INTER-LIGAND FREE ENERGY PREDICTED BY IDOCK:   -6.14 KCAL/MOL
REMARK 924 INTRA-LIGAND FREE ENERGY PREDICTED BY IDOCK:   -1.48 KCAL/MOL
REMARK 927      BINDING AFFINITY PREDICTED BY RF-SCORE:    0.00 PKD
ROOT
HETATM    1  F   UNL     1      -8.632   5.327  68.484  1.00  0.00    -0.095 F  
HETATM    2  C   UNL     1      -9.031   6.446  67.866  1.00  0.00    -0.114 A  
HETATM    3  C   UNL     1      -8.116   7.461  67.622  1.00  0.00    -0.114 A  
HETATM    4  C   UNL     1      -8.536   8.641  66.997  1.00  0.00    -0.120 A  
HETATM    5  C   UNL     1      -9.881   8.818  66.635  1.00  0.00    -0.335 A  
HETATM    6  C   UNL     1     -10.356   6.573  67.472  1.00  0.00    -0.252 A  
HETATM    7  C   UNL     1     -10.777   7.753  66.854  1.00  0.00    -0.244 A  
ENDROOT
BRANCH   5   8
HETATM    8  C   UNL     1     -10.405  10.095  65.989  1.00  0.00    -0.234 C  
HETATM    9  C   UNL     1      -9.673  10.330  64.654  1.00  0.00    -0.398 C  
HETATM   10  C   UNL     1     -10.203  11.570  63.942  1.00  0.00    -0.362 C  
HETATM   11  N   UNL     1     -10.085  12.747  64.794  1.00  0.00    -0.482 NA 
HETATM   12  C   UNL     1     -10.850  12.593  66.032  1.00  0.00    -0.277 C  
HETATM   13  H   UNL     1     -10.349  13.597  64.296  1.00  0.00     0.000 HD 
HETATM   14  C   UNL     1     -10.371  11.384  66.859  1.00  0.00    -0.262 C  
BRANCH  14  15
HETATM   15  C   UNL     1     -11.224  11.249  68.138  1.00  0.00    -0.286 C  
BRANCH  15  16
HETATM   16  O   UNL     1     -10.363  11.240  69.283  1.00  0.00    -0.176 OA 
BRANCH  16  17
HETATM   17  C   UNL     1     -10.442  10.175  70.140  1.00  0.00    -0.255 A  
HETATM   18  C   UNL     1      -9.365   9.392  70.563  1.00  0.00    -0.319 A  
HETATM   19  C   UNL     1      -9.614   8.400  71.493  1.00  0.00    -0.208 A  
HETATM   20  C   UNL     1     -10.874   8.156  71.984  1.00  0.00    -0.284 A  
HETATM   21  C   UNL     1     -11.963   8.891  71.567  1.00  0.00    -0.401 A  
HETATM   22  O   UNL     1     -10.891   7.148  72.894  1.00  0.00    -0.272 OA 
HETATM   23  C   UNL     1     -11.735   9.916  70.641  1.00  0.00    -0.404 A  
HETATM   24  C   UNL     1      -9.484   6.830  72.971  1.00  0.00    -0.140 C  
HETATM   25  O   UNL     1      -8.679   7.573  72.032  1.00  0.00    -0.108 OA 
ENDBRANCH  16  17
ENDBRANCH  15  16
ENDBRANCH  14  15
ENDBRANCH   5   8
TORSDOF 4
ENDMDL
MODEL      120
REMARK 921   NORMALIZED FREE ENERGY PREDICTED BY IDOCK:   -5.54 KCAL/MOL
REMARK 922        TOTAL FREE ENERGY PREDICTED BY IDOCK:   -7.61 KCAL/MOL
REMARK 923 INTER-LIGAND FREE ENERGY PREDICTED BY IDOCK:   -6.91 KCAL/MOL
REMARK 924 INTRA-LIGAND FREE ENERGY PREDICTED BY IDOCK:   -0.71 KCAL/MOL
REMARK 927      BINDING AFFINITY PREDICTED BY RF-SCORE:    0.00 PKD
ROOT
HETATM    1  F   UNL     1      -8.419  19.182  68.514  1.00  0.00    -0.342 F  
HETATM    2  C   UNL     1      -8.873  18.039  67.985  1.00  0.00    -0.275 A  
HETATM    3  C   UNL     1      -8.095  17.351  67.063  1.00  0.00    -0.240 A  
HETATM    4  C   UNL     1      -8.578  16.167  66.492  1.00  0.00    -0.341 A  
HETATM    5  C   UNL     1      -9.853  15.682  66.824  1.00  0.00    -0.255 A  
HETATM    6  C   UNL     1     -10.115  17.554  68.370  1.00  0.00    -0.358 A  
HETATM    7  C   UNL     1     -10.600  16.377  67.796  1.00  0.00    -0.321 A  
ENDROOT
BRANCH   5   8
HETATM    8  C   UNL     1     -10.448  14.422  66.205  1.00  0.00    -0.295 C  
HETATM    9  C   UNL     1     -11.528  14.817  65.180  1.00  0.00    -0.371 C  
HETATM   10  C   UNL     1     -12.115  13.590  64.492  1.00  0.00    -0.416 C  
HETATM   11  N   UNL     1     -12.667  12.662  65.471  1.00  0.00    -0.518 NA 
HETATM   12  C   UNL     1     -11.641  12.192  66.404  1.00  0.00    -0.364 C  
HETATM   13  H   UNL     1     -13.145  11.882  65.019  1.00  0.00     0.000 HD 
HETATM   14  C   UNL     1     -11.002  13.354  67.190  1.00  0.00    -0.292 C  
BRANCH  14  15
HETATM   15  C   UNL     1      -9.911  12.811  68.138  1.00  0.00    -0.226 C  
BRANCH  15  16
HETATM   16  O   UNL     1      -9.744  11.406  67.912  1.00  0.00    -0.171 OA 
BRANCH  16  17
HETATM   17  C   UNL     1      -9.669  10.583  69.004  1.00  0.00    -0.210 A  
HETATM   18  C   UNL     1      -8.498  10.023  69.518  1.00  0.00    -0.186 A  
HETATM   19  C   UNL     1      -8.595   9.274  70.676  1.00  0.00    -0.225 A  
HETATM   20  C   UNL     1      -9.795   9.055  71.308  1.00  0.00    -0.306 A  
HETATM   21  C   UNL     1     -10.974   9.569  70.812  1.00  0.00    -0.389 A  
HETATM   22  O   UNL     1      -9.661   8.304  72.433  1.00  0.00    -0.236 OA 
HETATM   23  C   UNL     1     -10.900  10.349  69.652  1.00  0.00    -0.320 A  
HETATM   24  C   UNL     1      -8.227   8.135  72.474  1.00  0.00    -0.159 C  
HETATM   25  O   UNL     1      -7.553   8.687  71.325  1.00  0.00    -0.091 OA 
ENDBRANCH  16  17
ENDBRANCH  15  16
ENDBRANCH  14  15
ENDBRANCH   5   8
TORSDOF 4
ENDMDL
MODEL      121
REMARK 921   NORMALIZED FREE ENERGY PREDICTED BY IDOCK:   -5.53 KCAL/MOL
REMARK 922        TOTAL FREE ENERGY PREDICTED BY IDOCK:   -7.60 KCAL/MOL
REMARK 923 INTER-LIGAND FREE ENERGY PREDICTED BY IDOCK:   -6.86 KCAL/MOL
REMARK 924 INTRA-LIGAND FREE ENERGY PREDICTED BY IDOCK:   -0.74 KCAL/MOL
REMARK 927      BINDING AFFINITY PREDICTED BY RF-SCORE:    0.00 PKD
ROOT
HETATM    1  F   UNL     1      -9.185   4.935  65.321  1.00  0.00    -0.148 F  
HETATM    2  C   UNL     1      -9.459   5.757  66.342  1.00  0.00    -0.156 A  
HETATM    3  C   UNL     1     -10.777   5.961  66.726  1.00  0.00    -0.371 A  
HETATM    4  C   UNL     1     -11.067   6.838  67.778  1.00  0.00    -0.285 A  
HETATM    5  C   UNL     1     -10.038   7.533  68.433  1.00  0.00    -0.200 A  
HETATM    6  C   UNL     1      -8.419   6.391  67.005  1.00  0.00    -0.112 A  
HETATM    7  C   UNL     1      -8.707   7.272  68.051  1.00  0.00    -0.127 A  
ENDROOT
BRANCH   5   8
HETATM    8  C   UNL     1     -10.296   8.531  69.557  1.00  0.00    -0.218 C  
HETATM    9  C   UNL     1     -11.050   7.828  70.701  1.00  0.00    -0.264 C  
HETATM   10  C   UNL     1     -11.283   8.773  71.874  1.00  0.00    -0.368 C  
HETATM   11  N   UNL     1     -12.012   9.961  71.446  1.00  0.00    -0.389 NA 
HETATM   12  C   UNL     1     -11.274  10.705  70.425  1.00  0.00    -0.252 C  
HETATM   13  H   UNL     1     -12.255  10.556  72.238  1.00  0.00     0.000 HD 
HETATM   14  C   UNL     1     -11.015   9.854  69.166  1.00  0.00    -0.233 C  
BRANCH  14  15
HETATM   15  C   UNL     1     -10.212  10.672  68.132  1.00  0.00    -0.168 C  
BRANCH  15  16
HETATM   16  O   UNL     1     -10.422  12.069  68.370  1.00  0.00    -0.206 OA 
BRANCH  16  17
HETATM   17  C   UNL     1     -10.921  12.828  67.344  1.00  0.00    -0.253 A  
HETATM   18  C   UNL     1     -10.501  14.118  67.011  1.00  0.00    -0.271 A  
HETATM   19  C   UNL     1     -11.061  14.711  65.895  1.00  0.00    -0.338 A  
HETATM   20  C   UNL     1     -12.017  14.083  65.134  1.00  0.00    -0.387 A  
HETATM   21  C   UNL     1     -12.475  12.822  65.450  1.00  0.00    -0.478 A  
HETATM   22  O   UNL     1     -12.421  14.839  64.079  1.00  0.00    -0.803 OA 
HETATM   23  C   UNL     1     -11.909  12.191  66.564  1.00  0.00    -0.322 A  
HETATM   24  C   UNL     1     -11.557  15.987  64.224  1.00  0.00    -0.138 C  
HETATM   25  O   UNL     1     -10.743  15.943  65.414  1.00  0.00    -0.376 OA 
ENDBRANCH  16  17
ENDBRANCH  15  16
ENDBRANCH  14  15
ENDBRANCH   5   8
TORSDOF 4
ENDMDL
MODEL      122
REMARK 921   NORMALIZED FREE ENERGY PREDICTED BY IDOCK:   -5.48 KCAL/MOL
REMARK 922        TOTAL FREE ENERGY PREDICTED BY IDOCK:   -7.54 KCAL/MOL
REMARK 923 INTER-LIGAND FREE ENERGY PREDICTED BY IDOCK:   -7.13 KCAL/MOL
REMARK 924 INTRA-LIGAND FREE ENERGY PREDICTED BY IDOCK:   -0.41 KCAL/MOL
REMARK 927      BINDING AFFINITY PREDICTED BY RF-SCORE:    0.00 PKD
ROOT
HETATM    1  F   UNL     1     -12.823  11.691  62.796  1.00  0.00    -0.537 F  
HETATM    2  C   UNL     1     -12.311  12.409  63.805  1.00  0.00    -0.528 A  
HETATM    3  C   UNL     1     -10.944  12.649  63.853  1.00  0.00    -0.468 A  
HETATM    4  C   UNL     1     -10.404  13.379  64.918  1.00  0.00    -0.382 A  
HETATM    5  C   UNL     1     -11.228  13.850  65.952  1.00  0.00    -0.297 A  
HETATM    6  C   UNL     1     -13.155  12.907  64.786  1.00  0.00    -0.035 A  
HETATM    7  C   UNL     1     -12.616  13.630  65.852  1.00  0.00    -0.478 A  
ENDROOT
BRANCH   5   8
HETATM    8  C   UNL     1     -10.692  14.615  67.157  1.00  0.00    -0.292 C  
HETATM    9  C   UNL     1     -10.695  16.124  66.847  1.00  0.00    -0.247 C  
HETATM   10  C   UNL     1     -10.217  16.937  68.044  1.00  0.00    -0.310 C  
HETATM   11  N   UNL     1      -8.886  16.512  68.462  1.00  0.00    -0.219 NA 
HETATM   12  C   UNL     1      -8.871  15.103  68.855  1.00  0.00    -0.205 C  
HETATM   13  H   UNL     1      -8.518  17.110  69.202  1.00  0.00     0.000 HD 
HETATM   14  C   UNL     1      -9.302  14.178  67.700  1.00  0.00    -0.209 C  
BRANCH  14  15
HETATM   15  C   UNL     1      -9.295  12.708  68.172  1.00  0.00    -0.210 C  
BRANCH  15  16
HETATM   16  O   UNL     1     -10.645  12.245  68.296  1.00  0.00    -0.211 OA 
BRANCH  16  17
HETATM   17  C   UNL     1     -10.872  11.108  69.024  1.00  0.00    -0.231 A  
HETATM   18  C   UNL     1     -11.576  11.042  70.229  1.00  0.00    -0.414 A  
HETATM   19  C   UNL     1     -11.776   9.796  70.793  1.00  0.00    -0.328 A  
HETATM   20  C   UNL     1     -11.288   8.646  70.220  1.00  0.00    -0.136 A  
HETATM   21  C   UNL     1     -10.564   8.677  69.048  1.00  0.00    -0.179 A  
HETATM   22  O   UNL     1     -11.608   7.535  70.932  1.00  0.00    -0.282 OA 
HETATM   23  C   UNL     1     -10.366   9.925  68.445  1.00  0.00    -0.226 A  
HETATM   24  C   UNL     1     -12.415   8.111  71.983  1.00  0.00    -0.336 C  
HETATM   25  O   UNL     1     -12.464   9.552  71.940  1.00  0.00    -0.369 OA 
ENDBRANCH  16  17
ENDBRANCH  15  16
ENDBRANCH  14  15
ENDBRANCH   5   8
TORSDOF 4
ENDMDL
MODEL      123
REMARK 921   NORMALIZED FREE ENERGY PREDICTED BY IDOCK:   -5.48 KCAL/MOL
REMARK 922        TOTAL FREE ENERGY PREDICTED BY IDOCK:   -7.54 KCAL/MOL
REMARK 923 INTER-LIGAND FREE ENERGY PREDICTED BY IDOCK:   -7.21 KCAL/MOL
REMARK 924 INTRA-LIGAND FREE ENERGY PREDICTED BY IDOCK:   -0.34 KCAL/MOL
REMARK 927      BINDING AFFINITY PREDICTED BY RF-SCORE:    0.00 PKD
ROOT
HETATM    1  F   UNL     1     -10.997  20.539  64.993  1.00  0.00    -0.321 F  
HETATM    2  C   UNL     1     -10.201  20.033  65.944  1.00  0.00    -0.421 A  
HETATM    3  C   UNL     1      -8.829  19.984  65.737  1.00  0.00     0.009 A  
HETATM    4  C   UNL     1      -7.997  19.435  66.719  1.00  0.00    -0.290 A  
HETATM    5  C   UNL     1      -8.539  18.912  67.903  1.00  0.00    -0.323 A  
HETATM    6  C   UNL     1     -10.758  19.570  67.126  1.00  0.00    -0.599 A  
HETATM    7  C   UNL     1      -9.930  19.017  68.105  1.00  0.00    -0.449 A  
ENDROOT
BRANCH   5   8
HETATM    8  C   UNL     1      -7.688  18.266  68.991  1.00  0.00    -0.151 C  
HETATM    9  C   UNL     1      -6.423  19.114  69.221  1.00  0.00    -0.332 C  
HETATM   10  C   UNL     1      -5.564  18.537  70.340  1.00  0.00    -0.212 C  
HETATM   11  N   UNL     1      -5.197  17.155  70.053  1.00  0.00    -0.186 NA 
HETATM   12  C   UNL     1      -6.379  16.302  69.923  1.00  0.00    -0.131 C  
HETATM   13  H   UNL     1      -4.547  16.789  70.748  1.00  0.00     0.000 HD 
HETATM   14  C   UNL     1      -7.307  16.771  68.786  1.00  0.00    -0.227 C  
BRANCH  14  15
HETATM   15  C   UNL     1      -8.549  15.858  68.707  1.00  0.00    -0.212 C  
BRANCH  15  16
HETATM   16  O   UNL     1      -9.594  16.410  69.516  1.00  0.00    -0.184 OA 
BRANCH  16  17
HETATM   17  C   UNL     1     -10.517  15.550  70.050  1.00  0.00    -0.309 A  
HETATM   18  C   UNL     1     -11.213  15.747  71.245  1.00  0.00    -0.376 A  
HETATM   19  C   UNL     1     -12.167  14.811  71.598  1.00  0.00    -0.349 A  
HETATM   20  C   UNL     1     -12.426  13.703  70.827  1.00  0.00    -0.359 A  
HETATM   21  C   UNL     1     -11.739  13.464  69.657  1.00  0.00    -0.375 A  
HETATM   22  O   UNL     1     -13.407  12.923  71.352  1.00  0.00    -0.246 OA 
HETATM   23  C   UNL     1     -10.782  14.408  69.266  1.00  0.00    -0.225 A  
HETATM   24  C   UNL     1     -13.785  13.705  72.506  1.00  0.00    -0.558 C  
HETATM   25  O   UNL     1     -12.953  14.866  72.706  1.00  0.00    -0.379 OA 
ENDBRANCH  16  17
ENDBRANCH  15  16
ENDBRANCH  14  15
ENDBRANCH   5   8
TORSDOF 4
ENDMDL
MODEL      124
REMARK 921   NORMALIZED FREE ENERGY PREDICTED BY IDOCK:   -5.46 KCAL/MOL
REMARK 922        TOTAL FREE ENERGY PREDICTED BY IDOCK:   -7.52 KCAL/MOL
REMARK 923 INTER-LIGAND FREE ENERGY PREDICTED BY IDOCK:   -7.07 KCAL/MOL
REMARK 924 INTRA-LIGAND FREE ENERGY PREDICTED BY IDOCK:   -0.45 KCAL/MOL
REMARK 927      BINDING AFFINITY PREDICTED BY RF-SCORE:    0.00 PKD
ROOT
HETATM    1  F   UNL     1     -11.857  15.920  70.539  1.00  0.00    -0.304 F  
HETATM    2  C   UNL     1     -11.703  15.302  69.361  1.00  0.00    -0.341 A  
HETATM    3  C   UNL     1     -12.069  13.969  69.232  1.00  0.00    -0.380 A  
HETATM    4  C   UNL     1     -11.887  13.313  68.009  1.00  0.00    -0.392 A  
HETATM    5  C   UNL     1     -11.314  13.985  66.917  1.00  0.00    -0.343 A  
HETATM    6  C   UNL     1     -11.183  16.004  68.284  1.00  0.00    -0.350 A  
HETATM    7  C   UNL     1     -10.995  15.349  67.065  1.00  0.00    -0.306 A  
ENDROOT
BRANCH   5   8
HETATM    8  C   UNL     1     -11.055  13.313  65.573  1.00  0.00    -0.299 C  
HETATM    9  C   UNL     1     -12.210  13.637  64.608  1.00  0.00    -0.448 C  
HETATM   10  C   UNL     1     -11.968  13.030  63.230  1.00  0.00    -0.421 C  
HETATM   11  N   UNL     1     -11.782  11.587  63.325  1.00  0.00    -0.867 NA 
HETATM   12  C   UNL     1     -10.629  11.248  64.161  1.00  0.00    -0.373 C  
HETATM   13  H   UNL     1     -11.712  11.158  62.402  1.00  0.00     0.000 HD 
HETATM   14  C   UNL     1     -10.784  11.781  65.599  1.00  0.00    -0.328 C  
BRANCH  14  15
HETATM   15  C   UNL     1      -9.534  11.422  66.431  1.00  0.00    -0.204 C  
BRANCH  15  16
HETATM   16  O   UNL     1      -8.792  10.402  65.753  1.00  0.00    -0.157 OA 
BRANCH  16  17
HETATM   17  C   UNL     1      -8.884   9.119  66.224  1.00  0.00    -0.148 A  
HETATM   18  C   UNL     1     -10.039   8.525  66.739  1.00  0.00    -0.369 A  
HETATM   19  C   UNL     1      -9.972   7.193  67.101  1.00  0.00    -0.209 A  
HETATM   20  C   UNL     1      -8.816   6.460  66.989  1.00  0.00    -0.115 A  
HETATM   21  C   UNL     1      -7.651   7.022  66.512  1.00  0.00    -0.089 A  
HETATM   22  O   UNL     1      -8.976   5.171  67.389  1.00  0.00    -0.109 OA 
HETATM   23  C   UNL     1      -7.697   8.365  66.119  1.00  0.00    -0.097 A  
HETATM   24  C   UNL     1     -10.386   5.158  67.699  1.00  0.00    -0.110 C  
HETATM   25  O   UNL     1     -11.007   6.455  67.587  1.00  0.00    -0.310 OA 
ENDBRANCH  16  17
ENDBRANCH  15  16
ENDBRANCH  14  15
ENDBRANCH   5   8
TORSDOF 4
ENDMDL
MODEL      125
REMARK 921   NORMALIZED FREE ENERGY PREDICTED BY IDOCK:   -5.46 KCAL/MOL
REMARK 922        TOTAL FREE ENERGY PREDICTED BY IDOCK:   -7.52 KCAL/MOL
REMARK 923 INTER-LIGAND FREE ENERGY PREDICTED BY IDOCK:   -6.42 KCAL/MOL
REMARK 924 INTRA-LIGAND FREE ENERGY PREDICTED BY IDOCK:   -1.10 KCAL/MOL
REMARK 927      BINDING AFFINITY PREDICTED BY RF-SCORE:    0.00 PKD
ROOT
HETATM    1  F   UNL     1      -8.161  20.738  66.845  1.00  0.00    -0.331 F  
HETATM    2  C   UNL     1      -8.701  19.525  66.667  1.00  0.00    -0.342 A  
HETATM    3  C   UNL     1      -7.882  18.405  66.643  1.00  0.00    -0.269 A  
HETATM    4  C   UNL     1      -8.442  17.139  66.434  1.00  0.00    -0.307 A  
HETATM    5  C   UNL     1      -9.823  16.995  66.223  1.00  0.00    -0.310 A  
HETATM    6  C   UNL     1     -10.075  19.406  66.513  1.00  0.00    -0.516 A  
HETATM    7  C   UNL     1     -10.634  18.144  66.298  1.00  0.00    -0.291 A  
ENDROOT
BRANCH   5   8
HETATM    8  C   UNL     1     -10.484  15.648  65.951  1.00  0.00    -0.358 C  
HETATM    9  C   UNL     1     -11.342  15.748  64.676  1.00  0.00    -0.343 C  
HETATM   10  C   UNL     1     -11.980  14.408  64.330  1.00  0.00    -0.452 C  
HETATM   11  N   UNL     1     -12.787  13.916  65.441  1.00  0.00    -0.722 NA 
HETATM   12  C   UNL     1     -11.978  13.718  66.645  1.00  0.00    -0.431 C  
HETATM   13  H   UNL     1     -13.293  13.067  65.188  1.00  0.00     0.000 HD 
HETATM   14  C   UNL     1     -11.311  15.027  67.112  1.00  0.00    -0.323 C  
BRANCH  14  15
HETATM   15  C   UNL     1     -10.450  14.761  68.366  1.00  0.00    -0.243 C  
BRANCH  15  16
HETATM   16  O   UNL     1     -10.246  13.350  68.509  1.00  0.00    -0.237 OA 
BRANCH  16  17
HETATM   17  C   UNL     1      -8.978  12.863  68.337  1.00  0.00    -0.124 A  
HETATM   18  C   UNL     1      -8.613  11.515  68.383  1.00  0.00    -0.159 A  
HETATM   19  C   UNL     1      -7.297  11.193  68.113  1.00  0.00    -0.087 A  
HETATM   20  C   UNL     1      -6.353  12.149  67.827  1.00  0.00    -0.092 A  
HETATM   21  C   UNL     1      -6.671  13.490  67.801  1.00  0.00    -0.173 A  
HETATM   22  O   UNL     1      -5.128  11.614  67.581  1.00  0.00    -0.048 OA 
HETATM   23  C   UNL     1      -8.003  13.841  68.051  1.00  0.00    -0.156 A  
HETATM   24  C   UNL     1      -5.427  10.204  67.676  1.00  0.00    -0.041 C  
HETATM   25  O   UNL     1      -6.784   9.933  68.084  1.00  0.00    -0.060 OA 
ENDBRANCH  16  17
ENDBRANCH  15  16
ENDBRANCH  14  15
ENDBRANCH   5   8
TORSDOF 4
ENDMDL
MODEL      126
REMARK 921   NORMALIZED FREE ENERGY PREDICTED BY IDOCK:   -5.45 KCAL/MOL
REMARK 922        TOTAL FREE ENERGY PREDICTED BY IDOCK:   -7.51 KCAL/MOL
REMARK 923 INTER-LIGAND FREE ENERGY PREDICTED BY IDOCK:   -6.78 KCAL/MOL
REMARK 924 INTRA-LIGAND FREE ENERGY PREDICTED BY IDOCK:   -0.73 KCAL/MOL
REMARK 927      BINDING AFFINITY PREDICTED BY RF-SCORE:    0.00 PKD
ROOT
HETATM    1  F   UNL     1     -13.042  11.603  62.852  1.00  0.00    -0.568 F  
HETATM    2  C   UNL     1     -12.178  11.989  63.800  1.00  0.00    -0.498 A  
HETATM    3  C   UNL     1     -10.818  11.771  63.619  1.00  0.00    -0.508 A  
HETATM    4  C   UNL     1      -9.915  12.153  64.619  1.00  0.00    -0.227 A  
HETATM    5  C   UNL     1     -10.373  12.732  65.812  1.00  0.00    -0.297 A  
HETATM    6  C   UNL     1     -12.653  12.606  64.947  1.00  0.00    -0.525 A  
HETATM    7  C   UNL     1     -11.753  12.981  65.947  1.00  0.00    -0.442 A  
ENDROOT
BRANCH   5   8
HETATM    8  C   UNL     1      -9.441  13.130  66.952  1.00  0.00    -0.244 C  
HETATM    9  C   UNL     1      -8.906  14.552  66.700  1.00  0.00    -0.214 C  
HETATM   10  C   UNL     1      -8.010  15.017  67.843  1.00  0.00    -0.138 C  
HETATM   11  N   UNL     1      -6.902  14.091  68.043  1.00  0.00    -0.126 NA 
HETATM   12  C   UNL     1      -7.379  12.748  68.379  1.00  0.00    -0.118 C  
HETATM   13  H   UNL     1      -6.246  14.439  68.742  1.00  0.00     0.000 HD 
HETATM   14  C   UNL     1      -8.269  12.158  67.268  1.00  0.00    -0.180 C  
BRANCH  14  15
HETATM   15  C   UNL     1      -8.767  10.756  67.680  1.00  0.00    -0.126 C  
BRANCH  15  16
HETATM   16  O   UNL     1      -8.905  10.704  69.105  1.00  0.00    -0.164 OA 
BRANCH  16  17
HETATM   17  C   UNL     1      -9.628   9.673  69.644  1.00  0.00    -0.208 A  
HETATM   18  C   UNL     1     -10.314   9.712  70.860  1.00  0.00    -0.334 A  
HETATM   19  C   UNL     1     -11.057   8.603  71.218  1.00  0.00    -0.272 A  
HETATM   20  C   UNL     1     -11.119   7.478  70.432  1.00  0.00    -0.261 A  
HETATM   21  C   UNL     1     -10.432   7.395  69.240  1.00  0.00    -0.222 A  
HETATM   22  O   UNL     1     -11.914   6.514  70.965  1.00  0.00    -0.361 OA 
HETATM   23  C   UNL     1      -9.688   8.513  68.845  1.00  0.00    -0.172 A  
HETATM   24  C   UNL     1     -12.403   7.190  72.144  1.00  0.00    -0.191 C  
HETATM   25  O   UNL     1     -11.808   8.488  72.347  1.00  0.00    -0.380 OA 
ENDBRANCH  16  17
ENDBRANCH  15  16
ENDBRANCH  14  15
ENDBRANCH   5   8
TORSDOF 4
ENDMDL
MODEL      127
REMARK 921   NORMALIZED FREE ENERGY PREDICTED BY IDOCK:   -5.45 KCAL/MOL
REMARK 922        TOTAL FREE ENERGY PREDICTED BY IDOCK:   -7.50 KCAL/MOL
REMARK 923 INTER-LIGAND FREE ENERGY PREDICTED BY IDOCK:   -6.77 KCAL/MOL
REMARK 924 INTRA-LIGAND FREE ENERGY PREDICTED BY IDOCK:   -0.74 KCAL/MOL
REMARK 927      BINDING AFFINITY PREDICTED BY RF-SCORE:    0.00 PKD
ROOT
HETATM    1  F   UNL     1      -7.316  17.743  67.490  1.00  0.00    -0.186 F  
HETATM    2  C   UNL     1      -8.379  17.195  68.093  1.00  0.00    -0.226 A  
HETATM    3  C   UNL     1      -9.650  17.685  67.822  1.00  0.00    -0.267 A  
HETATM    4  C   UNL     1     -10.761  17.129  68.469  1.00  0.00    -0.326 A  
HETATM    5  C   UNL     1     -10.599  16.098  69.407  1.00  0.00    -0.300 A  
HETATM    6  C   UNL     1      -8.196  16.142  68.977  1.00  0.00    -0.244 A  
HETATM    7  C   UNL     1      -9.303  15.592  69.627  1.00  0.00    -0.224 A  
ENDROOT
BRANCH   5   8
HETATM    8  C   UNL     1     -11.766  15.482  70.171  1.00  0.00    -0.367 C  
HETATM    9  C   UNL     1     -11.846  16.110  71.575  1.00  0.00    -0.528 C  
HETATM   10  C   UNL     1     -13.033  15.565  72.360  1.00  0.00    -0.421 C  
HETATM   11  N   UNL     1     -12.964  14.112  72.463  1.00  0.00    -0.411 NA 
HETATM   12  C   UNL     1     -12.984  13.479  71.143  1.00  0.00    -0.262 C  
HETATM   13  H   UNL     1     -13.702  13.744  73.064  1.00  0.00     0.000 HD 
HETATM   14  C   UNL     1     -11.796  13.930  70.270  1.00  0.00    -0.360 C  
BRANCH  14  15
HETATM   15  C   UNL     1     -11.876  13.258  68.883  1.00  0.00    -0.327 C  
BRANCH  15  16
HETATM   16  O   UNL     1     -12.425  11.942  69.027  1.00  0.00    -0.105 OA 
BRANCH  16  17
HETATM   17  C   UNL     1     -11.556  10.884  69.075  1.00  0.00    -0.316 A  
HETATM   18  C   UNL     1     -11.095  10.266  70.240  1.00  0.00    -0.388 A  
HETATM   19  C   UNL     1     -10.278   9.160  70.103  1.00  0.00    -0.205 A  
HETATM   20  C   UNL     1      -9.899   8.677  68.874  1.00  0.00    -0.179 A  
HETATM   21  C   UNL     1     -10.313   9.279  67.705  1.00  0.00    -0.292 A  
HETATM   22  O   UNL     1      -9.107   7.577  68.969  1.00  0.00    -0.141 OA 
HETATM   23  C   UNL     1     -11.158  10.389  67.816  1.00  0.00    -0.365 A  
HETATM   24  C   UNL     1      -9.088   7.381  70.400  1.00  0.00    -0.157 C  
HETATM   25  O   UNL     1      -9.770   8.424  71.128  1.00  0.00    -0.167 OA 
ENDBRANCH  16  17
ENDBRANCH  15  16
ENDBRANCH  14  15
ENDBRANCH   5   8
TORSDOF 4
ENDMDL
MODEL      128
REMARK 921   NORMALIZED FREE ENERGY PREDICTED BY IDOCK:   -5.45 KCAL/MOL
REMARK 922        TOTAL FREE ENERGY PREDICTED BY IDOCK:   -7.50 KCAL/MOL
REMARK 923 INTER-LIGAND FREE ENERGY PREDICTED BY IDOCK:   -6.39 KCAL/MOL
REMARK 924 INTRA-LIGAND FREE ENERGY PREDICTED BY IDOCK:   -1.11 KCAL/MOL
REMARK 927      BINDING AFFINITY PREDICTED BY RF-SCORE:    0.00 PKD
ROOT
HETATM    1  F   UNL     1     -13.091  13.922  65.487  1.00  0.00    -0.542 F  
HETATM    2  C   UNL     1     -12.138  13.001  65.681  1.00  0.00    -0.454 A  
HETATM    3  C   UNL     1     -11.482  12.936  66.903  1.00  0.00    -0.393 A  
HETATM    4  C   UNL     1     -10.470  11.990  67.100  1.00  0.00    -0.244 A  
HETATM    5  C   UNL     1     -10.094  11.120  66.064  1.00  0.00    -0.292 A  
HETATM    6  C   UNL     1     -11.822  12.119  64.657  1.00  0.00    -0.400 A  
HETATM    7  C   UNL     1     -10.807  11.179  64.850  1.00  0.00    -0.261 A  
ENDROOT
BRANCH   5   8
HETATM    8  C   UNL     1      -8.972  10.097  66.206  1.00  0.00    -0.168 C  
HETATM    9  C   UNL     1      -7.832  10.450  65.234  1.00  0.00    -0.137 C  
HETATM   10  C   UNL     1      -6.661   9.485  65.379  1.00  0.00    -0.077 C  
HETATM   11  N   UNL     1      -7.094   8.109  65.167  1.00  0.00    -0.066 NA 
HETATM   12  C   UNL     1      -8.112   7.711  66.140  1.00  0.00    -0.118 C  
HETATM   13  H   UNL     1      -6.304   7.464  65.169  1.00  0.00     0.000 HD 
HETATM   14  C   UNL     1      -9.368   8.600  66.056  1.00  0.00    -0.284 C  
BRANCH  14  15
HETATM   15  C   UNL     1     -10.399   8.159  67.117  1.00  0.00    -0.321 C  
BRANCH  15  16
HETATM   16  O   UNL     1      -9.818   8.285  68.420  1.00  0.00    -0.162 OA 
BRANCH  16  17
HETATM   17  C   UNL     1     -10.647   8.591  69.467  1.00  0.00    -0.211 A  
HETATM   18  C   UNL     1     -11.035   9.879  69.844  1.00  0.00    -0.321 A  
HETATM   19  C   UNL     1     -11.940  10.003  70.881  1.00  0.00    -0.361 A  
HETATM   20  C   UNL     1     -12.439   8.913  71.551  1.00  0.00    -0.324 A  
HETATM   21  C   UNL     1     -12.056   7.630  71.225  1.00  0.00    -0.337 A  
HETATM   22  O   UNL     1     -13.321   9.260  72.525  1.00  0.00    -0.457 OA 
HETATM   23  C   UNL     1     -11.156   7.476  70.163  1.00  0.00    -0.246 A  
HETATM   24  C   UNL     1     -13.372  10.692  72.344  1.00  0.00     0.137 C  
HETATM   25  O   UNL     1     -12.445  11.176  71.351  1.00  0.00    -0.353 OA 
ENDBRANCH  16  17
ENDBRANCH  15  16
ENDBRANCH  14  15
ENDBRANCH   5   8
TORSDOF 4
ENDMDL
MODEL      129
REMARK 921   NORMALIZED FREE ENERGY PREDICTED BY IDOCK:   -5.43 KCAL/MOL
REMARK 922        TOTAL FREE ENERGY PREDICTED BY IDOCK:   -7.48 KCAL/MOL
REMARK 923 INTER-LIGAND FREE ENERGY PREDICTED BY IDOCK:   -6.95 KCAL/MOL
REMARK 924 INTRA-LIGAND FREE ENERGY PREDICTED BY IDOCK:   -0.53 KCAL/MOL
REMARK 927      BINDING AFFINITY PREDICTED BY RF-SCORE:    0.00 PKD
ROOT
HETATM    1  F   UNL     1      -7.175  10.435  70.414  1.00  0.00    -0.159 F  
HETATM    2  C   UNL     1      -7.896  10.602  69.298  1.00  0.00    -0.138 A  
HETATM    3  C   UNL     1      -9.177  10.070  69.221  1.00  0.00    -0.212 A  
HETATM    4  C   UNL     1      -9.924  10.223  68.047  1.00  0.00    -0.177 A  
HETATM    5  C   UNL     1      -9.381  10.888  66.937  1.00  0.00    -0.186 A  
HETATM    6  C   UNL     1      -7.355  11.308  68.234  1.00  0.00    -0.095 A  
HETATM    7  C   UNL     1      -8.097  11.456  67.060  1.00  0.00    -0.157 A  
ENDROOT
BRANCH   5   8
HETATM    8  C   UNL     1     -10.131  11.050  65.619  1.00  0.00    -0.310 C  
HETATM    9  C   UNL     1      -9.297  10.438  64.478  1.00  0.00    -0.313 C  
HETATM   10  C   UNL     1     -10.032  10.527  63.145  1.00  0.00    -0.144 C  
HETATM   11  N   UNL     1     -10.374  11.910  62.833  1.00  0.00    -0.563 NA 
HETATM   12  C   UNL     1     -11.246  12.491  63.854  1.00  0.00    -0.436 C  
HETATM   13  H   UNL     1     -10.782  11.992  61.902  1.00  0.00     0.000 HD 
HETATM   14  C   UNL     1     -10.585  12.490  65.246  1.00  0.00    -0.319 C  
BRANCH  14  15
HETATM   15  C   UNL     1     -11.553  13.087  66.290  1.00  0.00    -0.360 C  
BRANCH  15  16
HETATM   16  O   UNL     1     -10.806  13.845  67.248  1.00  0.00    -0.281 OA 
BRANCH  16  17
HETATM   17  C   UNL     1     -10.716  15.200  67.068  1.00  0.00    -0.307 A  
HETATM   18  C   UNL     1     -10.670  16.152  68.089  1.00  0.00    -0.315 A  
HETATM   19  C   UNL     1     -10.503  17.476  67.729  1.00  0.00    -0.381 A  
HETATM   20  C   UNL     1     -10.405  17.872  66.417  1.00  0.00    -0.365 A  
HETATM   21  C   UNL     1     -10.474  16.962  65.384  1.00  0.00    -0.172 A  
HETATM   22  O   UNL     1     -10.232  19.213  66.290  1.00  0.00    -0.393 OA 
HETATM   23  C   UNL     1     -10.623  15.612  65.723  1.00  0.00    -0.374 A  
HETATM   24  C   UNL     1     -10.163  19.609  67.678  1.00  0.00    -0.435 C  
HETATM   25  O   UNL     1     -10.406  18.522  68.594  1.00  0.00    -0.357 OA 
ENDBRANCH  16  17
ENDBRANCH  15  16
ENDBRANCH  14  15
ENDBRANCH   5   8
TORSDOF 4
ENDMDL
MODEL      130
REMARK 921   NORMALIZED FREE ENERGY PREDICTED BY IDOCK:   -5.42 KCAL/MOL
REMARK 922        TOTAL FREE ENERGY PREDICTED BY IDOCK:   -7.46 KCAL/MOL
REMARK 923 INTER-LIGAND FREE ENERGY PREDICTED BY IDOCK:   -7.23 KCAL/MOL
REMARK 924 INTRA-LIGAND FREE ENERGY PREDICTED BY IDOCK:   -0.23 KCAL/MOL
REMARK 927      BINDING AFFINITY PREDICTED BY RF-SCORE:    0.00 PKD
ROOT
HETATM    1  F   UNL     1     -12.068   8.707  72.378  1.00  0.00    -0.396 F  
HETATM    2  C   UNL     1     -11.666   8.299  71.168  1.00  0.00    -0.280 A  
HETATM    3  C   UNL     1     -11.839   6.972  70.797  1.00  0.00    -0.401 A  
HETATM    4  C   UNL     1     -11.398   6.538  69.541  1.00  0.00    -0.419 A  
HETATM    5  C   UNL     1     -10.759   7.427  68.662  1.00  0.00    -0.134 A  
HETATM    6  C   UNL     1     -11.085   9.210  70.298  1.00  0.00    -0.272 A  
HETATM    7  C   UNL     1     -10.639   8.777  69.048  1.00  0.00    -0.191 A  
ENDROOT
BRANCH   5   8
HETATM    8  C   UNL     1     -10.222   7.003  67.300  1.00  0.00    -0.301 C  
HETATM    9  C   UNL     1     -10.078   5.470  67.262  1.00  0.00    -0.216 C  
HETATM   10  C   UNL     1      -9.595   4.992  65.897  1.00  0.00    -0.164 C  
HETATM   11  N   UNL     1      -8.330   5.625  65.544  1.00  0.00    -0.133 NA 
HETATM   12  C   UNL     1      -8.458   7.081  65.478  1.00  0.00    -0.114 C  
HETATM   13  H   UNL     1      -7.951   5.244  64.677  1.00  0.00     0.000 HD 
HETATM   14  C   UNL     1      -8.906   7.682  66.824  1.00  0.00    -0.150 C  
BRANCH  14  15
HETATM   15  C   UNL     1      -9.052   9.214  66.696  1.00  0.00    -0.148 C  
BRANCH  15  16
HETATM   16  O   UNL     1      -9.281   9.553  65.323  1.00  0.00    -0.217 OA 
BRANCH  16  17
HETATM   17  C   UNL     1     -10.124  10.596  65.049  1.00  0.00    -0.321 A  
HETATM   18  C   UNL     1     -10.818  11.349  66.000  1.00  0.00    -0.306 A  
HETATM   19  C   UNL     1     -11.570  12.418  65.552  1.00  0.00    -0.385 A  
HETATM   20  C   UNL     1     -11.667  12.739  64.220  1.00  0.00    -0.381 A  
HETATM   21  C   UNL     1     -11.019  12.002  63.253  1.00  0.00    -0.399 A  
HETATM   22  O   UNL     1     -12.446  13.831  64.003  1.00  0.00    -0.674 OA 
HETATM   23  C   UNL     1     -10.233  10.925  63.682  1.00  0.00    -0.395 A  
HETATM   24  C   UNL     1     -12.772  14.204  65.360  1.00  0.00    -0.431 C  
HETATM   25  O   UNL     1     -12.278  13.270  66.343  1.00  0.00    -0.402 OA 
ENDBRANCH  16  17
ENDBRANCH  15  16
ENDBRANCH  14  15
ENDBRANCH   5   8
TORSDOF 4
ENDMDL
MODEL      131
REMARK 921   NORMALIZED FREE ENERGY PREDICTED BY IDOCK:   -5.41 KCAL/MOL
REMARK 922        TOTAL FREE ENERGY PREDICTED BY IDOCK:   -7.46 KCAL/MOL
REMARK 923 INTER-LIGAND FREE ENERGY PREDICTED BY IDOCK:   -6.49 KCAL/MOL
REMARK 924 INTRA-LIGAND FREE ENERGY PREDICTED BY IDOCK:   -0.97 KCAL/MOL
REMARK 927      BINDING AFFINITY PREDICTED BY RF-SCORE:    0.00 PKD
ROOT
HETATM    1  F   UNL     1      -9.157   3.324  65.443  1.00  0.00    -0.126 F  
HETATM    2  C   UNL     1      -9.439   4.227  66.391  1.00  0.00    -0.183 A  
HETATM    3  C   UNL     1      -8.616   4.334  67.504  1.00  0.00    -0.108 A  
HETATM    4  C   UNL     1      -8.921   5.261  68.508  1.00  0.00    -0.118 A  
HETATM    5  C   UNL     1     -10.066   6.068  68.411  1.00  0.00    -0.198 A  
HETATM    6  C   UNL     1     -10.548   5.047  66.245  1.00  0.00    -0.332 A  
HETATM    7  C   UNL     1     -10.857   5.968  67.249  1.00  0.00    -0.403 A  
ENDROOT
BRANCH   5   8
HETATM    8  C   UNL     1     -10.471   7.066  69.490  1.00  0.00    -0.235 C  
HETATM    9  C   UNL     1     -11.808   6.627  70.116  1.00  0.00    -0.347 C  
HETATM   10  C   UNL     1     -12.228   7.566  71.241  1.00  0.00    -0.329 C  
HETATM   11  N   UNL     1     -12.324   8.940  70.761  1.00  0.00    -0.492 NA 
HETATM   12  C   UNL     1     -11.041   9.420  70.247  1.00  0.00    -0.257 C  
HETATM   13  H   UNL     1     -12.693   9.562  71.481  1.00  0.00     0.000 HD 
HETATM   14  C   UNL     1     -10.535   8.562  69.070  1.00  0.00    -0.216 C  
BRANCH  14  15
HETATM   15  C   UNL     1      -9.169   9.091  68.582  1.00  0.00    -0.136 C  
BRANCH  15  16
HETATM   16  O   UNL     1      -9.291   9.529  67.223  1.00  0.00    -0.132 OA 
BRANCH  16  17
HETATM   17  C   UNL     1      -9.860  10.752  66.990  1.00  0.00    -0.187 A  
HETATM   18  C   UNL     1     -11.001  10.983  66.218  1.00  0.00    -0.184 A  
HETATM   19  C   UNL     1     -11.484  12.275  66.150  1.00  0.00    -0.374 A  
HETATM   20  C   UNL     1     -10.869  13.322  66.793  1.00  0.00    -0.281 A  
HETATM   21  C   UNL     1      -9.727  13.136  67.540  1.00  0.00    -0.213 A  
HETATM   22  O   UNL     1     -11.516  14.502  66.603  1.00  0.00    -0.347 OA 
HETATM   23  C   UNL     1      -9.228  11.832  67.642  1.00  0.00    -0.180 A  
HETATM   24  C   UNL     1     -12.651  14.064  65.823  1.00  0.00    -0.479 C  
HETATM   25  O   UNL     1     -12.597  12.666  65.472  1.00  0.00    -0.634 OA 
ENDBRANCH  16  17
ENDBRANCH  15  16
ENDBRANCH  14  15
ENDBRANCH   5   8
TORSDOF 4
ENDMDL
MODEL      132
REMARK 921   NORMALIZED FREE ENERGY PREDICTED BY IDOCK:   -5.40 KCAL/MOL
REMARK 922        TOTAL FREE ENERGY PREDICTED BY IDOCK:   -7.45 KCAL/MOL
REMARK 923 INTER-LIGAND FREE ENERGY PREDICTED BY IDOCK:   -6.68 KCAL/MOL
REMARK 924 INTRA-LIGAND FREE ENERGY PREDICTED BY IDOCK:   -0.77 KCAL/MOL
REMARK 927      BINDING AFFINITY PREDICTED BY RF-SCORE:    0.00 PKD
ROOT
HETATM    1  F   UNL     1     -11.317  15.671  66.000  1.00  0.00    -0.268 F  
HETATM    2  C   UNL     1     -11.408  14.554  66.733  1.00  0.00    -0.352 A  
HETATM    3  C   UNL     1     -11.731  13.352  66.117  1.00  0.00    -0.405 A  
HETATM    4  C   UNL     1     -11.849  12.188  66.885  1.00  0.00    -0.295 A  
HETATM    5  C   UNL     1     -11.668  12.228  68.277  1.00  0.00    -0.392 A  
HETATM    6  C   UNL     1     -11.173  14.612  68.099  1.00  0.00    -0.304 A  
HETATM    7  C   UNL     1     -11.297  13.453  68.867  1.00  0.00    -0.331 A  
ENDROOT
BRANCH   5   8
HETATM    8  C   UNL     1     -11.824  11.002  69.169  1.00  0.00    -0.407 C  
HETATM    9  C   UNL     1     -12.613  11.387  70.434  1.00  0.00    -0.267 C  
HETATM   10  C   UNL     1     -12.842  10.178  71.334  1.00  0.00    -0.428 C  
HETATM   11  N   UNL     1     -11.575   9.557  71.701  1.00  0.00    -0.393 NA 
HETATM   12  C   UNL     1     -10.843   9.093  70.522  1.00  0.00    -0.255 C  
HETATM   13  H   UNL     1     -11.710   8.805  72.377  1.00  0.00     0.000 HD 
HETATM   14  C   UNL     1     -10.519  10.247  69.553  1.00  0.00    -0.268 C  
BRANCH  14  15
HETATM   15  C   UNL     1      -9.773   9.703  68.317  1.00  0.00    -0.146 C  
BRANCH  15  16
HETATM   16  O   UNL     1     -10.672   8.910  67.533  1.00  0.00    -0.258 OA 
BRANCH  16  17
HETATM   17  C   UNL     1     -10.178   7.783  66.931  1.00  0.00    -0.303 A  
HETATM   18  C   UNL     1      -8.988   7.706  66.204  1.00  0.00    -0.197 A  
HETATM   19  C   UNL     1      -8.601   6.468  65.727  1.00  0.00    -0.144 A  
HETATM   20  C   UNL     1      -9.355   5.338  65.928  1.00  0.00    -0.155 A  
HETATM   21  C   UNL     1     -10.548   5.382  66.617  1.00  0.00    -0.359 A  
HETATM   22  O   UNL     1      -8.786   4.229  65.388  1.00  0.00    -0.117 OA 
HETATM   23  C   UNL     1     -10.953   6.621  67.128  1.00  0.00    -0.478 A  
HETATM   24  C   UNL     1      -7.550   4.781  64.882  1.00  0.00    -0.077 C  
HETATM   25  O   UNL     1      -7.460   6.212  65.031  1.00  0.00    -0.073 OA 
ENDBRANCH  16  17
ENDBRANCH  15  16
ENDBRANCH  14  15
ENDBRANCH   5   8
TORSDOF 4
ENDMDL
MODEL      133
REMARK 921   NORMALIZED FREE ENERGY PREDICTED BY IDOCK:   -5.38 KCAL/MOL
REMARK 922        TOTAL FREE ENERGY PREDICTED BY IDOCK:   -7.42 KCAL/MOL
REMARK 923 INTER-LIGAND FREE ENERGY PREDICTED BY IDOCK:   -6.77 KCAL/MOL
REMARK 924 INTRA-LIGAND FREE ENERGY PREDICTED BY IDOCK:   -0.66 KCAL/MOL
REMARK 927      BINDING AFFINITY PREDICTED BY RF-SCORE:    0.00 PKD
ROOT
HETATM    1  F   UNL     1     -13.094  12.267  62.878  1.00  0.00    -0.349 F  
HETATM    2  C   UNL     1     -12.135  12.093  63.797  1.00  0.00    -0.525 A  
HETATM    3  C   UNL     1     -10.885  11.634  63.405  1.00  0.00    -0.453 A  
HETATM    4  C   UNL     1      -9.888  11.428  64.367  1.00  0.00    -0.303 A  
HETATM    5  C   UNL     1     -10.149  11.659  65.727  1.00  0.00    -0.278 A  
HETATM    6  C   UNL     1     -12.404  12.378  65.127  1.00  0.00    -0.403 A  
HETATM    7  C   UNL     1     -11.412  12.167  66.088  1.00  0.00    -0.429 A  
ENDROOT
BRANCH   5   8
HETATM    8  C   UNL     1      -9.116  11.415  66.822  1.00  0.00    -0.181 C  
HETATM    9  C   UNL     1      -9.353  10.027  67.447  1.00  0.00    -0.167 C  
HETATM   10  C   UNL     1      -8.309   9.714  68.512  1.00  0.00    -0.117 C  
HETATM   11  N   UNL     1      -8.303  10.739  69.550  1.00  0.00    -0.385 NA 
HETATM   12  C   UNL     1      -7.985  12.057  69.000  1.00  0.00     0.179 C  
HETATM   13  H   UNL     1      -7.674  10.492  70.315  1.00  0.00     0.000 HD 
HETATM   14  C   UNL     1      -9.006  12.498  67.933  1.00  0.00    -0.188 C  
BRANCH  14  15
HETATM   15  C   UNL     1      -8.613  13.879  67.366  1.00  0.00    -0.200 C  
BRANCH  15  16
HETATM   16  O   UNL     1      -9.751  14.748  67.409  1.00  0.00    -0.212 OA 
BRANCH  16  17
HETATM   17  C   UNL     1      -9.527  16.099  67.448  1.00  0.00    -0.226 A  
HETATM   18  C   UNL     1     -10.363  17.076  66.903  1.00  0.00    -0.303 A  
HETATM   19  C   UNL     1     -10.022  18.401  67.100  1.00  0.00    -0.337 A  
HETATM   20  C   UNL     1      -8.891  18.772  67.787  1.00  0.00    -0.290 A  
HETATM   21  C   UNL     1      -8.030  17.834  68.314  1.00  0.00    -0.282 A  
HETATM   22  O   UNL     1      -8.754  20.120  67.874  1.00  0.00    -0.287 OA 
HETATM   23  C   UNL     1      -8.363  16.485  68.146  1.00  0.00    -0.186 A  
HETATM   24  C   UNL     1      -9.967  20.557  67.222  1.00  0.00    -0.387 C  
HETATM   25  O   UNL     1     -10.739  19.473  66.666  1.00  0.00    -0.457 OA 
ENDBRANCH  16  17
ENDBRANCH  15  16
ENDBRANCH  14  15
ENDBRANCH   5   8
TORSDOF 4
ENDMDL
MODEL      134
REMARK 921   NORMALIZED FREE ENERGY PREDICTED BY IDOCK:   -5.35 KCAL/MOL
REMARK 922        TOTAL FREE ENERGY PREDICTED BY IDOCK:   -7.39 KCAL/MOL
REMARK 923 INTER-LIGAND FREE ENERGY PREDICTED BY IDOCK:   -6.14 KCAL/MOL
REMARK 924 INTRA-LIGAND FREE ENERGY PREDICTED BY IDOCK:   -1.25 KCAL/MOL
REMARK 927      BINDING AFFINITY PREDICTED BY RF-SCORE:    0.00 PKD
ROOT
HETATM    1  F   UNL     1     -13.854  11.983  72.663  1.00  0.00    -0.355 F  
HETATM    2  C   UNL     1     -13.148  11.038  72.028  1.00  0.00    -0.344 A  
HETATM    3  C   UNL     1     -13.229   9.718  72.450  1.00  0.00    -0.363 A  
HETATM    4  C   UNL     1     -12.474   8.734  71.802  1.00  0.00    -0.407 A  
HETATM    5  C   UNL     1     -11.615   9.072  70.745  1.00  0.00    -0.313 A  
HETATM    6  C   UNL     1     -12.347  11.393  70.952  1.00  0.00    -0.483 A  
HETATM    7  C   UNL     1     -11.588  10.412  70.310  1.00  0.00    -0.410 A  
ENDROOT
BRANCH   5   8
HETATM    8  C   UNL     1     -10.739   8.051  70.029  1.00  0.00    -0.244 C  
HETATM    9  C   UNL     1     -11.442   6.681  70.035  1.00  0.00    -0.434 C  
HETATM   10  C   UNL     1     -10.628   5.636  69.280  1.00  0.00    -0.288 C  
HETATM   11  N   UNL     1      -9.288   5.516  69.845  1.00  0.00    -0.143 NA 
HETATM   12  C   UNL     1      -8.558   6.782  69.766  1.00  0.00    -0.141 C  
HETATM   13  H   UNL     1      -8.766   4.756  69.409  1.00  0.00     0.000 HD 
HETATM   14  C   UNL     1      -9.274   7.910  70.534  1.00  0.00    -0.158 C  
BRANCH  14  15
HETATM   15  C   UNL     1      -8.480   9.227  70.399  1.00  0.00    -0.206 C  
BRANCH  15  16
HETATM   16  O   UNL     1      -8.030   9.370  69.047  1.00  0.00    -0.087 OA 
BRANCH  16  17
HETATM   17  C   UNL     1      -8.643  10.308  68.260  1.00  0.00    -0.122 A  
HETATM   18  C   UNL     1      -9.393  10.040  67.113  1.00  0.00    -0.173 A  
HETATM   19  C   UNL     1     -10.007  11.104  66.480  1.00  0.00    -0.214 A  
HETATM   20  C   UNL     1      -9.882  12.396  66.931  1.00  0.00    -0.215 A  
HETATM   21  C   UNL     1      -9.127  12.700  68.043  1.00  0.00    -0.207 A  
HETATM   22  O   UNL     1     -10.576  13.282  66.170  1.00  0.00    -0.280 OA 
HETATM   23  C   UNL     1      -8.511  11.637  68.714  1.00  0.00    -0.027 A  
HETATM   24  C   UNL     1     -11.210  12.390  65.227  1.00  0.00    -0.318 C  
HETATM   25  O   UNL     1     -10.797  11.016  65.375  1.00  0.00    -0.206 OA 
ENDBRANCH  16  17
ENDBRANCH  15  16
ENDBRANCH  14  15
ENDBRANCH   5   8
TORSDOF 4
ENDMDL
MODEL      135
REMARK 921   NORMALIZED FREE ENERGY PREDICTED BY IDOCK:   -5.33 KCAL/MOL
REMARK 922        TOTAL FREE ENERGY PREDICTED BY IDOCK:   -7.36 KCAL/MOL
REMARK 923 INTER-LIGAND FREE ENERGY PREDICTED BY IDOCK:   -6.07 KCAL/MOL
REMARK 924 INTRA-LIGAND FREE ENERGY PREDICTED BY IDOCK:   -1.29 KCAL/MOL
REMARK 927      BINDING AFFINITY PREDICTED BY RF-SCORE:    0.00 PKD
ROOT
HETATM    1  F   UNL     1      -7.837   7.410  66.524  1.00  0.00    -0.090 F  
HETATM    2  C   UNL     1      -8.468   8.581  66.682  1.00  0.00    -0.113 A  
HETATM    3  C   UNL     1      -7.818   9.633  67.313  1.00  0.00    -0.095 A  
HETATM    4  C   UNL     1      -8.484  10.850  67.499  1.00  0.00    -0.123 A  
HETATM    5  C   UNL     1      -9.813  11.009  67.076  1.00  0.00    -0.211 A  
HETATM    6  C   UNL     1      -9.763   8.728  66.208  1.00  0.00    -0.342 A  
HETATM    7  C   UNL     1     -10.431   9.939  66.399  1.00  0.00    -0.197 A  
ENDROOT
BRANCH   5   8
HETATM    8  C   UNL     1     -10.603  12.296  67.288  1.00  0.00    -0.249 C  
HETATM    9  C   UNL     1      -9.793  13.488  66.744  1.00  0.00    -0.267 C  
HETATM   10  C   UNL     1     -10.566  14.794  66.884  1.00  0.00    -0.294 C  
HETATM   11  N   UNL     1     -10.936  15.031  68.274  1.00  0.00    -0.261 NA 
HETATM   12  C   UNL     1     -11.788  13.960  68.793  1.00  0.00    -0.361 C  
HETATM   13  H   UNL     1     -11.372  15.945  68.394  1.00  0.00     0.000 HD 
HETATM   14  C   UNL     1     -11.088  12.588  68.737  1.00  0.00    -0.314 C  
BRANCH  14  15
HETATM   15  C   UNL     1     -12.035  11.491  69.268  1.00  0.00    -0.330 C  
BRANCH  15  16
HETATM   16  O   UNL     1     -11.549  11.018  70.531  1.00  0.00    -0.314 OA 
BRANCH  16  17
HETATM   17  C   UNL     1     -11.402   9.667  70.699  1.00  0.00    -0.312 A  
HETATM   18  C   UNL     1     -10.843   8.790  69.766  1.00  0.00    -0.196 A  
HETATM   19  C   UNL     1     -10.703   7.464  70.131  1.00  0.00    -0.242 A  
HETATM   20  C   UNL     1     -11.111   6.994  71.355  1.00  0.00    -0.245 A  
HETATM   21  C   UNL     1     -11.692   7.826  72.288  1.00  0.00    -0.390 A  
HETATM   22  O   UNL     1     -10.869   5.666  71.510  1.00  0.00    -0.254 OA 
HETATM   23  C   UNL     1     -11.827   9.178  71.951  1.00  0.00    -0.439 A  
HETATM   24  C   UNL     1     -10.196   5.369  70.267  1.00  0.00    -0.267 C  
HETATM   25  O   UNL     1     -10.152   6.488  69.359  1.00  0.00    -0.164 OA 
ENDBRANCH  16  17
ENDBRANCH  15  16
ENDBRANCH  14  15
ENDBRANCH   5   8
TORSDOF 4
ENDMDL
MODEL      136
REMARK 921   NORMALIZED FREE ENERGY PREDICTED BY IDOCK:   -5.32 KCAL/MOL
REMARK 922        TOTAL FREE ENERGY PREDICTED BY IDOCK:   -7.35 KCAL/MOL
REMARK 923 INTER-LIGAND FREE ENERGY PREDICTED BY IDOCK:   -5.43 KCAL/MOL
REMARK 924 INTRA-LIGAND FREE ENERGY PREDICTED BY IDOCK:   -1.92 KCAL/MOL
REMARK 927      BINDING AFFINITY PREDICTED BY RF-SCORE:    0.00 PKD
ROOT
HETATM    1  F   UNL     1     -10.788   4.429  72.613  1.00  0.00    -0.253 F  
HETATM    2  C   UNL     1     -10.914   5.726  72.302  1.00  0.00    -0.262 A  
HETATM    3  C   UNL     1     -11.760   6.106  71.269  1.00  0.00    -0.211 A  
HETATM    4  C   UNL     1     -11.876   7.459  70.927  1.00  0.00    -0.320 A  
HETATM    5  C   UNL     1     -11.126   8.433  71.605  1.00  0.00    -0.344 A  
HETATM    6  C   UNL     1     -10.201   6.673  73.022  1.00  0.00    -0.225 A  
HETATM    7  C   UNL     1     -10.311   8.022  72.678  1.00  0.00    -0.398 A  
ENDROOT
BRANCH   5   8
HETATM    8  C   UNL     1     -11.180   9.915  71.250  1.00  0.00    -0.356 C  
HETATM    9  C   UNL     1     -12.586  10.463  71.558  1.00  0.00    -0.544 C  
HETATM   10  C   UNL     1     -12.673  11.958  71.271  1.00  0.00    -0.298 C  
HETATM   11  N   UNL     1     -12.315  12.242  69.887  1.00  0.00    -0.120 NA 
HETATM   12  C   UNL     1     -10.946  11.819  69.589  1.00  0.00     0.010 C  
HETATM   13  H   UNL     1     -12.460  13.225  69.658  1.00  0.00     0.000 HD 
HETATM   14  C   UNL     1     -10.751  10.305  69.807  1.00  0.00    -0.328 C  
BRANCH  14  15
HETATM   15  C   UNL     1      -9.288   9.914  69.506  1.00  0.00    -0.220 C  
BRANCH  15  16
HETATM   16  O   UNL     1      -9.232   9.224  68.252  1.00  0.00    -0.132 OA 
BRANCH  16  17
HETATM   17  C   UNL     1      -9.345   7.859  68.264  1.00  0.00    -0.143 A  
HETATM   18  C   UNL     1      -8.606   6.990  69.070  1.00  0.00    -0.129 A  
HETATM   19  C   UNL     1      -8.903   5.642  69.007  1.00  0.00    -0.106 A  
HETATM   20  C   UNL     1      -9.873   5.144  68.171  1.00  0.00    -0.151 A  
HETATM   21  C   UNL     1     -10.602   5.969  67.342  1.00  0.00    -0.355 A  
HETATM   22  O   UNL     1     -10.009   3.796  68.277  1.00  0.00    -0.006 OA 
HETATM   23  C   UNL     1     -10.335   7.342  67.401  1.00  0.00    -0.330 A  
HETATM   24  C   UNL     1      -9.060   3.511  69.329  1.00  0.00    -0.135 C  
HETATM   25  O   UNL     1      -8.305   4.667  69.745  1.00  0.00    -0.073 OA 
ENDBRANCH  16  17
ENDBRANCH  15  16
ENDBRANCH  14  15
ENDBRANCH   5   8
TORSDOF 4
ENDMDL
MODEL      137
REMARK 921   NORMALIZED FREE ENERGY PREDICTED BY IDOCK:   -5.32 KCAL/MOL
REMARK 922        TOTAL FREE ENERGY PREDICTED BY IDOCK:   -7.34 KCAL/MOL
REMARK 923 INTER-LIGAND FREE ENERGY PREDICTED BY IDOCK:   -6.60 KCAL/MOL
REMARK 924 INTRA-LIGAND FREE ENERGY PREDICTED BY IDOCK:   -0.74 KCAL/MOL
REMARK 927      BINDING AFFINITY PREDICTED BY RF-SCORE:    0.00 PKD
ROOT
HETATM    1  F   UNL     1     -13.459   8.049  71.847  1.00  0.00    -0.323 F  
HETATM    2  C   UNL     1     -12.390   8.500  71.178  1.00  0.00    -0.206 A  
HETATM    3  C   UNL     1     -12.209   9.867  71.013  1.00  0.00    -0.446 A  
HETATM    4  C   UNL     1     -11.105  10.340  70.294  1.00  0.00    -0.388 A  
HETATM    5  C   UNL     1     -10.191   9.445  69.716  1.00  0.00    -0.238 A  
HETATM    6  C   UNL     1     -11.474   7.595  70.662  1.00  0.00    -0.276 A  
HETATM    7  C   UNL     1     -10.376   8.066  69.939  1.00  0.00    -0.221 A  
ENDROOT
BRANCH   5   8
HETATM    8  C   UNL     1      -8.994   9.900  68.889  1.00  0.00    -0.153 C  
HETATM    9  C   UNL     1      -7.738   9.925  69.780  1.00  0.00    -0.159 C  
HETATM   10  C   UNL     1      -6.501  10.322  68.982  1.00  0.00    -0.045 C  
HETATM   11  N   UNL     1      -6.690  11.619  68.344  1.00  0.00    -0.061 NA 
HETATM   12  C   UNL     1      -7.822  11.601  67.416  1.00  0.00    -0.147 C  
HETATM   13  H   UNL     1      -5.837  11.938  67.885  1.00  0.00     0.000 HD 
HETATM   14  C   UNL     1      -9.143  11.248  68.127  1.00  0.00    -0.166 C  
BRANCH  14  15
HETATM   15  C   UNL     1     -10.299  11.215  67.104  1.00  0.00    -0.212 C  
BRANCH  15  16
HETATM   16  O   UNL     1     -11.259  12.222  67.444  1.00  0.00    -0.265 OA 
BRANCH  16  17
HETATM   17  C   UNL     1     -11.090  13.476  66.918  1.00  0.00    -0.296 A  
HETATM   18  C   UNL     1     -10.764  14.623  67.645  1.00  0.00    -0.271 A  
HETATM   19  C   UNL     1     -10.557  15.795  66.942  1.00  0.00    -0.317 A  
HETATM   20  C   UNL     1     -10.684  15.862  65.576  1.00  0.00    -0.372 A  
HETATM   21  C   UNL     1     -11.033  14.756  64.830  1.00  0.00    -0.425 A  
HETATM   22  O   UNL     1     -10.425  17.104  65.089  1.00  0.00    -0.666 OA 
HETATM   23  C   UNL     1     -11.228  13.551  65.516  1.00  0.00    -0.304 A  
HETATM   24  C   UNL     1     -10.051  17.795  66.301  1.00  0.00    -0.344 C  
HETATM   25  O   UNL     1     -10.202  16.990  67.488  1.00  0.00    -0.302 OA 
ENDBRANCH  16  17
ENDBRANCH  15  16
ENDBRANCH  14  15
ENDBRANCH   5   8
TORSDOF 4
ENDMDL
MODEL      138
REMARK 921   NORMALIZED FREE ENERGY PREDICTED BY IDOCK:   -5.29 KCAL/MOL
REMARK 922        TOTAL FREE ENERGY PREDICTED BY IDOCK:   -7.31 KCAL/MOL
REMARK 923 INTER-LIGAND FREE ENERGY PREDICTED BY IDOCK:   -6.67 KCAL/MOL
REMARK 924 INTRA-LIGAND FREE ENERGY PREDICTED BY IDOCK:   -0.64 KCAL/MOL
REMARK 927      BINDING AFFINITY PREDICTED BY RF-SCORE:    0.00 PKD
ROOT
HETATM    1  F   UNL     1      -6.022   7.172  69.834  1.00  0.00    -0.022 F  
HETATM    2  C   UNL     1      -7.194   7.709  70.197  1.00  0.00    -0.067 A  
HETATM    3  C   UNL     1      -7.327   8.281  71.455  1.00  0.00    -0.085 A  
HETATM    4  C   UNL     1      -8.558   8.822  71.845  1.00  0.00    -0.169 A  
HETATM    5  C   UNL     1      -9.666   8.771  70.985  1.00  0.00    -0.292 A  
HETATM    6  C   UNL     1      -8.258   7.691  69.307  1.00  0.00    -0.133 A  
HETATM    7  C   UNL     1      -9.488   8.225  69.698  1.00  0.00    -0.163 A  
ENDROOT
BRANCH   5   8
HETATM    8  C   UNL     1     -11.040   9.307  71.370  1.00  0.00    -0.437 C  
HETATM    9  C   UNL     1     -11.828   8.210  72.110  1.00  0.00    -0.417 C  
HETATM   10  C   UNL     1     -13.191   8.718  72.565  1.00  0.00    -0.347 C  
HETATM   11  N   UNL     1     -13.964   9.214  71.433  1.00  0.00    -0.439 NA 
HETATM   12  C   UNL     1     -13.284  10.325  70.764  1.00  0.00    -0.216 C  
HETATM   13  H   UNL     1     -14.912   9.470  71.710  1.00  0.00     0.000 HD 
HETATM   14  C   UNL     1     -11.901   9.912  70.224  1.00  0.00    -0.255 C  
BRANCH  14  15
HETATM   15  C   UNL     1     -11.214  11.121  69.554  1.00  0.00    -0.277 C  
BRANCH  15  16
HETATM   16  O   UNL     1     -11.931  11.471  68.364  1.00  0.00    -0.511 OA 
BRANCH  16  17
HETATM   17  C   UNL     1     -11.346  11.195  67.156  1.00  0.00    -0.181 A  
HETATM   18  C   UNL     1     -11.475  11.964  65.997  1.00  0.00    -0.344 A  
HETATM   19  C   UNL     1     -10.753  11.579  64.883  1.00  0.00    -0.297 A  
HETATM   20  C   UNL     1      -9.945  10.469  64.883  1.00  0.00    -0.334 A  
HETATM   21  C   UNL     1      -9.815   9.672  65.999  1.00  0.00    -0.345 A  
HETATM   22  O   UNL     1      -9.319  10.282  63.691  1.00  0.00    -0.257 OA 
HETATM   23  C   UNL     1     -10.521  10.051  67.148  1.00  0.00    -0.305 A  
HETATM   24  C   UNL     1      -9.774  11.443  62.963  1.00  0.00    -0.371 C  
HETATM   25  O   UNL     1     -10.739  12.231  63.689  1.00  0.00    -0.403 OA 
ENDBRANCH  16  17
ENDBRANCH  15  16
ENDBRANCH  14  15
ENDBRANCH   5   8
TORSDOF 4
ENDMDL
MODEL      139
REMARK 921   NORMALIZED FREE ENERGY PREDICTED BY IDOCK:   -5.29 KCAL/MOL
REMARK 922        TOTAL FREE ENERGY PREDICTED BY IDOCK:   -7.31 KCAL/MOL
REMARK 923 INTER-LIGAND FREE ENERGY PREDICTED BY IDOCK:   -7.15 KCAL/MOL
REMARK 924 INTRA-LIGAND FREE ENERGY PREDICTED BY IDOCK:   -0.16 KCAL/MOL
REMARK 927      BINDING AFFINITY PREDICTED BY RF-SCORE:    0.00 PKD
ROOT
HETATM    1  F   UNL     1     -13.359  15.752  71.055  1.00  0.00    -0.540 F  
HETATM    2  C   UNL     1     -13.006  14.465  70.935  1.00  0.00    -0.348 A  
HETATM    3  C   UNL     1     -12.228  14.063  69.857  1.00  0.00    -0.399 A  
HETATM    4  C   UNL     1     -11.877  12.716  69.717  1.00  0.00    -0.379 A  
HETATM    5  C   UNL     1     -12.325  11.761  70.644  1.00  0.00    -0.421 A  
HETATM    6  C   UNL     1     -13.418  13.552  71.894  1.00  0.00    -0.528 A  
HETATM    7  C   UNL     1     -13.074  12.206  71.752  1.00  0.00    -0.457 A  
ENDROOT
BRANCH   5   8
HETATM    8  C   UNL     1     -12.009  10.275  70.522  1.00  0.00    -0.415 C  
HETATM    9  C   UNL     1     -11.753   9.689  71.923  1.00  0.00    -0.225 C  
HETATM   10  C   UNL     1     -11.486   8.190  71.858  1.00  0.00    -0.299 C  
HETATM   11  N   UNL     1     -10.358   7.902  70.980  1.00  0.00    -0.201 NA 
HETATM   12  C   UNL     1     -10.611   8.362  69.613  1.00  0.00    -0.219 C  
HETATM   13  H   UNL     1     -10.111   6.913  71.001  1.00  0.00     0.000 HD 
HETATM   14  C   UNL     1     -10.857   9.882  69.553  1.00  0.00    -0.274 C  
BRANCH  14  15
HETATM   15  C   UNL     1     -11.144  10.313  68.099  1.00  0.00    -0.264 C  
BRANCH  15  16
HETATM   16  O   UNL     1     -10.906   9.205  67.223  1.00  0.00    -0.233 OA 
BRANCH  16  17
HETATM   17  C   UNL     1     -10.182   9.430  66.082  1.00  0.00    -0.194 A  
HETATM   18  C   UNL     1     -10.442  10.429  65.140  1.00  0.00    -0.158 A  
HETATM   19  C   UNL     1      -9.563  10.563  64.083  1.00  0.00    -0.313 A  
HETATM   20  C   UNL     1      -8.474   9.741  63.927  1.00  0.00    -0.184 A  
HETATM   21  C   UNL     1      -8.203   8.728  64.821  1.00  0.00    -0.163 A  
HETATM   22  O   UNL     1      -7.738  10.055  62.829  1.00  0.00    -0.126 OA 
HETATM   23  C   UNL     1      -9.067   8.583  65.913  1.00  0.00    -0.237 A  
HETATM   24  C   UNL     1      -8.451  11.216  62.349  1.00  0.00    -0.216 C  
HETATM   25  O   UNL     1      -9.650  11.500  63.099  1.00  0.00    -0.355 OA 
ENDBRANCH  16  17
ENDBRANCH  15  16
ENDBRANCH  14  15
ENDBRANCH   5   8
TORSDOF 4
ENDMDL
MODEL      140
REMARK 921   NORMALIZED FREE ENERGY PREDICTED BY IDOCK:   -5.28 KCAL/MOL
REMARK 922        TOTAL FREE ENERGY PREDICTED BY IDOCK:   -7.29 KCAL/MOL
REMARK 923 INTER-LIGAND FREE ENERGY PREDICTED BY IDOCK:   -6.64 KCAL/MOL
REMARK 924 INTRA-LIGAND FREE ENERGY PREDICTED BY IDOCK:   -0.65 KCAL/MOL
REMARK 927      BINDING AFFINITY PREDICTED BY RF-SCORE:    0.00 PKD
ROOT
HETATM    1  F   UNL     1      -9.887   7.624  73.868  1.00  0.00    -0.334 F  
HETATM    2  C   UNL     1     -10.020   7.944  72.574  1.00  0.00    -0.249 A  
HETATM    3  C   UNL     1     -11.288   8.078  72.026  1.00  0.00    -0.359 A  
HETATM    4  C   UNL     1     -11.429   8.390  70.669  1.00  0.00    -0.235 A  
HETATM    5  C   UNL     1     -10.299   8.544  69.850  1.00  0.00    -0.210 A  
HETATM    6  C   UNL     1      -8.886   8.142  71.800  1.00  0.00    -0.206 A  
HETATM    7  C   UNL     1      -9.026   8.446  70.444  1.00  0.00    -0.152 A  
ENDROOT
BRANCH   5   8
HETATM    8  C   UNL     1     -10.391   8.843  68.358  1.00  0.00    -0.237 C  
HETATM    9  C   UNL     1      -9.221   8.159  67.626  1.00  0.00    -0.150 C  
HETATM   10  C   UNL     1      -9.301   8.384  66.121  1.00  0.00    -0.201 C  
HETATM   11  N   UNL     1      -9.324   9.809  65.810  1.00  0.00    -0.202 NA 
HETATM   12  C   UNL     1     -10.481  10.471  66.414  1.00  0.00    -0.192 C  
HETATM   13  H   UNL     1      -9.283   9.973  64.804  1.00  0.00     0.000 HD 
HETATM   14  C   UNL     1     -10.483  10.341  67.950  1.00  0.00    -0.253 C  
BRANCH  14  15
HETATM   15  C   UNL     1     -11.734  11.031  68.535  1.00  0.00    -0.278 C  
BRANCH  15  16
HETATM   16  O   UNL     1     -12.096  12.138  67.703  1.00  0.00    -0.522 OA 
BRANCH  16  17
HETATM   17  C   UNL     1     -11.682  13.389  68.079  1.00  0.00    -0.356 A  
HETATM   18  C   UNL     1     -10.986  14.290  67.271  1.00  0.00    -0.302 A  
HETATM   19  C   UNL     1     -10.712  15.542  67.788  1.00  0.00    -0.297 A  
HETATM   20  C   UNL     1     -11.081  15.906  69.061  1.00  0.00    -0.294 A  
HETATM   21  C   UNL     1     -11.744  15.032  69.895  1.00  0.00    -0.343 A  
HETATM   22  O   UNL     1     -10.724  17.182  69.361  1.00  0.00    -0.288 OA 
HETATM   23  C   UNL     1     -12.052  13.764  69.388  1.00  0.00    -0.377 A  
HETATM   24  C   UNL     1     -10.150  17.604  68.105  1.00  0.00    -0.347 C  
HETATM   25  O   UNL     1     -10.074  16.546  67.128  1.00  0.00    -0.261 OA 
ENDBRANCH  16  17
ENDBRANCH  15  16
ENDBRANCH  14  15
ENDBRANCH   5   8
TORSDOF 4
ENDMDL
MODEL      141
REMARK 921   NORMALIZED FREE ENERGY PREDICTED BY IDOCK:   -5.25 KCAL/MOL
REMARK 922        TOTAL FREE ENERGY PREDICTED BY IDOCK:   -7.26 KCAL/MOL
REMARK 923 INTER-LIGAND FREE ENERGY PREDICTED BY IDOCK:   -6.79 KCAL/MOL
REMARK 924 INTRA-LIGAND FREE ENERGY PREDICTED BY IDOCK:   -0.47 KCAL/MOL
REMARK 927      BINDING AFFINITY PREDICTED BY RF-SCORE:    0.00 PKD
ROOT
HETATM    1  F   UNL     1      -5.975  11.837  69.886  1.00  0.00    -0.087 F  
HETATM    2  C   UNL     1      -6.548  12.834  69.200  1.00  0.00    -0.101 A  
HETATM    3  C   UNL     1      -7.117  12.576  67.960  1.00  0.00    -0.103 A  
HETATM    4  C   UNL     1      -7.697  13.620  67.230  1.00  0.00    -0.091 A  
HETATM    5  C   UNL     1      -7.687  14.932  67.729  1.00  0.00    -0.174 A  
HETATM    6  C   UNL     1      -6.571  14.111  69.740  1.00  0.00    -0.104 A  
HETATM    7  C   UNL     1      -7.143  15.155  69.010  1.00  0.00    -0.140 A  
ENDROOT
BRANCH   5   8
HETATM    8  C   UNL     1      -8.266  16.116  66.963  1.00  0.00    -0.250 C  
HETATM    9  C   UNL     1      -7.189  17.206  66.816  1.00  0.00    -0.260 C  
HETATM   10  C   UNL     1      -7.705  18.390  66.006  1.00  0.00    -0.165 C  
HETATM   11  N   UNL     1      -8.907  18.949  66.614  1.00  0.00    -0.306 NA 
HETATM   12  C   UNL     1      -9.984  17.961  66.680  1.00  0.00    -0.355 C  
HETATM   13  H   UNL     1      -9.208  19.798  66.134  1.00  0.00     0.000 HD 
HETATM   14  C   UNL     1      -9.585  16.728  67.515  1.00  0.00    -0.240 C  
BRANCH  14  15
HETATM   15  C   UNL     1     -10.742  15.706  67.532  1.00  0.00    -0.303 C  
BRANCH  15  16
HETATM   16  O   UNL     1     -10.454  14.683  68.493  1.00  0.00    -0.233 OA 
BRANCH  16  17
HETATM   17  C   UNL     1     -11.137  14.706  69.680  1.00  0.00    -0.253 A  
HETATM   18  C   UNL     1     -11.139  15.761  70.595  1.00  0.00    -0.376 A  
HETATM   19  C   UNL     1     -11.945  15.647  71.711  1.00  0.00    -0.440 A  
HETATM   20  C   UNL     1     -12.714  14.533  71.948  1.00  0.00    -0.338 A  
HETATM   21  C   UNL     1     -12.714  13.461  71.081  1.00  0.00    -0.411 A  
HETATM   22  O   UNL     1     -13.438  14.634  73.093  1.00  0.00    -0.581 OA 
HETATM   23  C   UNL     1     -11.921  13.561  69.932  1.00  0.00    -0.416 A  
HETATM   24  C   UNL     1     -13.090  15.972  73.514  1.00  0.00    -0.559 C  
HETATM   25  O   UNL     1     -12.090  16.591  72.680  1.00  0.00    -0.502 OA 
ENDBRANCH  16  17
ENDBRANCH  15  16
ENDBRANCH  14  15
ENDBRANCH   5   8
TORSDOF 4
ENDMDL
MODEL      142
REMARK 921   NORMALIZED FREE ENERGY PREDICTED BY IDOCK:   -5.24 KCAL/MOL
REMARK 922        TOTAL FREE ENERGY PREDICTED BY IDOCK:   -7.25 KCAL/MOL
REMARK 923 INTER-LIGAND FREE ENERGY PREDICTED BY IDOCK:   -5.97 KCAL/MOL
REMARK 924 INTRA-LIGAND FREE ENERGY PREDICTED BY IDOCK:   -1.28 KCAL/MOL
REMARK 927      BINDING AFFINITY PREDICTED BY RF-SCORE:    0.00 PKD
ROOT
HETATM    1  F   UNL     1     -12.460  12.410  64.630  1.00  0.00    -0.477 F  
HETATM    2  C   UNL     1     -11.919  13.463  65.257  1.00  0.00    -0.380 A  
HETATM    3  C   UNL     1     -10.922  14.198  64.631  1.00  0.00    -0.393 A  
HETATM    4  C   UNL     1     -10.338  15.285  65.293  1.00  0.00    -0.430 A  
HETATM    5  C   UNL     1     -10.736  15.623  66.596  1.00  0.00    -0.296 A  
HETATM    6  C   UNL     1     -12.367  13.808  66.524  1.00  0.00    -0.432 A  
HETATM    7  C   UNL     1     -11.781  14.887  67.189  1.00  0.00    -0.292 A  
ENDROOT
BRANCH   5   8
HETATM    8  C   UNL     1     -10.109  16.770  67.383  1.00  0.00    -0.276 C  
HETATM    9  C   UNL     1     -10.103  18.042  66.514  1.00  0.00    -0.379 C  
HETATM   10  C   UNL     1      -9.534  19.232  67.278  1.00  0.00    -0.314 C  
HETATM   11  N   UNL     1      -8.188  18.945  67.759  1.00  0.00    -0.266 NA 
HETATM   12  C   UNL     1      -8.175  17.796  68.665  1.00  0.00    -0.271 C  
HETATM   13  H   UNL     1      -7.762  19.765  68.190  1.00  0.00     0.000 HD 
HETATM   14  C   UNL     1      -8.696  16.516  67.982  1.00  0.00    -0.189 C  
BRANCH  14  15
HETATM   15  C   UNL     1      -8.688  15.342  68.984  1.00  0.00    -0.231 C  
BRANCH  15  16
HETATM   16  O   UNL     1      -7.567  14.494  68.710  1.00  0.00    -0.120 OA 
BRANCH  16  17
HETATM   17  C   UNL     1      -7.815  13.215  68.290  1.00  0.00    -0.143 A  
HETATM   18  C   UNL     1      -8.550  12.862  67.155  1.00  0.00    -0.198 A  
HETATM   19  C   UNL     1      -8.639  11.521  66.835  1.00  0.00    -0.163 A  
HETATM   20  C   UNL     1      -8.053  10.544  67.604  1.00  0.00    -0.107 A  
HETATM   21  C   UNL     1      -7.346  10.854  68.745  1.00  0.00    -0.104 A  
HETATM   22  O   UNL     1      -8.254   9.297  67.102  1.00  0.00    -0.115 OA 
HETATM   23  C   UNL     1      -7.223  12.208  69.080  1.00  0.00    -0.037 A  
HETATM   24  C   UNL     1      -8.976   9.608  65.890  1.00  0.00    -0.167 C  
HETATM   25  O   UNL     1      -9.285  11.010  65.752  1.00  0.00    -0.192 OA 
ENDBRANCH  16  17
ENDBRANCH  15  16
ENDBRANCH  14  15
ENDBRANCH   5   8
TORSDOF 4
ENDMDL
MODEL      143
REMARK 921   NORMALIZED FREE ENERGY PREDICTED BY IDOCK:   -5.24 KCAL/MOL
REMARK 922        TOTAL FREE ENERGY PREDICTED BY IDOCK:   -7.25 KCAL/MOL
REMARK 923 INTER-LIGAND FREE ENERGY PREDICTED BY IDOCK:   -6.49 KCAL/MOL
REMARK 924 INTRA-LIGAND FREE ENERGY PREDICTED BY IDOCK:   -0.75 KCAL/MOL
REMARK 927      BINDING AFFINITY PREDICTED BY RF-SCORE:    0.00 PKD
ROOT
HETATM    1  F   UNL     1      -7.798   8.010  69.632  1.00  0.00    -0.094 F  
HETATM    2  C   UNL     1      -8.544   8.729  68.782  1.00  0.00    -0.137 A  
HETATM    3  C   UNL     1      -9.750   8.216  68.323  1.00  0.00    -0.175 A  
HETATM    4  C   UNL     1     -10.519   8.955  67.417  1.00  0.00    -0.347 A  
HETATM    5  C   UNL     1     -10.072  10.200  66.949  1.00  0.00    -0.279 A  
HETATM    6  C   UNL     1      -8.103   9.980  68.376  1.00  0.00    -0.101 A  
HETATM    7  C   UNL     1      -8.867  10.715  67.467  1.00  0.00    -0.132 A  
ENDROOT
BRANCH   5   8
HETATM    8  C   UNL     1     -10.847  11.031  65.932  1.00  0.00    -0.183 C  
HETATM    9  C   UNL     1     -10.298  10.754  64.520  1.00  0.00    -0.401 C  
HETATM   10  C   UNL     1     -11.079  11.522  63.460  1.00  0.00    -0.348 C  
HETATM   11  N   UNL     1     -11.057  12.954  63.736  1.00  0.00    -0.517 NA 
HETATM   12  C   UNL     1     -11.661  13.260  65.034  1.00  0.00    -0.333 C  
HETATM   13  H   UNL     1     -11.496  13.486  62.985  1.00  0.00     0.000 HD 
HETATM   14  C   UNL     1     -10.922  12.563  66.192  1.00  0.00    -0.318 C  
BRANCH  14  15
HETATM   15  C   UNL     1     -11.612  12.895  67.533  1.00  0.00    -0.356 C  
BRANCH  15  16
HETATM   16  O   UNL     1     -11.937  14.289  67.565  1.00  0.00    -0.389 OA 
BRANCH  16  17
HETATM   17  C   UNL     1     -10.933  15.177  67.849  1.00  0.00    -0.302 A  
HETATM   18  C   UNL     1     -10.759  16.425  67.247  1.00  0.00    -0.257 A  
HETATM   19  C   UNL     1      -9.734  17.228  67.709  1.00  0.00    -0.270 A  
HETATM   20  C   UNL     1      -8.885  16.827  68.713  1.00  0.00    -0.258 A  
HETATM   21  C   UNL     1      -9.010  15.591  69.310  1.00  0.00    -0.267 A  
HETATM   22  O   UNL     1      -7.960  17.773  69.020  1.00  0.00    -0.205 OA 
HETATM   23  C   UNL     1     -10.054  14.767  68.873  1.00  0.00    -0.237 A  
HETATM   24  C   UNL     1      -8.367  18.844  68.142  1.00  0.00    -0.309 C  
HETATM   25  O   UNL     1      -9.447  18.479  67.258  1.00  0.00    -0.281 OA 
ENDBRANCH  16  17
ENDBRANCH  15  16
ENDBRANCH  14  15
ENDBRANCH   5   8
TORSDOF 4
ENDMDL
MODEL      144
REMARK 921   NORMALIZED FREE ENERGY PREDICTED BY IDOCK:   -5.23 KCAL/MOL
REMARK 922        TOTAL FREE ENERGY PREDICTED BY IDOCK:   -7.24 KCAL/MOL
REMARK 923 INTER-LIGAND FREE ENERGY PREDICTED BY IDOCK:   -5.92 KCAL/MOL
REMARK 924 INTRA-LIGAND FREE ENERGY PREDICTED BY IDOCK:   -1.31 KCAL/MOL
REMARK 927      BINDING AFFINITY PREDICTED BY RF-SCORE:    0.00 PKD
ROOT
HETATM    1  F   UNL     1     -10.642  14.221  66.600  1.00  0.00    -0.271 F  
HETATM    2  C   UNL     1     -10.077  13.062  66.963  1.00  0.00    -0.243 A  
HETATM    3  C   UNL     1      -9.083  13.056  67.933  1.00  0.00    -0.207 A  
HETATM    4  C   UNL     1      -8.475  11.849  68.297  1.00  0.00    -0.161 A  
HETATM    5  C   UNL     1      -8.843  10.646  67.672  1.00  0.00    -0.131 A  
HETATM    6  C   UNL     1     -10.496  11.882  66.366  1.00  0.00    -0.258 A  
HETATM    7  C   UNL     1      -9.885  10.678  66.724  1.00  0.00    -0.240 A  
ENDROOT
BRANCH   5   8
HETATM    8  C   UNL     1      -8.188   9.309  67.998  1.00  0.00    -0.115 C  
HETATM    9  C   UNL     1      -7.429   8.796  66.760  1.00  0.00    -0.086 C  
HETATM   10  C   UNL     1      -6.710   7.485  67.054  1.00  0.00    -0.066 C  
HETATM   11  N   UNL     1      -7.649   6.472  67.522  1.00  0.00    -0.102 NA 
HETATM   12  C   UNL     1      -8.318   6.890  68.755  1.00  0.00    -0.121 C  
HETATM   13  H   UNL     1      -7.195   5.565  67.633  1.00  0.00     0.000 HD 
HETATM   14  C   UNL     1      -9.116   8.195  68.563  1.00  0.00    -0.136 C  
BRANCH  14  15
HETATM   15  C   UNL     1      -9.779   8.608  69.894  1.00  0.00    -0.173 C  
BRANCH  15  16
HETATM   16  O   UNL     1     -11.158   8.917  69.659  1.00  0.00    -0.175 OA 
BRANCH  16  17
HETATM   17  C   UNL     1     -11.710   9.963  70.350  1.00  0.00    -0.258 A  
HETATM   18  C   UNL     1     -11.552  11.315  70.038  1.00  0.00    -0.404 A  
HETATM   19  C   UNL     1     -12.243  12.238  70.799  1.00  0.00    -0.260 A  
HETATM   20  C   UNL     1     -13.049  11.867  71.848  1.00  0.00    -0.369 A  
HETATM   21  C   UNL     1     -13.205  10.544  72.202  1.00  0.00    -0.398 A  
HETATM   22  O   UNL     1     -13.642  12.930  72.451  1.00  0.00    -0.579 OA 
HETATM   23  C   UNL     1     -12.532   9.587  71.434  1.00  0.00    -0.450 A  
HETATM   24  C   UNL     1     -13.172  14.010  71.615  1.00  0.00    -0.368 C  
HETATM   25  O   UNL     1     -12.228  13.585  70.610  1.00  0.00    -0.351 OA 
ENDBRANCH  16  17
ENDBRANCH  15  16
ENDBRANCH  14  15
ENDBRANCH   5   8
TORSDOF 4
ENDMDL
MODEL      145
REMARK 921   NORMALIZED FREE ENERGY PREDICTED BY IDOCK:   -5.22 KCAL/MOL
REMARK 922        TOTAL FREE ENERGY PREDICTED BY IDOCK:   -7.22 KCAL/MOL
REMARK 923 INTER-LIGAND FREE ENERGY PREDICTED BY IDOCK:   -6.40 KCAL/MOL
REMARK 924 INTRA-LIGAND FREE ENERGY PREDICTED BY IDOCK:   -0.83 KCAL/MOL
REMARK 927      BINDING AFFINITY PREDICTED BY RF-SCORE:    0.00 PKD
ROOT
HETATM    1  F   UNL     1     -12.598  13.540  62.944  1.00  0.00    -0.434 F  
HETATM    2  C   UNL     1     -11.841  13.467  64.047  1.00  0.00    -0.427 A  
HETATM    3  C   UNL     1     -12.360  13.884  65.266  1.00  0.00    -0.485 A  
HETATM    4  C   UNL     1     -11.564  13.830  66.416  1.00  0.00    -0.380 A  
HETATM    5  C   UNL     1     -10.236  13.382  66.344  1.00  0.00    -0.293 A  
HETATM    6  C   UNL     1     -10.549  12.971  63.958  1.00  0.00    -0.371 A  
HETATM    7  C   UNL     1      -9.751  12.923  65.103  1.00  0.00     0.021 A  
ENDROOT
BRANCH   5   8
HETATM    8  C   UNL     1      -9.309  13.339  67.554  1.00  0.00    -0.218 C  
HETATM    9  C   UNL     1      -8.336  14.531  67.495  1.00  0.00    -0.201 C  
HETATM   10  C   UNL     1      -7.423  14.563  68.715  1.00  0.00    -0.132 C  
HETATM   11  N   UNL     1      -6.680  13.314  68.840  1.00  0.00    -0.106 NA 
HETATM   12  C   UNL     1      -7.579  12.169  68.995  1.00  0.00     0.081 C  
HETATM   13  H   UNL     1      -5.999  13.359  69.597  1.00  0.00     0.000 HD 
HETATM   14  C   UNL     1      -8.528  12.015  67.791  1.00  0.00    -0.157 C  
BRANCH  14  15
HETATM   15  C   UNL     1      -9.471  10.813  68.014  1.00  0.00    -0.160 C  
BRANCH  15  16
HETATM   16  O   UNL     1     -10.499  11.184  68.939  1.00  0.00    -0.195 OA 
BRANCH  16  17
HETATM   17  C   UNL     1     -10.794  10.316  69.957  1.00  0.00    -0.307 A  
HETATM   18  C   UNL     1      -9.920   9.366  70.491  1.00  0.00    -0.328 A  
HETATM   19  C   UNL     1     -10.358   8.621  71.569  1.00  0.00    -0.271 A  
HETATM   20  C   UNL     1     -11.614   8.773  72.103  1.00  0.00    -0.364 A  
HETATM   21  C   UNL     1     -12.512   9.681  71.583  1.00  0.00    -0.494 A  
HETATM   22  O   UNL     1     -11.832   7.952  73.163  1.00  0.00    -0.216 OA 
HETATM   23  C   UNL     1     -12.086  10.463  70.503  1.00  0.00    -0.423 A  
HETATM   24  C   UNL     1     -10.542   7.313  73.279  1.00  0.00    -0.382 C  
HETATM   25  O   UNL     1      -9.626   7.681  72.227  1.00  0.00    -0.152 OA 
ENDBRANCH  16  17
ENDBRANCH  15  16
ENDBRANCH  14  15
ENDBRANCH   5   8
TORSDOF 4
ENDMDL
MODEL      146
REMARK 921   NORMALIZED FREE ENERGY PREDICTED BY IDOCK:   -5.22 KCAL/MOL
REMARK 922        TOTAL FREE ENERGY PREDICTED BY IDOCK:   -7.22 KCAL/MOL
REMARK 923 INTER-LIGAND FREE ENERGY PREDICTED BY IDOCK:   -6.59 KCAL/MOL
REMARK 924 INTRA-LIGAND FREE ENERGY PREDICTED BY IDOCK:   -0.63 KCAL/MOL
REMARK 927      BINDING AFFINITY PREDICTED BY RF-SCORE:    0.00 PKD
ROOT
HETATM    1  F   UNL     1      -6.082   6.299  69.784  1.00  0.00    -0.022 F  
HETATM    2  C   UNL     1      -7.169   6.998  70.137  1.00  0.00    -0.075 A  
HETATM    3  C   UNL     1      -7.205   7.637  71.368  1.00  0.00    -0.066 A  
HETATM    4  C   UNL     1      -8.349   8.349  71.748  1.00  0.00    -0.212 A  
HETATM    5  C   UNL     1      -9.470   8.402  70.905  1.00  0.00    -0.205 A  
HETATM    6  C   UNL     1      -8.243   7.077  69.262  1.00  0.00    -0.125 A  
HETATM    7  C   UNL     1      -9.387   7.782  69.643  1.00  0.00    -0.153 A  
ENDROOT
BRANCH   5   8
HETATM    8  C   UNL     1     -10.758   9.127  71.282  1.00  0.00    -0.401 C  
HETATM    9  C   UNL     1     -11.702   8.150  72.007  1.00  0.00    -0.389 C  
HETATM   10  C   UNL     1     -12.983   8.844  72.453  1.00  0.00    -0.404 C  
HETATM   11  N   UNL     1     -13.665   9.453  71.318  1.00  0.00    -0.483 NA 
HETATM   12  C   UNL     1     -12.827  10.459  70.664  1.00  0.00    -0.313 C  
HETATM   13  H   UNL     1     -14.569   9.840  71.589  1.00  0.00     0.000 HD 
HETATM   14  C   UNL     1     -11.511   9.856  70.133  1.00  0.00    -0.309 C  
BRANCH  14  15
HETATM   15  C   UNL     1     -10.653  10.959  69.478  1.00  0.00    -0.175 C  
BRANCH  15  16
HETATM   16  O   UNL     1     -10.663  10.784  68.057  1.00  0.00    -0.194 OA 
BRANCH  16  17
HETATM   17  C   UNL     1     -10.767  11.902  67.272  1.00  0.00    -0.236 A  
HETATM   18  C   UNL     1     -11.860  12.228  66.465  1.00  0.00    -0.378 A  
HETATM   19  C   UNL     1     -11.830  13.436  65.794  1.00  0.00    -0.377 A  
HETATM   20  C   UNL     1     -10.763  14.297  65.884  1.00  0.00    -0.303 A  
HETATM   21  C   UNL     1      -9.657  13.995  66.648  1.00  0.00    -0.299 A  
HETATM   22  O   UNL     1     -10.946  15.430  65.156  1.00  0.00    -0.374 OA 
HETATM   23  C   UNL     1      -9.671  12.786  67.354  1.00  0.00    -0.197 A  
HETATM   24  C   UNL     1     -12.283  15.214  64.654  1.00  0.00    -0.211 C  
HETATM   25  O   UNL     1     -12.820  13.920  64.996  1.00  0.00    -0.693 OA 
ENDBRANCH  16  17
ENDBRANCH  15  16
ENDBRANCH  14  15
ENDBRANCH   5   8
TORSDOF 4
ENDMDL
MODEL      147
REMARK 921   NORMALIZED FREE ENERGY PREDICTED BY IDOCK:   -5.21 KCAL/MOL
REMARK 922        TOTAL FREE ENERGY PREDICTED BY IDOCK:   -7.21 KCAL/MOL
REMARK 923 INTER-LIGAND FREE ENERGY PREDICTED BY IDOCK:   -6.27 KCAL/MOL
REMARK 924 INTRA-LIGAND FREE ENERGY PREDICTED BY IDOCK:   -0.94 KCAL/MOL
REMARK 927      BINDING AFFINITY PREDICTED BY RF-SCORE:    0.00 PKD
ROOT
HETATM    1  F   UNL     1      -7.882  11.380  66.687  1.00  0.00    -0.141 F  
HETATM    2  C   UNL     1      -8.755  10.906  67.585  1.00  0.00    -0.127 A  
HETATM    3  C   UNL     1      -8.301  10.475  68.825  1.00  0.00    -0.136 A  
HETATM    4  C   UNL     1      -9.209   9.957  69.756  1.00  0.00    -0.252 A  
HETATM    5  C   UNL     1     -10.572   9.846  69.438  1.00  0.00    -0.250 A  
HETATM    6  C   UNL     1     -10.104  10.855  67.265  1.00  0.00    -0.225 A  
HETATM    7  C   UNL     1     -11.010  10.332  68.191  1.00  0.00    -0.328 A  
ENDROOT
BRANCH   5   8
HETATM    8  C   UNL     1     -11.600   9.253  70.396  1.00  0.00    -0.215 C  
HETATM    9  C   UNL     1     -12.464  10.384  70.984  1.00  0.00    -0.488 C  
HETATM   10  C   UNL     1     -13.545   9.835  71.907  1.00  0.00    -0.335 C  
HETATM   11  N   UNL     1     -12.956   9.042  72.980  1.00  0.00    -0.653 NA 
HETATM   12  C   UNL     1     -12.207   7.900  72.455  1.00  0.00    -0.247 C  
HETATM   13  H   UNL     1     -13.661   8.747  73.656  1.00  0.00     0.000 HD 
HETATM   14  C   UNL     1     -11.054   8.342  71.533  1.00  0.00    -0.329 C  
BRANCH  14  15
HETATM   15  C   UNL     1     -10.313   7.104  70.984  1.00  0.00    -0.196 C  
BRANCH  15  16
HETATM   16  O   UNL     1     -11.199   6.358  70.142  1.00  0.00    -0.325 OA 
BRANCH  16  17
HETATM   17  C   UNL     1     -10.667   5.729  69.047  1.00  0.00    -0.284 A  
HETATM   18  C   UNL     1      -9.862   4.588  69.078  1.00  0.00    -0.202 A  
HETATM   19  C   UNL     1      -9.473   4.039  67.871  1.00  0.00    -0.173 A  
HETATM   20  C   UNL     1      -9.835   4.590  66.666  1.00  0.00    -0.225 A  
HETATM   21  C   UNL     1     -10.605   5.731  66.598  1.00  0.00    -0.347 A  
HETATM   22  O   UNL     1      -9.357   3.886  65.607  1.00  0.00    -0.144 OA 
HETATM   23  C   UNL     1     -11.030   6.295  67.807  1.00  0.00    -0.427 A  
HETATM   24  C   UNL     1      -8.710   2.786  66.285  1.00  0.00    -0.131 C  
HETATM   25  O   UNL     1      -8.719   2.917  67.722  1.00  0.00    -0.094 OA 
ENDBRANCH  16  17
ENDBRANCH  15  16
ENDBRANCH  14  15
ENDBRANCH   5   8
TORSDOF 4
ENDMDL
MODEL      148
REMARK 921   NORMALIZED FREE ENERGY PREDICTED BY IDOCK:   -5.20 KCAL/MOL
REMARK 922        TOTAL FREE ENERGY PREDICTED BY IDOCK:   -7.20 KCAL/MOL
REMARK 923 INTER-LIGAND FREE ENERGY PREDICTED BY IDOCK:   -6.49 KCAL/MOL
REMARK 924 INTRA-LIGAND FREE ENERGY PREDICTED BY IDOCK:   -0.71 KCAL/MOL
REMARK 927      BINDING AFFINITY PREDICTED BY RF-SCORE:    0.00 PKD
ROOT
HETATM    1  F   UNL     1     -10.534   5.773  70.617  1.00  0.00    -0.257 F  
HETATM    2  C   UNL     1     -10.350   6.555  69.545  1.00  0.00    -0.200 A  
HETATM    3  C   UNL     1     -11.020   6.270  68.363  1.00  0.00    -0.409 A  
HETATM    4  C   UNL     1     -10.811   7.072  67.235  1.00  0.00    -0.403 A  
HETATM    5  C   UNL     1      -9.910   8.148  67.280  1.00  0.00    -0.259 A  
HETATM    6  C   UNL     1      -9.493   7.643  69.632  1.00  0.00    -0.156 A  
HETATM    7  C   UNL     1      -9.279   8.439  68.505  1.00  0.00    -0.135 A  
ENDROOT
BRANCH   5   8
HETATM    8  C   UNL     1      -9.611   9.030  66.073  1.00  0.00    -0.342 C  
HETATM    9  C   UNL     1      -8.246   8.638  65.478  1.00  0.00    -0.135 C  
HETATM   10  C   UNL     1      -7.927   9.458  64.233  1.00  0.00    -0.133 C  
HETATM   11  N   UNL     1      -7.955  10.885  64.531  1.00  0.00    -0.346 NA 
HETATM   12  C   UNL     1      -9.272  11.308  65.008  1.00  0.00    -0.129 C  
HETATM   13  H   UNL     1      -7.652  11.439  63.730  1.00  0.00     0.000 HD 
HETATM   14  C   UNL     1      -9.683  10.568  66.296  1.00  0.00    -0.254 C  
BRANCH  14  15
HETATM   15  C   UNL     1     -11.087  11.029  66.743  1.00  0.00    -0.172 C  
BRANCH  15  16
HETATM   16  O   UNL     1     -11.357  12.324  66.194  1.00  0.00    -0.318 OA 
BRANCH  16  17
HETATM   17  C   UNL     1     -11.227  13.411  67.016  1.00  0.00    -0.305 A  
HETATM   18  C   UNL     1     -10.531  14.583  66.709  1.00  0.00    -0.270 A  
HETATM   19  C   UNL     1     -10.565  15.614  67.628  1.00  0.00    -0.294 A  
HETATM   20  C   UNL     1     -11.236  15.509  68.823  1.00  0.00    -0.315 A  
HETATM   21  C   UNL     1     -11.910  14.358  69.170  1.00  0.00    -0.359 A  
HETATM   22  O   UNL     1     -11.151  16.641  69.569  1.00  0.00    -0.287 OA 
HETATM   23  C   UNL     1     -11.908  13.305  68.247  1.00  0.00    -0.389 A  
HETATM   24  C   UNL     1     -10.407  17.497  68.675  1.00  0.00    -0.369 C  
HETATM   25  O   UNL     1      -9.971  16.828  67.473  1.00  0.00    -0.254 OA 
ENDBRANCH  16  17
ENDBRANCH  15  16
ENDBRANCH  14  15
ENDBRANCH   5   8
TORSDOF 4
ENDMDL
MODEL      149
REMARK 921   NORMALIZED FREE ENERGY PREDICTED BY IDOCK:   -5.20 KCAL/MOL
REMARK 922        TOTAL FREE ENERGY PREDICTED BY IDOCK:   -7.20 KCAL/MOL
REMARK 923 INTER-LIGAND FREE ENERGY PREDICTED BY IDOCK:   -5.99 KCAL/MOL
REMARK 924 INTRA-LIGAND FREE ENERGY PREDICTED BY IDOCK:   -1.21 KCAL/MOL
REMARK 927      BINDING AFFINITY PREDICTED BY RF-SCORE:    0.00 PKD
ROOT
HETATM    1  F   UNL     1      -9.833  11.569  66.137  1.00  0.00    -0.215 F  
HETATM    2  C   UNL     1      -9.677  10.251  66.322  1.00  0.00    -0.209 A  
HETATM    3  C   UNL     1     -10.656   9.530  66.992  1.00  0.00    -0.271 A  
HETATM    4  C   UNL     1     -10.484   8.158  67.206  1.00  0.00    -0.379 A  
HETATM    5  C   UNL     1      -9.319   7.508  66.771  1.00  0.00    -0.209 A  
HETATM    6  C   UNL     1      -8.539   9.624  65.836  1.00  0.00    -0.146 A  
HETATM    7  C   UNL     1      -8.364   8.256  66.056  1.00  0.00    -0.130 A  
ENDROOT
BRANCH   5   8
HETATM    8  C   UNL     1      -9.058   6.025  67.012  1.00  0.00    -0.117 C  
HETATM    9  C   UNL     1      -9.782   5.197  65.934  1.00  0.00    -0.159 C  
HETATM   10  C   UNL     1      -9.506   3.707  66.100  1.00  0.00    -0.162 C  
HETATM   11  N   UNL     1      -9.896   3.252  67.430  1.00  0.00    -0.254 NA 
HETATM   12  C   UNL     1      -9.153   3.955  68.477  1.00  0.00    -0.138 C  
HETATM   13  H   UNL     1      -9.803   2.241  67.521  1.00  0.00     0.000 HD 
HETATM   14  C   UNL     1      -9.390   5.477  68.429  1.00  0.00    -0.130 C  
BRANCH  14  15
HETATM   15  C   UNL     1      -8.566   6.174  69.533  1.00  0.00    -0.127 C  
BRANCH  15  16
HETATM   16  O   UNL     1      -9.249   6.045  70.786  1.00  0.00    -0.151 OA 
BRANCH  16  17
HETATM   17  C   UNL     1     -10.310   6.877  71.029  1.00  0.00    -0.205 A  
HETATM   18  C   UNL     1     -11.639   6.476  71.177  1.00  0.00    -0.390 A  
HETATM   19  C   UNL     1     -12.574   7.442  71.495  1.00  0.00    -0.367 A  
HETATM   20  C   UNL     1     -12.237   8.766  71.644  1.00  0.00    -0.339 A  
HETATM   21  C   UNL     1     -10.940   9.201  71.477  1.00  0.00    -0.434 A  
HETATM   22  O   UNL     1     -13.305   9.541  71.967  1.00  0.00    -0.396 OA 
HETATM   23  C   UNL     1      -9.970   8.238  71.175  1.00  0.00    -0.230 A  
HETATM   24  C   UNL     1     -14.342   8.541  72.074  1.00  0.00    -0.447 C  
HETATM   25  O   UNL     1     -13.899   7.219  71.705  1.00  0.00    -0.384 OA 
ENDBRANCH  16  17
ENDBRANCH  15  16
ENDBRANCH  14  15
ENDBRANCH   5   8
TORSDOF 4
ENDMDL
MODEL      150
REMARK 921   NORMALIZED FREE ENERGY PREDICTED BY IDOCK:   -5.20 KCAL/MOL
REMARK 922        TOTAL FREE ENERGY PREDICTED BY IDOCK:   -7.20 KCAL/MOL
REMARK 923 INTER-LIGAND FREE ENERGY PREDICTED BY IDOCK:   -6.57 KCAL/MOL
REMARK 924 INTRA-LIGAND FREE ENERGY PREDICTED BY IDOCK:   -0.62 KCAL/MOL
REMARK 927      BINDING AFFINITY PREDICTED BY RF-SCORE:    0.00 PKD
ROOT
HETATM    1  F   UNL     1      -6.856  20.962  64.365  1.00  0.00    -0.331 F  
HETATM    2  C   UNL     1      -6.950  19.985  65.277  1.00  0.00    -0.267 A  
HETATM    3  C   UNL     1      -6.170  18.844  65.145  1.00  0.00    -0.313 A  
HETATM    4  C   UNL     1      -6.284  17.812  66.084  1.00  0.00    -0.276 A  
HETATM    5  C   UNL     1      -7.197  17.910  67.146  1.00  0.00    -0.206 A  
HETATM    6  C   UNL     1      -7.823  20.130  66.346  1.00  0.00    -0.294 A  
HETATM    7  C   UNL     1      -7.941  19.099  67.280  1.00  0.00    -0.277 A  
ENDROOT
BRANCH   5   8
HETATM    8  C   UNL     1      -7.393  16.802  68.175  1.00  0.00    -0.174 C  
HETATM    9  C   UNL     1      -6.091  16.611  68.975  1.00  0.00    -0.162 C  
HETATM   10  C   UNL     1      -6.255  15.549  70.056  1.00  0.00    -0.139 C  
HETATM   11  N   UNL     1      -6.679  14.280  69.476  1.00  0.00    -0.143 NA 
HETATM   12  C   UNL     1      -7.966  14.408  68.789  1.00  0.00    -0.133 C  
HETATM   13  H   UNL     1      -6.703  13.539  70.176  1.00  0.00     0.000 HD 
HETATM   14  C   UNL     1      -7.906  15.434  67.641  1.00  0.00    -0.175 C  
BRANCH  14  15
HETATM   15  C   UNL     1      -9.290  15.552  66.967  1.00  0.00    -0.224 C  
BRANCH  15  16
HETATM   16  O   UNL     1     -10.131  16.399  67.760  1.00  0.00    -0.250 OA 
BRANCH  16  17
HETATM   17  C   UNL     1     -10.798  15.836  68.816  1.00  0.00    -0.274 A  
HETATM   18  C   UNL     1     -10.904  16.387  70.095  1.00  0.00    -0.265 A  
HETATM   19  C   UNL     1     -11.680  15.720  71.023  1.00  0.00    -0.422 A  
HETATM   20  C   UNL     1     -12.319  14.539  70.730  1.00  0.00    -0.340 A  
HETATM   21  C   UNL     1     -12.213  13.953  69.487  1.00  0.00    -0.356 A  
HETATM   22  O   UNL     1     -13.037  14.062  71.780  1.00  0.00    -0.333 OA 
HETATM   23  C   UNL     1     -11.449  14.620  68.522  1.00  0.00    -0.327 A  
HETATM   24  C   UNL     1     -12.832  15.115  72.748  1.00  0.00    -0.411 C  
HETATM   25  O   UNL     1     -11.915  16.133  72.298  1.00  0.00    -0.483 OA 
ENDBRANCH  16  17
ENDBRANCH  15  16
ENDBRANCH  14  15
ENDBRANCH   5   8
TORSDOF 4
ENDMDL
MODEL      151
REMARK 921   NORMALIZED FREE ENERGY PREDICTED BY IDOCK:   -5.18 KCAL/MOL
REMARK 922        TOTAL FREE ENERGY PREDICTED BY IDOCK:   -7.18 KCAL/MOL
REMARK 923 INTER-LIGAND FREE ENERGY PREDICTED BY IDOCK:   -5.12 KCAL/MOL
REMARK 924 INTRA-LIGAND FREE ENERGY PREDICTED BY IDOCK:   -2.06 KCAL/MOL
REMARK 927      BINDING AFFINITY PREDICTED BY RF-SCORE:    0.00 PKD
ROOT
HETATM    1  F   UNL     1      -6.732  11.526  69.775  1.00  0.00    -0.118 F  
HETATM    2  C   UNL     1      -7.656  11.845  68.860  1.00  0.00    -0.036 A  
HETATM    3  C   UNL     1      -8.878  11.185  68.859  1.00  0.00    -0.086 A  
HETATM    4  C   UNL     1      -9.837  11.501  67.890  1.00  0.00    -0.192 A  
HETATM    5  C   UNL     1      -9.566  12.462  66.903  1.00  0.00    -0.219 A  
HETATM    6  C   UNL     1      -7.382  12.835  67.929  1.00  0.00    -0.120 A  
HETATM    7  C   UNL     1      -8.336  13.146  66.957  1.00  0.00    -0.094 A  
ENDROOT
BRANCH   5   8
HETATM    8  C   UNL     1     -10.555  12.818  65.798  1.00  0.00    -0.295 C  
HETATM    9  C   UNL     1     -11.850  13.364  66.429  1.00  0.00    -0.441 C  
HETATM   10  C   UNL     1     -12.851  13.787  65.360  1.00  0.00    -0.410 C  
HETATM   11  N   UNL     1     -13.157  12.675  64.467  1.00  0.00    -0.820 NA 
HETATM   12  C   UNL     1     -11.959  12.194  63.779  1.00  0.00    -0.513 C  
HETATM   13  H   UNL     1     -13.895  12.918  63.806  1.00  0.00     0.000 HD 
HETATM   14  C   UNL     1     -10.885  11.700  64.768  1.00  0.00    -0.367 C  
BRANCH  14  15
HETATM   15  C   UNL     1      -9.633  11.230  63.996  1.00  0.00    -0.232 C  
BRANCH  15  16
HETATM   16  O   UNL     1      -9.535   9.803  64.079  1.00  0.00    -0.242 OA 
BRANCH  16  17
HETATM   17  C   UNL     1      -8.861   9.266  65.144  1.00  0.00    -0.198 A  
HETATM   18  C   UNL     1      -7.551   9.579  65.516  1.00  0.00    -0.105 A  
HETATM   19  C   UNL     1      -7.051   8.997  66.665  1.00  0.00    -0.081 A  
HETATM   20  C   UNL     1      -7.788   8.120  67.423  1.00  0.00    -0.106 A  
HETATM   21  C   UNL     1      -9.072   7.767  67.070  1.00  0.00    -0.162 A  
HETATM   22  O   UNL     1      -7.109   7.678  68.514  1.00  0.00    -0.076 OA 
HETATM   23  C   UNL     1      -9.611   8.358  65.921  1.00  0.00    -0.119 A  
HETATM   24  C   UNL     1      -5.884   8.433  68.394  1.00  0.00    -0.041 C  
HETATM   25  O   UNL     1      -5.813   9.217  67.185  1.00  0.00    -0.045 OA 
ENDBRANCH  16  17
ENDBRANCH  15  16
ENDBRANCH  14  15
ENDBRANCH   5   8
TORSDOF 4
ENDMDL
MODEL      152
REMARK 921   NORMALIZED FREE ENERGY PREDICTED BY IDOCK:   -5.17 KCAL/MOL
REMARK 922        TOTAL FREE ENERGY PREDICTED BY IDOCK:   -7.16 KCAL/MOL
REMARK 923 INTER-LIGAND FREE ENERGY PREDICTED BY IDOCK:   -6.56 KCAL/MOL
REMARK 924 INTRA-LIGAND FREE ENERGY PREDICTED BY IDOCK:   -0.60 KCAL/MOL
REMARK 927      BINDING AFFINITY PREDICTED BY RF-SCORE:    0.00 PKD
ROOT
HETATM    1  F   UNL     1     -10.341   4.207  71.837  1.00  0.00    -0.248 F  
HETATM    2  C   UNL     1     -10.559   5.524  71.718  1.00  0.00    -0.235 A  
HETATM    3  C   UNL     1      -9.986   6.401  72.628  1.00  0.00    -0.184 A  
HETATM    4  C   UNL     1     -10.232   7.775  72.519  1.00  0.00    -0.320 A  
HETATM    5  C   UNL     1     -11.073   8.272  71.511  1.00  0.00    -0.315 A  
HETATM    6  C   UNL     1     -11.353   5.993  70.681  1.00  0.00    -0.301 A  
HETATM    7  C   UNL     1     -11.604   7.362  70.575  1.00  0.00    -0.256 A  
ENDROOT
BRANCH   5   8
HETATM    8  C   UNL     1     -11.410   9.752  71.367  1.00  0.00    -0.407 C  
HETATM    9  C   UNL     1     -12.746  10.044  72.076  1.00  0.00    -0.439 C  
HETATM   10  C   UNL     1     -13.098  11.525  72.007  1.00  0.00    -0.324 C  
HETATM   11  N   UNL     1     -13.154  11.981  70.623  1.00  0.00     0.209 NA 
HETATM   12  C   UNL     1     -11.867  11.805  69.948  1.00  0.00    -0.348 C  
HETATM   13  H   UNL     1     -13.479  12.945  70.560  1.00  0.00     0.000 HD 
HETATM   14  C   UNL     1     -11.427  10.328  69.923  1.00  0.00    -0.340 C  
BRANCH  14  15
HETATM   15  C   UNL     1     -10.056  10.199  69.226  1.00  0.00    -0.222 C  
BRANCH  15  16
HETATM   16  O   UNL     1     -10.182   9.332  68.092  1.00  0.00    -0.186 OA 
BRANCH  16  17
HETATM   17  C   UNL     1     -10.015   9.876  66.845  1.00  0.00    -0.212 A  
HETATM   18  C   UNL     1      -9.363   9.262  65.773  1.00  0.00    -0.306 A  
HETATM   19  C   UNL     1      -9.352   9.924  64.560  1.00  0.00    -0.275 A  
HETATM   20  C   UNL     1      -9.936  11.156  64.393  1.00  0.00    -0.301 A  
HETATM   21  C   UNL     1     -10.563  11.803  65.436  1.00  0.00    -0.325 A  
HETATM   22  O   UNL     1      -9.820  11.618  63.120  1.00  0.00    -0.393 OA 
HETATM   23  C   UNL     1     -10.606  11.144  66.671  1.00  0.00    -0.314 A  
HETATM   24  C   UNL     1      -9.156  10.502  62.488  1.00  0.00    -0.292 C  
HETATM   25  O   UNL     1      -8.793   9.456  63.412  1.00  0.00    -0.225 OA 
ENDBRANCH  16  17
ENDBRANCH  15  16
ENDBRANCH  14  15
ENDBRANCH   5   8
TORSDOF 4
ENDMDL
MODEL      153
REMARK 921   NORMALIZED FREE ENERGY PREDICTED BY IDOCK:   -5.14 KCAL/MOL
REMARK 922        TOTAL FREE ENERGY PREDICTED BY IDOCK:   -7.12 KCAL/MOL
REMARK 923 INTER-LIGAND FREE ENERGY PREDICTED BY IDOCK:   -5.98 KCAL/MOL
REMARK 924 INTRA-LIGAND FREE ENERGY PREDICTED BY IDOCK:   -1.15 KCAL/MOL
REMARK 927      BINDING AFFINITY PREDICTED BY RF-SCORE:    0.00 PKD
ROOT
HETATM    1  F   UNL     1     -11.083   5.976  69.087  1.00  0.00    -0.352 F  
HETATM    2  C   UNL     1     -10.368   7.097  68.924  1.00  0.00    -0.196 A  
HETATM    3  C   UNL     1      -9.830   7.393  67.678  1.00  0.00    -0.194 A  
HETATM    4  C   UNL     1      -9.062   8.552  67.511  1.00  0.00    -0.146 A  
HETATM    5  C   UNL     1      -8.811   9.405  68.597  1.00  0.00    -0.132 A  
HETATM    6  C   UNL     1     -10.178   7.949  70.001  1.00  0.00    -0.208 A  
HETATM    7  C   UNL     1      -9.407   9.102  69.837  1.00  0.00    -0.198 A  
ENDROOT
BRANCH   5   8
HETATM    8  C   UNL     1      -7.950  10.658  68.484  1.00  0.00    -0.122 C  
HETATM    9  C   UNL     1      -6.990  10.729  69.687  1.00  0.00    -0.134 C  
HETATM   10  C   UNL     1      -6.068  11.939  69.590  1.00  0.00    -0.124 C  
HETATM   11  N   UNL     1      -6.840  13.172  69.490  1.00  0.00    -0.321 NA 
HETATM   12  C   UNL     1      -7.694  13.176  68.302  1.00  0.00    -0.141 C  
HETATM   13  H   UNL     1      -6.236  13.994  69.519  1.00  0.00     0.000 HD 
HETATM   14  C   UNL     1      -8.701  12.009  68.312  1.00  0.00    -0.178 C  
BRANCH  14  15
HETATM   15  C   UNL     1      -9.558  12.042  67.028  1.00  0.00    -0.195 C  
BRANCH  15  16
HETATM   16  O   UNL     1     -10.770  12.759  67.288  1.00  0.00    -0.234 OA 
BRANCH  16  17
HETATM   17  C   UNL     1     -11.434  12.498  68.457  1.00  0.00    -0.305 A  
HETATM   18  C   UNL     1     -11.939  11.255  68.844  1.00  0.00    -0.378 A  
HETATM   19  C   UNL     1     -12.517  11.153  70.095  1.00  0.00    -0.241 A  
HETATM   20  C   UNL     1     -12.625  12.230  70.941  1.00  0.00    -0.241 A  
HETATM   21  C   UNL     1     -12.164  13.478  70.581  1.00  0.00    -0.434 A  
HETATM   22  O   UNL     1     -13.214  11.906  72.122  1.00  0.00    -0.494 OA 
HETATM   23  C   UNL     1     -11.555  13.603  69.326  1.00  0.00    -0.363 A  
HETATM   24  C   UNL     1     -13.401  10.485  71.949  1.00  0.00    -0.355 C  
HETATM   25  O   UNL     1     -13.026  10.015  70.638  1.00  0.00    -0.289 OA 
ENDBRANCH  16  17
ENDBRANCH  15  16
ENDBRANCH  14  15
ENDBRANCH   5   8
TORSDOF 4
ENDMDL
MODEL      154
REMARK 921   NORMALIZED FREE ENERGY PREDICTED BY IDOCK:   -5.14 KCAL/MOL
REMARK 922        TOTAL FREE ENERGY PREDICTED BY IDOCK:   -7.12 KCAL/MOL
REMARK 923 INTER-LIGAND FREE ENERGY PREDICTED BY IDOCK:   -5.91 KCAL/MOL
REMARK 924 INTRA-LIGAND FREE ENERGY PREDICTED BY IDOCK:   -1.21 KCAL/MOL
REMARK 927      BINDING AFFINITY PREDICTED BY RF-SCORE:    0.00 PKD
ROOT
HETATM    1  F   UNL     1      -5.181  11.554  69.973  1.00  0.00    -0.060 F  
HETATM    2  C   UNL     1      -6.033  12.530  69.634  1.00  0.00    -0.123 A  
HETATM    3  C   UNL     1      -6.985  12.300  68.650  1.00  0.00    -0.097 A  
HETATM    4  C   UNL     1      -7.861  13.327  68.278  1.00  0.00    -0.143 A  
HETATM    5  C   UNL     1      -7.771  14.594  68.874  1.00  0.00    -0.141 A  
HETATM    6  C   UNL     1      -5.956  13.757  70.276  1.00  0.00    -0.152 A  
HETATM    7  C   UNL     1      -6.825  14.783  69.901  1.00  0.00    -0.158 A  
ENDROOT
BRANCH   5   8
HETATM    8  C   UNL     1      -8.671  15.761  68.482  1.00  0.00    -0.184 C  
HETATM    9  C   UNL     1      -7.834  17.052  68.416  1.00  0.00    -0.233 C  
HETATM   10  C   UNL     1      -8.680  18.240  67.973  1.00  0.00    -0.276 C  
HETATM   11  N   UNL     1      -9.821  18.425  68.863  1.00  0.00    -0.354 NA 
HETATM   12  C   UNL     1     -10.690  17.247  68.873  1.00  0.00    -0.197 C  
HETATM   13  H   UNL     1     -10.342  19.270  68.632  1.00  0.00     0.000 HD 
HETATM   14  C   UNL     1      -9.943  15.984  69.348  1.00  0.00    -0.262 C  
BRANCH  14  15
HETATM   15  C   UNL     1     -10.893  14.768  69.316  1.00  0.00    -0.264 C  
BRANCH  15  16
HETATM   16  O   UNL     1     -11.704  14.832  68.137  1.00  0.00    -0.324 OA 
BRANCH  16  17
HETATM   17  C   UNL     1     -11.307  14.109  67.043  1.00  0.00    -0.332 A  
HETATM   18  C   UNL     1     -11.086  12.730  67.018  1.00  0.00    -0.316 A  
HETATM   19  C   UNL     1     -10.761  12.150  65.807  1.00  0.00    -0.267 A  
HETATM   20  C   UNL     1     -10.632  12.886  64.654  1.00  0.00    -0.363 A  
HETATM   21  C   UNL     1     -10.815  14.252  64.647  1.00  0.00    -0.384 A  
HETATM   22  O   UNL     1     -10.320  12.117  63.578  1.00  0.00    -0.420 OA 
HETATM   23  C   UNL     1     -11.165  14.862  65.858  1.00  0.00    -0.328 A  
HETATM   24  C   UNL     1     -10.337  10.801  64.173  1.00  0.00    -0.311 C  
HETATM   25  O   UNL     1     -10.546  10.823  65.600  1.00  0.00    -0.215 OA 
ENDBRANCH  16  17
ENDBRANCH  15  16
ENDBRANCH  14  15
ENDBRANCH   5   8
TORSDOF 4
ENDMDL
MODEL      155
REMARK 921   NORMALIZED FREE ENERGY PREDICTED BY IDOCK:   -5.12 KCAL/MOL
REMARK 922        TOTAL FREE ENERGY PREDICTED BY IDOCK:   -7.10 KCAL/MOL
REMARK 923 INTER-LIGAND FREE ENERGY PREDICTED BY IDOCK:   -6.15 KCAL/MOL
REMARK 924 INTRA-LIGAND FREE ENERGY PREDICTED BY IDOCK:   -0.95 KCAL/MOL
REMARK 927      BINDING AFFINITY PREDICTED BY RF-SCORE:    0.00 PKD
ROOT
HETATM    1  F   UNL     1     -13.471  11.054  71.615  1.00  0.00    -0.429 F  
HETATM    2  C   UNL     1     -13.000   9.800  71.650  1.00  0.00    -0.419 A  
HETATM    3  C   UNL     1     -13.888   8.734  71.691  1.00  0.00    -0.443 A  
HETATM    4  C   UNL     1     -13.398   7.424  71.750  1.00  0.00    -0.373 A  
HETATM    5  C   UNL     1     -12.016   7.179  71.793  1.00  0.00    -0.348 A  
HETATM    6  C   UNL     1     -11.630   9.585  71.638  1.00  0.00    -0.451 A  
HETATM    7  C   UNL     1     -11.140   8.279  71.704  1.00  0.00    -0.326 A  
ENDROOT
BRANCH   5   8
HETATM    8  C   UNL     1     -11.425   5.777  71.898  1.00  0.00    -0.231 C  
HETATM    9  C   UNL     1     -11.150   5.449  73.377  1.00  0.00    -0.326 C  
HETATM   10  C   UNL     1     -10.608   4.033  73.539  1.00  0.00    -0.202 C  
HETATM   11  N   UNL     1      -9.397   3.848  72.749  1.00  0.00    -0.110 NA 
HETATM   12  C   UNL     1      -9.648   4.060  71.323  1.00  0.00    -0.175 C  
HETATM   13  H   UNL     1      -8.974   2.936  72.922  1.00  0.00     0.000 HD 
HETATM   14  C   UNL     1     -10.165   5.483  71.035  1.00  0.00    -0.287 C  
BRANCH  14  15
HETATM   15  C   UNL     1     -10.441   5.648  69.524  1.00  0.00    -0.302 C  
BRANCH  15  16
HETATM   16  O   UNL     1      -9.229   6.031  68.863  1.00  0.00    -0.124 OA 
BRANCH  16  17
HETATM   17  C   UNL     1      -9.183   7.265  68.270  1.00  0.00    -0.133 A  
HETATM   18  C   UNL     1      -8.211   8.241  68.503  1.00  0.00    -0.131 A  
HETATM   19  C   UNL     1      -8.274   9.405  67.761  1.00  0.00    -0.114 A  
HETATM   20  C   UNL     1      -9.262   9.629  66.833  1.00  0.00    -0.143 A  
HETATM   21  C   UNL     1     -10.253   8.700  66.597  1.00  0.00    -0.343 A  
HETATM   22  O   UNL     1      -9.128  10.829  66.209  1.00  0.00    -0.165 OA 
HETATM   23  C   UNL     1     -10.200   7.503  67.322  1.00  0.00    -0.337 A  
HETATM   24  C   UNL     1      -7.900  11.305  66.803  1.00  0.00    -0.155 C  
HETATM   25  O   UNL     1      -7.393  10.439  67.839  1.00  0.00    -0.085 OA 
ENDBRANCH  16  17
ENDBRANCH  15  16
ENDBRANCH  14  15
ENDBRANCH   5   8
TORSDOF 4
ENDMDL
MODEL      156
REMARK 921   NORMALIZED FREE ENERGY PREDICTED BY IDOCK:   -5.11 KCAL/MOL
REMARK 922        TOTAL FREE ENERGY PREDICTED BY IDOCK:   -7.09 KCAL/MOL
REMARK 923 INTER-LIGAND FREE ENERGY PREDICTED BY IDOCK:   -5.72 KCAL/MOL
REMARK 924 INTRA-LIGAND FREE ENERGY PREDICTED BY IDOCK:   -1.36 KCAL/MOL
REMARK 927      BINDING AFFINITY PREDICTED BY RF-SCORE:    0.00 PKD
ROOT
HETATM    1  F   UNL     1      -7.460   5.751  68.503  1.00  0.00    -0.077 F  
HETATM    2  C   UNL     1      -8.368   6.706  68.741  1.00  0.00    -0.120 A  
HETATM    3  C   UNL     1      -9.590   6.672  68.083  1.00  0.00    -0.120 A  
HETATM    4  C   UNL     1     -10.532   7.682  68.313  1.00  0.00    -0.219 A  
HETATM    5  C   UNL     1     -10.242   8.743  69.185  1.00  0.00    -0.215 A  
HETATM    6  C   UNL     1      -8.076   7.715  69.648  1.00  0.00    -0.126 A  
HETATM    7  C   UNL     1      -9.013   8.726  69.873  1.00  0.00    -0.152 A  
ENDROOT
BRANCH   5   8
HETATM    8  C   UNL     1     -11.211   9.892  69.444  1.00  0.00    -0.196 C  
HETATM    9  C   UNL     1     -10.647  11.186  68.830  1.00  0.00    -0.233 C  
HETATM   10  C   UNL     1     -11.608  12.354  69.015  1.00  0.00    -0.311 C  
HETATM   11  N   UNL     1     -11.910  12.558  70.427  1.00  0.00    -0.550 NA 
HETATM   12  C   UNL     1     -12.538  11.375  71.018  1.00  0.00    -0.386 C  
HETATM   13  H   UNL     1     -12.478  13.393  70.571  1.00  0.00     0.000 HD 
HETATM   14  C   UNL     1     -11.631  10.133  70.923  1.00  0.00    -0.459 C  
BRANCH  14  15
HETATM   15  C   UNL     1     -12.347   8.909  71.534  1.00  0.00    -0.324 C  
BRANCH  15  16
HETATM   16  O   UNL     1     -11.622   8.465  72.687  1.00  0.00    -0.385 OA 
BRANCH  16  17
HETATM   17  C   UNL     1     -11.121   7.190  72.679  1.00  0.00    -0.292 A  
HETATM   18  C   UNL     1     -11.018   6.365  71.557  1.00  0.00    -0.310 A  
HETATM   19  C   UNL     1     -10.417   5.130  71.716  1.00  0.00    -0.200 A  
HETATM   20  C   UNL     1      -9.948   4.696  72.932  1.00  0.00    -0.150 A  
HETATM   21  C   UNL     1     -10.058   5.472  74.065  1.00  0.00    -0.241 A  
HETATM   22  O   UNL     1      -9.384   3.462  72.860  1.00  0.00    -0.094 OA 
HETATM   23  C   UNL     1     -10.645   6.735  73.927  1.00  0.00    -0.269 A  
HETATM   24  C   UNL     1      -9.490   3.198  71.444  1.00  0.00    -0.149 C  
HETATM   25  O   UNL     1     -10.208   4.222  70.725  1.00  0.00    -0.142 OA 
ENDBRANCH  16  17
ENDBRANCH  15  16
ENDBRANCH  14  15
ENDBRANCH   5   8
TORSDOF 4
ENDMDL
MODEL      157
REMARK 921   NORMALIZED FREE ENERGY PREDICTED BY IDOCK:   -5.11 KCAL/MOL
REMARK 922        TOTAL FREE ENERGY PREDICTED BY IDOCK:   -7.08 KCAL/MOL
REMARK 923 INTER-LIGAND FREE ENERGY PREDICTED BY IDOCK:   -6.05 KCAL/MOL
REMARK 924 INTRA-LIGAND FREE ENERGY PREDICTED BY IDOCK:   -1.03 KCAL/MOL
REMARK 927      BINDING AFFINITY PREDICTED BY RF-SCORE:    0.00 PKD
ROOT
HETATM    1  F   UNL     1     -13.307  11.286  72.222  1.00  0.00    -0.584 F  
HETATM    2  C   UNL     1     -12.566  10.830  71.203  1.00  0.00    -0.428 A  
HETATM    3  C   UNL     1     -11.922   9.605  71.317  1.00  0.00    -0.462 A  
HETATM    4  C   UNL     1     -11.129   9.137  70.262  1.00  0.00    -0.272 A  
HETATM    5  C   UNL     1     -10.958   9.907  69.101  1.00  0.00    -0.233 A  
HETATM    6  C   UNL     1     -12.457  11.587  70.046  1.00  0.00    -0.192 A  
HETATM    7  C   UNL     1     -11.661  11.124  68.996  1.00  0.00    -0.392 A  
ENDROOT
BRANCH   5   8
HETATM    8  C   UNL     1     -10.075   9.468  67.938  1.00  0.00    -0.234 C  
HETATM    9  C   UNL     1     -10.391   8.003  67.581  1.00  0.00    -0.312 C  
HETATM   10  C   UNL     1      -9.569   7.535  66.385  1.00  0.00    -0.125 C  
HETATM   11  N   UNL     1      -8.143   7.694  66.641  1.00  0.00    -0.116 NA 
HETATM   12  C   UNL     1      -7.795   9.093  66.891  1.00  0.00    -0.098 C  
HETATM   13  H   UNL     1      -7.581   7.298  65.887  1.00  0.00     0.000 HD 
HETATM   14  C   UNL     1      -8.542   9.664  68.112  1.00  0.00    -0.119 C  
BRANCH  14  15
HETATM   15  C   UNL     1      -8.162  11.147  68.316  1.00  0.00    -0.134 C  
BRANCH  15  16
HETATM   16  O   UNL     1      -8.632  11.913  67.201  1.00  0.00    -0.158 OA 
BRANCH  16  17
HETATM   17  C   UNL     1      -8.794  13.262  67.370  1.00  0.00    -0.204 A  
HETATM   18  C   UNL     1     -10.019  13.923  67.496  1.00  0.00    -0.240 A  
HETATM   19  C   UNL     1      -9.997  15.283  67.737  1.00  0.00    -0.224 A  
HETATM   20  C   UNL     1      -8.823  15.991  67.832  1.00  0.00    -0.180 A  
HETATM   21  C   UNL     1      -7.598  15.377  67.684  1.00  0.00    -0.188 A  
HETATM   22  O   UNL     1      -9.030  17.310  68.084  1.00  0.00    -0.239 OA 
HETATM   23  C   UNL     1      -7.592  13.995  67.460  1.00  0.00    -0.195 A  
HETATM   24  C   UNL     1     -10.469  17.338  68.207  1.00  0.00    -0.385 C  
HETATM   25  O   UNL     1     -11.092  16.070  67.917  1.00  0.00    -0.338 OA 
ENDBRANCH  16  17
ENDBRANCH  15  16
ENDBRANCH  14  15
ENDBRANCH   5   8
TORSDOF 4
ENDMDL
MODEL      158
REMARK 921   NORMALIZED FREE ENERGY PREDICTED BY IDOCK:   -5.09 KCAL/MOL
REMARK 922        TOTAL FREE ENERGY PREDICTED BY IDOCK:   -7.07 KCAL/MOL
REMARK 923 INTER-LIGAND FREE ENERGY PREDICTED BY IDOCK:   -6.00 KCAL/MOL
REMARK 924 INTRA-LIGAND FREE ENERGY PREDICTED BY IDOCK:   -1.06 KCAL/MOL
REMARK 927      BINDING AFFINITY PREDICTED BY RF-SCORE:    0.00 PKD
ROOT
HETATM    1  F   UNL     1     -11.433   6.382  72.582  1.00  0.00    -0.278 F  
HETATM    2  C   UNL     1     -11.396   7.551  71.928  1.00  0.00    -0.260 A  
HETATM    3  C   UNL     1     -10.178   8.058  71.496  1.00  0.00    -0.243 A  
HETATM    4  C   UNL     1     -10.134   9.290  70.833  1.00  0.00    -0.373 A  
HETATM    5  C   UNL     1     -11.308  10.030  70.623  1.00  0.00    -0.425 A  
HETATM    6  C   UNL     1     -12.577   8.237  71.688  1.00  0.00    -0.355 A  
HETATM    7  C   UNL     1     -12.534   9.469  71.033  1.00  0.00    -0.347 A  
ENDROOT
BRANCH   5   8
HETATM    8  C   UNL     1     -11.317  11.395  69.944  1.00  0.00    -0.300 C  
HETATM    9  C   UNL     1     -12.247  12.346  70.720  1.00  0.00    -0.336 C  
HETATM   10  C   UNL     1     -12.246  13.743  70.110  1.00  0.00    -0.356 C  
HETATM   11  N   UNL     1     -12.636  13.696  68.706  1.00  0.00    -0.062 NA 
HETATM   12  C   UNL     1     -11.713  12.874  67.920  1.00  0.00    -0.357 C  
HETATM   13  H   UNL     1     -12.729  14.632  68.312  1.00  0.00     0.000 HD 
HETATM   14  C   UNL     1     -11.663  11.420  68.427  1.00  0.00    -0.373 C  
BRANCH  14  15
HETATM   15  C   UNL     1     -10.658  10.603  67.586  1.00  0.00    -0.246 C  
BRANCH  15  16
HETATM   16  O   UNL     1     -11.285   9.393  67.145  1.00  0.00     0.103 OA 
BRANCH  16  17
HETATM   17  C   UNL     1     -10.489   8.302  66.917  1.00  0.00    -0.295 A  
HETATM   18  C   UNL     1     -10.716   7.014  67.409  1.00  0.00    -0.383 A  
HETATM   19  C   UNL     1      -9.850   6.012  67.017  1.00  0.00    -0.152 A  
HETATM   20  C   UNL     1      -8.779   6.251  66.189  1.00  0.00    -0.145 A  
HETATM   21  C   UNL     1      -8.509   7.514  65.709  1.00  0.00    -0.151 A  
HETATM   22  O   UNL     1      -8.067   5.125  65.922  1.00  0.00    -0.106 OA 
HETATM   23  C   UNL     1      -9.384   8.544  66.074  1.00  0.00    -0.266 A  
HETATM   24  C   UNL     1      -8.854   4.136  66.621  1.00  0.00    -0.119 C  
HETATM   25  O   UNL     1      -9.944   4.703  67.375  1.00  0.00    -0.180 OA 
ENDBRANCH  16  17
ENDBRANCH  15  16
ENDBRANCH  14  15
ENDBRANCH   5   8
TORSDOF 4
ENDMDL
MODEL      159
REMARK 921   NORMALIZED FREE ENERGY PREDICTED BY IDOCK:   -5.08 KCAL/MOL
REMARK 922        TOTAL FREE ENERGY PREDICTED BY IDOCK:   -7.04 KCAL/MOL
REMARK 923 INTER-LIGAND FREE ENERGY PREDICTED BY IDOCK:   -6.17 KCAL/MOL
REMARK 924 INTRA-LIGAND FREE ENERGY PREDICTED BY IDOCK:   -0.88 KCAL/MOL
REMARK 927      BINDING AFFINITY PREDICTED BY RF-SCORE:    0.00 PKD
ROOT
HETATM    1  F   UNL     1     -12.566   8.468  73.077  1.00  0.00    -0.381 F  
HETATM    2  C   UNL     1     -12.189   9.188  72.011  1.00  0.00    -0.373 A  
HETATM    3  C   UNL     1     -13.142   9.886  71.282  1.00  0.00    -0.487 A  
HETATM    4  C   UNL     1     -12.753  10.620  70.155  1.00  0.00    -0.224 A  
HETATM    5  C   UNL     1     -11.412  10.636  69.740  1.00  0.00    -0.375 A  
HETATM    6  C   UNL     1     -10.849   9.229  71.654  1.00  0.00    -0.418 A  
HETATM    7  C   UNL     1     -10.462   9.955  70.526  1.00  0.00    -0.330 A  
ENDROOT
BRANCH   5   8
HETATM    8  C   UNL     1     -10.937  11.383  68.499  1.00  0.00    -0.267 C  
HETATM    9  C   UNL     1     -11.805  12.639  68.295  1.00  0.00    -0.354 C  
HETATM   10  C   UNL     1     -11.333  13.451  67.094  1.00  0.00    -0.315 C  
HETATM   11  N   UNL     1     -11.334  12.636  65.885  1.00  0.00    -0.317 NA 
HETATM   12  C   UNL     1     -10.442  11.484  66.013  1.00  0.00    -0.252 C  
HETATM   13  H   UNL     1     -11.109  13.192  65.060  1.00  0.00     0.000 HD 
HETATM   14  C   UNL     1     -10.852  10.564  67.179  1.00  0.00    -0.319 C  
BRANCH  14  15
HETATM   15  C   UNL     1      -9.866   9.381  67.289  1.00  0.00    -0.179 C  
BRANCH  15  16
HETATM   16  O   UNL     1     -10.589   8.151  67.157  1.00  0.00    -0.322 OA 
BRANCH  16  17
HETATM   17  C   UNL     1     -10.016   7.012  67.658  1.00  0.00    -0.154 A  
HETATM   18  C   UNL     1     -10.274   5.712  67.216  1.00  0.00    -0.250 A  
HETATM   19  C   UNL     1      -9.550   4.681  67.784  1.00  0.00    -0.159 A  
HETATM   20  C   UNL     1      -8.617   4.898  68.770  1.00  0.00    -0.089 A  
HETATM   21  C   UNL     1      -8.359   6.164  69.250  1.00  0.00    -0.116 A  
HETATM   22  O   UNL     1      -8.015   3.750  69.178  1.00  0.00    -0.055 OA 
HETATM   23  C   UNL     1      -9.064   7.228  68.676  1.00  0.00    -0.133 A  
HETATM   24  C   UNL     1      -8.626   2.794  68.284  1.00  0.00    -0.089 C  
HETATM   25  O   UNL     1      -9.652   3.367  67.448  1.00  0.00    -0.208 OA 
ENDBRANCH  16  17
ENDBRANCH  15  16
ENDBRANCH  14  15
ENDBRANCH   5   8
TORSDOF 4
ENDMDL
MODEL      160
REMARK 921   NORMALIZED FREE ENERGY PREDICTED BY IDOCK:   -4.96 KCAL/MOL
REMARK 922        TOTAL FREE ENERGY PREDICTED BY IDOCK:   -6.90 KCAL/MOL
REMARK 923 INTER-LIGAND FREE ENERGY PREDICTED BY IDOCK:   -6.04 KCAL/MOL
REMARK 924 INTRA-LIGAND FREE ENERGY PREDICTED BY IDOCK:   -0.86 KCAL/MOL
REMARK 927      BINDING AFFINITY PREDICTED BY RF-SCORE:    0.00 PKD
ROOT
HETATM    1  F   UNL     1     -10.793   5.280  68.710  1.00  0.00    -0.246 F  
HETATM    2  C   UNL     1     -10.226   6.396  68.233  1.00  0.00    -0.171 A  
HETATM    3  C   UNL     1     -10.825   7.075  67.180  1.00  0.00    -0.427 A  
HETATM    4  C   UNL     1     -10.222   8.229  66.665  1.00  0.00    -0.333 A  
HETATM    5  C   UNL     1      -9.004   8.693  67.187  1.00  0.00    -0.148 A  
HETATM    6  C   UNL     1      -9.051   6.862  68.802  1.00  0.00    -0.133 A  
HETATM    7  C   UNL     1      -8.445   8.009  68.285  1.00  0.00    -0.123 A  
ENDROOT
BRANCH   5   8
HETATM    8  C   UNL     1      -8.281   9.919  66.641  1.00  0.00    -0.121 C  
HETATM    9  C   UNL     1      -7.007   9.473  65.899  1.00  0.00    -0.091 C  
HETATM   10  C   UNL     1      -6.277  10.662  65.286  1.00  0.00    -0.046 C  
HETATM   11  N   UNL     1      -5.945  11.649  66.308  1.00  0.00    -0.479 NA 
HETATM   12  C   UNL     1      -7.145  12.164  66.967  1.00  0.00    -0.064 C  
HETATM   13  H   UNL     1      -5.375  12.404  65.926  1.00  0.00     0.000 HD 
HETATM   14  C   UNL     1      -7.947  11.045  67.660  1.00  0.00    -0.115 C  
BRANCH  14  15
HETATM   15  C   UNL     1      -9.215  11.634  68.316  1.00  0.00    -0.187 C  
BRANCH  15  16
HETATM   16  O   UNL     1     -10.253  11.732  67.334  1.00  0.00    -0.196 OA 
BRANCH  16  17
HETATM   17  C   UNL     1     -10.454  12.944  66.728  1.00  0.00    -0.254 A  
HETATM   18  C   UNL     1     -10.354  14.189  67.352  1.00  0.00    -0.256 A  
HETATM   19  C   UNL     1     -10.515  15.318  66.571  1.00  0.00    -0.298 A  
HETATM   20  C   UNL     1     -10.786  15.245  65.226  1.00  0.00    -0.403 A  
HETATM   21  C   UNL     1     -10.919  14.032  64.584  1.00  0.00    -0.401 A  
HETATM   22  O   UNL     1     -10.893  16.470  64.649  1.00  0.00    -0.741 OA 
HETATM   23  C   UNL     1     -10.740  12.874  65.349  1.00  0.00    -0.307 A  
HETATM   24  C   UNL     1     -10.588  17.324  65.774  1.00  0.00    -0.194 C  
HETATM   25  O   UNL     1     -10.418  16.602  67.010  1.00  0.00    -0.305 OA 
ENDBRANCH  16  17
ENDBRANCH  15  16
ENDBRANCH  14  15
ENDBRANCH   5   8
TORSDOF 4
ENDMDL
MODEL      161
REMARK 921   NORMALIZED FREE ENERGY PREDICTED BY IDOCK:   -4.94 KCAL/MOL
REMARK 922        TOTAL FREE ENERGY PREDICTED BY IDOCK:   -6.87 KCAL/MOL
REMARK 923 INTER-LIGAND FREE ENERGY PREDICTED BY IDOCK:   -6.13 KCAL/MOL
REMARK 924 INTRA-LIGAND FREE ENERGY PREDICTED BY IDOCK:   -0.74 KCAL/MOL
REMARK 927      BINDING AFFINITY PREDICTED BY RF-SCORE:    0.00 PKD
ROOT
HETATM    1  F   UNL     1      -8.711   8.756  66.225  1.00  0.00    -0.123 F  
HETATM    2  C   UNL     1      -9.285   9.738  66.934  1.00  0.00    -0.147 A  
HETATM    3  C   UNL     1     -10.664   9.895  66.897  1.00  0.00    -0.195 A  
HETATM    4  C   UNL     1     -11.264  10.934  67.618  1.00  0.00    -0.379 A  
HETATM    5  C   UNL     1     -10.482  11.834  68.359  1.00  0.00    -0.231 A  
HETATM    6  C   UNL     1      -8.493  10.581  67.699  1.00  0.00    -0.115 A  
HETATM    7  C   UNL     1      -9.091  11.622  68.413  1.00  0.00    -0.180 A  
ENDROOT
BRANCH   5   8
HETATM    8  C   UNL     1     -11.076  13.008  69.130  1.00  0.00    -0.245 C  
HETATM    9  C   UNL     1     -12.072  12.479  70.179  1.00  0.00    -0.368 C  
HETATM   10  C   UNL     1     -12.652  13.614  71.014  1.00  0.00    -0.363 C  
HETATM   11  N   UNL     1     -13.298  14.607  70.164  1.00  0.00    -0.368 NA 
HETATM   12  C   UNL     1     -12.352  15.199  69.217  1.00  0.00    -0.093 C  
HETATM   13  H   UNL     1     -13.770  15.322  70.716  1.00  0.00     0.000 HD 
HETATM   14  C   UNL     1     -11.729  14.140  68.287  1.00  0.00    -0.383 C  
BRANCH  14  15
HETATM   15  C   UNL     1     -10.721  14.810  67.327  1.00  0.00    -0.294 C  
BRANCH  15  16
HETATM   16  O   UNL     1     -11.026  16.205  67.220  1.00  0.00    -0.283 OA 
BRANCH  16  17
HETATM   17  C   UNL     1      -9.999  17.069  66.946  1.00  0.00    -0.289 A  
HETATM   18  C   UNL     1      -8.639  16.769  67.045  1.00  0.00    -0.233 A  
HETATM   19  C   UNL     1      -7.734  17.739  66.656  1.00  0.00    -0.240 A  
HETATM   20  C   UNL     1      -8.133  18.974  66.205  1.00  0.00    -0.285 A  
HETATM   21  C   UNL     1      -9.466  19.314  66.122  1.00  0.00    -0.320 A  
HETATM   22  O   UNL     1      -7.084  19.768  65.866  1.00  0.00    -0.265 OA 
HETATM   23  C   UNL     1     -10.404  18.341  66.490  1.00  0.00    -0.410 A  
HETATM   24  C   UNL     1      -5.979  18.864  66.089  1.00  0.00    -0.163 C  
HETATM   25  O   UNL     1      -6.381  17.601  66.658  1.00  0.00    -0.162 OA 
ENDBRANCH  16  17
ENDBRANCH  15  16
ENDBRANCH  14  15
ENDBRANCH   5   8
TORSDOF 4
ENDMDL
MODEL      162
REMARK 921   NORMALIZED FREE ENERGY PREDICTED BY IDOCK:   -4.93 KCAL/MOL
REMARK 922        TOTAL FREE ENERGY PREDICTED BY IDOCK:   -6.86 KCAL/MOL
REMARK 923 INTER-LIGAND FREE ENERGY PREDICTED BY IDOCK:   -5.81 KCAL/MOL
REMARK 924 INTRA-LIGAND FREE ENERGY PREDICTED BY IDOCK:   -1.05 KCAL/MOL
REMARK 927      BINDING AFFINITY PREDICTED BY RF-SCORE:    0.00 PKD
ROOT
HETATM    1  F   UNL     1      -6.090  11.538  66.250  1.00  0.00    -0.143 F  
HETATM    2  C   UNL     1      -6.797  10.707  67.027  1.00  0.00    -0.091 A  
HETATM    3  C   UNL     1      -6.496  10.608  68.379  1.00  0.00    -0.054 A  
HETATM    4  C   UNL     1      -7.218   9.723  69.189  1.00  0.00    -0.073 A  
HETATM    5  C   UNL     1      -8.228   8.917  68.641  1.00  0.00    -0.116 A  
HETATM    6  C   UNL     1      -7.824   9.960  66.471  1.00  0.00    -0.110 A  
HETATM    7  C   UNL     1      -8.541   9.072  67.276  1.00  0.00    -0.115 A  
ENDROOT
BRANCH   5   8
HETATM    8  C   UNL     1      -9.020   7.907  69.465  1.00  0.00    -0.142 C  
HETATM    9  C   UNL     1      -8.955   6.528  68.782  1.00  0.00    -0.124 C  
HETATM   10  C   UNL     1      -9.688   5.470  69.599  1.00  0.00    -0.172 C  
HETATM   11  N   UNL     1     -11.077   5.856  69.821  1.00  0.00    -0.389 NA 
HETATM   12  C   UNL     1     -11.172   7.119  70.554  1.00  0.00    -0.290 C  
HETATM   13  H   UNL     1     -11.601   5.115  70.285  1.00  0.00     0.000 HD 
HETATM   14  C   UNL     1     -10.494   8.278  69.796  1.00  0.00    -0.220 C  
BRANCH  14  15
HETATM   15  C   UNL     1     -10.598   9.579  70.621  1.00  0.00    -0.308 C  
BRANCH  15  16
HETATM   16  O   UNL     1     -11.843  10.224  70.330  1.00  0.00    -0.265 OA 
BRANCH  16  17
HETATM   17  C   UNL     1     -11.813  11.383  69.600  1.00  0.00    -0.362 A  
HETATM   18  C   UNL     1     -11.713  11.463  68.209  1.00  0.00    -0.359 A  
HETATM   19  C   UNL     1     -11.772  12.716  67.629  1.00  0.00    -0.361 A  
HETATM   20  C   UNL     1     -11.902  13.863  68.374  1.00  0.00    -0.374 A  
HETATM   21  C   UNL     1     -11.974  13.822  69.750  1.00  0.00    -0.406 A  
HETATM   22  O   UNL     1     -11.952  14.981  67.604  1.00  0.00    -0.277 OA 
HETATM   23  C   UNL     1     -11.938  12.564  70.361  1.00  0.00    -0.335 A  
HETATM   24  C   UNL     1     -11.909  14.399  66.282  1.00  0.00    -0.379 C  
HETATM   25  O   UNL     1     -11.722  12.969  66.293  1.00  0.00    -0.348 OA 
ENDBRANCH  16  17
ENDBRANCH  15  16
ENDBRANCH  14  15
ENDBRANCH   5   8
TORSDOF 4
ENDMDL
MODEL      163
REMARK 921   NORMALIZED FREE ENERGY PREDICTED BY IDOCK:   -4.92 KCAL/MOL
REMARK 922        TOTAL FREE ENERGY PREDICTED BY IDOCK:   -6.86 KCAL/MOL
REMARK 923 INTER-LIGAND FREE ENERGY PREDICTED BY IDOCK:   -6.06 KCAL/MOL
REMARK 924 INTRA-LIGAND FREE ENERGY PREDICTED BY IDOCK:   -0.80 KCAL/MOL
REMARK 927      BINDING AFFINITY PREDICTED BY RF-SCORE:    0.00 PKD
ROOT
HETATM    1  F   UNL     1     -10.645   3.994  65.283  1.00  0.00    -0.203 F  
HETATM    2  C   UNL     1     -10.069   4.999  65.956  1.00  0.00    -0.209 A  
HETATM    3  C   UNL     1      -8.748   5.335  65.690  1.00  0.00    -0.146 A  
HETATM    4  C   UNL     1      -8.137   6.370  66.408  1.00  0.00    -0.112 A  
HETATM    5  C   UNL     1      -8.839   7.055  67.412  1.00  0.00    -0.119 A  
HETATM    6  C   UNL     1     -10.802   5.694  66.906  1.00  0.00    -0.287 A  
HETATM    7  C   UNL     1     -10.191   6.722  67.628  1.00  0.00    -0.225 A  
ENDROOT
BRANCH   5   8
HETATM    8  C   UNL     1      -8.214   8.162  68.254  1.00  0.00    -0.129 C  
HETATM    9  C   UNL     1      -8.279   7.772  69.742  1.00  0.00    -0.129 C  
HETATM   10  C   UNL     1      -7.615   8.825  70.621  1.00  0.00    -0.090 C  
HETATM   11  N   UNL     1      -8.228  10.132  70.417  1.00  0.00    -0.397 NA 
HETATM   12  C   UNL     1      -8.097  10.575  69.029  1.00  0.00    -0.143 C  
HETATM   13  H   UNL     1      -7.855  10.825  71.066  1.00  0.00     0.000 HD 
HETATM   14  C   UNL     1      -8.773   9.599  68.046  1.00  0.00    -0.119 C  
BRANCH  14  15
HETATM   15  C   UNL     1      -8.585  10.095  66.597  1.00  0.00    -0.126 C  
BRANCH  15  16
HETATM   16  O   UNL     1      -9.778   9.832  65.849  1.00  0.00    -0.225 OA 
BRANCH  16  17
HETATM   17  C   UNL     1     -10.497  10.903  65.386  1.00  0.00    -0.223 A  
HETATM   18  C   UNL     1     -11.194  11.816  66.179  1.00  0.00    -0.363 A  
HETATM   19  C   UNL     1     -11.805  12.884  65.550  1.00  0.00    -0.411 A  
HETATM   20  C   UNL     1     -11.761  13.053  64.187  1.00  0.00    -0.412 A  
HETATM   21  C   UNL     1     -11.107  12.156  63.371  1.00  0.00    -0.495 A  
HETATM   22  O   UNL     1     -12.415  14.172  63.781  1.00  0.00    -0.791 OA 
HETATM   23  C   UNL     1     -10.462  11.076  63.986  1.00  0.00    -0.433 A  
HETATM   24  C   UNL     1     -12.816  14.727  65.053  1.00  0.00     0.189 C  
HETATM   25  O   UNL     1     -12.494  13.878  66.173  1.00  0.00    -0.459 OA 
ENDBRANCH  16  17
ENDBRANCH  15  16
ENDBRANCH  14  15
ENDBRANCH   5   8
TORSDOF 4
ENDMDL
MODEL      164
REMARK 921   NORMALIZED FREE ENERGY PREDICTED BY IDOCK:   -4.92 KCAL/MOL
REMARK 922        TOTAL FREE ENERGY PREDICTED BY IDOCK:   -6.85 KCAL/MOL
REMARK 923 INTER-LIGAND FREE ENERGY PREDICTED BY IDOCK:   -6.24 KCAL/MOL
REMARK 924 INTRA-LIGAND FREE ENERGY PREDICTED BY IDOCK:   -0.61 KCAL/MOL
REMARK 927      BINDING AFFINITY PREDICTED BY RF-SCORE:    0.00 PKD
ROOT
HETATM    1  F   UNL     1      -6.034  11.852  69.121  1.00  0.00    -0.057 F  
HETATM    2  C   UNL     1      -6.651  12.869  68.504  1.00  0.00    -0.087 A  
HETATM    3  C   UNL     1      -8.030  12.843  68.347  1.00  0.00    -0.137 A  
HETATM    4  C   UNL     1      -8.674  13.894  67.683  1.00  0.00    -0.187 A  
HETATM    5  C   UNL     1      -7.935  14.962  67.151  1.00  0.00    -0.227 A  
HETATM    6  C   UNL     1      -5.902  13.938  68.034  1.00  0.00    -0.137 A  
HETATM    7  C   UNL     1      -6.543  14.983  67.366  1.00  0.00    -0.063 A  
ENDROOT
BRANCH   5   8
HETATM    8  C   UNL     1      -8.577  16.113  66.384  1.00  0.00    -0.365 C  
HETATM    9  C   UNL     1      -8.004  17.449  66.893  1.00  0.00    -0.257 C  
HETATM   10  C   UNL     1      -8.576  18.629  66.116  1.00  0.00    -0.137 C  
HETATM   11  N   UNL     1     -10.032  18.644  66.193  1.00  0.00    -0.486 NA 
HETATM   12  C   UNL     1     -10.612  17.426  65.627  1.00  0.00    -0.153 C  
HETATM   13  H   UNL     1     -10.421  19.480  65.756  1.00  0.00     0.000 HD 
HETATM   14  C   UNL     1     -10.131  16.162  66.367  1.00  0.00    -0.321 C  
BRANCH  14  15
HETATM   15  C   UNL     1     -10.748  14.904  65.718  1.00  0.00    -0.331 C  
BRANCH  15  16
HETATM   16  O   UNL     1     -11.959  14.565  66.403  1.00  0.00    -0.392 OA 
BRANCH  16  17
HETATM   17  C   UNL     1     -11.902  13.596  67.370  1.00  0.00    -0.393 A  
HETATM   18  C   UNL     1     -11.644  12.241  67.147  1.00  0.00    -0.423 A  
HETATM   19  C   UNL     1     -11.547  11.413  68.248  1.00  0.00    -0.306 A  
HETATM   20  C   UNL     1     -11.716  11.876  69.530  1.00  0.00    -0.345 A  
HETATM   21  C   UNL     1     -12.000  13.200  69.785  1.00  0.00    -0.382 A  
HETATM   22  O   UNL     1     -11.567  10.897  70.461  1.00  0.00    -0.322 OA 
HETATM   23  C   UNL     1     -12.083  14.065  68.688  1.00  0.00    -0.332 A  
HETATM   24  C   UNL     1     -11.214   9.777  69.620  1.00  0.00    -0.178 C  
HETATM   25  O   UNL     1     -11.270  10.081  68.211  1.00  0.00    -0.229 OA 
ENDBRANCH  16  17
ENDBRANCH  15  16
ENDBRANCH  14  15
ENDBRANCH   5   8
TORSDOF 4
ENDMDL
MODEL      165
REMARK 921   NORMALIZED FREE ENERGY PREDICTED BY IDOCK:   -4.90 KCAL/MOL
REMARK 922        TOTAL FREE ENERGY PREDICTED BY IDOCK:   -6.83 KCAL/MOL
REMARK 923 INTER-LIGAND FREE ENERGY PREDICTED BY IDOCK:   -5.68 KCAL/MOL
REMARK 924 INTRA-LIGAND FREE ENERGY PREDICTED BY IDOCK:   -1.14 KCAL/MOL
REMARK 927      BINDING AFFINITY PREDICTED BY RF-SCORE:    0.00 PKD
ROOT
HETATM    1  F   UNL     1     -10.537  13.399  67.019  1.00  0.00    -0.257 F  
HETATM    2  C   UNL     1     -10.148  12.117  67.048  1.00  0.00    -0.204 A  
HETATM    3  C   UNL     1     -11.076  11.124  67.333  1.00  0.00    -0.370 A  
HETATM    4  C   UNL     1     -10.668   9.787  67.385  1.00  0.00    -0.314 A  
HETATM    5  C   UNL     1      -9.323   9.441  67.177  1.00  0.00    -0.172 A  
HETATM    6  C   UNL     1      -8.824  11.799  66.787  1.00  0.00    -0.191 A  
HETATM    7  C   UNL     1      -8.414  10.466  66.846  1.00  0.00    -0.124 A  
ENDROOT
BRANCH   5   8
HETATM    8  C   UNL     1      -8.812   8.007  67.262  1.00  0.00    -0.135 C  
HETATM    9  C   UNL     1      -9.658   7.108  66.341  1.00  0.00    -0.161 C  
HETATM   10  C   UNL     1      -9.150   5.671  66.349  1.00  0.00    -0.147 C  
HETATM   11  N   UNL     1      -9.139   5.133  67.705  1.00  0.00    -0.110 NA 
HETATM   12  C   UNL     1      -8.266   5.912  68.584  1.00  0.00    -0.109 C  
HETATM   13  H   UNL     1      -8.890   4.144  67.712  1.00  0.00     0.000 HD 
HETATM   14  C   UNL     1      -8.713   7.384  68.684  1.00  0.00    -0.128 C  
BRANCH  14  15
HETATM   15  C   UNL     1      -7.747   8.167  69.599  1.00  0.00    -0.101 C  
BRANCH  15  16
HETATM   16  O   UNL     1      -8.101   7.935  70.968  1.00  0.00    -0.094 OA 
BRANCH  16  17
HETATM   17  C   UNL     1      -9.358   8.295  71.377  1.00  0.00    -0.172 A  
HETATM   18  C   UNL     1     -10.053   9.431  70.957  1.00  0.00    -0.353 A  
HETATM   19  C   UNL     1     -11.346   9.602  71.415  1.00  0.00    -0.374 A  
HETATM   20  C   UNL     1     -11.943   8.711  72.273  1.00  0.00    -0.368 A  
HETATM   21  C   UNL     1     -11.276   7.594  72.730  1.00  0.00    -0.431 A  
HETATM   22  O   UNL     1     -13.217   9.063  72.586  1.00  0.00    -0.443 OA 
HETATM   23  C   UNL     1      -9.972   7.387  72.265  1.00  0.00    -0.206 A  
HETATM   24  C   UNL     1     -13.378  10.244  71.769  1.00  0.00    -0.375 C  
HETATM   25  O   UNL     1     -12.171  10.630  71.080  1.00  0.00    -0.349 OA 
ENDBRANCH  16  17
ENDBRANCH  15  16
ENDBRANCH  14  15
ENDBRANCH   5   8
TORSDOF 4
ENDMDL
MODEL      166
REMARK 921   NORMALIZED FREE ENERGY PREDICTED BY IDOCK:   -4.89 KCAL/MOL
REMARK 922        TOTAL FREE ENERGY PREDICTED BY IDOCK:   -6.82 KCAL/MOL
REMARK 923 INTER-LIGAND FREE ENERGY PREDICTED BY IDOCK:   -6.00 KCAL/MOL
REMARK 924 INTRA-LIGAND FREE ENERGY PREDICTED BY IDOCK:   -0.82 KCAL/MOL
REMARK 927      BINDING AFFINITY PREDICTED BY RF-SCORE:    0.00 PKD
ROOT
HETATM    1  F   UNL     1     -13.108  13.756  64.369  1.00  0.00    -0.067 F  
HETATM    2  C   UNL     1     -12.193  12.941  64.911  1.00  0.00    -0.453 A  
HETATM    3  C   UNL     1     -11.892  13.047  66.262  1.00  0.00    -0.466 A  
HETATM    4  C   UNL     1     -10.919  12.213  66.826  1.00  0.00    -0.325 A  
HETATM    5  C   UNL     1     -10.228  11.285  66.031  1.00  0.00    -0.295 A  
HETATM    6  C   UNL     1     -11.561  11.997  64.114  1.00  0.00    -0.460 A  
HETATM    7  C   UNL     1     -10.587  11.169  64.674  1.00  0.00    -0.386 A  
ENDROOT
BRANCH   5   8
HETATM    8  C   UNL     1      -9.131  10.378  66.580  1.00  0.00    -0.175 C  
HETATM    9  C   UNL     1      -7.870  10.514  65.706  1.00  0.00    -0.154 C  
HETATM   10  C   UNL     1      -6.726   9.666  66.249  1.00  0.00    -0.076 C  
HETATM   11  N   UNL     1      -7.120   8.266  66.348  1.00  0.00    -0.070 NA 
HETATM   12  C   UNL     1      -8.259   8.091  67.249  1.00  0.00    -0.122 C  
HETATM   13  H   UNL     1      -6.334   7.675  66.621  1.00  0.00     0.000 HD 
HETATM   14  C   UNL     1      -9.496   8.878  66.774  1.00  0.00    -0.243 C  
BRANCH  14  15
HETATM   15  C   UNL     1     -10.659   8.684  67.770  1.00  0.00    -0.183 C  
BRANCH  15  16
HETATM   16  O   UNL     1     -10.443   9.514  68.917  1.00  0.00    -0.206 OA 
BRANCH  16  17
HETATM   17  C   UNL     1     -10.438   8.918  70.150  1.00  0.00    -0.214 A  
HETATM   18  C   UNL     1      -9.337   8.303  70.750  1.00  0.00    -0.183 A  
HETATM   19  C   UNL     1      -9.490   7.817  72.035  1.00  0.00    -0.163 A  
HETATM   20  C   UNL     1     -10.681   7.904  72.714  1.00  0.00    -0.371 A  
HETATM   21  C   UNL     1     -11.795   8.479  72.142  1.00  0.00    -0.448 A  
HETATM   22  O   UNL     1     -10.606   7.376  73.964  1.00  0.00    -0.284 OA 
HETATM   23  C   UNL     1     -11.661   8.998  70.849  1.00  0.00    -0.327 A  
HETATM   24  C   UNL     1      -9.210   7.010  74.019  1.00  0.00    -0.226 C  
HETATM   25  O   UNL     1      -8.515   7.222  72.774  1.00  0.00    -0.108 OA 
ENDBRANCH  16  17
ENDBRANCH  15  16
ENDBRANCH  14  15
ENDBRANCH   5   8
TORSDOF 4
ENDMDL
MODEL      167
REMARK 921   NORMALIZED FREE ENERGY PREDICTED BY IDOCK:   -4.87 KCAL/MOL
REMARK 922        TOTAL FREE ENERGY PREDICTED BY IDOCK:   -6.79 KCAL/MOL
REMARK 923 INTER-LIGAND FREE ENERGY PREDICTED BY IDOCK:   -5.52 KCAL/MOL
REMARK 924 INTRA-LIGAND FREE ENERGY PREDICTED BY IDOCK:   -1.27 KCAL/MOL
REMARK 927      BINDING AFFINITY PREDICTED BY RF-SCORE:    0.00 PKD
ROOT
HETATM    1  F   UNL     1     -12.598  12.010  62.934  1.00  0.00    -0.532 F  
HETATM    2  C   UNL     1     -12.245  12.474  64.140  1.00  0.00    -0.467 A  
HETATM    3  C   UNL     1     -12.477  13.805  64.459  1.00  0.00    -0.329 A  
HETATM    4  C   UNL     1     -12.088  14.298  65.711  1.00  0.00    -0.414 A  
HETATM    5  C   UNL     1     -11.444  13.464  66.638  1.00  0.00    -0.376 A  
HETATM    6  C   UNL     1     -11.657  11.615  65.057  1.00  0.00    -0.133 A  
HETATM    7  C   UNL     1     -11.264  12.107  66.303  1.00  0.00    -0.382 A  
ENDROOT
BRANCH   5   8
HETATM    8  C   UNL     1     -10.962  13.954  67.999  1.00  0.00    -0.267 C  
HETATM    9  C   UNL     1     -12.160  14.496  68.800  1.00  0.00    -0.256 C  
HETATM   10  C   UNL     1     -11.737  14.948  70.193  1.00  0.00    -0.294 C  
HETATM   11  N   UNL     1     -10.687  15.957  70.114  1.00  0.00    -0.330 NA 
HETATM   12  C   UNL     1      -9.495  15.440  69.440  1.00  0.00    -0.267 C  
HETATM   13  H   UNL     1     -10.461  16.334  71.034  1.00  0.00     0.000 HD 
HETATM   14  C   UNL     1      -9.799  14.987  67.999  1.00  0.00    -0.218 C  
BRANCH  14  15
HETATM   15  C   UNL     1      -8.520  14.426  67.341  1.00  0.00    -0.203 C  
BRANCH  15  16
HETATM   16  O   UNL     1      -7.752  13.723  68.326  1.00  0.00    -0.119 OA 
BRANCH  16  17
HETATM   17  C   UNL     1      -7.638  12.364  68.202  1.00  0.00    -0.129 A  
HETATM   18  C   UNL     1      -8.385  11.419  68.909  1.00  0.00    -0.042 A  
HETATM   19  C   UNL     1      -8.193  10.085  68.605  1.00  0.00    -0.111 A  
HETATM   20  C   UNL     1      -7.287   9.673  67.658  1.00  0.00    -0.090 A  
HETATM   21  C   UNL     1      -6.513  10.576  66.961  1.00  0.00    -0.076 A  
HETATM   22  O   UNL     1      -7.268   8.323  67.509  1.00  0.00    -0.085 OA 
HETATM   23  C   UNL     1      -6.704  11.935  67.236  1.00  0.00    -0.138 A  
HETATM   24  C   UNL     1      -8.318   7.936  68.423  1.00  0.00    -0.124 C  
HETATM   25  O   UNL     1      -8.858   9.043  69.173  1.00  0.00    -0.138 OA 
ENDBRANCH  16  17
ENDBRANCH  15  16
ENDBRANCH  14  15
ENDBRANCH   5   8
TORSDOF 4
ENDMDL
MODEL      168
REMARK 921   NORMALIZED FREE ENERGY PREDICTED BY IDOCK:   -4.87 KCAL/MOL
REMARK 922        TOTAL FREE ENERGY PREDICTED BY IDOCK:   -6.79 KCAL/MOL
REMARK 923 INTER-LIGAND FREE ENERGY PREDICTED BY IDOCK:   -6.01 KCAL/MOL
REMARK 924 INTRA-LIGAND FREE ENERGY PREDICTED BY IDOCK:   -0.78 KCAL/MOL
REMARK 927      BINDING AFFINITY PREDICTED BY RF-SCORE:    0.00 PKD
ROOT
HETATM    1  F   UNL     1      -6.024   7.245  67.339  1.00  0.00    -0.030 F  
HETATM    2  C   UNL     1      -7.000   7.349  68.251  1.00  0.00    -0.079 A  
HETATM    3  C   UNL     1      -6.691   7.742  69.547  1.00  0.00    -0.043 A  
HETATM    4  C   UNL     1      -7.706   7.829  70.507  1.00  0.00    -0.088 A  
HETATM    5  C   UNL     1      -9.031   7.500  70.178  1.00  0.00    -0.147 A  
HETATM    6  C   UNL     1      -8.308   7.069  67.886  1.00  0.00    -0.118 A  
HETATM    7  C   UNL     1      -9.320   7.149  68.844  1.00  0.00    -0.139 A  
ENDROOT
BRANCH   5   8
HETATM    8  C   UNL     1     -10.170   7.538  71.190  1.00  0.00    -0.199 C  
HETATM    9  C   UNL     1     -10.630   6.100  71.495  1.00  0.00    -0.288 C  
HETATM   10  C   UNL     1     -11.734   6.082  72.547  1.00  0.00    -0.232 C  
HETATM   11  N   UNL     1     -12.868   6.894  72.121  1.00  0.00    -0.549 NA 
HETATM   12  C   UNL     1     -12.482   8.290  71.915  1.00  0.00    -0.337 C  
HETATM   13  H   UNL     1     -13.649   6.815  72.773  1.00  0.00     0.000 HD 
HETATM   14  C   UNL     1     -11.391   8.433  70.836  1.00  0.00    -0.298 C  
BRANCH  14  15
HETATM   15  C   UNL     1     -11.000   9.918  70.675  1.00  0.00    -0.337 C  
BRANCH  15  16
HETATM   16  O   UNL     1     -12.069  10.621  70.030  1.00  0.00    -0.296 OA 
BRANCH  16  17
HETATM   17  C   UNL     1     -11.746  11.663  69.202  1.00  0.00    -0.326 A  
HETATM   18  C   UNL     1     -11.531  11.569  67.825  1.00  0.00    -0.357 A  
HETATM   19  C   UNL     1     -11.287  12.738  67.129  1.00  0.00    -0.314 A  
HETATM   20  C   UNL     1     -11.230  13.962  67.750  1.00  0.00    -0.293 A  
HETATM   21  C   UNL     1     -11.409  14.088  69.110  1.00  0.00    -0.323 A  
HETATM   22  O   UNL     1     -10.992  14.977  66.878  1.00  0.00    -0.314 OA 
HETATM   23  C   UNL     1     -11.678  12.922  69.836  1.00  0.00    -0.324 A  
HETATM   24  C   UNL     1     -10.975  14.257  65.626  1.00  0.00    -0.309 C  
HETATM   25  O   UNL     1     -11.090  12.829  65.786  1.00  0.00    -0.275 OA 
ENDBRANCH  16  17
ENDBRANCH  15  16
ENDBRANCH  14  15
ENDBRANCH   5   8
TORSDOF 4
ENDMDL
MODEL      169
REMARK 921   NORMALIZED FREE ENERGY PREDICTED BY IDOCK:   -4.85 KCAL/MOL
REMARK 922        TOTAL FREE ENERGY PREDICTED BY IDOCK:   -6.77 KCAL/MOL
REMARK 923 INTER-LIGAND FREE ENERGY PREDICTED BY IDOCK:   -5.92 KCAL/MOL
REMARK 924 INTRA-LIGAND FREE ENERGY PREDICTED BY IDOCK:   -0.84 KCAL/MOL
REMARK 927      BINDING AFFINITY PREDICTED BY RF-SCORE:    0.00 PKD
ROOT
HETATM    1  F   UNL     1      -9.559  18.663  66.503  1.00  0.00    -0.291 F  
HETATM    2  C   UNL     1      -9.014  17.688  67.242  1.00  0.00    -0.240 A  
HETATM    3  C   UNL     1      -7.770  17.176  66.894  1.00  0.00    -0.256 A  
HETATM    4  C   UNL     1      -7.209  16.141  67.651  1.00  0.00    -0.169 A  
HETATM    5  C   UNL     1      -7.902  15.598  68.744  1.00  0.00    -0.169 A  
HETATM    6  C   UNL     1      -9.697  17.205  68.348  1.00  0.00    -0.284 A  
HETATM    7  C   UNL     1      -9.141  16.168  69.099  1.00  0.00    -0.243 A  
ENDROOT
BRANCH   5   8
HETATM    8  C   UNL     1      -7.359  14.444  69.579  1.00  0.00    -0.011 C  
HETATM    9  C   UNL     1      -6.179  14.942  70.434  1.00  0.00    -0.127 C  
HETATM   10  C   UNL     1      -5.637  13.835  71.330  1.00  0.00    -0.226 C  
HETATM   11  N   UNL     1      -5.230  12.680  70.538  1.00  0.00    -0.113 NA 
HETATM   12  C   UNL     1      -6.355  12.123  69.786  1.00  0.00    -0.102 C  
HETATM   13  H   UNL     1      -4.780  11.970  71.116  1.00  0.00     0.000 HD 
HETATM   14  C   UNL     1      -6.962  13.151  68.811  1.00  0.00    -0.103 C  
BRANCH  14  15
HETATM   15  C   UNL     1      -8.159  12.525  68.063  1.00  0.00    -0.164 C  
BRANCH  15  16
HETATM   16  O   UNL     1      -8.418  13.279  66.873  1.00  0.00    -0.166 OA 
BRANCH  16  17
HETATM   17  C   UNL     1      -9.627  13.105  66.252  1.00  0.00    -0.234 A  
HETATM   18  C   UNL     1      -9.812  12.595  64.965  1.00  0.00    -0.090 A  
HETATM   19  C   UNL     1     -11.109  12.416  64.522  1.00  0.00    -0.316 A  
HETATM   20  C   UNL     1     -12.198  12.743  65.293  1.00  0.00    -0.483 A  
HETATM   21  C   UNL     1     -12.052  13.275  66.556  1.00  0.00    -0.435 A  
HETATM   22  O   UNL     1     -13.375  12.475  64.670  1.00  0.00    -0.804 OA 
HETATM   23  C   UNL     1     -10.748  13.446  67.037  1.00  0.00    -0.271 A  
HETATM   24  C   UNL     1     -12.901  11.877  63.443  1.00  0.00    -0.256 C  
HETATM   25  O   UNL     1     -11.465  11.902  63.313  1.00  0.00    -0.369 OA 
ENDBRANCH  16  17
ENDBRANCH  15  16
ENDBRANCH  14  15
ENDBRANCH   5   8
TORSDOF 4
ENDMDL
MODEL      170
REMARK 921   NORMALIZED FREE ENERGY PREDICTED BY IDOCK:   -4.84 KCAL/MOL
REMARK 922        TOTAL FREE ENERGY PREDICTED BY IDOCK:   -6.75 KCAL/MOL
REMARK 923 INTER-LIGAND FREE ENERGY PREDICTED BY IDOCK:   -6.46 KCAL/MOL
REMARK 924 INTRA-LIGAND FREE ENERGY PREDICTED BY IDOCK:   -0.28 KCAL/MOL
REMARK 927      BINDING AFFINITY PREDICTED BY RF-SCORE:    0.00 PKD
ROOT
HETATM    1  F   UNL     1      -6.283  17.359  68.659  1.00  0.00    -0.155 F  
HETATM    2  C   UNL     1      -7.224  16.688  67.982  1.00  0.00    -0.155 A  
HETATM    3  C   UNL     1      -7.836  15.586  68.565  1.00  0.00    -0.135 A  
HETATM    4  C   UNL     1      -8.804  14.870  67.850  1.00  0.00    -0.165 A  
HETATM    5  C   UNL     1      -9.143  15.240  66.539  1.00  0.00    -0.334 A  
HETATM    6  C   UNL     1      -7.578  17.106  66.708  1.00  0.00    -0.274 A  
HETATM    7  C   UNL     1      -8.538  16.388  65.992  1.00  0.00    -0.246 A  
ENDROOT
BRANCH   5   8
HETATM    8  C   UNL     1     -10.158  14.474  65.698  1.00  0.00    -0.384 C  
HETATM    9  C   UNL     1     -11.248  15.444  65.204  1.00  0.00    -0.354 C  
HETATM   10  C   UNL     1     -12.258  14.734  64.311  1.00  0.00    -0.379 C  
HETATM   11  N   UNL     1     -12.867  13.609  65.010  1.00  0.00    -0.733 NA 
HETATM   12  C   UNL     1     -11.865  12.620  65.410  1.00  0.00    -0.427 C  
HETATM   13  H   UNL     1     -13.611  13.184  64.457  1.00  0.00     0.000 HD 
HETATM   14  C   UNL     1     -10.806  13.221  66.354  1.00  0.00    -0.296 C  
BRANCH  14  15
HETATM   15  C   UNL     1      -9.760  12.149  66.724  1.00  0.00    -0.207 C  
BRANCH  15  16
HETATM   16  O   UNL     1     -10.352  10.850  66.602  1.00  0.00    -0.223 OA 
BRANCH  16  17
HETATM   17  C   UNL     1     -10.564  10.129  67.748  1.00  0.00    -0.256 A  
HETATM   18  C   UNL     1     -10.737   8.745  67.815  1.00  0.00    -0.193 A  
HETATM   19  C   UNL     1     -10.865   8.170  69.065  1.00  0.00     0.010 A  
HETATM   20  C   UNL     1     -10.849   8.916  70.219  1.00  0.00    -0.239 A  
HETATM   21  C   UNL     1     -10.708  10.286  70.188  1.00  0.00    -0.334 A  
HETATM   22  O   UNL     1     -10.978   8.151  71.334  1.00  0.00    -0.228 OA 
HETATM   23  C   UNL     1     -10.556  10.891  68.935  1.00  0.00    -0.241 A  
HETATM   24  C   UNL     1     -11.007   6.829  70.753  1.00  0.00    -0.262 C  
HETATM   25  O   UNL     1     -11.008   6.840  69.311  1.00  0.00    -0.253 OA 
ENDBRANCH  16  17
ENDBRANCH  15  16
ENDBRANCH  14  15
ENDBRANCH   5   8
TORSDOF 4
ENDMDL
MODEL      171
REMARK 921   NORMALIZED FREE ENERGY PREDICTED BY IDOCK:   -4.82 KCAL/MOL
REMARK 922        TOTAL FREE ENERGY PREDICTED BY IDOCK:   -6.73 KCAL/MOL
REMARK 923 INTER-LIGAND FREE ENERGY PREDICTED BY IDOCK:   -5.10 KCAL/MOL
REMARK 924 INTRA-LIGAND FREE ENERGY PREDICTED BY IDOCK:   -1.63 KCAL/MOL
REMARK 927      BINDING AFFINITY PREDICTED BY RF-SCORE:    0.00 PKD
ROOT
HETATM    1  F   UNL     1     -10.524   5.313  74.269  1.00  0.00    -0.236 F  
HETATM    2  C   UNL     1     -10.634   6.360  73.441  1.00  0.00    -0.276 A  
HETATM    3  C   UNL     1     -11.745   6.469  72.615  1.00  0.00    -0.126 A  
HETATM    4  C   UNL     1     -11.851   7.551  71.732  1.00  0.00    -0.327 A  
HETATM    5  C   UNL     1     -10.833   8.514  71.657  1.00  0.00    -0.356 A  
HETATM    6  C   UNL     1      -9.638   7.326  73.424  1.00  0.00    -0.272 A  
HETATM    7  C   UNL     1      -9.740   8.401  72.539  1.00  0.00    -0.359 A  
ENDROOT
BRANCH   5   8
HETATM    8  C   UNL     1     -10.874   9.690  70.688  1.00  0.00    -0.386 C  
HETATM    9  C   UNL     1     -12.317  10.219  70.588  1.00  0.00    -0.416 C  
HETATM   10  C   UNL     1     -12.400  11.434  69.670  1.00  0.00    -0.170 C  
HETATM   11  N   UNL     1     -11.888  11.116  68.342  1.00  0.00    -0.570 NA 
HETATM   12  C   UNL     1     -10.485  10.700  68.393  1.00  0.00    -0.188 C  
HETATM   13  H   UNL     1     -12.024  11.891  67.694  1.00  0.00     0.000 HD 
HETATM   14  C   UNL     1     -10.287   9.447  69.268  1.00  0.00    -0.217 C  
BRANCH  14  15
HETATM   15  C   UNL     1      -8.792   9.066  69.311  1.00  0.00    -0.139 C  
BRANCH  15  16
HETATM   16  O   UNL     1      -8.610   7.793  68.681  1.00  0.00    -0.128 OA 
BRANCH  16  17
HETATM   17  C   UNL     1      -8.436   6.696  69.483  1.00  0.00    -0.132 A  
HETATM   18  C   UNL     1      -9.426   5.768  69.814  1.00  0.00    -0.183 A  
HETATM   19  C   UNL     1      -9.057   4.676  70.577  1.00  0.00    -0.120 A  
HETATM   20  C   UNL     1      -7.771   4.497  71.027  1.00  0.00    -0.072 A  
HETATM   21  C   UNL     1      -6.777   5.408  70.743  1.00  0.00    -0.047 A  
HETATM   22  O   UNL     1      -7.626   3.354  71.747  1.00  0.00    -0.050 OA 
HETATM   23  C   UNL     1      -7.119   6.512  69.954  1.00  0.00    -0.068 A  
HETATM   24  C   UNL     1      -8.955   2.798  71.639  1.00  0.00    -0.084 C  
HETATM   25  O   UNL     1      -9.884   3.666  70.960  1.00  0.00    -0.182 OA 
ENDBRANCH  16  17
ENDBRANCH  15  16
ENDBRANCH  14  15
ENDBRANCH   5   8
TORSDOF 4
ENDMDL
MODEL      172
REMARK 921   NORMALIZED FREE ENERGY PREDICTED BY IDOCK:   -4.81 KCAL/MOL
REMARK 922        TOTAL FREE ENERGY PREDICTED BY IDOCK:   -6.71 KCAL/MOL
REMARK 923 INTER-LIGAND FREE ENERGY PREDICTED BY IDOCK:   -5.88 KCAL/MOL
REMARK 924 INTRA-LIGAND FREE ENERGY PREDICTED BY IDOCK:   -0.83 KCAL/MOL
REMARK 927      BINDING AFFINITY PREDICTED BY RF-SCORE:    0.00 PKD
ROOT
HETATM    1  F   UNL     1     -11.072   6.479  66.622  1.00  0.00    -0.405 F  
HETATM    2  C   UNL     1     -10.562   6.352  67.855  1.00  0.00    -0.258 A  
HETATM    3  C   UNL     1     -11.410   6.116  68.928  1.00  0.00    -0.202 A  
HETATM    4  C   UNL     1     -10.882   6.006  70.220  1.00  0.00    -0.398 A  
HETATM    5  C   UNL     1      -9.504   6.157  70.443  1.00  0.00    -0.179 A  
HETATM    6  C   UNL     1      -9.191   6.453  68.040  1.00  0.00    -0.110 A  
HETATM    7  C   UNL     1      -8.664   6.350  69.329  1.00  0.00    -0.125 A  
ENDROOT
BRANCH   5   8
HETATM    8  C   UNL     1      -8.877   6.087  71.831  1.00  0.00    -0.138 C  
HETATM    9  C   UNL     1      -8.395   4.650  72.103  1.00  0.00    -0.117 C  
HETATM   10  C   UNL     1      -7.709   4.543  73.461  1.00  0.00    -0.087 C  
HETATM   11  N   UNL     1      -8.600   4.985  74.528  1.00  0.00    -0.109 NA 
HETATM   12  C   UNL     1      -9.000   6.381  74.349  1.00  0.00    -0.159 C  
HETATM   13  H   UNL     1      -8.186   4.830  75.447  1.00  0.00     0.000 HD 
HETATM   14  C   UNL     1      -9.744   6.601  73.017  1.00  0.00    -0.176 C  
BRANCH  14  15
HETATM   15  C   UNL     1     -10.120   8.090  72.863  1.00  0.00    -0.306 C  
BRANCH  15  16
HETATM   16  O   UNL     1      -9.363   8.660  71.788  1.00  0.00    -0.226 OA 
BRANCH  16  17
HETATM   17  C   UNL     1     -10.021   9.460  70.892  1.00  0.00    -0.283 A  
HETATM   18  C   UNL     1      -9.467  10.003  69.730  1.00  0.00    -0.239 A  
HETATM   19  C   UNL     1     -10.297  10.728  68.897  1.00  0.00    -0.202 A  
HETATM   20  C   UNL     1     -11.623  10.942  69.189  1.00  0.00    -0.319 A  
HETATM   21  C   UNL     1     -12.195  10.444  70.339  1.00  0.00    -0.389 A  
HETATM   22  O   UNL     1     -12.256  11.667  68.230  1.00  0.00    -0.525 OA 
HETATM   23  C   UNL     1     -11.381   9.688  71.191  1.00  0.00    -0.456 A  
HETATM   24  C   UNL     1     -11.192  11.827  67.266  1.00  0.00    -0.305 C  
HETATM   25  O   UNL     1      -9.929  11.296  67.716  1.00  0.00    -0.172 OA 
ENDBRANCH  16  17
ENDBRANCH  15  16
ENDBRANCH  14  15
ENDBRANCH   5   8
TORSDOF 4
ENDMDL
MODEL      173
REMARK 921   NORMALIZED FREE ENERGY PREDICTED BY IDOCK:   -4.80 KCAL/MOL
REMARK 922        TOTAL FREE ENERGY PREDICTED BY IDOCK:   -6.71 KCAL/MOL
REMARK 923 INTER-LIGAND FREE ENERGY PREDICTED BY IDOCK:   -6.00 KCAL/MOL
REMARK 924 INTRA-LIGAND FREE ENERGY PREDICTED BY IDOCK:   -0.71 KCAL/MOL
REMARK 927      BINDING AFFINITY PREDICTED BY RF-SCORE:    0.00 PKD
ROOT
HETATM    1  F   UNL     1      -5.539  10.932  62.589  1.00  0.00    -0.141 F  
HETATM    2  C   UNL     1      -6.287  10.201  63.426  1.00  0.00    -0.140 A  
HETATM    3  C   UNL     1      -5.854   9.991  64.729  1.00  0.00    -0.111 A  
HETATM    4  C   UNL     1      -6.623   9.208  65.598  1.00  0.00    -0.068 A  
HETATM    5  C   UNL     1      -7.815   8.612  65.158  1.00  0.00    -0.110 A  
HETATM    6  C   UNL     1      -7.487   9.667  62.981  1.00  0.00    -0.112 A  
HETATM    7  C   UNL     1      -8.251   8.880  63.845  1.00  0.00    -0.171 A  
ENDROOT
BRANCH   5   8
HETATM    8  C   UNL     1      -8.672   7.717  66.047  1.00  0.00    -0.184 C  
HETATM    9  C   UNL     1      -8.816   6.332  65.390  1.00  0.00     0.002 C  
HETATM   10  C   UNL     1      -9.621   5.382  66.269  1.00  0.00    -0.160 C  
HETATM   11  N   UNL     1     -10.937   5.938  66.564  1.00  0.00    -0.725 NA 
HETATM   12  C   UNL     1     -10.834   7.212  67.276  1.00  0.00    -0.312 C  
HETATM   13  H   UNL     1     -11.518   5.272  67.073  1.00  0.00     0.000 HD 
HETATM   14  C   UNL     1     -10.068   8.269  66.457  1.00  0.00    -0.303 C  
BRANCH  14  15
HETATM   15  C   UNL     1      -9.963   9.584  67.259  1.00  0.00    -0.189 C  
BRANCH  15  16
HETATM   16  O   UNL     1     -11.268   9.970  67.706  1.00  0.00    -0.256 OA 
BRANCH  16  17
HETATM   17  C   UNL     1     -11.428  11.232  68.213  1.00  0.00    -0.308 A  
HETATM   18  C   UNL     1     -11.221  12.421  67.510  1.00  0.00    -0.348 A  
HETATM   19  C   UNL     1     -11.502  13.610  68.156  1.00  0.00    -0.313 A  
HETATM   20  C   UNL     1     -11.950  13.651  69.454  1.00  0.00    -0.342 A  
HETATM   21  C   UNL     1     -12.137  12.498  70.186  1.00  0.00    -0.368 A  
HETATM   22  O   UNL     1     -12.175  14.918  69.887  1.00  0.00    -0.310 OA 
HETATM   23  C   UNL     1     -11.880  11.279  69.548  1.00  0.00    -0.427 A  
HETATM   24  C   UNL     1     -11.884  15.669  68.688  1.00  0.00    -0.291 C  
HETATM   25  O   UNL     1     -11.388  14.851  67.609  1.00  0.00    -0.315 OA 
ENDBRANCH  16  17
ENDBRANCH  15  16
ENDBRANCH  14  15
ENDBRANCH   5   8
TORSDOF 4
ENDMDL
MODEL      174
REMARK 921   NORMALIZED FREE ENERGY PREDICTED BY IDOCK:   -4.80 KCAL/MOL
REMARK 922        TOTAL FREE ENERGY PREDICTED BY IDOCK:   -6.71 KCAL/MOL
REMARK 923 INTER-LIGAND FREE ENERGY PREDICTED BY IDOCK:   -5.83 KCAL/MOL
REMARK 924 INTRA-LIGAND FREE ENERGY PREDICTED BY IDOCK:   -0.87 KCAL/MOL
REMARK 927      BINDING AFFINITY PREDICTED BY RF-SCORE:    0.00 PKD
ROOT
HETATM    1  F   UNL     1      -8.336  18.046  67.801  1.00  0.00    -0.234 F  
HETATM    2  C   UNL     1      -9.191  17.106  68.227  1.00  0.00    -0.262 A  
HETATM    3  C   UNL     1     -10.530  17.181  67.867  1.00  0.00    -0.369 A  
HETATM    4  C   UNL     1     -11.428  16.213  68.330  1.00  0.00    -0.298 A  
HETATM    5  C   UNL     1     -10.993  15.180  69.176  1.00  0.00    -0.260 A  
HETATM    6  C   UNL     1      -8.724  16.068  69.019  1.00  0.00    -0.245 A  
HETATM    7  C   UNL     1      -9.621  15.105  69.486  1.00  0.00    -0.158 A  
ENDROOT
BRANCH   5   8
HETATM    8  C   UNL     1     -11.932  14.122  69.743  1.00  0.00    -0.396 C  
HETATM    9  C   UNL     1     -12.029  14.290  71.271  1.00  0.00    -0.315 C  
HETATM   10  C   UNL     1     -13.002  13.287  71.879  1.00  0.00    -0.311 C  
HETATM   11  N   UNL     1     -12.613  11.921  71.547  1.00  0.00    -0.251 NA 
HETATM   12  C   UNL     1     -12.606  11.701  70.100  1.00  0.00    -0.033 C  
HETATM   13  H   UNL     1     -13.202  11.238  72.025  1.00  0.00     0.000 HD 
HETATM   14  C   UNL     1     -11.619  12.642  69.380  1.00  0.00    -0.369 C  
BRANCH  14  15
HETATM   15  C   UNL     1     -11.668  12.391  67.858  1.00  0.00    -0.360 C  
BRANCH  15  16
HETATM   16  O   UNL     1     -11.802  10.985  67.615  1.00  0.00    -0.599 OA 
BRANCH  16  17
HETATM   17  C   UNL     1     -10.660  10.254  67.421  1.00  0.00    -0.270 A  
HETATM   18  C   UNL     1      -9.533  10.681  66.714  1.00  0.00    -0.189 A  
HETATM   19  C   UNL     1      -8.436   9.842  66.680  1.00  0.00    -0.125 A  
HETATM   20  C   UNL     1      -8.434   8.613  67.295  1.00  0.00    -0.115 A  
HETATM   21  C   UNL     1      -9.538   8.149  67.977  1.00  0.00    -0.174 A  
HETATM   22  O   UNL     1      -7.252   7.960  67.147  1.00  0.00    -0.086 OA 
HETATM   23  C   UNL     1     -10.656   8.989  68.044  1.00  0.00    -0.242 A  
HETATM   24  C   UNL     1      -6.485   8.950  66.428  1.00  0.00    -0.066 C  
HETATM   25  O   UNL     1      -7.253  10.116  66.066  1.00  0.00    -0.105 OA 
ENDBRANCH  16  17
ENDBRANCH  15  16
ENDBRANCH  14  15
ENDBRANCH   5   8
TORSDOF 4
ENDMDL
MODEL      175
REMARK 921   NORMALIZED FREE ENERGY PREDICTED BY IDOCK:   -4.79 KCAL/MOL
REMARK 922        TOTAL FREE ENERGY PREDICTED BY IDOCK:   -6.69 KCAL/MOL
REMARK 923 INTER-LIGAND FREE ENERGY PREDICTED BY IDOCK:   -6.00 KCAL/MOL
REMARK 924 INTRA-LIGAND FREE ENERGY PREDICTED BY IDOCK:   -0.69 KCAL/MOL
REMARK 927      BINDING AFFINITY PREDICTED BY RF-SCORE:    0.00 PKD
ROOT
HETATM    1  F   UNL     1     -11.523  14.511  70.934  1.00  0.00    -0.318 F  
HETATM    2  C   UNL     1     -11.440  14.126  69.654  1.00  0.00    -0.273 A  
HETATM    3  C   UNL     1     -12.016  12.926  69.259  1.00  0.00    -0.313 A  
HETATM    4  C   UNL     1     -11.910  12.510  67.926  1.00  0.00    -0.383 A  
HETATM    5  C   UNL     1     -11.205  13.283  66.990  1.00  0.00    -0.319 A  
HETATM    6  C   UNL     1     -10.783  14.934  68.739  1.00  0.00    -0.252 A  
HETATM    7  C   UNL     1     -10.671  14.517  67.411  1.00  0.00    -0.282 A  
ENDROOT
BRANCH   5   8
HETATM    8  C   UNL     1     -11.022  12.862  65.536  1.00  0.00    -0.301 C  
HETATM    9  C   UNL     1     -12.313  13.161  64.752  1.00  0.00    -0.477 C  
HETATM   10  C   UNL     1     -12.160  12.807  63.277  1.00  0.00    -0.439 C  
HETATM   11  N   UNL     1     -11.786  11.406  63.116  1.00  0.00    -0.867 NA 
HETATM   12  C   UNL     1     -10.511  11.112  63.771  1.00  0.00    -0.381 C  
HETATM   13  H   UNL     1     -11.772  11.134  62.133  1.00  0.00     0.000 HD 
HETATM   14  C   UNL     1     -10.562  11.398  65.285  1.00  0.00    -0.336 C  
BRANCH  14  15
HETATM   15  C   UNL     1      -9.190  11.098  65.925  1.00  0.00    -0.206 C  
BRANCH  15  16
HETATM   16  O   UNL     1      -8.336  10.491  64.948  1.00  0.00    -0.170 OA 
BRANCH  16  17
HETATM   17  C   UNL     1      -7.923   9.203  65.166  1.00  0.00    -0.117 A  
HETATM   18  C   UNL     1      -7.754   8.227  64.181  1.00  0.00    -0.138 A  
HETATM   19  C   UNL     1      -7.257   6.998  64.569  1.00  0.00    -0.073 A  
HETATM   20  C   UNL     1      -6.952   6.711  65.878  1.00  0.00    -0.061 A  
HETATM   21  C   UNL     1      -7.134   7.640  66.879  1.00  0.00    -0.084 A  
HETATM   22  O   UNL     1      -6.468   5.451  66.034  1.00  0.00    -0.041 OA 
HETATM   23  C   UNL     1      -7.617   8.901  66.509  1.00  0.00    -0.092 A  
HETATM   24  C   UNL     1      -6.436   5.002  64.662  1.00  0.00    -0.035 C  
HETATM   25  O   UNL     1      -7.003   5.952  63.737  1.00  0.00    -0.043 OA 
ENDBRANCH  16  17
ENDBRANCH  15  16
ENDBRANCH  14  15
ENDBRANCH   5   8
TORSDOF 4
ENDMDL
MODEL      176
REMARK 921   NORMALIZED FREE ENERGY PREDICTED BY IDOCK:   -4.78 KCAL/MOL
REMARK 922        TOTAL FREE ENERGY PREDICTED BY IDOCK:   -6.68 KCAL/MOL
REMARK 923 INTER-LIGAND FREE ENERGY PREDICTED BY IDOCK:   -4.69 KCAL/MOL
REMARK 924 INTRA-LIGAND FREE ENERGY PREDICTED BY IDOCK:   -1.99 KCAL/MOL
REMARK 927      BINDING AFFINITY PREDICTED BY RF-SCORE:    0.00 PKD
ROOT
HETATM    1  F   UNL     1      -8.048  11.490  66.623  1.00  0.00    -0.148 F  
HETATM    2  C   UNL     1      -8.894  10.878  67.462  1.00  0.00    -0.133 A  
HETATM    3  C   UNL     1     -10.052  10.295  66.966  1.00  0.00    -0.268 A  
HETATM    4  C   UNL     1     -10.950   9.676  67.844  1.00  0.00    -0.205 A  
HETATM    5  C   UNL     1     -10.702   9.661  69.226  1.00  0.00    -0.246 A  
HETATM    6  C   UNL     1      -8.599  10.832  68.817  1.00  0.00    -0.156 A  
HETATM    7  C   UNL     1      -9.497  10.220  69.694  1.00  0.00    -0.180 A  
ENDROOT
BRANCH   5   8
HETATM    8  C   UNL     1     -11.661   9.038  70.233  1.00  0.00    -0.008 C  
HETATM    9  C   UNL     1     -11.824   9.984  71.437  1.00  0.00    -0.447 C  
HETATM   10  C   UNL     1     -12.819   9.428  72.449  1.00  0.00    -0.319 C  
HETATM   11  N   UNL     1     -12.412   8.103  72.903  1.00  0.00    -0.653 NA 
HETATM   12  C   UNL     1     -12.341   7.154  71.791  1.00  0.00    -0.350 C  
HETATM   13  H   UNL     1     -13.019   7.761  73.648  1.00  0.00     0.000 HD 
HETATM   14  C   UNL     1     -11.328   7.597  70.718  1.00  0.00    -0.296 C  
BRANCH  14  15
HETATM   15  C   UNL     1     -11.310   6.580  69.557  1.00  0.00    -0.357 C  
BRANCH  15  16
HETATM   16  O   UNL     1     -10.023   5.953  69.499  1.00  0.00    -0.165 OA 
BRANCH  16  17
HETATM   17  C   UNL     1      -9.060   6.532  68.716  1.00  0.00    -0.126 A  
HETATM   18  C   UNL     1      -7.862   7.082  69.177  1.00  0.00    -0.114 A  
HETATM   19  C   UNL     1      -6.967   7.559  68.238  1.00  0.00    -0.068 A  
HETATM   20  C   UNL     1      -7.232   7.526  66.890  1.00  0.00    -0.085 A  
HETATM   21  C   UNL     1      -8.416   7.017  66.402  1.00  0.00    -0.130 A  
HETATM   22  O   UNL     1      -6.214   8.033  66.147  1.00  0.00    -0.044 OA 
HETATM   23  C   UNL     1      -9.332   6.508  67.331  1.00  0.00    -0.125 A  
HETATM   24  C   UNL     1      -5.247   8.325  67.179  1.00  0.00    -0.032 C  
HETATM   25  O   UNL     1      -5.747   8.093  68.512  1.00  0.00    -0.035 OA 
ENDBRANCH  16  17
ENDBRANCH  15  16
ENDBRANCH  14  15
ENDBRANCH   5   8
TORSDOF 4
ENDMDL
MODEL      177
REMARK 921   NORMALIZED FREE ENERGY PREDICTED BY IDOCK:   -4.77 KCAL/MOL
REMARK 922        TOTAL FREE ENERGY PREDICTED BY IDOCK:   -6.67 KCAL/MOL
REMARK 923 INTER-LIGAND FREE ENERGY PREDICTED BY IDOCK:   -5.78 KCAL/MOL
REMARK 924 INTRA-LIGAND FREE ENERGY PREDICTED BY IDOCK:   -0.88 KCAL/MOL
REMARK 927      BINDING AFFINITY PREDICTED BY RF-SCORE:    0.00 PKD
ROOT
HETATM    1  F   UNL     1      -5.171  13.670  69.889  1.00  0.00    -0.082 F  
HETATM    2  C   UNL     1      -6.217  13.599  69.055  1.00  0.00    -0.097 A  
HETATM    3  C   UNL     1      -6.276  14.443  67.954  1.00  0.00    -0.167 A  
HETATM    4  C   UNL     1      -7.380  14.387  67.094  1.00  0.00     0.091 A  
HETATM    5  C   UNL     1      -8.440  13.503  67.349  1.00  0.00    -0.203 A  
HETATM    6  C   UNL     1      -7.226  12.680  69.302  1.00  0.00     0.162 A  
HETATM    7  C   UNL     1      -8.330  12.628  68.449  1.00  0.00    -0.125 A  
ENDROOT
BRANCH   5   8
HETATM    8  C   UNL     1      -9.685  13.426  66.472  1.00  0.00    -0.284 C  
HETATM    9  C   UNL     1      -9.437  12.436  65.319  1.00  0.00     0.098 C  
HETATM   10  C   UNL     1     -10.676  12.283  64.444  1.00  0.00    -0.331 C  
HETATM   11  N   UNL     1     -11.100  13.575  63.916  1.00  0.00    -0.556 NA 
HETATM   12  C   UNL     1     -11.436  14.510  64.990  1.00  0.00    -0.382 C  
HETATM   13  H   UNL     1     -11.870  13.473  63.255  1.00  0.00     0.000 HD 
HETATM   14  C   UNL     1     -10.236  14.772  65.922  1.00  0.00    -0.331 C  
BRANCH  14  15
HETATM   15  C   UNL     1     -10.647  15.741  67.051  1.00  0.00    -0.316 C  
BRANCH  15  16
HETATM   16  O   UNL     1     -10.940  17.025  66.488  1.00  0.00    -0.030 OA 
BRANCH  16  17
HETATM   17  C   UNL     1     -10.062  18.048  66.729  1.00  0.00    -0.356 A  
HETATM   18  C   UNL     1      -8.700  18.039  66.417  1.00  0.00    -0.249 A  
HETATM   19  C   UNL     1      -7.974  19.189  66.661  1.00  0.00    -0.272 A  
HETATM   20  C   UNL     1      -8.543  20.311  67.213  1.00  0.00    -0.347 A  
HETATM   21  C   UNL     1      -9.877  20.346  67.559  1.00  0.00    -0.564 A  
HETATM   22  O   UNL     1      -7.655  21.329  67.355  1.00  0.00    -0.410 OA 
HETATM   23  C   UNL     1     -10.640  19.200  67.303  1.00  0.00    -0.573 A  
HETATM   24  C   UNL     1      -6.475  20.741  66.764  1.00  0.00    -0.275 C  
HETATM   25  O   UNL     1      -6.652  19.361  66.388  1.00  0.00    -0.185 OA 
ENDBRANCH  16  17
ENDBRANCH  15  16
ENDBRANCH  14  15
ENDBRANCH   5   8
TORSDOF 4
ENDMDL
MODEL      178
REMARK 921   NORMALIZED FREE ENERGY PREDICTED BY IDOCK:   -4.76 KCAL/MOL
REMARK 922        TOTAL FREE ENERGY PREDICTED BY IDOCK:   -6.65 KCAL/MOL
REMARK 923 INTER-LIGAND FREE ENERGY PREDICTED BY IDOCK:   -5.67 KCAL/MOL
REMARK 924 INTRA-LIGAND FREE ENERGY PREDICTED BY IDOCK:   -0.98 KCAL/MOL
REMARK 927      BINDING AFFINITY PREDICTED BY RF-SCORE:    0.00 PKD
ROOT
HETATM    1  F   UNL     1     -11.249   5.731  71.670  1.00  0.00    -0.312 F  
HETATM    2  C   UNL     1     -10.865   5.724  70.387  1.00  0.00    -0.290 A  
HETATM    3  C   UNL     1      -9.790   4.938  69.996  1.00  0.00    -0.304 A  
HETATM    4  C   UNL     1      -9.373   4.947  68.659  1.00  0.00    -0.182 A  
HETATM    5  C   UNL     1     -10.016   5.763  67.715  1.00  0.00    -0.166 A  
HETATM    6  C   UNL     1     -11.552   6.500  69.465  1.00  0.00    -0.298 A  
HETATM    7  C   UNL     1     -11.133   6.514  68.133  1.00  0.00    -0.332 A  
ENDROOT
BRANCH   5   8
HETATM    8  C   UNL     1      -9.581   5.844  66.256  1.00  0.00    -0.148 C  
HETATM    9  C   UNL     1      -9.496   4.423  65.668  1.00  0.00    -0.175 C  
HETATM   10  C   UNL     1      -9.117   4.456  64.192  1.00  0.00    -0.149 C  
HETATM   11  N   UNL     1      -7.853   5.158  63.997  1.00  0.00    -0.088 NA 
HETATM   12  C   UNL     1      -7.932   6.544  64.459  1.00  0.00    -0.110 C  
HETATM   13  H   UNL     1      -7.543   5.106  63.027  1.00  0.00     0.000 HD 
HETATM   14  C   UNL     1      -8.273   6.632  65.960  1.00  0.00    -0.128 C  
BRANCH  14  15
HETATM   15  C   UNL     1      -8.371   8.111  66.392  1.00  0.00    -0.115 C  
BRANCH  15  16
HETATM   16  O   UNL     1      -9.482   8.725  65.727  1.00  0.00    -0.229 OA 
BRANCH  16  17
HETATM   17  C   UNL     1     -10.115   9.763  66.357  1.00  0.00    -0.243 A  
HETATM   18  C   UNL     1     -10.594   9.745  67.669  1.00  0.00    -0.333 A  
HETATM   19  C   UNL     1     -11.142  10.910  68.173  1.00  0.00    -0.280 A  
HETATM   20  C   UNL     1     -11.245  12.055  67.421  1.00  0.00    -0.307 A  
HETATM   21  C   UNL     1     -10.808  12.100  66.114  1.00  0.00    -0.317 A  
HETATM   22  O   UNL     1     -11.801  13.083  68.113  1.00  0.00    -0.334 OA 
HETATM   23  C   UNL     1     -10.230  10.939  65.587  1.00  0.00    -0.323 A  
HETATM   24  C   UNL     1     -11.973  12.473  69.411  1.00  0.00    -0.256 C  
HETATM   25  O   UNL     1     -11.623  11.074  69.434  1.00  0.00    -0.256 OA 
ENDBRANCH  16  17
ENDBRANCH  15  16
ENDBRANCH  14  15
ENDBRANCH   5   8
TORSDOF 4
ENDMDL
MODEL      179
REMARK 921   NORMALIZED FREE ENERGY PREDICTED BY IDOCK:   -4.75 KCAL/MOL
REMARK 922        TOTAL FREE ENERGY PREDICTED BY IDOCK:   -6.64 KCAL/MOL
REMARK 923 INTER-LIGAND FREE ENERGY PREDICTED BY IDOCK:   -5.90 KCAL/MOL
REMARK 924 INTRA-LIGAND FREE ENERGY PREDICTED BY IDOCK:   -0.73 KCAL/MOL
REMARK 927      BINDING AFFINITY PREDICTED BY RF-SCORE:    0.00 PKD
ROOT
HETATM    1  F   UNL     1     -13.145  15.392  63.839  1.00  0.00     0.101 F  
HETATM    2  C   UNL     1     -12.272  14.707  64.589  1.00  0.00    -0.434 A  
HETATM    3  C   UNL     1     -10.961  15.150  64.696  1.00  0.00    -0.321 A  
HETATM    4  C   UNL     1     -10.041  14.423  65.461  1.00  0.00    -0.382 A  
HETATM    5  C   UNL     1     -10.426  13.236  66.102  1.00  0.00    -0.296 A  
HETATM    6  C   UNL     1     -12.692  13.565  65.255  1.00  0.00    -0.481 A  
HETATM    7  C   UNL     1     -11.774  12.835  66.013  1.00  0.00    -0.470 A  
ENDROOT
BRANCH   5   8
HETATM    8  C   UNL     1      -9.460  12.381  66.915  1.00  0.00    -0.219 C  
HETATM    9  C   UNL     1     -10.011  10.947  67.023  1.00  0.00    -0.227 C  
HETATM   10  C   UNL     1      -9.051  10.039  67.782  1.00  0.00    -0.131 C  
HETATM   11  N   UNL     1      -8.774  10.572  69.110  1.00  0.00    -0.212 NA 
HETATM   12  C   UNL     1      -8.159  11.898  69.039  1.00  0.00     0.172 C  
HETATM   13  H   UNL     1      -8.207   9.927  69.661  1.00  0.00     0.000 HD 
HETATM   14  C   UNL     1      -9.066  12.916  68.322  1.00  0.00    -0.180 C  
BRANCH  14  15
HETATM   15  C   UNL     1      -8.364  14.289  68.249  1.00  0.00    -0.165 C  
BRANCH  15  16
HETATM   16  O   UNL     1      -9.284  15.313  68.646  1.00  0.00    -0.184 OA 
BRANCH  16  17
HETATM   17  C   UNL     1      -8.983  16.609  68.323  1.00  0.00    -0.214 A  
HETATM   18  C   UNL     1      -7.806  17.039  67.705  1.00  0.00    -0.188 A  
HETATM   19  C   UNL     1      -7.698  18.378  67.383  1.00  0.00    -0.223 A  
HETATM   20  C   UNL     1      -8.692  19.283  67.670  1.00  0.00    -0.296 A  
HETATM   21  C   UNL     1      -9.854  18.899  68.304  1.00  0.00    -0.427 A  
HETATM   22  O   UNL     1      -8.386  20.540  67.256  1.00  0.00    -0.337 OA 
HETATM   23  C   UNL     1      -9.996  17.543  68.623  1.00  0.00    -0.347 A  
HETATM   24  C   UNL     1      -7.114  20.310  66.612  1.00  0.00    -0.255 C  
HETATM   25  O   UNL     1      -6.640  18.955  66.752  1.00  0.00    -0.188 OA 
ENDBRANCH  16  17
ENDBRANCH  15  16
ENDBRANCH  14  15
ENDBRANCH   5   8
TORSDOF 4
ENDMDL
MODEL      180
REMARK 921   NORMALIZED FREE ENERGY PREDICTED BY IDOCK:   -4.74 KCAL/MOL
REMARK 922        TOTAL FREE ENERGY PREDICTED BY IDOCK:   -6.63 KCAL/MOL
REMARK 923 INTER-LIGAND FREE ENERGY PREDICTED BY IDOCK:   -5.99 KCAL/MOL
REMARK 924 INTRA-LIGAND FREE ENERGY PREDICTED BY IDOCK:   -0.64 KCAL/MOL
REMARK 927      BINDING AFFINITY PREDICTED BY RF-SCORE:    0.00 PKD
ROOT
HETATM    1  F   UNL     1      -5.719  12.614  67.189  1.00  0.00    -0.137 F  
HETATM    2  C   UNL     1      -6.474  11.542  67.461  1.00  0.00    -0.079 A  
HETATM    3  C   UNL     1      -6.650  11.142  68.779  1.00  0.00    -0.059 A  
HETATM    4  C   UNL     1      -7.420  10.008  69.064  1.00  0.00    -0.087 A  
HETATM    5  C   UNL     1      -7.997   9.257  68.028  1.00  0.00    -0.100 A  
HETATM    6  C   UNL     1      -7.076  10.848  66.421  1.00  0.00    -0.133 A  
HETATM    7  C   UNL     1      -7.838   9.713  66.704  1.00  0.00    -0.105 A  
ENDROOT
BRANCH   5   8
HETATM    8  C   UNL     1      -8.811   7.991  68.275  1.00  0.00    -0.133 C  
HETATM    9  C   UNL     1      -8.521   6.971  67.158  1.00  0.00    -0.121 C  
HETATM   10  C   UNL     1      -9.272   5.665  67.392  1.00  0.00    -0.109 C  
HETATM   11  N   UNL     1     -10.707   5.904  67.495  1.00  0.00    -0.273 NA 
HETATM   12  C   UNL     1     -11.024   6.796  68.610  1.00  0.00    -0.199 C  
HETATM   13  H   UNL     1     -11.227   5.029  67.558  1.00  0.00     0.000 HD 
HETATM   14  C   UNL     1     -10.345   8.172  68.458  1.00  0.00    -0.230 C  
BRANCH  14  15
HETATM   15  C   UNL     1     -10.687   9.065  69.670  1.00  0.00    -0.219 C  
BRANCH  15  16
HETATM   16  O   UNL     1     -10.904  10.408  69.220  1.00  0.00    -0.210 OA 
BRANCH  16  17
HETATM   17  C   UNL     1     -11.611  11.253  70.035  1.00  0.00    -0.321 A  
HETATM   18  C   UNL     1     -11.689  12.640  69.892  1.00  0.00    -0.320 A  
HETATM   19  C   UNL     1     -12.511  13.333  70.761  1.00  0.00    -0.324 A  
HETATM   20  C   UNL     1     -13.222  12.705  71.755  1.00  0.00    -0.359 A  
HETATM   21  C   UNL     1     -13.146  11.341  71.942  1.00  0.00    -0.510 A  
HETATM   22  O   UNL     1     -13.973  13.571  72.484  1.00  0.00    -0.701 OA 
HETATM   23  C   UNL     1     -12.336  10.613  71.062  1.00  0.00    -0.507 A  
HETATM   24  C   UNL     1     -13.708  14.809  71.789  1.00  0.00    -0.421 C  
HETATM   25  O   UNL     1     -12.726  14.676  70.741  1.00  0.00    -0.327 OA 
ENDBRANCH  16  17
ENDBRANCH  15  16
ENDBRANCH  14  15
ENDBRANCH   5   8
TORSDOF 4
ENDMDL
MODEL      181
REMARK 921   NORMALIZED FREE ENERGY PREDICTED BY IDOCK:   -4.71 KCAL/MOL
REMARK 922        TOTAL FREE ENERGY PREDICTED BY IDOCK:   -6.59 KCAL/MOL
REMARK 923 INTER-LIGAND FREE ENERGY PREDICTED BY IDOCK:   -5.88 KCAL/MOL
REMARK 924 INTRA-LIGAND FREE ENERGY PREDICTED BY IDOCK:   -0.71 KCAL/MOL
REMARK 927      BINDING AFFINITY PREDICTED BY RF-SCORE:    0.00 PKD
ROOT
HETATM    1  F   UNL     1     -10.427   8.564  72.946  1.00  0.00    -0.367 F  
HETATM    2  C   UNL     1     -10.128   8.764  71.655  1.00  0.00    -0.319 A  
HETATM    3  C   UNL     1     -11.146   8.807  70.713  1.00  0.00    -0.306 A  
HETATM    4  C   UNL     1     -10.834   8.993  69.361  1.00  0.00    -0.152 A  
HETATM    5  C   UNL     1      -9.498   9.111  68.946  1.00  0.00    -0.151 A  
HETATM    6  C   UNL     1      -8.803   8.930  71.279  1.00  0.00    -0.298 A  
HETATM    7  C   UNL     1      -8.490   9.109  69.930  1.00  0.00    -0.151 A  
ENDROOT
BRANCH   5   8
HETATM    8  C   UNL     1      -9.096   9.275  67.484  1.00  0.00    -0.133 C  
HETATM    9  C   UNL     1      -7.627   8.847  67.307  1.00  0.00    -0.089 C  
HETATM   10  C   UNL     1      -7.194   8.940  65.849  1.00  0.00    -0.089 C  
HETATM   11  N   UNL     1      -7.389  10.291  65.336  1.00  0.00    -0.144 NA 
HETATM   12  C   UNL     1      -8.795  10.693  65.402  1.00  0.00    -0.189 C  
HETATM   13  H   UNL     1      -7.017  10.390  64.391  1.00  0.00     0.000 HD 
HETATM   14  C   UNL     1      -9.333  10.673  66.846  1.00  0.00    -0.180 C  
BRANCH  14  15
HETATM   15  C   UNL     1     -10.823  11.077  66.859  1.00  0.00    -0.269 C  
BRANCH  15  16
HETATM   16  O   UNL     1     -10.957  12.405  66.339  1.00  0.00    -0.257 OA 
BRANCH  16  17
HETATM   17  C   UNL     1     -11.017  13.443  67.231  1.00  0.00    -0.272 A  
HETATM   18  C   UNL     1     -11.795  13.471  68.391  1.00  0.00    -0.408 A  
HETATM   19  C   UNL     1     -11.677  14.570  69.220  1.00  0.00    -0.310 A  
HETATM   20  C   UNL     1     -10.847  15.625  68.926  1.00  0.00    -0.252 A  
HETATM   21  C   UNL     1     -10.087  15.642  67.776  1.00  0.00    -0.226 A  
HETATM   22  O   UNL     1     -10.875  16.591  69.880  1.00  0.00    -0.344 OA 
HETATM   23  C   UNL     1     -10.172  14.531  66.929  1.00  0.00    -0.264 A  
HETATM   24  C   UNL     1     -11.767  15.992  70.844  1.00  0.00    -0.402 C  
HETATM   25  O   UNL     1     -12.334  14.743  70.399  1.00  0.00    -0.306 OA 
ENDBRANCH  16  17
ENDBRANCH  15  16
ENDBRANCH  14  15
ENDBRANCH   5   8
TORSDOF 4
ENDMDL
MODEL      182
REMARK 921   NORMALIZED FREE ENERGY PREDICTED BY IDOCK:   -4.70 KCAL/MOL
REMARK 922        TOTAL FREE ENERGY PREDICTED BY IDOCK:   -6.58 KCAL/MOL
REMARK 923 INTER-LIGAND FREE ENERGY PREDICTED BY IDOCK:   -5.93 KCAL/MOL
REMARK 924 INTRA-LIGAND FREE ENERGY PREDICTED BY IDOCK:   -0.65 KCAL/MOL
REMARK 927      BINDING AFFINITY PREDICTED BY RF-SCORE:    0.00 PKD
ROOT
HETATM    1  F   UNL     1     -11.060  20.342  65.318  1.00  0.00    -0.417 F  
HETATM    2  C   UNL     1     -10.280  19.646  66.156  1.00  0.00    -0.508 A  
HETATM    3  C   UNL     1      -8.906  19.624  65.958  1.00  0.00    -0.276 A  
HETATM    4  C   UNL     1      -8.091  18.879  66.818  1.00  0.00    -0.278 A  
HETATM    5  C   UNL     1      -8.653  18.132  67.866  1.00  0.00    -0.259 A  
HETATM    6  C   UNL     1     -10.857  18.959  67.214  1.00  0.00    -0.448 A  
HETATM    7  C   UNL     1     -10.045  18.210  68.069  1.00  0.00    -0.376 A  
ENDROOT
BRANCH   5   8
HETATM    8  C   UNL     1      -7.821  17.271  68.809  1.00  0.00    -0.254 C  
HETATM    9  C   UNL     1      -6.523  18.015  69.170  1.00  0.00    -0.249 C  
HETATM   10  C   UNL     1      -5.681  17.215  70.157  1.00  0.00    -0.221 C  
HETATM   11  N   UNL     1      -5.371  15.894  69.623  1.00  0.00    -0.112 NA 
HETATM   12  C   UNL     1      -6.586  15.123  69.359  1.00  0.00    -0.151 C  
HETATM   13  H   UNL     1      -4.731  15.385  70.233  1.00  0.00     0.000 HD 
HETATM   14  C   UNL     1      -7.502  15.824  68.335  1.00  0.00    -0.121 C  
BRANCH  14  15
HETATM   15  C   UNL     1      -8.779  14.987  68.112  1.00  0.00    -0.165 C  
BRANCH  15  16
HETATM   16  O   UNL     1      -8.465  13.597  68.259  1.00  0.00    -0.161 OA 
BRANCH  16  17
HETATM   17  C   UNL     1      -8.738  12.761  67.209  1.00  0.00    -0.200 A  
HETATM   18  C   UNL     1      -8.016  11.611  66.879  1.00  0.00    -0.161 A  
HETATM   19  C   UNL     1      -8.476  10.840  65.829  1.00  0.00    -0.174 A  
HETATM   20  C   UNL     1      -9.590  11.182  65.102  1.00  0.00    -0.234 A  
HETATM   21  C   UNL     1     -10.309  12.323  65.382  1.00  0.00    -0.298 A  
HETATM   22  O   UNL     1      -9.871  10.280  64.125  1.00  0.00    -0.317 OA 
HETATM   23  C   UNL     1      -9.877  13.112  66.455  1.00  0.00    -0.279 A  
HETATM   24  C   UNL     1      -8.844   9.293  64.366  1.00  0.00    -0.159 C  
HETATM   25  O   UNL     1      -7.914   9.678  65.399  1.00  0.00    -0.113 OA 
ENDBRANCH  16  17
ENDBRANCH  15  16
ENDBRANCH  14  15
ENDBRANCH   5   8
TORSDOF 4
ENDMDL
MODEL      183
REMARK 921   NORMALIZED FREE ENERGY PREDICTED BY IDOCK:   -4.69 KCAL/MOL
REMARK 922        TOTAL FREE ENERGY PREDICTED BY IDOCK:   -6.57 KCAL/MOL
REMARK 923 INTER-LIGAND FREE ENERGY PREDICTED BY IDOCK:   -5.21 KCAL/MOL
REMARK 924 INTRA-LIGAND FREE ENERGY PREDICTED BY IDOCK:   -1.35 KCAL/MOL
REMARK 927      BINDING AFFINITY PREDICTED BY RF-SCORE:    0.00 PKD
ROOT
HETATM    1  F   UNL     1      -9.500   3.725  66.939  1.00  0.00    -0.169 F  
HETATM    2  C   UNL     1      -9.906   4.598  67.871  1.00  0.00    -0.119 A  
HETATM    3  C   UNL     1      -9.636   4.349  69.210  1.00  0.00    -0.261 A  
HETATM    4  C   UNL     1     -10.079   5.248  70.187  1.00  0.00    -0.333 A  
HETATM    5  C   UNL     1     -10.816   6.388  69.828  1.00  0.00    -0.373 A  
HETATM    6  C   UNL     1     -10.587   5.743  67.484  1.00  0.00    -0.327 A  
HETATM    7  C   UNL     1     -11.035   6.637  68.458  1.00  0.00    -0.314 A  
ENDROOT
BRANCH   5   8
HETATM    8  C   UNL     1     -11.358   7.380  70.850  1.00  0.00    -0.300 C  
HETATM    9  C   UNL     1     -12.879   7.184  70.996  1.00  0.00    -0.268 C  
HETATM   10  C   UNL     1     -13.460   8.119  72.050  1.00  0.00    -0.278 C  
HETATM   11  N   UNL     1     -13.162   9.510  71.730  1.00  0.00    -0.394 NA 
HETATM   12  C   UNL     1     -11.719   9.751  71.679  1.00  0.00    -0.318 C  
HETATM   13  H   UNL     1     -13.624  10.149  72.377  1.00  0.00     0.000 HD 
HETATM   14  C   UNL     1     -11.027   8.881  70.611  1.00  0.00    -0.287 C  
BRANCH  14  15
HETATM   15  C   UNL     1      -9.507   9.152  70.615  1.00  0.00    -0.261 C  
BRANCH  15  16
HETATM   16  O   UNL     1      -9.025   9.120  71.963  1.00  0.00    -0.337 OA 
BRANCH  16  17
HETATM   17  C   UNL     1      -8.399   7.981  72.396  1.00  0.00    -0.153 A  
HETATM   18  C   UNL     1      -7.411   7.282  71.697  1.00  0.00    -0.085 A  
HETATM   19  C   UNL     1      -6.832   6.192  72.316  1.00  0.00    -0.073 A  
HETATM   20  C   UNL     1      -7.211   5.773  73.569  1.00  0.00    -0.086 A  
HETATM   21  C   UNL     1      -8.201   6.421  74.275  1.00  0.00    -0.129 A  
HETATM   22  O   UNL     1      -6.505   4.692  73.992  1.00  0.00    -0.053 OA 
HETATM   23  C   UNL     1      -8.791   7.542  73.678  1.00  0.00    -0.271 A  
HETATM   24  C   UNL     1      -5.588   4.520  72.889  1.00  0.00    -0.008 C  
HETATM   25  O   UNL     1      -5.838   5.424  71.793  1.00  0.00    -0.019 OA 
ENDBRANCH  16  17
ENDBRANCH  15  16
ENDBRANCH  14  15
ENDBRANCH   5   8
TORSDOF 4
ENDMDL
MODEL      184
REMARK 921   NORMALIZED FREE ENERGY PREDICTED BY IDOCK:   -4.66 KCAL/MOL
REMARK 922        TOTAL FREE ENERGY PREDICTED BY IDOCK:   -6.53 KCAL/MOL
REMARK 923 INTER-LIGAND FREE ENERGY PREDICTED BY IDOCK:   -5.10 KCAL/MOL
REMARK 924 INTRA-LIGAND FREE ENERGY PREDICTED BY IDOCK:   -1.43 KCAL/MOL
REMARK 927      BINDING AFFINITY PREDICTED BY RF-SCORE:    0.00 PKD
ROOT
HETATM    1  F   UNL     1     -10.622   9.484  65.959  1.00  0.00    -0.254 F  
HETATM    2  C   UNL     1     -10.056   8.615  66.807  1.00  0.00    -0.296 A  
HETATM    3  C   UNL     1     -10.821   7.597  67.360  1.00  0.00    -0.240 A  
HETATM    4  C   UNL     1     -10.238   6.702  68.264  1.00  0.00    -0.190 A  
HETATM    5  C   UNL     1      -8.891   6.839  68.637  1.00  0.00    -0.123 A  
HETATM    6  C   UNL     1      -8.710   8.742  67.118  1.00  0.00    -0.127 A  
HETATM    7  C   UNL     1      -8.129   7.854  68.025  1.00  0.00    -0.126 A  
ENDROOT
BRANCH   5   8
HETATM    8  C   UNL     1      -8.213   5.920  69.647  1.00  0.00    -0.110 C  
HETATM    9  C   UNL     1      -8.861   4.524  69.584  1.00  0.00    -0.125 C  
HETATM   10  C   UNL     1      -8.178   3.552  70.539  1.00  0.00    -0.053 C  
HETATM   11  N   UNL     1      -8.210   4.060  71.906  1.00  0.00    -0.089 NA 
HETATM   12  C   UNL     1      -7.517   5.344  72.018  1.00  0.00    -0.098 C  
HETATM   13  H   UNL     1      -7.840   3.377  72.567  1.00  0.00     0.000 HD 
HETATM   14  C   UNL     1      -8.152   6.422  71.118  1.00  0.00    -0.117 C  
BRANCH  14  15
HETATM   15  C   UNL     1      -7.371   7.747  71.251  1.00  0.00    -0.066 C  
BRANCH  15  16
HETATM   16  O   UNL     1      -8.097   8.640  72.104  1.00  0.00    -0.280 OA 
BRANCH  16  17
HETATM   17  C   UNL     1      -9.435   8.812  71.865  1.00  0.00    -0.292 A  
HETATM   18  C   UNL     1     -10.471   8.284  72.638  1.00  0.00    -0.373 A  
HETATM   19  C   UNL     1     -11.767   8.621  72.296  1.00  0.00    -0.358 A  
HETATM   20  C   UNL     1     -12.056   9.427  71.222  1.00  0.00    -0.345 A  
HETATM   21  C   UNL     1     -11.059   9.941  70.421  1.00  0.00    -0.382 A  
HETATM   22  O   UNL     1     -13.389   9.639  71.073  1.00  0.00    -0.325 OA 
HETATM   23  C   UNL     1      -9.736   9.633  70.758  1.00  0.00    -0.192 A  
HETATM   24  C   UNL     1     -13.904   8.929  72.221  1.00  0.00    -0.474 C  
HETATM   25  O   UNL     1     -12.887   8.222  72.959  1.00  0.00    -0.066 OA 
ENDBRANCH  16  17
ENDBRANCH  15  16
ENDBRANCH  14  15
ENDBRANCH   5   8
TORSDOF 4
ENDMDL
MODEL      185
REMARK 921   NORMALIZED FREE ENERGY PREDICTED BY IDOCK:   -4.66 KCAL/MOL
REMARK 922        TOTAL FREE ENERGY PREDICTED BY IDOCK:   -6.53 KCAL/MOL
REMARK 923 INTER-LIGAND FREE ENERGY PREDICTED BY IDOCK:   -5.83 KCAL/MOL
REMARK 924 INTRA-LIGAND FREE ENERGY PREDICTED BY IDOCK:   -0.70 KCAL/MOL
REMARK 927      BINDING AFFINITY PREDICTED BY RF-SCORE:    0.00 PKD
ROOT
HETATM    1  F   UNL     1      -8.414  19.005  68.743  1.00  0.00    -0.362 F  
HETATM    2  C   UNL     1      -8.880  17.949  68.064  1.00  0.00    -0.268 A  
HETATM    3  C   UNL     1      -8.095  17.365  67.079  1.00  0.00    -0.240 A  
HETATM    4  C   UNL     1      -8.589  16.275  66.352  1.00  0.00    -0.361 A  
HETATM    5  C   UNL     1      -9.881  15.782  66.594  1.00  0.00    -0.266 A  
HETATM    6  C   UNL     1     -10.140  17.449  68.359  1.00  0.00    -0.347 A  
HETATM    7  C   UNL     1     -10.636  16.366  67.630  1.00  0.00    -0.313 A  
ENDROOT
BRANCH   5   8
HETATM    8  C   UNL     1     -10.488  14.625  65.808  1.00  0.00    -0.338 C  
HETATM    9  C   UNL     1     -11.533  15.172  64.817  1.00  0.00    -0.383 C  
HETATM   10  C   UNL     1     -12.129  14.056  63.967  1.00  0.00    -0.376 C  
HETATM   11  N   UNL     1     -12.725  13.025  64.809  1.00  0.00    -0.707 NA 
HETATM   12  C   UNL     1     -11.733  12.417  65.697  1.00  0.00    -0.414 C  
HETATM   13  H   UNL     1     -13.208  12.321  64.252  1.00  0.00     0.000 HD 
HETATM   14  C   UNL     1     -11.089  13.455  66.637  1.00  0.00    -0.310 C  
BRANCH  14  15
HETATM   15  C   UNL     1     -10.034  12.771  67.533  1.00  0.00    -0.210 C  
BRANCH  15  16
HETATM   16  O   UNL     1      -9.735  11.473  67.005  1.00  0.00    -0.182 OA 
BRANCH  16  17
HETATM   17  C   UNL     1      -8.808  10.708  67.663  1.00  0.00    -0.131 A  
HETATM   18  C   UNL     1      -7.826   9.922  67.055  1.00  0.00    -0.102 A  
HETATM   19  C   UNL     1      -6.923   9.272  67.874  1.00  0.00    -0.077 A  
HETATM   20  C   UNL     1      -6.980   9.360  69.244  1.00  0.00    -0.053 A  
HETATM   21  C   UNL     1      -7.953  10.103  69.877  1.00  0.00    -0.149 A  
HETATM   22  O   UNL     1      -5.992   8.654  69.852  1.00  0.00    -0.031 OA 
HETATM   23  C   UNL     1      -8.868  10.789  69.070  1.00  0.00    -0.135 A  
HETATM   24  C   UNL     1      -5.262   8.167  68.704  1.00  0.00    -0.031 C  
HETATM   25  O   UNL     1      -5.889   8.496  67.448  1.00  0.00    -0.042 OA 
ENDBRANCH  16  17
ENDBRANCH  15  16
ENDBRANCH  14  15
ENDBRANCH   5   8
TORSDOF 4
ENDMDL
MODEL      186
REMARK 921   NORMALIZED FREE ENERGY PREDICTED BY IDOCK:   -4.65 KCAL/MOL
REMARK 922        TOTAL FREE ENERGY PREDICTED BY IDOCK:   -6.51 KCAL/MOL
REMARK 923 INTER-LIGAND FREE ENERGY PREDICTED BY IDOCK:   -6.16 KCAL/MOL
REMARK 924 INTRA-LIGAND FREE ENERGY PREDICTED BY IDOCK:   -0.35 KCAL/MOL
REMARK 927      BINDING AFFINITY PREDICTED BY RF-SCORE:    0.00 PKD
ROOT
HETATM    1  F   UNL     1      -9.776   8.583  70.632  1.00  0.00    -0.164 F  
HETATM    2  C   UNL     1      -9.979   9.063  69.398  1.00  0.00    -0.191 A  
HETATM    3  C   UNL     1     -10.428   8.214  68.395  1.00  0.00    -0.205 A  
HETATM    4  C   UNL     1     -10.618   8.707  67.099  1.00  0.00    -0.304 A  
HETATM    5  C   UNL     1     -10.337  10.049  66.798  1.00  0.00    -0.283 A  
HETATM    6  C   UNL     1      -9.744  10.405  69.139  1.00  0.00    -0.234 A  
HETATM    7  C   UNL     1      -9.927  10.898  67.845  1.00  0.00    -0.195 A  
ENDROOT
BRANCH   5   8
HETATM    8  C   UNL     1     -10.487  10.633  65.397  1.00  0.00    -0.254 C  
HETATM    9  C   UNL     1      -9.498   9.937  64.445  1.00  0.00    -0.304 C  
HETATM   10  C   UNL     1      -9.649  10.450  63.017  1.00  0.00    -0.302 C  
HETATM   11  N   UNL     1      -9.466  11.896  62.963  1.00  0.00    -0.609 NA 
HETATM   12  C   UNL     1     -10.455  12.593  63.786  1.00  0.00    -0.379 C  
HETATM   13  H   UNL     1      -9.472  12.238  62.002  1.00  0.00     0.000 HD 
HETATM   14  C   UNL     1     -10.367  12.179  65.268  1.00  0.00    -0.310 C  
BRANCH  14  15
HETATM   15  C   UNL     1     -11.446  12.919  66.087  1.00  0.00    -0.348 C  
BRANCH  15  16
HETATM   16  O   UNL     1     -11.157  14.322  66.091  1.00  0.00    -0.314 OA 
BRANCH  16  17
HETATM   17  C   UNL     1      -9.949  14.729  66.593  1.00  0.00    -0.264 A  
HETATM   18  C   UNL     1      -9.307  14.179  67.705  1.00  0.00    -0.200 A  
HETATM   19  C   UNL     1      -8.053  14.661  68.031  1.00  0.00    -0.135 A  
HETATM   20  C   UNL     1      -7.446  15.664  67.314  1.00  0.00    -0.222 A  
HETATM   21  C   UNL     1      -8.062  16.248  66.229  1.00  0.00    -0.267 A  
HETATM   22  O   UNL     1      -6.215  15.976  67.797  1.00  0.00    -0.119 OA 
HETATM   23  C   UNL     1      -9.325  15.763  65.866  1.00  0.00    -0.356 A  
HETATM   24  C   UNL     1      -6.088  15.005  68.859  1.00  0.00    -0.089 C  
HETATM   25  O   UNL     1      -7.279  14.217  69.058  1.00  0.00    -0.116 OA 
ENDBRANCH  16  17
ENDBRANCH  15  16
ENDBRANCH  14  15
ENDBRANCH   5   8
TORSDOF 4
ENDMDL
MODEL      187
REMARK 921   NORMALIZED FREE ENERGY PREDICTED BY IDOCK:   -4.64 KCAL/MOL
REMARK 922        TOTAL FREE ENERGY PREDICTED BY IDOCK:   -6.51 KCAL/MOL
REMARK 923 INTER-LIGAND FREE ENERGY PREDICTED BY IDOCK:   -5.16 KCAL/MOL
REMARK 924 INTRA-LIGAND FREE ENERGY PREDICTED BY IDOCK:   -1.35 KCAL/MOL
REMARK 927      BINDING AFFINITY PREDICTED BY RF-SCORE:    0.00 PKD
ROOT
HETATM    1  F   UNL     1      -5.778  13.137  67.483  1.00  0.00    -0.125 F  
HETATM    2  C   UNL     1      -6.369  11.942  67.620  1.00  0.00    -0.086 A  
HETATM    3  C   UNL     1      -7.194  11.706  68.712  1.00  0.00    -0.116 A  
HETATM    4  C   UNL     1      -7.794  10.451  68.870  1.00  0.00    -0.115 A  
HETATM    5  C   UNL     1      -7.550   9.421  67.948  1.00  0.00    -0.087 A  
HETATM    6  C   UNL     1      -6.152  10.959  66.667  1.00  0.00    -0.101 A  
HETATM    7  C   UNL     1      -6.745   9.705  66.827  1.00  0.00    -0.075 A  
ENDROOT
BRANCH   5   8
HETATM    8  C   UNL     1      -8.143   8.024  68.090  1.00  0.00    -0.129 C  
HETATM    9  C   UNL     1      -7.020   7.023  68.423  1.00  0.00    -0.076 C  
HETATM   10  C   UNL     1      -7.573   5.618  68.629  1.00  0.00    -0.088 C  
HETATM   11  N   UNL     1      -8.310   5.173  67.452  1.00  0.00    -0.107 NA 
HETATM   12  C   UNL     1      -9.444   6.051  67.165  1.00  0.00    -0.118 C  
HETATM   13  H   UNL     1      -8.604   4.200  67.542  1.00  0.00     0.000 HD 
HETATM   14  C   UNL     1      -8.996   7.502  66.899  1.00  0.00    -0.152 C  
BRANCH  14  15
HETATM   15  C   UNL     1     -10.228   8.392  66.629  1.00  0.00    -0.265 C  
BRANCH  15  16
HETATM   16  O   UNL     1      -9.943   9.273  65.535  1.00  0.00    -0.228 OA 
BRANCH  16  17
HETATM   17  C   UNL     1     -10.481  10.533  65.568  1.00  0.00    -0.150 A  
HETATM   18  C   UNL     1     -10.736  11.335  64.453  1.00  0.00    -0.407 A  
HETATM   19  C   UNL     1     -11.353  12.554  64.662  1.00  0.00    -0.318 A  
HETATM   20  C   UNL     1     -11.695  12.996  65.917  1.00  0.00    -0.394 A  
HETATM   21  C   UNL     1     -11.432  12.243  67.041  1.00  0.00    -0.419 A  
HETATM   22  O   UNL     1     -12.301  14.211  65.893  1.00  0.00    -0.448 OA 
HETATM   23  C   UNL     1     -10.826  10.995  66.855  1.00  0.00    -0.324 A  
HETATM   24  C   UNL     1     -12.364  14.453  64.470  1.00  0.00    -0.418 C  
HETATM   25  O   UNL     1     -11.701  13.438  63.689  1.00  0.00    -0.411 OA 
ENDBRANCH  16  17
ENDBRANCH  15  16
ENDBRANCH  14  15
ENDBRANCH   5   8
TORSDOF 4
ENDMDL
MODEL      188
REMARK 921   NORMALIZED FREE ENERGY PREDICTED BY IDOCK:   -4.62 KCAL/MOL
REMARK 922        TOTAL FREE ENERGY PREDICTED BY IDOCK:   -6.48 KCAL/MOL
REMARK 923 INTER-LIGAND FREE ENERGY PREDICTED BY IDOCK:   -6.89 KCAL/MOL
REMARK 924 INTRA-LIGAND FREE ENERGY PREDICTED BY IDOCK:    0.41 KCAL/MOL
REMARK 927      BINDING AFFINITY PREDICTED BY RF-SCORE:    0.00 PKD
ROOT
HETATM    1  F   UNL     1      -6.460  20.338  69.330  1.00  0.00    -0.335 F  
HETATM    2  C   UNL     1      -7.010  19.158  69.013  1.00  0.00    -0.335 A  
HETATM    3  C   UNL     1      -6.430  17.984  69.474  1.00  0.00    -0.185 A  
HETATM    4  C   UNL     1      -6.990  16.749  69.125  1.00  0.00    -0.231 A  
HETATM    5  C   UNL     1      -8.118  16.686  68.292  1.00  0.00    -0.198 A  
HETATM    6  C   UNL     1      -8.156  19.126  68.232  1.00  0.00    -0.367 A  
HETATM    7  C   UNL     1      -8.710  17.895  67.878  1.00  0.00    -0.252 A  
ENDROOT
BRANCH   5   8
HETATM    8  C   UNL     1      -8.746  15.370  67.846  1.00  0.00    -0.160 C  
HETATM    9  C   UNL     1      -7.679  14.504  67.151  1.00  0.00    -0.093 C  
HETATM   10  C   UNL     1      -8.247  13.152  66.735  1.00  0.00     0.145 C  
HETATM   11  N   UNL     1      -9.403  13.322  65.862  1.00  0.00    -0.481 NA 
HETATM   12  C   UNL     1     -10.476  14.061  66.530  1.00  0.00    -0.281 C  
HETATM   13  H   UNL     1      -9.735  12.427  65.503  1.00  0.00     0.000 HD 
HETATM   14  C   UNL     1     -10.023  15.469  66.963  1.00  0.00    -0.240 C  
BRANCH  14  15
HETATM   15  C   UNL     1     -11.178  16.196  67.684  1.00  0.00    -0.147 C  
BRANCH  15  16
HETATM   16  O   UNL     1     -10.922  16.207  69.093  1.00  0.00    -0.267 OA 
BRANCH  16  17
HETATM   17  C   UNL     1     -11.593  15.305  69.876  1.00  0.00    -0.311 A  
HETATM   18  C   UNL     1     -11.622  13.923  69.678  1.00  0.00    -0.347 A  
HETATM   19  C   UNL     1     -12.289  13.151  70.610  1.00  0.00    -0.326 A  
HETATM   20  C   UNL     1     -12.930  13.702  71.693  1.00  0.00    -0.362 A  
HETATM   21  C   UNL     1     -12.945  15.064  71.904  1.00  0.00    -0.429 A  
HETATM   22  O   UNL     1     -13.509  12.764  72.487  1.00  0.00    -0.518 OA 
HETATM   23  C   UNL     1     -12.259  15.867  70.985  1.00  0.00    -0.421 A  
HETATM   24  C   UNL     1     -13.099  11.552  71.816  1.00  0.00    -0.398 C  
HETATM   25  O   UNL     1     -12.386  11.794  70.586  1.00  0.00    -0.358 OA 
ENDBRANCH  16  17
ENDBRANCH  15  16
ENDBRANCH  14  15
ENDBRANCH   5   8
TORSDOF 4
ENDMDL
MODEL      189
REMARK 921   NORMALIZED FREE ENERGY PREDICTED BY IDOCK:   -4.62 KCAL/MOL
REMARK 922        TOTAL FREE ENERGY PREDICTED BY IDOCK:   -6.48 KCAL/MOL
REMARK 923 INTER-LIGAND FREE ENERGY PREDICTED BY IDOCK:   -5.27 KCAL/MOL
REMARK 924 INTRA-LIGAND FREE ENERGY PREDICTED BY IDOCK:   -1.22 KCAL/MOL
REMARK 927      BINDING AFFINITY PREDICTED BY RF-SCORE:    0.00 PKD
ROOT
HETATM    1  F   UNL     1     -12.710  15.914  69.392  1.00  0.00    -0.180 F  
HETATM    2  C   UNL     1     -11.775  15.184  68.769  1.00  0.00    -0.342 A  
HETATM    3  C   UNL     1     -11.269  15.612  67.549  1.00  0.00    -0.245 A  
HETATM    4  C   UNL     1     -10.309  14.840  66.885  1.00  0.00    -0.267 A  
HETATM    5  C   UNL     1      -9.871  13.622  67.430  1.00  0.00    -0.234 A  
HETATM    6  C   UNL     1     -11.322  14.011  69.354  1.00  0.00    -0.317 A  
HETATM    7  C   UNL     1     -10.369  13.236  68.690  1.00  0.00    -0.206 A  
ENDROOT
BRANCH   5   8
HETATM    8  C   UNL     1      -8.859  12.719  66.734  1.00  0.00    -0.161 C  
HETATM    9  C   UNL     1      -9.601  11.576  66.016  1.00  0.00    -0.251 C  
HETATM   10  C   UNL     1      -8.633  10.676  65.258  1.00  0.00    -0.169 C  
HETATM   11  N   UNL     1      -7.621  10.132  66.155  1.00  0.00    -0.109 NA 
HETATM   12  C   UNL     1      -6.832  11.194  66.781  1.00  0.00    -0.134 C  
HETATM   13  H   UNL     1      -7.024   9.455  65.679  1.00  0.00     0.000 HD 
HETATM   14  C   UNL     1      -7.709  12.149  67.613  1.00  0.00    -0.148 C  
BRANCH  14  15
HETATM   15  C   UNL     1      -6.837  13.264  68.230  1.00  0.00    -0.105 C  
BRANCH  15  16
HETATM   16  O   UNL     1      -6.601  14.277  67.245  1.00  0.00    -0.278 OA 
BRANCH  16  17
HETATM   17  C   UNL     1      -6.686  15.587  67.637  1.00  0.00    -0.179 A  
HETATM   18  C   UNL     1      -7.154  16.641  66.848  1.00  0.00    -0.264 A  
HETATM   19  C   UNL     1      -7.244  17.891  67.428  1.00  0.00    -0.184 A  
HETATM   20  C   UNL     1      -6.871  18.123  68.731  1.00  0.00    -0.260 A  
HETATM   21  C   UNL     1      -6.379  17.112  69.528  1.00  0.00    -0.230 A  
HETATM   22  O   UNL     1      -7.052  19.417  69.101  1.00  0.00    -0.342 OA 
HETATM   23  C   UNL     1      -6.298  15.831  68.970  1.00  0.00    -0.126 A  
HETATM   24  C   UNL     1      -7.649  19.960  67.903  1.00  0.00    -0.301 C  
HETATM   25  O   UNL     1      -7.706  19.014  66.815  1.00  0.00    -0.231 OA 
ENDBRANCH  16  17
ENDBRANCH  15  16
ENDBRANCH  14  15
ENDBRANCH   5   8
TORSDOF 4
ENDMDL
MODEL      190
REMARK 921   NORMALIZED FREE ENERGY PREDICTED BY IDOCK:   -4.60 KCAL/MOL
REMARK 922        TOTAL FREE ENERGY PREDICTED BY IDOCK:   -6.46 KCAL/MOL
REMARK 923 INTER-LIGAND FREE ENERGY PREDICTED BY IDOCK:   -5.76 KCAL/MOL
REMARK 924 INTRA-LIGAND FREE ENERGY PREDICTED BY IDOCK:   -0.70 KCAL/MOL
REMARK 927      BINDING AFFINITY PREDICTED BY RF-SCORE:    0.00 PKD
ROOT
HETATM    1  F   UNL     1     -13.382  14.169  65.435  1.00  0.00    -0.494 F  
HETATM    2  C   UNL     1     -12.342  13.701  66.137  1.00  0.00    -0.426 A  
HETATM    3  C   UNL     1     -12.075  14.220  67.397  1.00  0.00    -0.371 A  
HETATM    4  C   UNL     1     -10.974  13.749  68.123  1.00  0.00    -0.265 A  
HETATM    5  C   UNL     1     -10.123  12.774  67.579  1.00  0.00    -0.213 A  
HETATM    6  C   UNL     1     -11.548  12.700  65.597  1.00  0.00    -0.418 A  
HETATM    7  C   UNL     1     -10.446  12.235  66.318  1.00  0.00    -0.266 A  
ENDROOT
BRANCH   5   8
HETATM    8  C   UNL     1      -8.888  12.252  68.305  1.00  0.00    -0.178 C  
HETATM    9  C   UNL     1      -7.624  12.833  67.645  1.00  0.00    -0.152 C  
HETATM   10  C   UNL     1      -6.362  12.383  68.372  1.00  0.00    -0.056 C  
HETATM   11  N   UNL     1      -6.282  10.927  68.419  1.00  0.00    -0.046 NA 
HETATM   12  C   UNL     1      -7.425  10.349  69.127  1.00  0.00    -0.112 C  
HETATM   13  H   UNL     1      -5.398  10.615  68.820  1.00  0.00     0.000 HD 
HETATM   14  C   UNL     1      -8.763  10.709  68.451  1.00  0.00    -0.141 C  
BRANCH  14  15
HETATM   15  C   UNL     1      -9.936  10.100  69.249  1.00  0.00    -0.219 C  
BRANCH  15  16
HETATM   16  O   UNL     1      -9.466   9.681  70.535  1.00  0.00    -0.256 OA 
BRANCH  16  17
HETATM   17  C   UNL     1      -9.975   8.522  71.060  1.00  0.00    -0.203 A  
HETATM   18  C   UNL     1      -9.313   7.293  71.106  1.00  0.00    -0.156 A  
HETATM   19  C   UNL     1      -9.946   6.242  71.741  1.00  0.00    -0.171 A  
HETATM   20  C   UNL     1     -11.196   6.369  72.297  1.00  0.00    -0.276 A  
HETATM   21  C   UNL     1     -11.890   7.558  72.246  1.00  0.00    -0.331 A  
HETATM   22  O   UNL     1     -11.625   5.219  72.880  1.00  0.00    -0.310 OA 
HETATM   23  C   UNL     1     -11.261   8.645  71.626  1.00  0.00    -0.379 A  
HETATM   24  C   UNL     1     -10.471   4.372  72.687  1.00  0.00    -0.182 C  
HETATM   25  O   UNL     1      -9.432   4.993  71.903  1.00  0.00    -0.142 OA 
ENDBRANCH  16  17
ENDBRANCH  15  16
ENDBRANCH  14  15
ENDBRANCH   5   8
TORSDOF 4
ENDMDL
MODEL      191
REMARK 921   NORMALIZED FREE ENERGY PREDICTED BY IDOCK:   -4.60 KCAL/MOL
REMARK 922        TOTAL FREE ENERGY PREDICTED BY IDOCK:   -6.46 KCAL/MOL
REMARK 923 INTER-LIGAND FREE ENERGY PREDICTED BY IDOCK:   -6.21 KCAL/MOL
REMARK 924 INTRA-LIGAND FREE ENERGY PREDICTED BY IDOCK:   -0.25 KCAL/MOL
REMARK 927      BINDING AFFINITY PREDICTED BY RF-SCORE:    0.00 PKD
ROOT
HETATM    1  F   UNL     1      -5.751  20.995  62.895  1.00  0.00    -0.219 F  
HETATM    2  C   UNL     1      -5.939  20.354  64.057  1.00  0.00    -0.282 A  
HETATM    3  C   UNL     1      -5.582  19.017  64.170  1.00  0.00    -0.308 A  
HETATM    4  C   UNL     1      -5.800  18.339  65.375  1.00  0.00    -0.230 A  
HETATM    5  C   UNL     1      -6.399  18.993  66.464  1.00  0.00    -0.204 A  
HETATM    6  C   UNL     1      -6.485  21.038  65.133  1.00  0.00    -0.123 A  
HETATM    7  C   UNL     1      -6.709  20.361  66.334  1.00  0.00    -0.287 A  
ENDROOT
BRANCH   5   8
HETATM    8  C   UNL     1      -6.698  18.296  67.787  1.00  0.00    -0.206 C  
HETATM    9  C   UNL     1      -5.399  18.176  68.606  1.00  0.00    -0.164 C  
HETATM   10  C   UNL     1      -5.657  17.534  69.964  1.00  0.00    -0.248 C  
HETATM   11  N   UNL     1      -6.276  16.222  69.808  1.00  0.00    -0.200 NA 
HETATM   12  C   UNL     1      -7.562  16.315  69.116  1.00  0.00    -0.227 C  
HETATM   13  H   UNL     1      -6.368  15.744  70.704  1.00  0.00     0.000 HD 
HETATM   14  C   UNL     1      -7.415  16.918  67.705  1.00  0.00    -0.176 C  
BRANCH  14  15
HETATM   15  C   UNL     1      -8.799  17.019  67.028  1.00  0.00    -0.224 C  
BRANCH  15  16
HETATM   16  O   UNL     1      -9.810  16.612  67.957  1.00  0.00    -0.236 OA 
BRANCH  16  17
HETATM   17  C   UNL     1     -10.314  15.343  67.844  1.00  0.00    -0.247 A  
HETATM   18  C   UNL     1     -10.233  14.348  68.821  1.00  0.00    -0.239 A  
HETATM   19  C   UNL     1     -10.863  13.144  68.570  1.00  0.00    -0.262 A  
HETATM   20  C   UNL     1     -11.536  12.900  67.397  1.00  0.00    -0.360 A  
HETATM   21  C   UNL     1     -11.612  13.849  66.401  1.00  0.00    -0.382 A  
HETATM   22  O   UNL     1     -12.091  11.660  67.364  1.00  0.00    -0.605 OA 
HETATM   23  C   UNL     1     -10.999  15.085  66.638  1.00  0.00    -0.325 A  
HETATM   24  C   UNL     1     -11.749  11.177  68.682  1.00  0.00    -0.320 C  
HETATM   25  O   UNL     1     -10.910  12.085  69.423  1.00  0.00    -0.140 OA 
ENDBRANCH  16  17
ENDBRANCH  15  16
ENDBRANCH  14  15
ENDBRANCH   5   8
TORSDOF 4
ENDMDL
MODEL      192
REMARK 921   NORMALIZED FREE ENERGY PREDICTED BY IDOCK:   -4.60 KCAL/MOL
REMARK 922        TOTAL FREE ENERGY PREDICTED BY IDOCK:   -6.45 KCAL/MOL
REMARK 923 INTER-LIGAND FREE ENERGY PREDICTED BY IDOCK:   -5.29 KCAL/MOL
REMARK 924 INTRA-LIGAND FREE ENERGY PREDICTED BY IDOCK:   -1.17 KCAL/MOL
REMARK 927      BINDING AFFINITY PREDICTED BY RF-SCORE:    0.00 PKD
ROOT
HETATM    1  F   UNL     1      -5.266  11.250  70.518  1.00  0.00    -0.069 F  
HETATM    2  C   UNL     1      -5.640  12.342  69.838  1.00  0.00    -0.112 A  
HETATM    3  C   UNL     1      -6.467  12.212  68.731  1.00  0.00    -0.078 A  
HETATM    4  C   UNL     1      -6.841  13.349  68.005  1.00  0.00    -0.132 A  
HETATM    5  C   UNL     1      -6.367  14.619  68.373  1.00  0.00    -0.100 A  
HETATM    6  C   UNL     1      -5.200  13.589  70.255  1.00  0.00    -0.103 A  
HETATM    7  C   UNL     1      -5.567  14.724  69.528  1.00  0.00    -0.093 A  
ENDROOT
BRANCH   5   8
HETATM    8  C   UNL     1      -6.707  15.887  67.599  1.00  0.00    -0.195 C  
HETATM    9  C   UNL     1      -5.409  16.643  67.259  1.00  0.00    -0.169 C  
HETATM   10  C   UNL     1      -5.694  17.893  66.435  1.00  0.00    -0.180 C  
HETATM   11  N   UNL     1      -6.620  18.775  67.135  1.00  0.00    -0.195 NA 
HETATM   12  C   UNL     1      -7.902  18.115  67.387  1.00  0.00    -0.218 C  
HETATM   13  H   UNL     1      -6.746  19.656  66.636  1.00  0.00     0.000 HD 
HETATM   14  C   UNL     1      -7.739  16.850  68.253  1.00  0.00    -0.205 C  
BRANCH  14  15
HETATM   15  C   UNL     1      -9.112  16.178  68.468  1.00  0.00    -0.208 C  
BRANCH  15  16
HETATM   16  O   UNL     1      -9.912  16.350  67.292  1.00  0.00    -0.248 OA 
BRANCH  16  17
HETATM   17  C   UNL     1     -10.349  15.227  66.641  1.00  0.00    -0.280 A  
HETATM   18  C   UNL     1     -11.012  15.209  65.412  1.00  0.00    -0.381 A  
HETATM   19  C   UNL     1     -11.317  13.978  64.861  1.00  0.00    -0.354 A  
HETATM   20  C   UNL     1     -11.008  12.797  65.492  1.00  0.00    -0.280 A  
HETATM   21  C   UNL     1     -10.380  12.779  66.718  1.00  0.00    -0.248 A  
HETATM   22  O   UNL     1     -11.385  11.709  64.771  1.00  0.00    -0.284 OA 
HETATM   23  C   UNL     1     -10.042  14.012  67.288  1.00  0.00    -0.249 A  
HETATM   24  C   UNL     1     -11.903  12.341  63.580  1.00  0.00    -0.514 C  
HETATM   25  O   UNL     1     -11.928  13.781  63.662  1.00  0.00    -0.391 OA 
ENDBRANCH  16  17
ENDBRANCH  15  16
ENDBRANCH  14  15
ENDBRANCH   5   8
TORSDOF 4
ENDMDL
MODEL      193
REMARK 921   NORMALIZED FREE ENERGY PREDICTED BY IDOCK:   -4.56 KCAL/MOL
REMARK 922        TOTAL FREE ENERGY PREDICTED BY IDOCK:   -6.41 KCAL/MOL
REMARK 923 INTER-LIGAND FREE ENERGY PREDICTED BY IDOCK:   -4.34 KCAL/MOL
REMARK 924 INTRA-LIGAND FREE ENERGY PREDICTED BY IDOCK:   -2.06 KCAL/MOL
REMARK 927      BINDING AFFINITY PREDICTED BY RF-SCORE:    0.00 PKD
ROOT
HETATM    1  F   UNL     1      -6.198   3.769  67.972  1.00  0.00    -0.029 F  
HETATM    2  C   UNL     1      -6.981   4.662  68.591  1.00  0.00    -0.052 A  
HETATM    3  C   UNL     1      -6.593   5.994  68.648  1.00  0.00    -0.058 A  
HETATM    4  C   UNL     1      -7.398   6.925  69.315  1.00  0.00    -0.092 A  
HETATM    5  C   UNL     1      -8.583   6.519  69.949  1.00  0.00    -0.139 A  
HETATM    6  C   UNL     1      -8.173   4.244  69.165  1.00  0.00    -0.077 A  
HETATM    7  C   UNL     1      -8.973   5.170  69.836  1.00  0.00    -0.139 A  
ENDROOT
BRANCH   5   8
HETATM    8  C   UNL     1      -9.478   7.480  70.724  1.00  0.00    -0.163 C  
HETATM    9  C   UNL     1      -9.993   6.783  71.998  1.00  0.00    -0.183 C  
HETATM   10  C   UNL     1     -10.850   7.724  72.836  1.00  0.00    -0.392 C  
HETATM   11  N   UNL     1     -11.971   8.238  72.057  1.00  0.00    -0.325 NA 
HETATM   12  C   UNL     1     -11.512   8.989  70.887  1.00  0.00    -0.291 C  
HETATM   13  H   UNL     1     -12.603   8.794  72.633  1.00  0.00     0.000 HD 
HETATM   14  C   UNL     1     -10.661   8.119  69.941  1.00  0.00    -0.241 C  
BRANCH  14  15
HETATM   15  C   UNL     1     -10.180   8.961  68.741  1.00  0.00    -0.206 C  
BRANCH  15  16
HETATM   16  O   UNL     1     -10.816   8.489  67.547  1.00  0.00    -0.198 OA 
BRANCH  16  17
HETATM   17  C   UNL     1     -10.223   7.459  66.866  1.00  0.00    -0.276 A  
HETATM   18  C   UNL     1      -9.004   7.530  66.187  1.00  0.00    -0.188 A  
HETATM   19  C   UNL     1      -8.515   6.371  65.616  1.00  0.00    -0.146 A  
HETATM   20  C   UNL     1      -9.195   5.179  65.680  1.00  0.00    -0.151 A  
HETATM   21  C   UNL     1     -10.413   5.079  66.316  1.00  0.00    -0.352 A  
HETATM   22  O   UNL     1      -8.530   4.167  65.064  1.00  0.00    -0.111 OA 
HETATM   23  C   UNL     1     -10.922   6.235  66.922  1.00  0.00    -0.404 A  
HETATM   24  C   UNL     1      -7.318   4.844  64.666  1.00  0.00    -0.063 C  
HETATM   25  O   UNL     1      -7.334   6.258  64.950  1.00  0.00    -0.067 OA 
ENDBRANCH  16  17
ENDBRANCH  15  16
ENDBRANCH  14  15
ENDBRANCH   5   8
TORSDOF 4
ENDMDL
MODEL      194
REMARK 921   NORMALIZED FREE ENERGY PREDICTED BY IDOCK:   -4.54 KCAL/MOL
REMARK 922        TOTAL FREE ENERGY PREDICTED BY IDOCK:   -6.39 KCAL/MOL
REMARK 923 INTER-LIGAND FREE ENERGY PREDICTED BY IDOCK:   -5.12 KCAL/MOL
REMARK 924 INTRA-LIGAND FREE ENERGY PREDICTED BY IDOCK:   -1.27 KCAL/MOL
REMARK 927      BINDING AFFINITY PREDICTED BY RF-SCORE:    0.00 PKD
ROOT
HETATM    1  F   UNL     1     -10.121  11.023  64.880  1.00  0.00    -0.273 F  
HETATM    2  C   UNL     1      -9.891   9.832  65.450  1.00  0.00    -0.295 A  
HETATM    3  C   UNL     1     -10.660   9.429  66.534  1.00  0.00    -0.125 A  
HETATM    4  C   UNL     1     -10.406   8.196  67.145  1.00  0.00    -0.391 A  
HETATM    5  C   UNL     1      -9.364   7.373  66.689  1.00  0.00    -0.215 A  
HETATM    6  C   UNL     1      -8.889   9.016  64.947  1.00  0.00    -0.190 A  
HETATM    7  C   UNL     1      -8.630   7.789  65.560  1.00  0.00    -0.126 A  
ENDROOT
BRANCH   5   8
HETATM    8  C   UNL     1      -9.015   6.040  67.340  1.00  0.00    -0.108 C  
HETATM    9  C   UNL     1      -9.952   4.945  66.798  1.00  0.00    -0.250 C  
HETATM   10  C   UNL     1      -9.605   3.579  67.380  1.00  0.00    -0.125 C  
HETATM   11  N   UNL     1      -9.657   3.608  68.837  1.00  0.00    -0.141 NA 
HETATM   12  C   UNL     1      -8.705   4.574  69.388  1.00  0.00    -0.086 C  
HETATM   13  H   UNL     1      -9.518   2.679  69.234  1.00  0.00     0.000 HD 
HETATM   14  C   UNL     1      -8.987   6.007  68.895  1.00  0.00    -0.123 C  
BRANCH  14  15
HETATM   15  C   UNL     1      -7.943   6.981  69.482  1.00  0.00    -0.125 C  
BRANCH  15  16
HETATM   16  O   UNL     1      -8.380   7.421  70.773  1.00  0.00    -0.116 OA 
BRANCH  16  17
HETATM   17  C   UNL     1      -9.433   8.295  70.832  1.00  0.00    -0.162 A  
HETATM   18  C   UNL     1      -9.489   9.541  70.204  1.00  0.00    -0.287 A  
HETATM   19  C   UNL     1     -10.663  10.264  70.307  1.00  0.00    -0.250 A  
HETATM   20  C   UNL     1     -11.745   9.805  71.018  1.00  0.00    -0.370 A  
HETATM   21  C   UNL     1     -11.714   8.594  71.673  1.00  0.00    -0.380 A  
HETATM   22  O   UNL     1     -12.796  10.666  70.979  1.00  0.00    -0.361 OA 
HETATM   23  C   UNL     1     -10.545   7.832  71.567  1.00  0.00    -0.247 A  
HETATM   24  C   UNL     1     -12.273  11.689  70.103  1.00  0.00    -0.288 C  
HETATM   25  O   UNL     1     -10.896  11.475  69.732  1.00  0.00    -0.083 OA 
ENDBRANCH  16  17
ENDBRANCH  15  16
ENDBRANCH  14  15
ENDBRANCH   5   8
TORSDOF 4
ENDMDL
MODEL      195
REMARK 921   NORMALIZED FREE ENERGY PREDICTED BY IDOCK:   -4.52 KCAL/MOL
REMARK 922        TOTAL FREE ENERGY PREDICTED BY IDOCK:   -6.36 KCAL/MOL
REMARK 923 INTER-LIGAND FREE ENERGY PREDICTED BY IDOCK:   -5.36 KCAL/MOL
REMARK 924 INTRA-LIGAND FREE ENERGY PREDICTED BY IDOCK:   -1.00 KCAL/MOL
REMARK 927      BINDING AFFINITY PREDICTED BY RF-SCORE:    0.00 PKD
ROOT
HETATM    1  F   UNL     1      -5.578  11.043  62.623  1.00  0.00    -0.159 F  
HETATM    2  C   UNL     1      -6.327  10.389  63.520  1.00  0.00    -0.069 A  
HETATM    3  C   UNL     1      -5.897  10.296  64.837  1.00  0.00    -0.135 A  
HETATM    4  C   UNL     1      -6.667   9.593  65.772  1.00  0.00    -0.089 A  
HETATM    5  C   UNL     1      -7.858   8.959  65.384  1.00  0.00    -0.102 A  
HETATM    6  C   UNL     1      -7.526   9.816  63.122  1.00  0.00    -0.120 A  
HETATM    7  C   UNL     1      -8.291   9.108  64.052  1.00  0.00    -0.183 A  
ENDROOT
BRANCH   5   8
HETATM    8  C   UNL     1      -8.716   8.146  66.347  1.00  0.00    -0.168 C  
HETATM    9  C   UNL     1      -8.598   6.650  65.999  1.00  0.00    -0.152 C  
HETATM   10  C   UNL     1      -9.397   5.790  66.971  1.00  0.00    -0.119 C  
HETATM   11  N   UNL     1     -10.798   6.193  66.989  1.00  0.00    -0.423 NA 
HETATM   12  C   UNL     1     -10.951   7.586  67.410  1.00  0.00    -0.095 C  
HETATM   13  H   UNL     1     -11.360   5.565  67.565  1.00  0.00     0.000 HD 
HETATM   14  C   UNL     1     -10.211   8.557  66.468  1.00  0.00    -0.286 C  
BRANCH  14  15
HETATM   15  C   UNL     1     -10.380  10.007  66.969  1.00  0.00    -0.243 C  
BRANCH  15  16
HETATM   16  O   UNL     1     -10.728  10.851  65.864  1.00  0.00    -0.215 OA 
BRANCH  16  17
HETATM   17  C   UNL     1     -10.667  12.207  66.046  1.00  0.00    -0.273 A  
HETATM   18  C   UNL     1      -9.496  12.959  66.157  1.00  0.00    -0.161 A  
HETATM   19  C   UNL     1      -9.618  14.332  66.262  1.00  0.00    -0.288 A  
HETATM   20  C   UNL     1     -10.840  14.959  66.282  1.00  0.00    -0.331 A  
HETATM   21  C   UNL     1     -12.016  14.246  66.204  1.00  0.00    -0.422 A  
HETATM   22  O   UNL     1     -10.729  16.310  66.379  1.00  0.00    -0.278 OA 
HETATM   23  C   UNL     1     -11.920  12.855  66.075  1.00  0.00    -0.505 A  
HETATM   24  C   UNL     1      -9.294  16.466  66.347  1.00  0.00    -0.292 C  
HETATM   25  O   UNL     1      -8.583  15.211  66.345  1.00  0.00    -0.251 OA 
ENDBRANCH  16  17
ENDBRANCH  15  16
ENDBRANCH  14  15
ENDBRANCH   5   8
TORSDOF 4
ENDMDL
MODEL      196
REMARK 921   NORMALIZED FREE ENERGY PREDICTED BY IDOCK:   -4.52 KCAL/MOL
REMARK 922        TOTAL FREE ENERGY PREDICTED BY IDOCK:   -6.36 KCAL/MOL
REMARK 923 INTER-LIGAND FREE ENERGY PREDICTED BY IDOCK:   -5.32 KCAL/MOL
REMARK 924 INTRA-LIGAND FREE ENERGY PREDICTED BY IDOCK:   -1.04 KCAL/MOL
REMARK 927      BINDING AFFINITY PREDICTED BY RF-SCORE:    0.00 PKD
ROOT
HETATM    1  F   UNL     1     -11.037  15.841  67.045  1.00  0.00    -0.317 F  
HETATM    2  C   UNL     1     -10.294  14.730  67.126  1.00  0.00    -0.255 A  
HETATM    3  C   UNL     1      -9.477  14.528  68.230  1.00  0.00    -0.207 A  
HETATM    4  C   UNL     1      -8.682  13.378  68.307  1.00  0.00    -0.172 A  
HETATM    5  C   UNL     1      -8.685  12.438  67.264  1.00  0.00    -0.191 A  
HETATM    6  C   UNL     1     -10.355  13.791  66.106  1.00  0.00    -0.301 A  
HETATM    7  C   UNL     1      -9.558  12.647  66.178  1.00  0.00    -0.222 A  
ENDROOT
BRANCH   5   8
HETATM    8  C   UNL     1      -7.811  11.188  67.273  1.00  0.00    -0.137 C  
HETATM    9  C   UNL     1      -6.414  11.538  66.728  1.00  0.00    -0.128 C  
HETATM   10  C   UNL     1      -5.485  10.330  66.768  1.00  0.00    -0.046 C  
HETATM   11  N   UNL     1      -6.052   9.214  66.020  1.00  0.00    -0.055 NA 
HETATM   12  C   UNL     1      -7.340   8.795  66.575  1.00  0.00    -0.081 C  
HETATM   13  H   UNL     1      -5.399   8.433  65.961  1.00  0.00     0.000 HD 
HETATM   14  C   UNL     1      -8.378   9.934  66.547  1.00  0.00    -0.125 C  
BRANCH  14  15
HETATM   15  C   UNL     1      -9.707   9.451  67.166  1.00  0.00    -0.173 C  
BRANCH  15  16
HETATM   16  O   UNL     1      -9.480   9.059  68.525  1.00  0.00    -0.143 OA 
BRANCH  16  17
HETATM   17  C   UNL     1     -10.500   9.232  69.423  1.00  0.00    -0.219 A  
HETATM   18  C   UNL     1     -10.985   8.257  70.298  1.00  0.00    -0.233 A  
HETATM   19  C   UNL     1     -11.971   8.626  71.193  1.00  0.00    -0.279 A  
HETATM   20  C   UNL     1     -12.491   9.897  71.227  1.00  0.00    -0.381 A  
HETATM   21  C   UNL     1     -12.056  10.876  70.360  1.00  0.00    -0.453 A  
HETATM   22  O   UNL     1     -13.439  10.046  72.189  1.00  0.00    -0.428 OA 
HETATM   23  C   UNL     1     -11.042  10.534  69.457  1.00  0.00    -0.320 A  
HETATM   24  C   UNL     1     -13.406   8.739  72.804  1.00  0.00    -0.159 C  
HETATM   25  O   UNL     1     -12.529   7.813  72.131  1.00  0.00    -0.296 OA 
ENDBRANCH  16  17
ENDBRANCH  15  16
ENDBRANCH  14  15
ENDBRANCH   5   8
TORSDOF 4
ENDMDL
MODEL      197
REMARK 921   NORMALIZED FREE ENERGY PREDICTED BY IDOCK:   -4.49 KCAL/MOL
REMARK 922        TOTAL FREE ENERGY PREDICTED BY IDOCK:   -6.32 KCAL/MOL
REMARK 923 INTER-LIGAND FREE ENERGY PREDICTED BY IDOCK:   -5.02 KCAL/MOL
REMARK 924 INTRA-LIGAND FREE ENERGY PREDICTED BY IDOCK:   -1.31 KCAL/MOL
REMARK 927      BINDING AFFINITY PREDICTED BY RF-SCORE:    0.00 PKD
ROOT
HETATM    1  F   UNL     1      -5.464  13.638  70.432  1.00  0.00    -0.097 F  
HETATM    2  C   UNL     1      -6.003  12.813  69.525  1.00  0.00    -0.112 A  
HETATM    3  C   UNL     1      -6.275  11.496  69.869  1.00  0.00    -0.147 A  
HETATM    4  C   UNL     1      -6.817  10.626  68.916  1.00  0.00    -0.066 A  
HETATM    5  C   UNL     1      -7.067  11.067  67.607  1.00  0.00    -0.088 A  
HETATM    6  C   UNL     1      -6.289  13.289  68.254  1.00  0.00    -0.099 A  
HETATM    7  C   UNL     1      -6.824  12.421  67.300  1.00  0.00    -0.127 A  
ENDROOT
BRANCH   5   8
HETATM    8  C   UNL     1      -7.619  10.156  66.516  1.00  0.00    -0.109 C  
HETATM    9  C   UNL     1      -6.499   9.825  65.512  1.00  0.00    -0.084 C  
HETATM   10  C   UNL     1      -6.989   8.870  64.430  1.00  0.00    -0.088 C  
HETATM   11  N   UNL     1      -8.142   9.425  63.731  1.00  0.00    -0.144 NA 
HETATM   12  C   UNL     1      -9.260   9.661  64.646  1.00  0.00    -0.234 C  
HETATM   13  H   UNL     1      -8.421   8.838  62.945  1.00  0.00     0.000 HD 
HETATM   14  C   UNL     1      -8.888  10.652  65.767  1.00  0.00    -0.198 C  
BRANCH  14  15
HETATM   15  C   UNL     1     -10.089  10.847  66.717  1.00  0.00    -0.216 C  
BRANCH  15  16
HETATM   16  O   UNL     1     -11.014  11.768  66.127  1.00  0.00    -0.288 OA 
BRANCH  16  17
HETATM   17  C   UNL     1     -10.765  13.107  66.265  1.00  0.00    -0.284 A  
HETATM   18  C   UNL     1     -10.821  14.053  65.239  1.00  0.00    -0.352 A  
HETATM   19  C   UNL     1     -10.614  15.378  65.570  1.00  0.00    -0.383 A  
HETATM   20  C   UNL     1     -10.336  15.777  66.855  1.00  0.00    -0.295 A  
HETATM   21  C   UNL     1     -10.245  14.868  67.887  1.00  0.00    -0.228 A  
HETATM   22  O   UNL     1     -10.180  17.123  66.960  1.00  0.00    -0.298 OA 
HETATM   23  C   UNL     1     -10.472  13.521  67.582  1.00  0.00    -0.239 A  
HETATM   24  C   UNL     1     -10.460  17.533  65.603  1.00  0.00    -0.149 C  
HETATM   25  O   UNL     1     -10.665  16.425  64.703  1.00  0.00    -0.693 OA 
ENDBRANCH  16  17
ENDBRANCH  15  16
ENDBRANCH  14  15
ENDBRANCH   5   8
TORSDOF 4
ENDMDL
MODEL      198
REMARK 921   NORMALIZED FREE ENERGY PREDICTED BY IDOCK:   -4.47 KCAL/MOL
REMARK 922        TOTAL FREE ENERGY PREDICTED BY IDOCK:   -6.30 KCAL/MOL
REMARK 923 INTER-LIGAND FREE ENERGY PREDICTED BY IDOCK:   -6.05 KCAL/MOL
REMARK 924 INTRA-LIGAND FREE ENERGY PREDICTED BY IDOCK:   -0.25 KCAL/MOL
REMARK 927      BINDING AFFINITY PREDICTED BY RF-SCORE:    0.00 PKD
ROOT
HETATM    1  F   UNL     1     -11.138  19.401  67.416  1.00  0.00    -0.561 F  
HETATM    2  C   UNL     1     -10.474  18.242  67.524  1.00  0.00    -0.411 A  
HETATM    3  C   UNL     1      -9.543  17.891  66.556  1.00  0.00    -0.318 A  
HETATM    4  C   UNL     1      -8.864  16.670  66.656  1.00  0.00    -0.280 A  
HETATM    5  C   UNL     1      -9.134  15.787  67.713  1.00  0.00    -0.188 A  
HETATM    6  C   UNL     1     -10.722  17.412  68.607  1.00  0.00    -0.249 A  
HETATM    7  C   UNL     1     -10.051  16.191  68.703  1.00  0.00    -0.231 A  
ENDROOT
BRANCH   5   8
HETATM    8  C   UNL     1      -8.457  14.428  67.851  1.00  0.00    -0.165 C  
HETATM    9  C   UNL     1      -6.929  14.610  67.795  1.00  0.00    -0.194 C  
HETATM   10  C   UNL     1      -6.205  13.282  67.984  1.00  0.00    -0.129 C  
HETATM   11  N   UNL     1      -6.632  12.311  66.984  1.00  0.00    -0.327 NA 
HETATM   12  C   UNL     1      -8.068  12.043  67.075  1.00  0.00    -0.158 C  
HETATM   13  H   UNL     1      -6.088  11.451  67.042  1.00  0.00     0.000 HD 
HETATM   14  C   UNL     1      -8.906  13.318  66.857  1.00  0.00    -0.186 C  
BRANCH  14  15
HETATM   15  C   UNL     1     -10.409  12.989  66.989  1.00  0.00    -0.247 C  
BRANCH  15  16
HETATM   16  O   UNL     1     -10.666  12.472  68.300  1.00  0.00    -0.213 OA 
BRANCH  16  17
HETATM   17  C   UNL     1     -10.668  11.113  68.466  1.00  0.00    -0.201 A  
HETATM   18  C   UNL     1     -10.719  10.169  67.438  1.00  0.00    -0.336 A  
HETATM   19  C   UNL     1     -10.636   8.834  67.782  1.00  0.00    -0.191 A  
HETATM   20  C   UNL     1     -10.528   8.419  69.088  1.00  0.00    -0.206 A  
HETATM   21  C   UNL     1     -10.503   9.321  70.129  1.00  0.00    -0.265 A  
HETATM   22  O   UNL     1     -10.448   7.068  69.199  1.00  0.00    -0.194 OA 
HETATM   23  C   UNL     1     -10.565  10.682  69.806  1.00  0.00    -0.233 A  
HETATM   24  C   UNL     1     -10.447   6.682  67.807  1.00  0.00    -0.225 C  
HETATM   25  O   UNL     1     -10.638   7.792  66.907  1.00  0.00    -0.343 OA 
ENDBRANCH  16  17
ENDBRANCH  15  16
ENDBRANCH  14  15
ENDBRANCH   5   8
TORSDOF 4
ENDMDL
MODEL      199
REMARK 921   NORMALIZED FREE ENERGY PREDICTED BY IDOCK:   -4.44 KCAL/MOL
REMARK 922        TOTAL FREE ENERGY PREDICTED BY IDOCK:   -6.26 KCAL/MOL
REMARK 923 INTER-LIGAND FREE ENERGY PREDICTED BY IDOCK:   -5.14 KCAL/MOL
REMARK 924 INTRA-LIGAND FREE ENERGY PREDICTED BY IDOCK:   -1.12 KCAL/MOL
REMARK 927      BINDING AFFINITY PREDICTED BY RF-SCORE:    0.00 PKD
ROOT
HETATM    1  F   UNL     1     -10.291   3.206  72.447  1.00  0.00    -0.222 F  
HETATM    2  C   UNL     1     -10.540   4.514  72.302  1.00  0.00    -0.102 A  
HETATM    3  C   UNL     1     -10.318   5.378  73.367  1.00  0.00    -0.244 A  
HETATM    4  C   UNL     1     -10.599   6.742  73.226  1.00  0.00    -0.335 A  
HETATM    5  C   UNL     1     -11.127   7.242  72.024  1.00  0.00    -0.277 A  
HETATM    6  C   UNL     1     -11.012   4.990  71.088  1.00  0.00     0.155 A  
HETATM    7  C   UNL     1     -11.298   6.349  70.948  1.00  0.00    -0.398 A  
ENDROOT
BRANCH   5   8
HETATM    8  C   UNL     1     -11.490   8.709  71.826  1.00  0.00    -0.394 C  
HETATM    9  C   UNL     1     -12.896   8.969  72.398  1.00  0.00    -0.454 C  
HETATM   10  C   UNL     1     -13.282  10.439  72.272  1.00  0.00    -0.183 C  
HETATM   11  N   UNL     1     -13.216  10.875  70.882  1.00  0.00    -0.133 NA 
HETATM   12  C   UNL     1     -11.866  10.729  70.337  1.00  0.00    -0.358 C  
HETATM   13  H   UNL     1     -13.561  11.828  70.773  1.00  0.00     0.000 HD 
HETATM   14  C   UNL     1     -11.383   9.266  70.377  1.00  0.00    -0.283 C  
BRANCH  14  15
HETATM   15  C   UNL     1      -9.947   9.169  69.819  1.00  0.00    -0.193 C  
BRANCH  15  16
HETATM   16  O   UNL     1     -10.005   8.930  68.407  1.00  0.00    -0.166 OA 
BRANCH  16  17
HETATM   17  C   UNL     1      -9.778   7.655  67.961  1.00  0.00    -0.152 A  
HETATM   18  C   UNL     1     -10.625   6.926  67.124  1.00  0.00    -0.408 A  
HETATM   19  C   UNL     1     -10.203   5.677  66.709  1.00  0.00    -0.230 A  
HETATM   20  C   UNL     1      -9.005   5.137  67.110  1.00  0.00    -0.112 A  
HETATM   21  C   UNL     1      -8.158   5.817  67.958  1.00  0.00    -0.104 A  
HETATM   22  O   UNL     1      -8.784   3.908  66.576  1.00  0.00    -0.109 OA 
HETATM   23  C   UNL     1      -8.552   7.094  68.377  1.00  0.00    -0.123 A  
HETATM   24  C   UNL     1      -9.950   3.765  65.735  1.00  0.00    -0.024 C  
HETATM   25  O   UNL     1     -10.888   4.852  65.871  1.00  0.00    -0.289 OA 
ENDBRANCH  16  17
ENDBRANCH  15  16
ENDBRANCH  14  15
ENDBRANCH   5   8
TORSDOF 4
ENDMDL
MODEL      200
REMARK 921   NORMALIZED FREE ENERGY PREDICTED BY IDOCK:   -4.43 KCAL/MOL
REMARK 922        TOTAL FREE ENERGY PREDICTED BY IDOCK:   -6.24 KCAL/MOL
REMARK 923 INTER-LIGAND FREE ENERGY PREDICTED BY IDOCK:   -5.55 KCAL/MOL
REMARK 924 INTRA-LIGAND FREE ENERGY PREDICTED BY IDOCK:   -0.69 KCAL/MOL
REMARK 927      BINDING AFFINITY PREDICTED BY RF-SCORE:    0.00 PKD
ROOT
HETATM    1  F   UNL     1     -13.307  11.289  72.225  1.00  0.00    -0.584 F  
HETATM    2  C   UNL     1     -12.558  10.849  71.205  1.00  0.00    -0.428 A  
HETATM    3  C   UNL     1     -11.871   9.648  71.325  1.00  0.00    -0.460 A  
HETATM    4  C   UNL     1     -11.070   9.198  70.269  1.00  0.00    -0.272 A  
HETATM    5  C   UNL     1     -10.935   9.961  69.099  1.00  0.00    -0.233 A  
HETATM    6  C   UNL     1     -12.484  11.597  70.039  1.00  0.00    -0.166 A  
HETATM    7  C   UNL     1     -11.679  11.152  68.988  1.00  0.00    -0.408 A  
ENDROOT
BRANCH   5   8
HETATM    8  C   UNL     1     -10.045   9.541  67.934  1.00  0.00    -0.234 C  
HETATM    9  C   UNL     1      -9.866  10.732  66.973  1.00  0.00    -0.221 C  
HETATM   10  C   UNL     1      -8.937  10.377  65.818  1.00  0.00    -0.168 C  
HETATM   11  N   UNL     1      -9.435   9.215  65.091  1.00  0.00    -0.453 NA 
HETATM   12  C   UNL     1      -9.526   8.038  65.956  1.00  0.00    -0.053 C  
HETATM   13  H   UNL     1      -8.873   9.025  64.261  1.00  0.00     0.000 HD 
HETATM   14  C   UNL     1     -10.478   8.271  67.146  1.00  0.00    -0.386 C  
BRANCH  14  15
HETATM   15  C   UNL     1     -10.519   7.014  68.042  1.00  0.00    -0.208 C  
BRANCH  15  16
HETATM   16  O   UNL     1      -9.231   6.816  68.638  1.00  0.00    -0.134 OA 
BRANCH  16  17
HETATM   17  C   UNL     1      -9.159   6.059  69.777  1.00  0.00    -0.140 A  
HETATM   18  C   UNL     1     -10.252   5.585  70.507  1.00  0.00    -0.311 A  
HETATM   19  C   UNL     1      -9.998   4.769  71.593  1.00  0.00    -0.190 A  
HETATM   20  C   UNL     1      -8.721   4.438  71.977  1.00  0.00    -0.113 A  
HETATM   21  C   UNL     1      -7.619   4.911  71.298  1.00  0.00    -0.082 A  
HETATM   22  O   UNL     1      -8.700   3.618  73.060  1.00  0.00    -0.092 OA 
HETATM   23  C   UNL     1      -7.850   5.723  70.181  1.00  0.00    -0.099 A  
HETATM   24  C   UNL     1     -10.114   3.414  73.271  1.00  0.00    -0.136 C  
HETATM   25  O   UNL     1     -10.942   4.198  72.388  1.00  0.00     0.019 OA 
ENDBRANCH  16  17
ENDBRANCH  15  16
ENDBRANCH  14  15
ENDBRANCH   5   8
TORSDOF 4
ENDMDL
MODEL      201
REMARK 921   NORMALIZED FREE ENERGY PREDICTED BY IDOCK:   -4.42 KCAL/MOL
REMARK 922        TOTAL FREE ENERGY PREDICTED BY IDOCK:   -6.24 KCAL/MOL
REMARK 923 INTER-LIGAND FREE ENERGY PREDICTED BY IDOCK:   -5.60 KCAL/MOL
REMARK 924 INTRA-LIGAND FREE ENERGY PREDICTED BY IDOCK:   -0.64 KCAL/MOL
REMARK 927      BINDING AFFINITY PREDICTED BY RF-SCORE:    0.00 PKD
ROOT
HETATM    1  F   UNL     1     -10.924   4.281  65.302  1.00  0.00    -0.295 F  
HETATM    2  C   UNL     1     -10.256   5.122  66.103  1.00  0.00    -0.222 A  
HETATM    3  C   UNL     1      -8.868   5.101  66.115  1.00  0.00    -0.132 A  
HETATM    4  C   UNL     1      -8.167   5.963  66.967  1.00  0.00    -0.105 A  
HETATM    5  C   UNL     1      -8.856   6.831  67.829  1.00  0.00    -0.118 A  
HETATM    6  C   UNL     1     -10.961   6.006  66.906  1.00  0.00    -0.350 A  
HETATM    7  C   UNL     1     -10.263   6.862  67.761  1.00  0.00    -0.224 A  
ENDROOT
BRANCH   5   8
HETATM    8  C   UNL     1      -8.149   7.763  68.807  1.00  0.00    -0.126 C  
HETATM    9  C   UNL     1      -8.522   7.369  70.248  1.00  0.00    -0.136 C  
HETATM   10  C   UNL     1      -7.794   8.239  71.266  1.00  0.00    -0.102 C  
HETATM   11  N   UNL     1      -8.080   9.651  71.041  1.00  0.00    -0.344 NA 
HETATM   12  C   UNL     1      -7.647  10.080  69.710  1.00  0.00    -0.164 C  
HETATM   13  H   UNL     1      -7.674  10.236  71.771  1.00  0.00     0.000 HD 
HETATM   14  C   UNL     1      -8.354   9.289  68.592  1.00  0.00    -0.118 C  
BRANCH  14  15
HETATM   15  C   UNL     1      -7.846   9.759  67.212  1.00  0.00    -0.098 C  
BRANCH  15  16
HETATM   16  O   UNL     1      -8.878   9.567  66.237  1.00  0.00    -0.141 OA 
BRANCH  16  17
HETATM   17  C   UNL     1      -9.546  10.672  65.781  1.00  0.00    -0.210 A  
HETATM   18  C   UNL     1     -10.319  10.730  64.619  1.00  0.00    -0.394 A  
HETATM   19  C   UNL     1     -10.987  11.909  64.346  1.00  0.00    -0.337 A  
HETATM   20  C   UNL     1     -10.893  13.009  65.163  1.00  0.00    -0.300 A  
HETATM   21  C   UNL     1     -10.117  12.996  66.302  1.00  0.00    -0.283 A  
HETATM   22  O   UNL     1     -11.638  14.054  64.716  1.00  0.00    -0.349 OA 
HETATM   23  C   UNL     1      -9.446  11.807  66.612  1.00  0.00    -0.215 A  
HETATM   24  C   UNL     1     -12.269  13.460  63.560  1.00  0.00    -0.400 C  
HETATM   25  O   UNL     1     -11.804  12.123  63.280  1.00  0.00    -0.436 OA 
ENDBRANCH  16  17
ENDBRANCH  15  16
ENDBRANCH  14  15
ENDBRANCH   5   8
TORSDOF 4
ENDMDL
MODEL      202
REMARK 921   NORMALIZED FREE ENERGY PREDICTED BY IDOCK:   -4.40 KCAL/MOL
REMARK 922        TOTAL FREE ENERGY PREDICTED BY IDOCK:   -6.21 KCAL/MOL
REMARK 923 INTER-LIGAND FREE ENERGY PREDICTED BY IDOCK:   -5.18 KCAL/MOL
REMARK 924 INTRA-LIGAND FREE ENERGY PREDICTED BY IDOCK:   -1.03 KCAL/MOL
REMARK 927      BINDING AFFINITY PREDICTED BY RF-SCORE:    0.00 PKD
ROOT
HETATM    1  F   UNL     1     -12.797  14.549  64.218  1.00  0.00    -0.335 F  
HETATM    2  C   UNL     1     -11.811  14.457  65.120  1.00  0.00    -0.386 A  
HETATM    3  C   UNL     1     -10.699  15.280  65.009  1.00  0.00    -0.461 A  
HETATM    4  C   UNL     1      -9.657  15.170  65.937  1.00  0.00    -0.373 A  
HETATM    5  C   UNL     1      -9.716  14.218  66.967  1.00  0.00    -0.253 A  
HETATM    6  C   UNL     1     -11.919  13.544  66.158  1.00  0.00    -0.454 A  
HETATM    7  C   UNL     1     -10.877  13.429  67.082  1.00  0.00    -0.284 A  
ENDROOT
BRANCH   5   8
HETATM    8  C   UNL     1      -8.595  14.025  67.983  1.00  0.00    -0.179 C  
HETATM    9  C   UNL     1      -8.234  15.385  68.610  1.00  0.00    -0.158 C  
HETATM   10  C   UNL     1      -7.153  15.235  69.674  1.00  0.00    -0.187 C  
HETATM   11  N   UNL     1      -5.961  14.605  69.117  1.00  0.00    -0.098 NA 
HETATM   12  C   UNL     1      -6.253  13.268  68.599  1.00  0.00    -0.084 C  
HETATM   13  H   UNL     1      -5.199  14.584  69.795  1.00  0.00     0.000 HD 
HETATM   14  C   UNL     1      -7.313  13.303  67.480  1.00  0.00    -0.159 C  
BRANCH  14  15
HETATM   15  C   UNL     1      -7.605  11.870  66.986  1.00  0.00    -0.134 C  
BRANCH  15  16
HETATM   16  O   UNL     1      -8.190  11.113  68.051  1.00  0.00    -0.116 OA 
BRANCH  16  17
HETATM   17  C   UNL     1      -8.880   9.975  67.728  1.00  0.00    -0.125 A  
HETATM   18  C   UNL     1      -8.438   8.977  66.856  1.00  0.00    -0.120 A  
HETATM   19  C   UNL     1      -9.231   7.856  66.702  1.00  0.00    -0.177 A  
HETATM   20  C   UNL     1     -10.430   7.712  67.356  1.00  0.00    -0.297 A  
HETATM   21  C   UNL     1     -10.910   8.688  68.202  1.00  0.00    -0.018 A  
HETATM   22  O   UNL     1     -11.039   6.531  67.071  1.00  0.00    -0.399 OA 
HETATM   23  C   UNL     1     -10.116   9.825  68.392  1.00  0.00    -0.189 A  
HETATM   24  C   UNL     1     -10.051   5.918  66.215  1.00  0.00    -0.046 C  
HETATM   25  O   UNL     1      -8.935   6.783  65.920  1.00  0.00    -0.147 OA 
ENDBRANCH  16  17
ENDBRANCH  15  16
ENDBRANCH  14  15
ENDBRANCH   5   8
TORSDOF 4
ENDMDL
MODEL      203
REMARK 921   NORMALIZED FREE ENERGY PREDICTED BY IDOCK:   -4.40 KCAL/MOL
REMARK 922        TOTAL FREE ENERGY PREDICTED BY IDOCK:   -6.20 KCAL/MOL
REMARK 923 INTER-LIGAND FREE ENERGY PREDICTED BY IDOCK:   -5.72 KCAL/MOL
REMARK 924 INTRA-LIGAND FREE ENERGY PREDICTED BY IDOCK:   -0.48 KCAL/MOL
REMARK 927      BINDING AFFINITY PREDICTED BY RF-SCORE:    0.00 PKD
ROOT
HETATM    1  F   UNL     1     -10.492   9.669  71.306  1.00  0.00    -0.372 F  
HETATM    2  C   UNL     1     -10.463  10.140  70.053  1.00  0.00    -0.274 A  
HETATM    3  C   UNL     1     -11.636  10.587  69.460  1.00  0.00    -0.332 A  
HETATM    4  C   UNL     1     -11.612  11.059  68.142  1.00  0.00    -0.345 A  
HETATM    5  C   UNL     1     -10.417  11.061  67.405  1.00  0.00    -0.255 A  
HETATM    6  C   UNL     1      -9.258  10.180  69.366  1.00  0.00    -0.229 A  
HETATM    7  C   UNL     1      -9.235  10.644  68.049  1.00  0.00    -0.148 A  
ENDROOT
BRANCH   5   8
HETATM    8  C   UNL     1     -10.337  11.525  65.955  1.00  0.00    -0.293 C  
HETATM    9  C   UNL     1     -11.728  11.997  65.493  1.00  0.00    -0.315 C  
HETATM   10  C   UNL     1     -11.688  12.523  64.062  1.00  0.00    -0.423 C  
HETATM   11  N   UNL     1     -11.174  11.507  63.151  1.00  0.00    -0.833 NA 
HETATM   12  C   UNL     1      -9.812  11.106  63.508  1.00  0.00    -0.353 C  
HETATM   13  H   UNL     1     -11.230  11.814  62.180  1.00  0.00     0.000 HD 
HETATM   14  C   UNL     1      -9.740  10.518  64.931  1.00  0.00    -0.360 C  
BRANCH  14  15
HETATM   15  C   UNL     1      -8.283  10.136  65.269  1.00  0.00    -0.157 C  
BRANCH  15  16
HETATM   16  O   UNL     1      -7.851   9.093  64.388  1.00  0.00    -0.114 OA 
BRANCH  16  17
HETATM   17  C   UNL     1      -8.065   7.795  64.772  1.00  0.00    -0.131 A  
HETATM   18  C   UNL     1      -8.098   6.691  63.918  1.00  0.00    -0.012 A  
HETATM   19  C   UNL     1      -8.251   5.440  64.485  1.00  0.00    -0.133 A  
HETATM   20  C   UNL     1      -8.390   5.263  65.841  1.00  0.00    -0.120 A  
HETATM   21  C   UNL     1      -8.390   6.332  66.710  1.00  0.00    -0.110 A  
HETATM   22  O   UNL     1      -8.515   3.954  66.184  1.00  0.00    -0.108 OA 
HETATM   23  C   UNL     1      -8.216   7.609  66.162  1.00  0.00    -0.124 A  
HETATM   24  C   UNL     1      -8.368   3.322  64.894  1.00  0.00    -0.094 C  
HETATM   25  O   UNL     1      -8.272   4.263  63.804  1.00  0.00    -0.089 OA 
ENDBRANCH  16  17
ENDBRANCH  15  16
ENDBRANCH  14  15
ENDBRANCH   5   8
TORSDOF 4
ENDMDL
MODEL      204
REMARK 921   NORMALIZED FREE ENERGY PREDICTED BY IDOCK:   -4.39 KCAL/MOL
REMARK 922        TOTAL FREE ENERGY PREDICTED BY IDOCK:   -6.20 KCAL/MOL
REMARK 923 INTER-LIGAND FREE ENERGY PREDICTED BY IDOCK:   -5.50 KCAL/MOL
REMARK 924 INTRA-LIGAND FREE ENERGY PREDICTED BY IDOCK:   -0.70 KCAL/MOL
REMARK 927      BINDING AFFINITY PREDICTED BY RF-SCORE:    0.00 PKD
ROOT
HETATM    1  F   UNL     1     -13.335   9.368  72.782  1.00  0.00    -0.471 F  
HETATM    2  C   UNL     1     -12.486   9.776  71.829  1.00  0.00    -0.398 A  
HETATM    3  C   UNL     1     -12.799  10.890  71.062  1.00  0.00    -0.472 A  
HETATM    4  C   UNL     1     -11.925  11.304  70.049  1.00  0.00    -0.447 A  
HETATM    5  C   UNL     1     -10.747  10.588  69.786  1.00  0.00    -0.314 A  
HETATM    6  C   UNL     1     -11.304   9.081  71.624  1.00  0.00    -0.430 A  
HETATM    7  C   UNL     1     -10.434   9.489  70.611  1.00  0.00    -0.374 A  
ENDROOT
BRANCH   5   8
HETATM    8  C   UNL     1      -9.778  10.968  68.672  1.00  0.00    -0.198 C  
HETATM    9  C   UNL     1      -9.918  12.470  68.362  1.00  0.00    -0.212 C  
HETATM   10  C   UNL     1      -8.929  12.910  67.289  1.00  0.00    -0.208 C  
HETATM   11  N   UNL     1      -9.102  12.127  66.071  1.00  0.00    -0.413 NA 
HETATM   12  C   UNL     1      -8.880  10.700  66.314  1.00  0.00    -0.161 C  
HETATM   13  H   UNL     1      -8.510  12.473  65.317  1.00  0.00     0.000 HD 
HETATM   14  C   UNL     1      -9.859  10.135  67.361  1.00  0.00    -0.225 C  
BRANCH  14  15
HETATM   15  C   UNL     1      -9.568   8.638  67.601  1.00  0.00    -0.155 C  
BRANCH  15  16
HETATM   16  O   UNL     1      -8.273   8.499  68.199  1.00  0.00    -0.117 OA 
BRANCH  16  17
HETATM   17  C   UNL     1      -8.155   7.684  69.294  1.00  0.00    -0.128 A  
HETATM   18  C   UNL     1      -8.795   6.454  69.463  1.00  0.00    -0.136 A  
HETATM   19  C   UNL     1      -8.503   5.726  70.601  1.00  0.00    -0.128 A  
HETATM   20  C   UNL     1      -7.632   6.184  71.560  1.00  0.00    -0.099 A  
HETATM   21  C   UNL     1      -7.005   7.405  71.438  1.00  0.00    -0.055 A  
HETATM   22  O   UNL     1      -7.481   5.306  72.586  1.00  0.00    -0.092 OA 
HETATM   23  C   UNL     1      -7.268   8.153  70.285  1.00  0.00    -0.052 A  
HETATM   24  C   UNL     1      -8.304   4.211  72.128  1.00  0.00    -0.102 C  
HETATM   25  O   UNL     1      -9.011   4.501  70.905  1.00  0.00    -0.112 OA 
ENDBRANCH  16  17
ENDBRANCH  15  16
ENDBRANCH  14  15
ENDBRANCH   5   8
TORSDOF 4
ENDMDL
MODEL      205
REMARK 921   NORMALIZED FREE ENERGY PREDICTED BY IDOCK:   -4.38 KCAL/MOL
REMARK 922        TOTAL FREE ENERGY PREDICTED BY IDOCK:   -6.19 KCAL/MOL
REMARK 923 INTER-LIGAND FREE ENERGY PREDICTED BY IDOCK:   -4.17 KCAL/MOL
REMARK 924 INTRA-LIGAND FREE ENERGY PREDICTED BY IDOCK:   -2.02 KCAL/MOL
REMARK 927      BINDING AFFINITY PREDICTED BY RF-SCORE:    0.00 PKD
ROOT
HETATM    1  F   UNL     1      -8.591   3.288  65.309  1.00  0.00    -0.099 F  
HETATM    2  C   UNL     1      -9.037   4.459  65.783  1.00  0.00    -0.135 A  
HETATM    3  C   UNL     1     -10.339   4.558  66.254  1.00  0.00    -0.227 A  
HETATM    4  C   UNL     1     -10.815   5.786  66.729  1.00  0.00    -0.327 A  
HETATM    5  C   UNL     1      -9.994   6.925  66.711  1.00  0.00    -0.248 A  
HETATM    6  C   UNL     1      -8.188   5.556  65.802  1.00  0.00    -0.124 A  
HETATM    7  C   UNL     1      -8.664   6.783  66.269  1.00  0.00    -0.152 A  
ENDROOT
BRANCH   5   8
HETATM    8  C   UNL     1     -10.469   8.297  67.177  1.00  0.00    -0.386 C  
HETATM    9  C   UNL     1      -9.888   9.381  66.251  1.00  0.00    -0.351 C  
HETATM   10  C   UNL     1     -10.381  10.769  66.644  1.00  0.00    -0.241 C  
HETATM   11  N   UNL     1     -10.047  11.063  68.033  1.00  0.00    -0.175 NA 
HETATM   12  C   UNL     1     -10.666  10.103  68.948  1.00  0.00    -0.223 C  
HETATM   13  H   UNL     1     -10.289  12.023  68.280  1.00  0.00     0.000 HD 
HETATM   14  C   UNL     1     -10.205   8.659  68.666  1.00  0.00    -0.214 C  
BRANCH  14  15
HETATM   15  C   UNL     1     -10.904   7.684  69.638  1.00  0.00    -0.191 C  
BRANCH  15  16
HETATM   16  O   UNL     1      -9.938   7.156  70.554  1.00  0.00    -0.187 OA 
BRANCH  16  17
HETATM   17  C   UNL     1      -9.148   6.120  70.129  1.00  0.00    -0.152 A  
HETATM   18  C   UNL     1      -9.582   4.814  69.891  1.00  0.00    -0.251 A  
HETATM   19  C   UNL     1      -8.664   3.910  69.392  1.00  0.00    -0.079 A  
HETATM   20  C   UNL     1      -7.356   4.252  69.151  1.00  0.00    -0.055 A  
HETATM   21  C   UNL     1      -6.887   5.523  69.402  1.00  0.00    -0.061 A  
HETATM   22  O   UNL     1      -6.631   3.217  68.651  1.00  0.00    -0.039 OA 
HETATM   23  C   UNL     1      -7.802   6.464  69.888  1.00  0.00    -0.114 A  
HETATM   24  C   UNL     1      -7.652   2.202  68.540  1.00  0.00    -0.050 C  
HETATM   25  O   UNL     1      -8.927   2.613  69.075  1.00  0.00    -0.089 OA 
ENDBRANCH  16  17
ENDBRANCH  15  16
ENDBRANCH  14  15
ENDBRANCH   5   8
TORSDOF 4
ENDMDL
MODEL      206
REMARK 921   NORMALIZED FREE ENERGY PREDICTED BY IDOCK:   -4.38 KCAL/MOL
REMARK 922        TOTAL FREE ENERGY PREDICTED BY IDOCK:   -6.18 KCAL/MOL
REMARK 923 INTER-LIGAND FREE ENERGY PREDICTED BY IDOCK:   -4.86 KCAL/MOL
REMARK 924 INTRA-LIGAND FREE ENERGY PREDICTED BY IDOCK:   -1.32 KCAL/MOL
REMARK 927      BINDING AFFINITY PREDICTED BY RF-SCORE:    0.00 PKD
ROOT
HETATM    1  F   UNL     1      -9.194   4.651  65.941  1.00  0.00    -0.124 F  
HETATM    2  C   UNL     1      -9.264   5.128  67.191  1.00  0.00    -0.117 A  
HETATM    3  C   UNL     1      -9.884   4.377  68.180  1.00  0.00    -0.132 A  
HETATM    4  C   UNL     1      -9.978   4.884  69.482  1.00  0.00    -0.295 A  
HETATM    5  C   UNL     1      -9.473   6.157  69.790  1.00  0.00    -0.168 A  
HETATM    6  C   UNL     1      -8.711   6.367  67.480  1.00  0.00    -0.113 A  
HETATM    7  C   UNL     1      -8.810   6.877  68.777  1.00  0.00    -0.132 A  
ENDROOT
BRANCH   5   8
HETATM    8  C   UNL     1      -9.583   6.778  71.179  1.00  0.00    -0.177 C  
HETATM    9  C   UNL     1      -8.978   5.817  72.218  1.00  0.00    -0.139 C  
HETATM   10  C   UNL     1      -9.015   6.419  73.618  1.00  0.00    -0.125 C  
HETATM   11  N   UNL     1     -10.379   6.773  73.995  1.00  0.00    -0.373 NA 
HETATM   12  C   UNL     1     -10.949   7.761  73.078  1.00  0.00    -0.381 C  
HETATM   13  H   UNL     1     -10.429   7.090  74.963  1.00  0.00     0.000 HD 
HETATM   14  C   UNL     1     -10.999   7.240  71.628  1.00  0.00    -0.253 C  
BRANCH  14  15
HETATM   15  C   UNL     1     -11.582   8.326  70.698  1.00  0.00    -0.191 C  
BRANCH  15  16
HETATM   16  O   UNL     1     -10.752   9.493  70.756  1.00  0.00    -0.272 OA 
BRANCH  16  17
HETATM   17  C   UNL     1     -10.299  10.019  69.575  1.00  0.00    -0.235 A  
HETATM   18  C   UNL     1     -11.085  10.290  68.453  1.00  0.00    -0.302 A  
HETATM   19  C   UNL     1     -10.476  10.893  67.368  1.00  0.00    -0.224 A  
HETATM   20  C   UNL     1      -9.138  11.204  67.360  1.00  0.00    -0.142 A  
HETATM   21  C   UNL     1      -8.327  10.925  68.438  1.00  0.00    -0.136 A  
HETATM   22  O   UNL     1      -8.751  11.801  66.202  1.00  0.00    -0.160 OA 
HETATM   23  C   UNL     1      -8.924  10.333  69.558  1.00  0.00    -0.176 A  
HETATM   24  C   UNL     1     -10.015  11.892  65.509  1.00  0.00    -0.238 C  
HETATM   25  O   UNL     1     -11.099  11.253  66.214  1.00  0.00    -0.261 OA 
ENDBRANCH  16  17
ENDBRANCH  15  16
ENDBRANCH  14  15
ENDBRANCH   5   8
TORSDOF 4
ENDMDL
MODEL      207
REMARK 921   NORMALIZED FREE ENERGY PREDICTED BY IDOCK:   -4.37 KCAL/MOL
REMARK 922        TOTAL FREE ENERGY PREDICTED BY IDOCK:   -6.17 KCAL/MOL
REMARK 923 INTER-LIGAND FREE ENERGY PREDICTED BY IDOCK:   -4.92 KCAL/MOL
REMARK 924 INTRA-LIGAND FREE ENERGY PREDICTED BY IDOCK:   -1.25 KCAL/MOL
REMARK 927      BINDING AFFINITY PREDICTED BY RF-SCORE:    0.00 PKD
ROOT
HETATM    1  F   UNL     1      -8.882   4.274  65.795  1.00  0.00    -0.115 F  
HETATM    2  C   UNL     1      -9.329   5.449  66.257  1.00  0.00    -0.154 A  
HETATM    3  C   UNL     1     -10.662   5.581  66.623  1.00  0.00    -0.332 A  
HETATM    4  C   UNL     1     -11.137   6.814  67.084  1.00  0.00    -0.404 A  
HETATM    5  C   UNL     1     -10.284   7.927  67.157  1.00  0.00    -0.360 A  
HETATM    6  C   UNL     1      -8.452   6.518  66.368  1.00  0.00    -0.124 A  
HETATM    7  C   UNL     1      -8.927   7.750  66.821  1.00  0.00    -0.163 A  
ENDROOT
BRANCH   5   8
HETATM    8  C   UNL     1     -10.754   9.304  67.612  1.00  0.00    -0.276 C  
HETATM    9  C   UNL     1     -10.146  10.381  66.694  1.00  0.00    -0.279 C  
HETATM   10  C   UNL     1     -10.632  11.774  67.077  1.00  0.00    -0.232 C  
HETATM   11  N   UNL     1     -10.319  12.067  68.471  1.00  0.00    -0.217 NA 
HETATM   12  C   UNL     1     -10.963  11.115  69.377  1.00  0.00    -0.244 C  
HETATM   13  H   UNL     1     -10.556  13.030  68.712  1.00  0.00     0.000 HD 
HETATM   14  C   UNL     1     -10.512   9.666  69.105  1.00  0.00    -0.230 C  
BRANCH  14  15
HETATM   15  C   UNL     1     -11.237   8.700  70.066  1.00  0.00    -0.094 C  
BRANCH  15  16
HETATM   16  O   UNL     1     -10.363   8.370  71.153  1.00  0.00    -0.200 OA 
BRANCH  16  17
HETATM   17  C   UNL     1     -10.083   7.048  71.375  1.00  0.00    -0.189 A  
HETATM   18  C   UNL     1     -10.782   6.205  72.242  1.00  0.00    -0.268 A  
HETATM   19  C   UNL     1     -10.410   4.875  72.289  1.00  0.00    -0.206 A  
HETATM   20  C   UNL     1      -9.376   4.377  71.533  1.00  0.00    -0.143 A  
HETATM   21  C   UNL     1      -8.647   5.186  70.689  1.00  0.00    -0.126 A  
HETATM   22  O   UNL     1      -9.189   3.045  71.723  1.00  0.00    -0.097 OA 
HETATM   23  C   UNL     1      -9.017   6.533  70.608  1.00  0.00    -0.148 A  
HETATM   24  C   UNL     1     -10.271   2.747  72.633  1.00  0.00    -0.160 C  
HETATM   25  O   UNL     1     -11.004   3.917  73.051  1.00  0.00    -0.162 OA 
ENDBRANCH  16  17
ENDBRANCH  15  16
ENDBRANCH  14  15
ENDBRANCH   5   8
TORSDOF 4
ENDMDL
MODEL      208
REMARK 921   NORMALIZED FREE ENERGY PREDICTED BY IDOCK:   -4.36 KCAL/MOL
REMARK 922        TOTAL FREE ENERGY PREDICTED BY IDOCK:   -6.16 KCAL/MOL
REMARK 923 INTER-LIGAND FREE ENERGY PREDICTED BY IDOCK:   -5.04 KCAL/MOL
REMARK 924 INTRA-LIGAND FREE ENERGY PREDICTED BY IDOCK:   -1.12 KCAL/MOL
REMARK 927      BINDING AFFINITY PREDICTED BY RF-SCORE:    0.00 PKD
ROOT
HETATM    1  F   UNL     1      -7.207   7.895  74.531  1.00  0.00    -0.133 F  
HETATM    2  C   UNL     1      -7.711   8.279  73.351  1.00  0.00    -0.127 A  
HETATM    3  C   UNL     1      -9.086   8.401  73.198  1.00  0.00    -0.225 A  
HETATM    4  C   UNL     1      -9.616   8.780  71.959  1.00  0.00    -0.356 A  
HETATM    5  C   UNL     1      -8.773   9.013  70.862  1.00  0.00    -0.280 A  
HETATM    6  C   UNL     1      -6.852   8.553  72.298  1.00  0.00    -0.093 A  
HETATM    7  C   UNL     1      -7.380   8.925  71.060  1.00  0.00    -0.114 A  
ENDROOT
BRANCH   5   8
HETATM    8  C   UNL     1      -9.295   9.388  69.480  1.00  0.00    -0.187 C  
HETATM    9  C   UNL     1     -10.099  10.698  69.575  1.00  0.00    -0.164 C  
HETATM   10  C   UNL     1     -10.597  11.144  68.205  1.00  0.00    -0.190 C  
HETATM   11  N   UNL     1     -11.405  10.102  67.582  1.00  0.00    -0.536 NA 
HETATM   12  C   UNL     1     -10.638   8.871  67.390  1.00  0.00    -0.235 C  
HETATM   13  H   UNL     1     -11.820  10.423  66.708  1.00  0.00     0.000 HD 
HETATM   14  C   UNL     1     -10.115   8.303  68.724  1.00  0.00    -0.212 C  
BRANCH  14  15
HETATM   15  C   UNL     1      -9.291   7.023  68.465  1.00  0.00    -0.135 C  
BRANCH  15  16
HETATM   16  O   UNL     1     -10.126   5.876  68.664  1.00  0.00    -0.144 OA 
BRANCH  16  17
HETATM   17  C   UNL     1     -10.077   5.247  69.880  1.00  0.00    -0.263 A  
HETATM   18  C   UNL     1     -10.766   5.645  71.028  1.00  0.00    -0.304 A  
HETATM   19  C   UNL     1     -10.661   4.849  72.152  1.00  0.00    -0.164 A  
HETATM   20  C   UNL     1      -9.893   3.710  72.174  1.00  0.00    -0.170 A  
HETATM   21  C   UNL     1      -9.178   3.303  71.069  1.00  0.00    -0.199 A  
HETATM   22  O   UNL     1      -9.941   3.073  73.373  1.00  0.00    -0.101 OA 
HETATM   23  C   UNL     1      -9.284   4.081  69.910  1.00  0.00    -0.213 A  
HETATM   24  C   UNL     1     -10.884   3.906  74.083  1.00  0.00    -0.165 C  
HETATM   25  O   UNL     1     -11.289   5.073  73.338  1.00  0.00    -0.329 OA 
ENDBRANCH  16  17
ENDBRANCH  15  16
ENDBRANCH  14  15
ENDBRANCH   5   8
TORSDOF 4
ENDMDL
MODEL      209
REMARK 921   NORMALIZED FREE ENERGY PREDICTED BY IDOCK:   -4.36 KCAL/MOL
REMARK 922        TOTAL FREE ENERGY PREDICTED BY IDOCK:   -6.16 KCAL/MOL
REMARK 923 INTER-LIGAND FREE ENERGY PREDICTED BY IDOCK:   -5.42 KCAL/MOL
REMARK 924 INTRA-LIGAND FREE ENERGY PREDICTED BY IDOCK:   -0.73 KCAL/MOL
REMARK 927      BINDING AFFINITY PREDICTED BY RF-SCORE:    0.00 PKD
ROOT
HETATM    1  F   UNL     1     -12.401  15.439  69.153  1.00  0.00    -0.301 F  
HETATM    2  C   UNL     1     -11.367  14.657  68.815  1.00  0.00    -0.281 A  
HETATM    3  C   UNL     1     -10.194  15.234  68.345  1.00  0.00    -0.223 A  
HETATM    4  C   UNL     1      -9.121  14.418  67.970  1.00  0.00    -0.188 A  
HETATM    5  C   UNL     1      -9.227  13.020  68.041  1.00  0.00    -0.212 A  
HETATM    6  C   UNL     1     -11.480  13.281  68.945  1.00  0.00    -0.342 A  
HETATM    7  C   UNL     1     -10.412  12.466  68.564  1.00  0.00    -0.244 A  
ENDROOT
BRANCH   5   8
HETATM    8  C   UNL     1      -8.107  12.080  67.608  1.00  0.00    -0.155 C  
HETATM    9  C   UNL     1      -6.809  12.887  67.414  1.00  0.00    -0.133 C  
HETATM   10  C   UNL     1      -5.645  11.980  67.033  1.00  0.00    -0.112 C  
HETATM   11  N   UNL     1      -5.951  11.222  65.825  1.00  0.00    -0.442 NA 
HETATM   12  C   UNL     1      -7.127  10.370  66.010  1.00  0.00    -0.133 C  
HETATM   13  H   UNL     1      -5.145  10.683  65.509  1.00  0.00     0.000 HD 
HETATM   14  C   UNL     1      -8.383  11.191  66.362  1.00  0.00    -0.167 C  
BRANCH  14  15
HETATM   15  C   UNL     1      -9.587  10.248  66.572  1.00  0.00    -0.181 C  
BRANCH  15  16
HETATM   16  O   UNL     1      -9.115   8.976  67.034  1.00  0.00    -0.127 OA 
BRANCH  16  17
HETATM   17  C   UNL     1      -9.574   8.520  68.241  1.00  0.00    -0.144 A  
HETATM   18  C   UNL     1      -9.307   9.102  69.482  1.00  0.00    -0.165 A  
HETATM   19  C   UNL     1      -9.914   8.553  70.596  1.00  0.00    -0.189 A  
HETATM   20  C   UNL     1     -10.739   7.457  70.516  1.00  0.00    -0.233 A  
HETATM   21  C   UNL     1     -11.001   6.841  69.311  1.00  0.00    -0.303 A  
HETATM   22  O   UNL     1     -11.238   7.092  71.725  1.00  0.00    -0.236 OA 
HETATM   23  C   UNL     1     -10.415   7.390  68.164  1.00  0.00    -0.241 A  
HETATM   24  C   UNL     1     -10.687   8.127  72.568  1.00  0.00    -0.349 C  
HETATM   25  O   UNL     1      -9.789   9.014  71.870  1.00  0.00    -0.323 OA 
ENDBRANCH  16  17
ENDBRANCH  15  16
ENDBRANCH  14  15
ENDBRANCH   5   8
TORSDOF 4
ENDMDL
MODEL      210
REMARK 921   NORMALIZED FREE ENERGY PREDICTED BY IDOCK:   -4.32 KCAL/MOL
REMARK 922        TOTAL FREE ENERGY PREDICTED BY IDOCK:   -6.11 KCAL/MOL
REMARK 923 INTER-LIGAND FREE ENERGY PREDICTED BY IDOCK:   -5.22 KCAL/MOL
REMARK 924 INTRA-LIGAND FREE ENERGY PREDICTED BY IDOCK:   -0.90 KCAL/MOL
REMARK 927      BINDING AFFINITY PREDICTED BY RF-SCORE:    0.00 PKD
ROOT
HETATM    1  F   UNL     1      -8.684   3.873  65.961  1.00  0.00    -0.108 F  
HETATM    2  C   UNL     1      -8.459   5.146  66.310  1.00  0.00    -0.114 A  
HETATM    3  C   UNL     1      -8.600   6.153  65.365  1.00  0.00    -0.111 A  
HETATM    4  C   UNL     1      -8.343   7.482  65.721  1.00  0.00    -0.144 A  
HETATM    5  C   UNL     1      -7.920   7.804  67.021  1.00  0.00    -0.116 A  
HETATM    6  C   UNL     1      -8.093   5.442  67.615  1.00  0.00    -0.100 A  
HETATM    7  C   UNL     1      -7.830   6.767  67.970  1.00  0.00    -0.113 A  
ENDROOT
BRANCH   5   8
HETATM    8  C   UNL     1      -7.587   9.227  67.456  1.00  0.00    -0.088 C  
HETATM    9  C   UNL     1      -6.074   9.338  67.725  1.00  0.00    -0.053 C  
HETATM   10  C   UNL     1      -5.683  10.760  68.111  1.00  0.00    -0.043 C  
HETATM   11  N   UNL     1      -6.435  11.207  69.277  1.00  0.00    -0.077 NA 
HETATM   12  C   UNL     1      -7.876  11.204  69.020  1.00  0.00    -0.103 C  
HETATM   13  H   UNL     1      -6.116  12.120  69.600  1.00  0.00     0.000 HD 
HETATM   14  C   UNL     1      -8.394   9.798  68.656  1.00  0.00    -0.111 C  
BRANCH  14  15
HETATM   15  C   UNL     1      -9.909   9.853  68.369  1.00  0.00    -0.151 C  
BRANCH  15  16
HETATM   16  O   UNL     1     -10.368  11.203  68.506  1.00  0.00    -0.178 OA 
BRANCH  16  17
HETATM   17  C   UNL     1     -10.895  11.819  67.402  1.00  0.00    -0.251 A  
HETATM   18  C   UNL     1     -10.687  11.427  66.078  1.00  0.00    -0.318 A  
HETATM   19  C   UNL     1     -11.359  12.118  65.087  1.00  0.00    -0.327 A  
HETATM   20  C   UNL     1     -12.191  13.175  65.367  1.00  0.00    -0.461 A  
HETATM   21  C   UNL     1     -12.396  13.607  66.660  1.00  0.00    -0.381 A  
HETATM   22  O   UNL     1     -12.757  13.701  64.250  1.00  0.00    -0.647 OA 
HETATM   23  C   UNL     1     -11.744  12.910  67.684  1.00  0.00    -0.422 A  
HETATM   24  C   UNL     1     -12.239  12.809  63.239  1.00  0.00    -0.410 C  
HETATM   25  O   UNL     1     -11.295  11.848  63.755  1.00  0.00    -0.387 OA 
ENDBRANCH  16  17
ENDBRANCH  15  16
ENDBRANCH  14  15
ENDBRANCH   5   8
TORSDOF 4
ENDMDL
MODEL      211
REMARK 921   NORMALIZED FREE ENERGY PREDICTED BY IDOCK:   -4.31 KCAL/MOL
REMARK 922        TOTAL FREE ENERGY PREDICTED BY IDOCK:   -6.10 KCAL/MOL
REMARK 923 INTER-LIGAND FREE ENERGY PREDICTED BY IDOCK:   -5.23 KCAL/MOL
REMARK 924 INTRA-LIGAND FREE ENERGY PREDICTED BY IDOCK:   -0.87 KCAL/MOL
REMARK 927      BINDING AFFINITY PREDICTED BY RF-SCORE:    0.00 PKD
ROOT
HETATM    1  F   UNL     1      -9.728  17.890  66.853  1.00  0.00    -0.270 F  
HETATM    2  C   UNL     1      -9.969  16.622  67.212  1.00  0.00    -0.270 A  
HETATM    3  C   UNL     1     -10.521  15.740  66.292  1.00  0.00    -0.315 A  
HETATM    4  C   UNL     1     -10.795  14.421  66.671  1.00  0.00    -0.304 A  
HETATM    5  C   UNL     1     -10.541  13.988  67.982  1.00  0.00    -0.250 A  
HETATM    6  C   UNL     1      -9.660  16.206  68.498  1.00  0.00    -0.215 A  
HETATM    7  C   UNL     1      -9.939  14.892  68.880  1.00  0.00    -0.233 A  
ENDROOT
BRANCH   5   8
HETATM    8  C   UNL     1     -10.856  12.576  68.464  1.00  0.00    -0.271 C  
HETATM    9  C   UNL     1     -11.836  12.648  69.650  1.00  0.00    -0.379 C  
HETATM   10  C   UNL     1     -12.225  11.255  70.133  1.00  0.00    -0.330 C  
HETATM   11  N   UNL     1     -11.043  10.486  70.503  1.00  0.00    -0.427 NA 
HETATM   12  C   UNL     1     -10.135  10.317  69.368  1.00  0.00    -0.235 C  
HETATM   13  H   UNL     1     -11.296   9.587  70.915  1.00  0.00     0.000 HD 
HETATM   14  C   UNL     1      -9.642  11.671  68.819  1.00  0.00    -0.083 C  
BRANCH  14  15
HETATM   15  C   UNL     1      -8.711  11.441  67.609  1.00  0.00    -0.136 C  
BRANCH  15  16
HETATM   16  O   UNL     1      -9.496  11.047  66.477  1.00  0.00    -0.180 OA 
BRANCH  16  17
HETATM   17  C   UNL     1      -8.986  10.088  65.643  1.00  0.00    -0.172 A  
HETATM   18  C   UNL     1      -8.460   8.858  66.045  1.00  0.00    -0.138 A  
HETATM   19  C   UNL     1      -8.056   7.976  65.062  1.00  0.00    -0.145 A  
HETATM   20  C   UNL     1      -8.137   8.282  63.725  1.00  0.00    -0.126 A  
HETATM   21  C   UNL     1      -8.623   9.497  63.293  1.00  0.00    -0.217 A  
HETATM   22  O   UNL     1      -7.699   7.270  62.932  1.00  0.00    -0.114 OA 
HETATM   23  C   UNL     1      -9.059  10.401  64.269  1.00  0.00    -0.270 A  
HETATM   24  C   UNL     1      -7.398   6.262  63.923  1.00  0.00    -0.069 C  
HETATM   25  O   UNL     1      -7.555   6.730  65.278  1.00  0.00    -0.081 OA 
ENDBRANCH  16  17
ENDBRANCH  15  16
ENDBRANCH  14  15
ENDBRANCH   5   8
TORSDOF 4
ENDMDL
MODEL      212
REMARK 921   NORMALIZED FREE ENERGY PREDICTED BY IDOCK:   -4.29 KCAL/MOL
REMARK 922        TOTAL FREE ENERGY PREDICTED BY IDOCK:   -6.07 KCAL/MOL
REMARK 923 INTER-LIGAND FREE ENERGY PREDICTED BY IDOCK:   -4.70 KCAL/MOL
REMARK 924 INTRA-LIGAND FREE ENERGY PREDICTED BY IDOCK:   -1.37 KCAL/MOL
REMARK 927      BINDING AFFINITY PREDICTED BY RF-SCORE:    0.00 PKD
ROOT
HETATM    1  F   UNL     1      -7.363   6.041  65.838  1.00  0.00    -0.070 F  
HETATM    2  C   UNL     1      -8.181   6.908  66.450  1.00  0.00    -0.117 A  
HETATM    3  C   UNL     1      -9.555   6.715  66.393  1.00  0.00    -0.147 A  
HETATM    4  C   UNL     1     -10.412   7.632  67.012  1.00  0.00    -0.419 A  
HETATM    5  C   UNL     1      -9.896   8.759  67.672  1.00  0.00    -0.228 A  
HETATM    6  C   UNL     1      -7.642   7.984  67.139  1.00  0.00    -0.097 A  
HETATM    7  C   UNL     1      -8.497   8.903  67.752  1.00  0.00    -0.125 A  
ENDROOT
BRANCH   5   8
HETATM    8  C   UNL     1     -10.781   9.812  68.329  1.00  0.00    -0.277 C  
HETATM    9  C   UNL     1     -10.407  11.204  67.788  1.00  0.00    -0.215 C  
HETATM   10  C   UNL     1     -11.304  12.287  68.377  1.00  0.00    -0.292 C  
HETATM   11  N   UNL     1     -11.238  12.280  69.834  1.00  0.00    -0.485 NA 
HETATM   12  C   UNL     1     -11.680  10.998  70.384  1.00  0.00    -0.343 C  
HETATM   13  H   UNL     1     -11.761  13.058  70.235  1.00  0.00     0.000 HD 
HETATM   14  C   UNL     1     -10.813   9.826  69.884  1.00  0.00    -0.306 C  
BRANCH  14  15
HETATM   15  C   UNL     1     -11.335   8.496  70.470  1.00  0.00    -0.217 C  
BRANCH  15  16
HETATM   16  O   UNL     1     -10.341   7.941  71.339  1.00  0.00    -0.195 OA 
BRANCH  16  17
HETATM   17  C   UNL     1      -9.908   6.665  71.089  1.00  0.00    -0.181 A  
HETATM   18  C   UNL     1      -8.825   6.320  70.277  1.00  0.00    -0.153 A  
HETATM   19  C   UNL     1      -8.480   4.984  70.195  1.00  0.00    -0.092 A  
HETATM   20  C   UNL     1      -9.176   4.005  70.862  1.00  0.00    -0.133 A  
HETATM   21  C   UNL     1     -10.267   4.307  71.649  1.00  0.00    -0.160 A  
HETATM   22  O   UNL     1      -8.661   2.766  70.652  1.00  0.00    -0.063 OA 
HETATM   23  C   UNL     1     -10.625   5.656  71.766  1.00  0.00    -0.296 A  
HETATM   24  C   UNL     1      -7.516   3.085  69.831  1.00  0.00    -0.044 C  
HETATM   25  O   UNL     1      -7.438   4.482  69.479  1.00  0.00    -0.051 OA 
ENDBRANCH  16  17
ENDBRANCH  15  16
ENDBRANCH  14  15
ENDBRANCH   5   8
TORSDOF 4
ENDMDL
MODEL      213
REMARK 921   NORMALIZED FREE ENERGY PREDICTED BY IDOCK:   -4.25 KCAL/MOL
REMARK 922        TOTAL FREE ENERGY PREDICTED BY IDOCK:   -6.02 KCAL/MOL
REMARK 923 INTER-LIGAND FREE ENERGY PREDICTED BY IDOCK:   -5.07 KCAL/MOL
REMARK 924 INTRA-LIGAND FREE ENERGY PREDICTED BY IDOCK:   -0.95 KCAL/MOL
REMARK 927      BINDING AFFINITY PREDICTED BY RF-SCORE:    0.00 PKD
ROOT
HETATM    1  F   UNL     1      -8.291  15.914  68.018  1.00  0.00    -0.153 F  
HETATM    2  C   UNL     1      -8.090  14.593  67.927  1.00  0.00    -0.145 A  
HETATM    3  C   UNL     1      -6.915  14.114  67.363  1.00  0.00    -0.070 A  
HETATM    4  C   UNL     1      -6.713  12.734  67.245  1.00  0.00    -0.089 A  
HETATM    5  C   UNL     1      -7.698  11.829  67.670  1.00  0.00    -0.137 A  
HETATM    6  C   UNL     1      -9.058  13.720  68.402  1.00  0.00    -0.175 A  
HETATM    7  C   UNL     1      -8.860  12.343  68.279  1.00  0.00    -0.174 A  
ENDROOT
BRANCH   5   8
HETATM    8  C   UNL     1      -7.552  10.318  67.530  1.00  0.00    -0.094 C  
HETATM    9  C   UNL     1      -6.784   9.764  68.745  1.00  0.00    -0.050 C  
HETATM   10  C   UNL     1      -6.660   8.246  68.678  1.00  0.00    -0.054 C  
HETATM   11  N   UNL     1      -6.007   7.834  67.441  1.00  0.00    -0.047 NA 
HETATM   12  C   UNL     1      -6.766   8.263  66.265  1.00  0.00    -0.057 C  
HETATM   13  H   UNL     1      -5.835   6.829  67.426  1.00  0.00     0.000 HD 
HETATM   14  C   UNL     1      -6.920   9.796  66.207  1.00  0.00    -0.094 C  
BRANCH  14  15
HETATM   15  C   UNL     1      -7.748  10.196  64.967  1.00  0.00    -0.141 C  
BRANCH  15  16
HETATM   16  O   UNL     1      -9.109   9.789  65.156  1.00  0.00    -0.189 OA 
BRANCH  16  17
HETATM   17  C   UNL     1     -10.093  10.719  64.948  1.00  0.00    -0.322 A  
HETATM   18  C   UNL     1     -10.807  11.382  65.949  1.00  0.00    -0.292 A  
HETATM   19  C   UNL     1     -11.716  12.348  65.562  1.00  0.00    -0.407 A  
HETATM   20  C   UNL     1     -11.944  12.651  64.242  1.00  0.00    -0.408 A  
HETATM   21  C   UNL     1     -11.278  11.998  63.228  1.00  0.00    -0.403 A  
HETATM   22  O   UNL     1     -12.866  13.637  64.086  1.00  0.00    -0.611 OA 
HETATM   23  C   UNL     1     -10.337  11.028  63.594  1.00  0.00    -0.415 A  
HETATM   24  C   UNL     1     -13.140  13.969  65.465  1.00  0.00    -0.178 C  
HETATM   25  O   UNL     1     -12.467  13.107  66.405  1.00  0.00    -0.367 OA 
ENDBRANCH  16  17
ENDBRANCH  15  16
ENDBRANCH  14  15
ENDBRANCH   5   8
TORSDOF 4
ENDMDL
MODEL      214
REMARK 921   NORMALIZED FREE ENERGY PREDICTED BY IDOCK:   -4.23 KCAL/MOL
REMARK 922        TOTAL FREE ENERGY PREDICTED BY IDOCK:   -5.99 KCAL/MOL
REMARK 923 INTER-LIGAND FREE ENERGY PREDICTED BY IDOCK:   -5.37 KCAL/MOL
REMARK 924 INTRA-LIGAND FREE ENERGY PREDICTED BY IDOCK:   -0.62 KCAL/MOL
REMARK 927      BINDING AFFINITY PREDICTED BY RF-SCORE:    0.00 PKD
ROOT
HETATM    1  F   UNL     1     -11.312  20.210  64.889  1.00  0.00    -0.310 F  
HETATM    2  C   UNL     1     -10.470  19.826  65.857  1.00  0.00    -0.486 A  
HETATM    3  C   UNL     1      -9.107  20.046  65.709  1.00  0.00    -0.032 A  
HETATM    4  C   UNL     1      -8.222  19.626  66.710  1.00  0.00    -0.331 A  
HETATM    5  C   UNL     1      -8.699  18.961  67.851  1.00  0.00    -0.327 A  
HETATM    6  C   UNL     1     -10.972  19.219  66.998  1.00  0.00    -0.413 A  
HETATM    7  C   UNL     1     -10.090  18.793  67.994  1.00  0.00    -0.417 A  
ENDROOT
BRANCH   5   8
HETATM    8  C   UNL     1      -7.781  18.445  68.953  1.00  0.00    -0.233 C  
HETATM    9  C   UNL     1      -6.710  19.507  69.266  1.00  0.00    -0.376 C  
HETATM   10  C   UNL     1      -5.800  19.058  70.403  1.00  0.00    -0.170 C  
HETATM   11  N   UNL     1      -5.166  17.784  70.087  1.00  0.00    -0.207 NA 
HETATM   12  C   UNL     1      -6.158  16.728  69.878  1.00  0.00    -0.194 C  
HETATM   13  H   UNL     1      -4.484  17.519  70.798  1.00  0.00     0.000 HD 
HETATM   14  C   UNL     1      -7.115  17.059  68.717  1.00  0.00    -0.219 C  
BRANCH  14  15
HETATM   15  C   UNL     1      -8.156  15.931  68.554  1.00  0.00    -0.157 C  
BRANCH  15  16
HETATM   16  O   UNL     1      -7.629  14.718  69.105  1.00  0.00    -0.140 OA 
BRANCH  16  17
HETATM   17  C   UNL     1      -8.061  13.530  68.577  1.00  0.00    -0.108 A  
HETATM   18  C   UNL     1      -9.394  13.185  68.340  1.00  0.00    -0.154 A  
HETATM   19  C   UNL     1      -9.647  11.971  67.730  1.00  0.00    -0.193 A  
HETATM   20  C   UNL     1      -8.642  11.104  67.379  1.00  0.00    -0.137 A  
HETATM   21  C   UNL     1      -7.318  11.400  67.624  1.00  0.00    -0.102 A  
HETATM   22  O   UNL     1      -9.111   9.977  66.783  1.00  0.00    -0.138 OA 
HETATM   23  C   UNL     1      -7.033  12.633  68.222  1.00  0.00    -0.095 A  
HETATM   24  C   UNL     1     -10.525  10.266  66.736  1.00  0.00    -0.214 C  
HETATM   25  O   UNL     1     -10.879  11.497  67.399  1.00  0.00    -0.219 OA 
ENDBRANCH  16  17
ENDBRANCH  15  16
ENDBRANCH  14  15
ENDBRANCH   5   8
TORSDOF 4
ENDMDL
MODEL      215
REMARK 921   NORMALIZED FREE ENERGY PREDICTED BY IDOCK:   -4.21 KCAL/MOL
REMARK 922        TOTAL FREE ENERGY PREDICTED BY IDOCK:   -5.97 KCAL/MOL
REMARK 923 INTER-LIGAND FREE ENERGY PREDICTED BY IDOCK:   -5.32 KCAL/MOL
REMARK 924 INTRA-LIGAND FREE ENERGY PREDICTED BY IDOCK:   -0.65 KCAL/MOL
REMARK 927      BINDING AFFINITY PREDICTED BY RF-SCORE:    0.00 PKD
ROOT
HETATM    1  F   UNL     1      -9.993  16.462  65.413  1.00  0.00    -0.315 F  
HETATM    2  C   UNL     1     -10.388  15.426  66.164  1.00  0.00    -0.313 A  
HETATM    3  C   UNL     1     -11.020  14.345  65.566  1.00  0.00    -0.330 A  
HETATM    4  C   UNL     1     -11.455  13.271  66.353  1.00  0.00    -0.364 A  
HETATM    5  C   UNL     1     -11.280  13.290  67.745  1.00  0.00    -0.308 A  
HETATM    6  C   UNL     1     -10.156  15.447  67.532  1.00  0.00    -0.233 A  
HETATM    7  C   UNL     1     -10.595  14.380  68.318  1.00  0.00    -0.243 A  
ENDROOT
BRANCH   5   8
HETATM    8  C   UNL     1     -11.769  12.169  68.657  1.00  0.00    -0.382 C  
HETATM    9  C   UNL     1     -12.183  12.761  70.017  1.00  0.00    -0.279 C  
HETATM   10  C   UNL     1     -12.732  11.685  70.946  1.00  0.00    -0.258 C  
HETATM   11  N   UNL     1     -11.755  10.619  71.139  1.00  0.00    -0.252 NA 
HETATM   12  C   UNL     1     -11.412   9.971  69.872  1.00  0.00    -0.215 C  
HETATM   13  H   UNL     1     -12.074   9.941  71.830  1.00  0.00     0.000 HD 
HETATM   14  C   UNL     1     -10.806  10.965  68.862  1.00  0.00    -0.262 C  
BRANCH  14  15
HETATM   15  C   UNL     1     -10.487  10.240  67.536  1.00  0.00    -0.244 C  
BRANCH  15  16
HETATM   16  O   UNL     1      -9.140   9.755  67.576  1.00  0.00    -0.131 OA 
BRANCH  16  17
HETATM   17  C   UNL     1      -8.943   8.400  67.564  1.00  0.00    -0.135 A  
HETATM   18  C   UNL     1      -7.766   7.747  67.937  1.00  0.00    -0.122 A  
HETATM   19  C   UNL     1      -7.766   6.365  67.937  1.00  0.00    -0.104 A  
HETATM   20  C   UNL     1      -8.867   5.633  67.566  1.00  0.00    -0.105 A  
HETATM   21  C   UNL     1     -10.036   6.244  67.165  1.00  0.00    -0.189 A  
HETATM   22  O   UNL     1      -8.654   4.294  67.651  1.00  0.00    -0.101 OA 
HETATM   23  C   UNL     1     -10.069   7.643  67.176  1.00  0.00    -0.323 A  
HETATM   24  C   UNL     1      -7.313   4.268  68.186  1.00  0.00    -0.064 C  
HETATM   25  O   UNL     1      -6.719   5.577  68.303  1.00  0.00    -0.051 OA 
ENDBRANCH  16  17
ENDBRANCH  15  16
ENDBRANCH  14  15
ENDBRANCH   5   8
TORSDOF 4
ENDMDL
MODEL      216
REMARK 921   NORMALIZED FREE ENERGY PREDICTED BY IDOCK:   -4.20 KCAL/MOL
REMARK 922        TOTAL FREE ENERGY PREDICTED BY IDOCK:   -5.96 KCAL/MOL
REMARK 923 INTER-LIGAND FREE ENERGY PREDICTED BY IDOCK:   -5.06 KCAL/MOL
REMARK 924 INTRA-LIGAND FREE ENERGY PREDICTED BY IDOCK:   -0.90 KCAL/MOL
REMARK 927      BINDING AFFINITY PREDICTED BY RF-SCORE:    0.00 PKD
ROOT
HETATM    1  F   UNL     1      -7.865   5.141  64.680  1.00  0.00    -0.080 F  
HETATM    2  C   UNL     1      -8.174   5.918  65.726  1.00  0.00    -0.130 A  
HETATM    3  C   UNL     1      -8.297   7.290  65.551  1.00  0.00    -0.137 A  
HETATM    4  C   UNL     1      -8.597   8.106  66.648  1.00  0.00    -0.140 A  
HETATM    5  C   UNL     1      -8.752   7.553  67.929  1.00  0.00    -0.124 A  
HETATM    6  C   UNL     1      -8.373   5.339  66.971  1.00  0.00    -0.107 A  
HETATM    7  C   UNL     1      -8.666   6.154  68.067  1.00  0.00    -0.113 A  
ENDROOT
BRANCH   5   8
HETATM    8  C   UNL     1      -9.039   8.396  69.167  1.00  0.00    -0.147 C  
HETATM    9  C   UNL     1      -8.307   7.790  70.379  1.00  0.00    -0.123 C  
HETATM   10  C   UNL     1      -8.519   8.631  71.632  1.00  0.00    -0.167 C  
HETATM   11  N   UNL     1      -9.941   8.776  71.925  1.00  0.00    -0.317 NA 
HETATM   12  C   UNL     1     -10.649   9.437  70.828  1.00  0.00    -0.303 C  
HETATM   13  H   UNL     1     -10.092   9.257  72.811  1.00  0.00     0.000 HD 
HETATM   14  C   UNL     1     -10.535   8.648  69.509  1.00  0.00    -0.222 C  
BRANCH  14  15
HETATM   15  C   UNL     1     -11.274   9.398  68.381  1.00  0.00     0.189 C  
BRANCH  15  16
HETATM   16  O   UNL     1     -11.576  10.729  68.816  1.00  0.00    -0.282 OA 
BRANCH  16  17
HETATM   17  C   UNL     1     -11.317  11.762  67.954  1.00  0.00    -0.292 A  
HETATM   18  C   UNL     1     -11.553  13.114  68.214  1.00  0.00    -0.370 A  
HETATM   19  C   UNL     1     -11.162  14.033  67.259  1.00  0.00    -0.312 A  
HETATM   20  C   UNL     1     -10.578  13.654  66.074  1.00  0.00    -0.290 A  
HETATM   21  C   UNL     1     -10.356  12.328  65.773  1.00  0.00    -0.287 A  
HETATM   22  O   UNL     1     -10.262  14.716  65.288  1.00  0.00    -0.360 OA 
HETATM   23  C   UNL     1     -10.725  11.378  66.733  1.00  0.00    -0.316 A  
HETATM   24  C   UNL     1     -10.650  15.811  66.145  1.00  0.00    -0.313 C  
HETATM   25  O   UNL     1     -11.287  15.383  67.366  1.00  0.00    -0.319 OA 
ENDBRANCH  16  17
ENDBRANCH  15  16
ENDBRANCH  14  15
ENDBRANCH   5   8
TORSDOF 4
ENDMDL
MODEL      217
REMARK 921   NORMALIZED FREE ENERGY PREDICTED BY IDOCK:   -4.18 KCAL/MOL
REMARK 922        TOTAL FREE ENERGY PREDICTED BY IDOCK:   -5.93 KCAL/MOL
REMARK 923 INTER-LIGAND FREE ENERGY PREDICTED BY IDOCK:   -5.71 KCAL/MOL
REMARK 924 INTRA-LIGAND FREE ENERGY PREDICTED BY IDOCK:   -0.22 KCAL/MOL
REMARK 927      BINDING AFFINITY PREDICTED BY RF-SCORE:    0.00 PKD
ROOT
HETATM    1  F   UNL     1     -10.875   5.056  70.579  1.00  0.00    -0.273 F  
HETATM    2  C   UNL     1     -10.494   5.810  69.540  1.00  0.00    -0.293 A  
HETATM    3  C   UNL     1     -10.601   5.307  68.250  1.00  0.00    -0.074 A  
HETATM    4  C   UNL     1     -10.181   6.084  67.164  1.00  0.00    -0.248 A  
HETATM    5  C   UNL     1      -9.629   7.358  67.369  1.00  0.00    -0.184 A  
HETATM    6  C   UNL     1     -10.000   7.086  69.767  1.00  0.00    -0.179 A  
HETATM    7  C   UNL     1      -9.575   7.859  68.684  1.00  0.00    -0.155 A  
ENDROOT
BRANCH   5   8
HETATM    8  C   UNL     1      -9.118   8.233  66.229  1.00  0.00    -0.235 C  
HETATM    9  C   UNL     1      -7.844   7.604  65.634  1.00  0.00    -0.109 C  
HETATM   10  C   UNL     1      -7.326   8.416  64.452  1.00  0.00    -0.091 C  
HETATM   11  N   UNL     1      -7.068   9.796  64.845  1.00  0.00    -0.118 NA 
HETATM   12  C   UNL     1      -8.284  10.453  65.326  1.00  0.00    -0.162 C  
HETATM   13  H   UNL     1      -6.634  10.325  64.088  1.00  0.00     0.000 HD 
HETATM   14  C   UNL     1      -8.879   9.735  66.554  1.00  0.00    -0.154 C  
BRANCH  14  15
HETATM   15  C   UNL     1     -10.171  10.448  67.007  1.00  0.00    -0.225 C  
BRANCH  15  16
HETATM   16  O   UNL     1      -9.850  11.771  67.453  1.00  0.00    -0.177 OA 
BRANCH  16  17
HETATM   17  C   UNL     1     -10.190  12.823  66.645  1.00  0.00    -0.238 A  
HETATM   18  C   UNL     1     -11.333  12.896  65.846  1.00  0.00    -0.348 A  
HETATM   19  C   UNL     1     -11.560  14.067  65.149  1.00  0.00    -0.342 A  
HETATM   20  C   UNL     1     -10.693  15.132  65.205  1.00  0.00    -0.422 A  
HETATM   21  C   UNL     1      -9.542  15.084  65.960  1.00  0.00    -0.359 A  
HETATM   22  O   UNL     1     -11.114  16.185  64.455  1.00  0.00    -0.628 OA 
HETATM   23  C   UNL     1      -9.299  13.916  66.693  1.00  0.00    -0.282 A  
HETATM   24  C   UNL     1     -12.381  15.685  63.976  1.00  0.00     0.253 C  
HETATM   25  O   UNL     1     -12.636  14.316  64.354  1.00  0.00    -0.665 OA 
ENDBRANCH  16  17
ENDBRANCH  15  16
ENDBRANCH  14  15
ENDBRANCH   5   8
TORSDOF 4
ENDMDL
MODEL      218
REMARK 921   NORMALIZED FREE ENERGY PREDICTED BY IDOCK:   -4.17 KCAL/MOL
REMARK 922        TOTAL FREE ENERGY PREDICTED BY IDOCK:   -5.93 KCAL/MOL
REMARK 923 INTER-LIGAND FREE ENERGY PREDICTED BY IDOCK:   -5.25 KCAL/MOL
REMARK 924 INTRA-LIGAND FREE ENERGY PREDICTED BY IDOCK:   -0.68 KCAL/MOL
REMARK 927      BINDING AFFINITY PREDICTED BY RF-SCORE:    0.00 PKD
ROOT
HETATM    1  F   UNL     1      -7.697  21.058  67.686  1.00  0.00    -0.331 F  
HETATM    2  C   UNL     1      -8.326  20.003  67.152  1.00  0.00    -0.332 A  
HETATM    3  C   UNL     1      -9.661  19.773  67.456  1.00  0.00    -0.490 A  
HETATM    4  C   UNL     1     -10.315  18.659  66.917  1.00  0.00    -0.444 A  
HETATM    5  C   UNL     1      -9.625  17.757  66.092  1.00  0.00    -0.202 A  
HETATM    6  C   UNL     1      -7.635  19.156  66.297  1.00  0.00    -0.290 A  
HETATM    7  C   UNL     1      -8.285  18.041  65.765  1.00  0.00     0.215 A  
ENDROOT
BRANCH   5   8
HETATM    8  C   UNL     1     -10.273  16.505  65.509  1.00  0.00    -0.261 C  
HETATM    9  C   UNL     1     -11.650  16.867  64.924  1.00  0.00     0.772 C  
HETATM   10  C   UNL     1     -12.314  15.656  64.279  1.00  0.00     0.087 C  
HETATM   11  N   UNL     1     -12.447  14.566  65.238  1.00  0.00    -0.333 NA 
HETATM   12  C   UNL     1     -11.143  14.133  65.743  1.00  0.00    -0.309 C  
HETATM   13  H   UNL     1     -12.973  13.785  64.846  1.00  0.00     0.000 HD 
HETATM   14  C   UNL     1     -10.393  15.276  66.455  1.00  0.00    -0.296 C  
BRANCH  14  15
HETATM   15  C   UNL     1      -9.016  14.778  66.944  1.00  0.00    -0.253 C  
BRANCH  15  16
HETATM   16  O   UNL     1      -9.179  14.082  68.186  1.00  0.00    -0.184 OA 
BRANCH  16  17
HETATM   17  C   UNL     1     -10.203  14.469  69.010  1.00  0.00    -0.206 A  
HETATM   18  C   UNL     1     -11.321  13.696  69.332  1.00  0.00    -0.303 A  
HETATM   19  C   UNL     1     -12.223  14.213  70.242  1.00  0.00    -0.349 A  
HETATM   20  C   UNL     1     -12.061  15.454  70.809  1.00  0.00    -0.366 A  
HETATM   21  C   UNL     1     -10.985  16.255  70.493  1.00  0.00    -0.233 A  
HETATM   22  O   UNL     1     -13.055  15.760  71.683  1.00  0.00    -0.481 OA 
HETATM   23  C   UNL     1     -10.045  15.745  69.589  1.00  0.00    -0.289 A  
HETATM   24  C   UNL     1     -13.825  14.539  71.654  1.00  0.00    -0.434 C  
HETATM   25  O   UNL     1     -13.343  13.582  70.688  1.00  0.00     0.063 OA 
ENDBRANCH  16  17
ENDBRANCH  15  16
ENDBRANCH  14  15
ENDBRANCH   5   8
TORSDOF 4
ENDMDL
MODEL      219
REMARK 921   NORMALIZED FREE ENERGY PREDICTED BY IDOCK:   -4.16 KCAL/MOL
REMARK 922        TOTAL FREE ENERGY PREDICTED BY IDOCK:   -5.91 KCAL/MOL
REMARK 923 INTER-LIGAND FREE ENERGY PREDICTED BY IDOCK:   -5.10 KCAL/MOL
REMARK 924 INTRA-LIGAND FREE ENERGY PREDICTED BY IDOCK:   -0.81 KCAL/MOL
REMARK 927      BINDING AFFINITY PREDICTED BY RF-SCORE:    0.00 PKD
ROOT
HETATM    1  F   UNL     1      -9.586   4.829  66.437  1.00  0.00    -0.131 F  
HETATM    2  C   UNL     1      -9.055   6.018  66.751  1.00  0.00    -0.131 A  
HETATM    3  C   UNL     1      -8.922   6.381  68.084  1.00  0.00    -0.116 A  
HETATM    4  C   UNL     1      -8.389   7.633  68.414  1.00  0.00    -0.125 A  
HETATM    5  C   UNL     1      -8.011   8.536  67.408  1.00  0.00    -0.102 A  
HETATM    6  C   UNL     1      -8.642   6.871  65.737  1.00  0.00    -0.139 A  
HETATM    7  C   UNL     1      -8.116   8.122  66.065  1.00  0.00    -0.112 A  
ENDROOT
BRANCH   5   8
HETATM    8  C   UNL     1      -7.463   9.927  67.706  1.00  0.00    -0.090 C  
HETATM    9  C   UNL     1      -6.361   9.824  68.777  1.00  0.00    -0.046 C  
HETATM   10  C   UNL     1      -5.743  11.186  69.070  1.00  0.00    -0.040 C  
HETATM   11  N   UNL     1      -6.763  12.139  69.489  1.00  0.00    -0.292 NA 
HETATM   12  C   UNL     1      -7.777  12.332  68.451  1.00  0.00    -0.141 C  
HETATM   13  H   UNL     1      -6.350  13.026  69.777  1.00  0.00     0.000 HD 
HETATM   14  C   UNL     1      -8.500  11.017  68.100  1.00  0.00    -0.135 C  
BRANCH  14  15
HETATM   15  C   UNL     1      -9.538  11.268  66.985  1.00  0.00    -0.178 C  
BRANCH  15  16
HETATM   16  O   UNL     1     -10.855  11.209  67.543  1.00  0.00    -0.219 OA 
BRANCH  16  17
HETATM   17  C   UNL     1     -11.318  12.309  68.216  1.00  0.00    -0.289 A  
HETATM   18  C   UNL     1     -11.685  12.341  69.564  1.00  0.00    -0.398 A  
HETATM   19  C   UNL     1     -12.060  13.557  70.102  1.00  0.00    -0.354 A  
HETATM   20  C   UNL     1     -12.101  14.708  69.353  1.00  0.00    -0.280 A  
HETATM   21  C   UNL     1     -11.773  14.708  68.014  1.00  0.00    -0.371 A  
HETATM   22  O   UNL     1     -12.484  15.789  70.081  1.00  0.00    -0.370 OA 
HETATM   23  C   UNL     1     -11.370  13.492  67.449  1.00  0.00    -0.338 A  
HETATM   24  C   UNL     1     -12.612  15.199  71.393  1.00  0.00    -0.354 C  
HETATM   25  O   UNL     1     -12.414  13.770  71.398  1.00  0.00    -0.351 OA 
ENDBRANCH  16  17
ENDBRANCH  15  16
ENDBRANCH  14  15
ENDBRANCH   5   8
TORSDOF 4
ENDMDL
MODEL      220
REMARK 921   NORMALIZED FREE ENERGY PREDICTED BY IDOCK:   -4.11 KCAL/MOL
REMARK 922        TOTAL FREE ENERGY PREDICTED BY IDOCK:   -5.85 KCAL/MOL
REMARK 923 INTER-LIGAND FREE ENERGY PREDICTED BY IDOCK:   -5.37 KCAL/MOL
REMARK 924 INTRA-LIGAND FREE ENERGY PREDICTED BY IDOCK:   -0.47 KCAL/MOL
REMARK 927      BINDING AFFINITY PREDICTED BY RF-SCORE:    0.00 PKD
ROOT
HETATM    1  F   UNL     1      -8.342   4.447  64.679  1.00  0.00    -0.098 F  
HETATM    2  C   UNL     1      -8.304   5.449  65.567  1.00  0.00    -0.133 A  
HETATM    3  C   UNL     1      -8.466   6.758  65.134  1.00  0.00    -0.035 A  
HETATM    4  C   UNL     1      -8.403   7.809  66.057  1.00  0.00    -0.134 A  
HETATM    5  C   UNL     1      -8.153   7.553  67.414  1.00  0.00    -0.116 A  
HETATM    6  C   UNL     1      -8.107   5.164  66.910  1.00  0.00    -0.108 A  
HETATM    7  C   UNL     1      -8.037   6.212  67.831  1.00  0.00    -0.114 A  
ENDROOT
BRANCH   5   8
HETATM    8  C   UNL     1      -8.034   8.658  68.458  1.00  0.00    -0.116 C  
HETATM    9  C   UNL     1      -6.566   8.777  68.911  1.00  0.00    -0.053 C  
HETATM   10  C   UNL     1      -6.386   9.909  69.916  1.00  0.00    -0.063 C  
HETATM   11  N   UNL     1      -7.255   9.719  71.072  1.00  0.00    -0.324 NA 
HETATM   12  C   UNL     1      -8.666   9.697  70.684  1.00  0.00    -0.013 C  
HETATM   13  H   UNL     1      -7.077  10.418  71.792  1.00  0.00     0.000 HD 
HETATM   14  C   UNL     1      -8.975   8.558  69.692  1.00  0.00    -0.145 C  
BRANCH  14  15
HETATM   15  C   UNL     1     -10.466   8.595  69.295  1.00  0.00    -0.217 C  
BRANCH  15  16
HETATM   16  O   UNL     1     -10.822   9.930  68.919  1.00  0.00    -0.218 OA 
BRANCH  16  17
HETATM   17  C   UNL     1     -11.532  10.684  69.816  1.00  0.00    -0.302 A  
HETATM   18  C   UNL     1     -11.636  12.077  69.802  1.00  0.00    -0.348 A  
HETATM   19  C   UNL     1     -12.458  12.672  70.740  1.00  0.00    -0.270 A  
HETATM   20  C   UNL     1     -13.143  11.942  71.681  1.00  0.00    -0.328 A  
HETATM   21  C   UNL     1     -13.041  10.569  71.742  1.00  0.00    -0.570 A  
HETATM   22  O   UNL     1     -13.900  12.724  72.496  1.00  0.00    -0.518 OA 
HETATM   23  C   UNL     1     -12.231   9.940  70.789  1.00  0.00    -0.380 A  
HETATM   24  C   UNL     1     -13.666  14.025  71.914  1.00  0.00    -0.444 C  
HETATM   25  O   UNL     1     -12.696  14.007  70.846  1.00  0.00    -0.328 OA 
ENDBRANCH  16  17
ENDBRANCH  15  16
ENDBRANCH  14  15
ENDBRANCH   5   8
TORSDOF 4
ENDMDL
MODEL      221
REMARK 921   NORMALIZED FREE ENERGY PREDICTED BY IDOCK:   -4.07 KCAL/MOL
REMARK 922        TOTAL FREE ENERGY PREDICTED BY IDOCK:   -5.80 KCAL/MOL
REMARK 923 INTER-LIGAND FREE ENERGY PREDICTED BY IDOCK:   -5.88 KCAL/MOL
REMARK 924 INTRA-LIGAND FREE ENERGY PREDICTED BY IDOCK:    0.08 KCAL/MOL
REMARK 927      BINDING AFFINITY PREDICTED BY RF-SCORE:    0.00 PKD
ROOT
HETATM    1  F   UNL     1      -9.302   4.195  67.153  1.00  0.00    -0.136 F  
HETATM    2  C   UNL     1      -9.915   4.921  68.097  1.00  0.00    -0.108 A  
HETATM    3  C   UNL     1      -9.646   4.675  69.436  1.00  0.00    -0.257 A  
HETATM    4  C   UNL     1     -10.303   5.418  70.425  1.00  0.00    -0.353 A  
HETATM    5  C   UNL     1     -11.250   6.392  70.075  1.00  0.00    -0.475 A  
HETATM    6  C   UNL     1     -10.809   5.914  67.722  1.00  0.00    -0.326 A  
HETATM    7  C   UNL     1     -11.469   6.650  68.707  1.00  0.00    -0.060 A  
ENDROOT
BRANCH   5   8
HETATM    8  C   UNL     1     -12.026   7.203  71.107  1.00  0.00    -0.381 C  
HETATM    9  C   UNL     1     -13.535   6.955  70.923  1.00  0.00     0.221 C  
HETATM   10  C   UNL     1     -14.352   7.703  71.971  1.00  0.00    -0.328 C  
HETATM   11  N   UNL     1     -14.068   9.133  71.925  1.00  0.00    -0.328 NA 
HETATM   12  C   UNL     1     -12.656   9.408  72.193  1.00  0.00    -0.348 C  
HETATM   13  H   UNL     1     -14.676   9.654  72.557  1.00  0.00     0.000 HD 
HETATM   14  C   UNL     1     -11.731   8.729  71.163  1.00  0.00    -0.344 C  
BRANCH  14  15
HETATM   15  C   UNL     1     -10.255   9.027  71.503  1.00  0.00    -0.344 C  
BRANCH  15  16
HETATM   16  O   UNL     1      -9.450   8.817  70.337  1.00  0.00    -0.162 OA 
BRANCH  16  17
HETATM   17  C   UNL     1      -9.803   9.469  69.185  1.00  0.00    -0.176 A  
HETATM   18  C   UNL     1      -9.283   9.210  67.915  1.00  0.00    -0.144 A  
HETATM   19  C   UNL     1      -9.808   9.914  66.848  1.00  0.00    -0.199 A  
HETATM   20  C   UNL     1     -10.793  10.859  67.006  1.00  0.00    -0.266 A  
HETATM   21  C   UNL     1     -11.308  11.160  68.249  1.00  0.00    -0.365 A  
HETATM   22  O   UNL     1     -11.171  11.420  65.828  1.00  0.00    -0.216 OA 
HETATM   23  C   UNL     1     -10.808  10.446  69.344  1.00  0.00    -0.287 A  
HETATM   24  C   UNL     1     -10.359  10.668  64.899  1.00  0.00    -0.277 C  
HETATM   25  O   UNL     1      -9.441   9.763  65.546  1.00  0.00    -0.221 OA 
ENDBRANCH  16  17
ENDBRANCH  15  16
ENDBRANCH  14  15
ENDBRANCH   5   8
TORSDOF 4
ENDMDL
MODEL      222
REMARK 921   NORMALIZED FREE ENERGY PREDICTED BY IDOCK:   -4.06 KCAL/MOL
REMARK 922        TOTAL FREE ENERGY PREDICTED BY IDOCK:   -5.79 KCAL/MOL
REMARK 923 INTER-LIGAND FREE ENERGY PREDICTED BY IDOCK:   -5.13 KCAL/MOL
REMARK 924 INTRA-LIGAND FREE ENERGY PREDICTED BY IDOCK:   -0.65 KCAL/MOL
REMARK 927      BINDING AFFINITY PREDICTED BY RF-SCORE:    0.00 PKD
ROOT
HETATM    1  F   UNL     1      -8.660  12.601  66.825  1.00  0.00    -0.197 F  
HETATM    2  C   UNL     1      -9.437  11.838  67.604  1.00  0.00    -0.180 A  
HETATM    3  C   UNL     1     -10.780  11.679  67.291  1.00  0.00    -0.281 A  
HETATM    4  C   UNL     1     -11.600  10.901  68.117  1.00  0.00    -0.317 A  
HETATM    5  C   UNL     1     -11.081  10.299  69.275  1.00  0.00    -0.293 A  
HETATM    6  C   UNL     1      -8.887  11.212  68.713  1.00  0.00    -0.128 A  
HETATM    7  C   UNL     1      -9.705  10.440  69.542  1.00  0.00    -0.196 A  
ENDROOT
BRANCH   5   8
HETATM    8  C   UNL     1     -11.933   9.474  70.233  1.00  0.00    -0.040 C  
HETATM    9  C   UNL     1     -12.374  10.358  71.414  1.00  0.00    -0.500 C  
HETATM   10  C   UNL     1     -13.276   9.591  72.374  1.00  0.00    -0.368 C  
HETATM   11  N   UNL     1     -12.609   8.392  72.866  1.00  0.00    -0.651 NA 
HETATM   12  C   UNL     1     -12.262   7.484  71.772  1.00  0.00    -0.314 C  
HETATM   13  H   UNL     1     -13.166   7.921  73.579  1.00  0.00     0.000 HD 
HETATM   14  C   UNL     1     -11.313   8.146  70.753  1.00  0.00    -0.283 C  
BRANCH  14  15
HETATM   15  C   UNL     1     -10.999   7.159  69.608  1.00  0.00    -0.212 C  
BRANCH  15  16
HETATM   16  O   UNL     1     -10.981   5.824  70.126  1.00  0.00    -0.326 OA 
BRANCH  16  17
HETATM   17  C   UNL     1      -9.779   5.169  70.174  1.00  0.00    -0.204 A  
HETATM   18  C   UNL     1      -9.600   3.791  70.037  1.00  0.00    -0.259 A  
HETATM   19  C   UNL     1      -8.306   3.305  70.035  1.00  0.00    -0.048 A  
HETATM   20  C   UNL     1      -7.215   4.126  70.184  1.00  0.00    -0.042 A  
HETATM   21  C   UNL     1      -7.356   5.487  70.351  1.00  0.00    -0.071 A  
HETATM   22  O   UNL     1      -6.041   3.444  70.141  1.00  0.00    -0.022 OA 
HETATM   23  C   UNL     1      -8.656   6.007  70.335  1.00  0.00    -0.133 A  
HETATM   24  C   UNL     1      -6.516   2.106  69.877  1.00  0.00    -0.029 C  
HETATM   25  O   UNL     1      -7.954   2.000  69.880  1.00  0.00    -0.042 OA 
ENDBRANCH  16  17
ENDBRANCH  15  16
ENDBRANCH  14  15
ENDBRANCH   5   8
TORSDOF 4
ENDMDL
MODEL      223
REMARK 921   NORMALIZED FREE ENERGY PREDICTED BY IDOCK:   -3.99 KCAL/MOL
REMARK 922        TOTAL FREE ENERGY PREDICTED BY IDOCK:   -5.70 KCAL/MOL
REMARK 923 INTER-LIGAND FREE ENERGY PREDICTED BY IDOCK:   -5.22 KCAL/MOL
REMARK 924 INTRA-LIGAND FREE ENERGY PREDICTED BY IDOCK:   -0.48 KCAL/MOL
REMARK 927      BINDING AFFINITY PREDICTED BY RF-SCORE:    0.00 PKD
ROOT
HETATM    1  F   UNL     1     -13.447   9.236  72.621  1.00  0.00    -0.469 F  
HETATM    2  C   UNL     1     -12.539   9.610  71.709  1.00  0.00    -0.409 A  
HETATM    3  C   UNL     1     -12.817  10.673  70.860  1.00  0.00    -0.473 A  
HETATM    4  C   UNL     1     -11.880  11.050  69.891  1.00  0.00    -0.431 A  
HETATM    5  C   UNL     1     -10.672  10.349  69.753  1.00  0.00    -0.325 A  
HETATM    6  C   UNL     1     -11.332   8.932  71.630  1.00  0.00    -0.407 A  
HETATM    7  C   UNL     1     -10.399   9.304  70.659  1.00  0.00    -0.326 A  
ENDROOT
BRANCH   5   8
HETATM    8  C   UNL     1      -9.632  10.688  68.691  1.00  0.00    -0.179 C  
HETATM    9  C   UNL     1      -9.748  12.178  68.320  1.00  0.00    -0.216 C  
HETATM   10  C   UNL     1      -8.690  12.580  67.299  1.00  0.00    -0.193 C  
HETATM   11  N   UNL     1      -8.786  11.754  66.101  1.00  0.00    -0.350 NA 
HETATM   12  C   UNL     1      -8.584  10.338  66.407  1.00  0.00    -0.133 C  
HETATM   13  H   UNL     1      -8.145  12.074  65.375  1.00  0.00     0.000 HD 
HETATM   14  C   UNL     1      -9.631   9.809  67.408  1.00  0.00    -0.187 C  
BRANCH  14  15
HETATM   15  C   UNL     1      -9.359   8.322  67.718  1.00  0.00    -0.138 C  
BRANCH  15  16
HETATM   16  O   UNL     1      -9.977   7.509  66.713  1.00  0.00    -0.219 OA 
BRANCH  16  17
HETATM   17  C   UNL     1      -9.285   6.420  66.252  1.00  0.00    -0.139 A  
HETATM   18  C   UNL     1      -8.473   6.396  65.117  1.00  0.00    -0.072 A  
HETATM   19  C   UNL     1      -7.787   5.229  64.838  1.00  0.00    -0.095 A  
HETATM   20  C   UNL     1      -7.901   4.107  65.624  1.00  0.00    -0.090 A  
HETATM   21  C   UNL     1      -8.715   4.087  66.736  1.00  0.00    -0.116 A  
HETATM   22  O   UNL     1      -7.133   3.079  65.177  1.00  0.00    -0.055 OA 
HETATM   23  C   UNL     1      -9.405   5.264  67.052  1.00  0.00    -0.123 A  
HETATM   24  C   UNL     1      -6.468   3.706  64.058  1.00  0.00    -0.034 C  
HETATM   25  O   UNL     1      -6.933   5.046  63.795  1.00  0.00    -0.046 OA 
ENDBRANCH  16  17
ENDBRANCH  15  16
ENDBRANCH  14  15
ENDBRANCH   5   8
TORSDOF 4
ENDMDL
MODEL      224
REMARK 921   NORMALIZED FREE ENERGY PREDICTED BY IDOCK:   -3.97 KCAL/MOL
REMARK 922        TOTAL FREE ENERGY PREDICTED BY IDOCK:   -5.68 KCAL/MOL
REMARK 923 INTER-LIGAND FREE ENERGY PREDICTED BY IDOCK:   -4.65 KCAL/MOL
REMARK 924 INTRA-LIGAND FREE ENERGY PREDICTED BY IDOCK:   -1.03 KCAL/MOL
REMARK 927      BINDING AFFINITY PREDICTED BY RF-SCORE:    0.00 PKD
ROOT
HETATM    1  F   UNL     1      -8.946  17.636  68.025  1.00  0.00    -0.240 F  
HETATM    2  C   UNL     1      -8.493  16.389  68.206  1.00  0.00    -0.195 A  
HETATM    3  C   UNL     1      -7.253  16.027  67.696  1.00  0.00    -0.175 A  
HETATM    4  C   UNL     1      -6.788  14.718  67.863  1.00  0.00    -0.174 A  
HETATM    5  C   UNL     1      -7.574  13.759  68.521  1.00  0.00    -0.134 A  
HETATM    6  C   UNL     1      -9.268  15.475  68.905  1.00  0.00    -0.218 A  
HETATM    7  C   UNL     1      -8.807  14.167  69.067  1.00  0.00     0.115 A  
ENDROOT
BRANCH   5   8
HETATM    8  C   UNL     1      -7.137  12.309  68.698  1.00  0.00    -0.103 C  
HETATM    9  C   UNL     1      -6.378  12.162  70.030  1.00  0.00    -0.035 C  
HETATM   10  C   UNL     1      -5.968  10.715  70.278  1.00  0.00    -0.111 C  
HETATM   11  N   UNL     1      -5.155  10.210  69.178  1.00  0.00    -0.036 NA 
HETATM   12  C   UNL     1      -5.886  10.247  67.910  1.00  0.00    -0.041 C  
HETATM   13  H   UNL     1      -4.798   9.276  69.375  1.00  0.00     0.000 HD 
HETATM   14  C   UNL     1      -6.319  11.678  67.536  1.00  0.00    -0.087 C  
BRANCH  14  15
HETATM   15  C   UNL     1      -7.107  11.660  66.208  1.00  0.00     0.242 C  
BRANCH  15  16
HETATM   16  O   UNL     1      -8.439  11.195  66.456  1.00  0.00    -0.155 OA 
BRANCH  16  17
HETATM   17  C   UNL     1      -9.467  11.797  65.781  1.00  0.00    -0.216 A  
HETATM   18  C   UNL     1     -10.026  13.038  66.094  1.00  0.00    -0.278 A  
HETATM   19  C   UNL     1     -11.010  13.532  65.259  1.00  0.00    -0.295 A  
HETATM   20  C   UNL     1     -11.458  12.835  64.162  1.00  0.00    -0.393 A  
HETATM   21  C   UNL     1     -10.949  11.596  63.840  1.00  0.00    -0.478 A  
HETATM   22  O   UNL     1     -12.417  13.508  63.475  1.00  0.00    -0.745 OA 
HETATM   23  C   UNL     1      -9.936  11.082  64.659  1.00  0.00    -0.357 A  
HETATM   24  C   UNL     1     -12.473  14.741  64.226  1.00  0.00    -0.197 C  
HETATM   25  O   UNL     1     -11.634  14.733  65.399  1.00  0.00    -0.343 OA 
ENDBRANCH  16  17
ENDBRANCH  15  16
ENDBRANCH  14  15
ENDBRANCH   5   8
TORSDOF 4
ENDMDL
MODEL      225
REMARK 921   NORMALIZED FREE ENERGY PREDICTED BY IDOCK:   -3.94 KCAL/MOL
REMARK 922        TOTAL FREE ENERGY PREDICTED BY IDOCK:   -5.64 KCAL/MOL
REMARK 923 INTER-LIGAND FREE ENERGY PREDICTED BY IDOCK:   -4.87 KCAL/MOL
REMARK 924 INTRA-LIGAND FREE ENERGY PREDICTED BY IDOCK:   -0.77 KCAL/MOL
REMARK 927      BINDING AFFINITY PREDICTED BY RF-SCORE:    0.00 PKD
ROOT
HETATM    1  F   UNL     1      -5.831  20.231  62.629  1.00  0.00    -0.249 F  
HETATM    2  C   UNL     1      -5.936  19.650  63.831  1.00  0.00    -0.181 A  
HETATM    3  C   UNL     1      -5.261  18.463  64.083  1.00  0.00     0.006 A  
HETATM    4  C   UNL     1      -5.388  17.843  65.331  1.00  0.00    -0.106 A  
HETATM    5  C   UNL     1      -6.211  18.397  66.324  1.00  0.00    -0.226 A  
HETATM    6  C   UNL     1      -6.715  20.247  64.812  1.00  0.00    -0.257 A  
HETATM    7  C   UNL     1      -6.847  19.625  66.055  1.00  0.00    -0.266 A  
ENDROOT
BRANCH   5   8
HETATM    8  C   UNL     1      -6.420  17.746  67.687  1.00  0.00    -0.187 C  
HETATM    9  C   UNL     1      -5.152  17.930  68.541  1.00  0.00    -0.149 C  
HETATM   10  C   UNL     1      -5.332  17.342  69.936  1.00  0.00    -0.213 C  
HETATM   11  N   UNL     1      -5.687  15.930  69.861  1.00  0.00    -0.146 NA 
HETATM   12  C   UNL     1      -6.942  15.729  69.136  1.00  0.00    -0.174 C  
HETATM   13  H   UNL     1      -5.719  15.504  70.787  1.00  0.00     0.000 HD 
HETATM   14  C   UNL     1      -6.861  16.254  67.689  1.00  0.00    -0.165 C  
BRANCH  14  15
HETATM   15  C   UNL     1      -8.215  16.045  66.976  1.00  0.00    -0.220 C  
BRANCH  15  16
HETATM   16  O   UNL     1      -8.913  14.959  67.597  1.00  0.00    -0.172 OA 
BRANCH  16  17
HETATM   17  C   UNL     1      -9.181  13.849  66.840  1.00  0.00    -0.259 A  
HETATM   18  C   UNL     1     -10.150  13.765  65.838  1.00  0.00    -0.325 A  
HETATM   19  C   UNL     1     -10.235  12.588  65.119  1.00  0.00    -0.279 A  
HETATM   20  C   UNL     1      -9.420  11.512  65.376  1.00  0.00    -0.198 A  
HETATM   21  C   UNL     1      -8.473  11.550  66.376  1.00  0.00    -0.138 A  
HETATM   22  O   UNL     1      -9.664  10.465  64.546  1.00  0.00    -0.281 OA 
HETATM   23  C   UNL     1      -8.352  12.739  67.105  1.00  0.00    -0.164 A  
HETATM   24  C   UNL     1     -10.681  11.031  63.690  1.00  0.00    -0.199 C  
HETATM   25  O   UNL     1     -11.097  12.351  64.093  1.00  0.00    -0.318 OA 
ENDBRANCH  16  17
ENDBRANCH  15  16
ENDBRANCH  14  15
ENDBRANCH   5   8
TORSDOF 4
ENDMDL
MODEL      226
REMARK 921   NORMALIZED FREE ENERGY PREDICTED BY IDOCK:   -3.93 KCAL/MOL
REMARK 922        TOTAL FREE ENERGY PREDICTED BY IDOCK:   -5.62 KCAL/MOL
REMARK 923 INTER-LIGAND FREE ENERGY PREDICTED BY IDOCK:   -4.73 KCAL/MOL
REMARK 924 INTRA-LIGAND FREE ENERGY PREDICTED BY IDOCK:   -0.89 KCAL/MOL
REMARK 927      BINDING AFFINITY PREDICTED BY RF-SCORE:    0.00 PKD
ROOT
HETATM    1  F   UNL     1      -9.741   4.005  65.942  1.00  0.00    -0.160 F  
HETATM    2  C   UNL     1     -10.022   4.670  67.070  1.00  0.00    -0.195 A  
HETATM    3  C   UNL     1      -9.611   4.154  68.292  1.00  0.00    -0.191 A  
HETATM    4  C   UNL     1      -9.924   4.836  69.474  1.00  0.00    -0.287 A  
HETATM    5  C   UNL     1     -10.670   6.024  69.437  1.00  0.00    -0.403 A  
HETATM    6  C   UNL     1     -10.716   5.869  67.001  1.00  0.00    -0.396 A  
HETATM    7  C   UNL     1     -11.033   6.546  68.180  1.00  0.00    -0.365 A  
ENDROOT
BRANCH   5   8
HETATM    8  C   UNL     1     -11.075   6.788  70.693  1.00  0.00    -0.338 C  
HETATM    9  C   UNL     1     -12.604   6.968  70.712  1.00  0.00    -0.195 C  
HETATM   10  C   UNL     1     -13.063   7.680  71.979  1.00  0.00    -0.183 C  
HETATM   11  N   UNL     1     -12.404   8.973  72.115  1.00  0.00    -0.377 NA 
HETATM   12  C   UNL     1     -10.950   8.828  72.197  1.00  0.00    -0.334 C  
HETATM   13  H   UNL     1     -12.771   9.498  72.909  1.00  0.00     0.000 HD 
HETATM   14  C   UNL     1     -10.366   8.151  70.942  1.00  0.00    -0.218 C  
BRANCH  14  15
HETATM   15  C   UNL     1      -8.837   7.996  71.088  1.00  0.00    -0.140 C  
BRANCH  15  16
HETATM   16  O   UNL     1      -8.253   7.828  69.791  1.00  0.00    -0.125 OA 
BRANCH  16  17
HETATM   17  C   UNL     1      -7.830   8.947  69.125  1.00  0.00    -0.093 A  
HETATM   18  C   UNL     1      -6.755   9.757  69.501  1.00  0.00    -0.054 A  
HETATM   19  C   UNL     1      -6.418  10.808  68.670  1.00  0.00    -0.055 A  
HETATM   20  C   UNL     1      -7.114  11.084  67.518  1.00  0.00    -0.091 A  
HETATM   21  C   UNL     1      -8.197  10.324  67.132  1.00  0.00    -0.121 A  
HETATM   22  O   UNL     1      -6.607  12.151  66.847  1.00  0.00    -0.119 OA 
HETATM   23  C   UNL     1      -8.547   9.239  67.946  1.00  0.00    -0.120 A  
HETATM   24  C   UNL     1      -5.468  12.473  67.674  1.00  0.00    -0.123 C  
HETATM   25  O   UNL     1      -5.384  11.670  68.869  1.00  0.00    -0.050 OA 
ENDBRANCH  16  17
ENDBRANCH  15  16
ENDBRANCH  14  15
ENDBRANCH   5   8
TORSDOF 4
ENDMDL
MODEL      227
REMARK 921   NORMALIZED FREE ENERGY PREDICTED BY IDOCK:   -3.86 KCAL/MOL
REMARK 922        TOTAL FREE ENERGY PREDICTED BY IDOCK:   -5.55 KCAL/MOL
REMARK 923 INTER-LIGAND FREE ENERGY PREDICTED BY IDOCK:   -5.10 KCAL/MOL
REMARK 924 INTRA-LIGAND FREE ENERGY PREDICTED BY IDOCK:   -0.44 KCAL/MOL
REMARK 927      BINDING AFFINITY PREDICTED BY RF-SCORE:    0.00 PKD
ROOT
HETATM    1  F   UNL     1     -10.218   7.034  66.805  1.00  0.00    -0.253 F  
HETATM    2  C   UNL     1      -9.382   7.934  67.338  1.00  0.00    -0.141 A  
HETATM    3  C   UNL     1      -9.821   8.752  68.371  1.00  0.00    -0.189 A  
HETATM    4  C   UNL     1      -8.957   9.709  68.915  1.00  0.00    -0.144 A  
HETATM    5  C   UNL     1      -7.657   9.867  68.408  1.00  0.00    -0.083 A  
HETATM    6  C   UNL     1      -8.087   8.034  66.854  1.00  0.00    -0.108 A  
HETATM    7  C   UNL     1      -7.226   8.993  67.391  1.00  0.00    -0.083 A  
ENDROOT
BRANCH   5   8
HETATM    8  C   UNL     1      -6.685  10.919  68.932  1.00  0.00    -0.067 C  
HETATM    9  C   UNL     1      -6.316  10.592  70.391  1.00  0.00    -0.126 C  
HETATM   10  C   UNL     1      -5.301  11.587  70.943  1.00  0.00    -0.124 C  
HETATM   11  N   UNL     1      -5.808  12.951  70.847  1.00  0.00    -0.471 NA 
HETATM   12  C   UNL     1      -6.079  13.326  69.458  1.00  0.00    -0.112 C  
HETATM   13  H   UNL     1      -5.179  13.615  71.297  1.00  0.00     0.000 HD 
HETATM   14  C   UNL     1      -7.129  12.405  68.807  1.00  0.00    -0.098 C  
BRANCH  14  15
HETATM   15  C   UNL     1      -7.360  12.824  67.339  1.00  0.00    -0.134 C  
BRANCH  15  16
HETATM   16  O   UNL     1      -8.379  11.997  66.766  1.00  0.00    -0.181 OA 
BRANCH  16  17
HETATM   17  C   UNL     1      -9.473  12.611  66.217  1.00  0.00    -0.207 A  
HETATM   18  C   UNL     1      -9.518  13.929  65.758  1.00  0.00    -0.016 A  
HETATM   19  C   UNL     1     -10.686  14.366  65.162  1.00  0.00    -0.398 A  
HETATM   20  C   UNL     1     -11.789  13.557  65.033  1.00  0.00    -0.353 A  
HETATM   21  C   UNL     1     -11.789  12.261  65.500  1.00  0.00    -0.420 A  
HETATM   22  O   UNL     1     -12.821  14.181  64.408  1.00  0.00    -0.626 OA 
HETATM   23  C   UNL     1     -10.611  11.787  66.090  1.00  0.00    -0.301 A  
HETATM   24  C   UNL     1     -12.216  15.455  64.095  1.00  0.00    -0.057 C  
HETATM   25  O   UNL     1     -10.887  15.603  64.634  1.00  0.00    -0.411 OA 
ENDBRANCH  16  17
ENDBRANCH  15  16
ENDBRANCH  14  15
ENDBRANCH   5   8
TORSDOF 4
ENDMDL
MODEL      228
REMARK 921   NORMALIZED FREE ENERGY PREDICTED BY IDOCK:   -3.83 KCAL/MOL
REMARK 922        TOTAL FREE ENERGY PREDICTED BY IDOCK:   -5.51 KCAL/MOL
REMARK 923 INTER-LIGAND FREE ENERGY PREDICTED BY IDOCK:   -4.35 KCAL/MOL
REMARK 924 INTRA-LIGAND FREE ENERGY PREDICTED BY IDOCK:   -1.16 KCAL/MOL
REMARK 927      BINDING AFFINITY PREDICTED BY RF-SCORE:    0.00 PKD
ROOT
HETATM    1  F   UNL     1     -10.274   9.448  65.986  1.00  0.00    -0.355 F  
HETATM    2  C   UNL     1      -9.669   8.377  66.517  1.00  0.00    -0.260 A  
HETATM    3  C   UNL     1     -10.425   7.268  66.872  1.00  0.00    -0.369 A  
HETATM    4  C   UNL     1      -9.798   6.156  67.448  1.00  0.00    -0.151 A  
HETATM    5  C   UNL     1      -8.416   6.163  67.693  1.00  0.00    -0.108 A  
HETATM    6  C   UNL     1      -8.295   8.390  66.700  1.00  0.00    -0.110 A  
HETATM    7  C   UNL     1      -7.670   7.284  67.281  1.00  0.00    -0.109 A  
ENDROOT
BRANCH   5   8
HETATM    8  C   UNL     1      -7.686   4.999  68.354  1.00  0.00    -0.079 C  
HETATM    9  C   UNL     1      -8.176   3.673  67.741  1.00  0.00    -0.092 C  
HETATM   10  C   UNL     1      -7.433   2.481  68.332  1.00  0.00    -0.048 C  
HETATM   11  N   UNL     1      -7.578   2.447  69.783  1.00  0.00    -0.043 NA 
HETATM   12  C   UNL     1      -7.033   3.655  70.405  1.00  0.00    -0.034 C  
HETATM   13  H   UNL     1      -7.165   1.604  70.180  1.00  0.00     0.000 HD 
HETATM   14  C   UNL     1      -7.742   4.930  69.907  1.00  0.00    -0.056 C  
BRANCH  14  15
HETATM   15  C   UNL     1      -7.114   6.175  70.570  1.00  0.00    -0.071 C  
BRANCH  15  16
HETATM   16  O   UNL     1      -7.696   6.364  71.865  1.00  0.00    -0.094 OA 
BRANCH  16  17
HETATM   17  C   UNL     1      -8.873   7.060  71.947  1.00  0.00    -0.125 A  
HETATM   18  C   UNL     1      -9.357   7.950  70.986  1.00  0.00    -0.167 A  
HETATM   19  C   UNL     1     -10.603   8.510  71.194  1.00  0.00    -0.220 A  
HETATM   20  C   UNL     1     -11.352   8.234  72.312  1.00  0.00    -0.378 A  
HETATM   21  C   UNL     1     -10.893   7.383  73.294  1.00  0.00    -0.417 A  
HETATM   22  O   UNL     1     -12.547   8.881  72.310  1.00  0.00    -0.377 OA 
HETATM   23  C   UNL     1      -9.642   6.786  73.097  1.00  0.00    -0.176 A  
HETATM   24  C   UNL     1     -12.494   9.541  71.027  1.00  0.00    -0.267 C  
HETATM   25  O   UNL     1     -11.234   9.368  70.347  1.00  0.00    -0.245 OA 
ENDBRANCH  16  17
ENDBRANCH  15  16
ENDBRANCH  14  15
ENDBRANCH   5   8
TORSDOF 4
ENDMDL
MODEL      229
REMARK 921   NORMALIZED FREE ENERGY PREDICTED BY IDOCK:   -3.83 KCAL/MOL
REMARK 922        TOTAL FREE ENERGY PREDICTED BY IDOCK:   -5.50 KCAL/MOL
REMARK 923 INTER-LIGAND FREE ENERGY PREDICTED BY IDOCK:   -4.63 KCAL/MOL
REMARK 924 INTRA-LIGAND FREE ENERGY PREDICTED BY IDOCK:   -0.87 KCAL/MOL
REMARK 927      BINDING AFFINITY PREDICTED BY RF-SCORE:    0.00 PKD
ROOT
HETATM    1  F   UNL     1      -9.412   2.459  63.910  1.00  0.00    -0.102 F  
HETATM    2  C   UNL     1      -9.121   3.089  65.056  1.00  0.00    -0.146 A  
HETATM    3  C   UNL     1      -9.113   4.477  65.095  1.00  0.00    -0.150 A  
HETATM    4  C   UNL     1      -8.787   5.138  66.285  1.00  0.00    -0.124 A  
HETATM    5  C   UNL     1      -8.443   4.410  67.434  1.00  0.00    -0.103 A  
HETATM    6  C   UNL     1      -8.835   2.345  66.191  1.00  0.00    -0.128 A  
HETATM    7  C   UNL     1      -8.503   3.003  67.377  1.00  0.00    -0.103 A  
ENDROOT
BRANCH   5   8
HETATM    8  C   UNL     1      -8.039   5.073  68.747  1.00  0.00    -0.084 C  
HETATM    9  C   UNL     1      -6.532   4.865  68.983  1.00  0.00    -0.036 C  
HETATM   10  C   UNL     1      -6.069   5.560  70.258  1.00  0.00    -0.025 C  
HETATM   11  N   UNL     1      -6.828   5.088  71.410  1.00  0.00    -0.042 NA 
HETATM   12  C   UNL     1      -8.258   5.359  71.258  1.00  0.00    -0.120 C  
HETATM   13  H   UNL     1      -6.466   5.476  72.281  1.00  0.00     0.000 HD 
HETATM   14  C   UNL     1      -8.847   4.668  70.013  1.00  0.00    -0.125 C  
BRANCH  14  15
HETATM   15  C   UNL     1     -10.347   5.005  69.882  1.00  0.00    -0.228 C  
BRANCH  15  16
HETATM   16  O   UNL     1     -10.490   6.341  69.385  1.00  0.00    -0.198 OA 
BRANCH  16  17
HETATM   17  C   UNL     1     -11.196   7.238  70.142  1.00  0.00    -0.239 A  
HETATM   18  C   UNL     1     -11.109   8.628  70.044  1.00  0.00    -0.161 A  
HETATM   19  C   UNL     1     -11.951   9.385  70.836  1.00  0.00    -0.280 A  
HETATM   20  C   UNL     1     -12.839   8.814  71.716  1.00  0.00    -0.360 A  
HETATM   21  C   UNL     1     -12.931   7.446  71.859  1.00  0.00    -0.296 A  
HETATM   22  O   UNL     1     -13.577   9.738  72.384  1.00  0.00    -0.407 OA 
HETATM   23  C   UNL     1     -12.103   6.656  71.052  1.00  0.00    -0.384 A  
HETATM   24  C   UNL     1     -13.100  10.957  71.772  1.00  0.00    -0.459 C  
HETATM   25  O   UNL     1     -12.019  10.744  70.842  1.00  0.00    -0.326 OA 
ENDBRANCH  16  17
ENDBRANCH  15  16
ENDBRANCH  14  15
ENDBRANCH   5   8
TORSDOF 4
ENDMDL
MODEL      230
REMARK 921   NORMALIZED FREE ENERGY PREDICTED BY IDOCK:   -3.69 KCAL/MOL
REMARK 922        TOTAL FREE ENERGY PREDICTED BY IDOCK:   -5.33 KCAL/MOL
REMARK 923 INTER-LIGAND FREE ENERGY PREDICTED BY IDOCK:   -4.54 KCAL/MOL
REMARK 924 INTRA-LIGAND FREE ENERGY PREDICTED BY IDOCK:   -0.79 KCAL/MOL
REMARK 927      BINDING AFFINITY PREDICTED BY RF-SCORE:    0.00 PKD
ROOT
HETATM    1  F   UNL     1      -9.553  11.677  65.911  1.00  0.00    -0.214 F  
HETATM    2  C   UNL     1      -9.119  10.410  65.883  1.00  0.00    -0.165 A  
HETATM    3  C   UNL     1     -10.011   9.372  66.115  1.00  0.00    -0.351 A  
HETATM    4  C   UNL     1      -9.555   8.049  66.109  1.00  0.00    -0.159 A  
HETATM    5  C   UNL     1      -8.198   7.762  65.894  1.00  0.00    -0.128 A  
HETATM    6  C   UNL     1      -7.782  10.152  65.616  1.00  0.00    -0.143 A  
HETATM    7  C   UNL     1      -7.325   8.832  65.616  1.00  0.00    -0.085 A  
ENDROOT
BRANCH   5   8
HETATM    8  C   UNL     1      -7.637   6.344  65.916  1.00  0.00    -0.084 C  
HETATM    9  C   UNL     1      -8.100   5.591  64.655  1.00  0.00    -0.127 C  
HETATM   10  C   UNL     1      -7.518   4.184  64.605  1.00  0.00    -0.072 C  
HETATM   11  N   UNL     1      -7.877   3.430  65.800  1.00  0.00    -0.085 NA 
HETATM   12  C   UNL     1      -7.367   4.072  67.013  1.00  0.00    -0.072 C  
HETATM   13  H   UNL     1      -7.572   2.459  65.736  1.00  0.00     0.000 HD 
HETATM   14  C   UNL     1      -7.925   5.498  67.189  1.00  0.00    -0.102 C  
BRANCH  14  15
HETATM   15  C   UNL     1      -7.338   6.140  68.464  1.00  0.00    -0.086 C  
BRANCH  15  16
HETATM   16  O   UNL     1      -7.928   5.528  69.616  1.00  0.00    -0.090 OA 
BRANCH  16  17
HETATM   17  C   UNL     1      -9.103   6.048  70.090  1.00  0.00    -0.147 A  
HETATM   18  C   UNL     1      -9.244   6.806  71.255  1.00  0.00    -0.154 A  
HETATM   19  C   UNL     1     -10.495   7.316  71.545  1.00  0.00    -0.202 A  
HETATM   20  C   UNL     1     -11.586   7.083  70.744  1.00  0.00    -0.338 A  
HETATM   21  C   UNL     1     -11.489   6.316  69.603  1.00  0.00    -0.425 A  
HETATM   22  O   UNL     1     -12.711   7.687  71.207  1.00  0.00    -0.321 OA 
HETATM   23  C   UNL     1     -10.228   5.804  69.275  1.00  0.00    -0.292 A  
HETATM   24  C   UNL     1     -12.187   8.387  72.357  1.00  0.00    -0.367 C  
HETATM   25  O   UNL     1     -10.798   8.098  72.617  1.00  0.00    -0.337 OA 
ENDBRANCH  16  17
ENDBRANCH  15  16
ENDBRANCH  14  15
ENDBRANCH   5   8
TORSDOF 4
ENDMDL
MODEL      231
REMARK 921   NORMALIZED FREE ENERGY PREDICTED BY IDOCK:   -3.67 KCAL/MOL
REMARK 922        TOTAL FREE ENERGY PREDICTED BY IDOCK:   -5.31 KCAL/MOL
REMARK 923 INTER-LIGAND FREE ENERGY PREDICTED BY IDOCK:   -4.81 KCAL/MOL
REMARK 924 INTRA-LIGAND FREE ENERGY PREDICTED BY IDOCK:   -0.49 KCAL/MOL
REMARK 927      BINDING AFFINITY PREDICTED BY RF-SCORE:    0.00 PKD
ROOT
HETATM    1  F   UNL     1      -5.135  13.856  70.734  1.00  0.00    -0.091 F  
HETATM    2  C   UNL     1      -5.885  12.911  70.152  1.00  0.00    -0.155 A  
HETATM    3  C   UNL     1      -5.732  11.584  70.530  1.00  0.00    -0.146 A  
HETATM    4  C   UNL     1      -6.498  10.591  69.907  1.00  0.00    -0.116 A  
HETATM    5  C   UNL     1      -7.404  10.923  68.887  1.00  0.00    -0.111 A  
HETATM    6  C   UNL     1      -6.809  13.273  69.183  1.00  0.00    -0.067 A  
HETATM    7  C   UNL     1      -7.570  12.283  68.557  1.00  0.00    -0.118 A  
ENDROOT
BRANCH   5   8
HETATM    8  C   UNL     1      -8.235   9.882  68.145  1.00  0.00    -0.109 C  
HETATM    9  C   UNL     1      -7.626   9.639  66.752  1.00  0.00    -0.098 C  
HETATM   10  C   UNL     1      -8.392   8.562  65.992  1.00  0.00    -0.130 C  
HETATM   11  N   UNL     1      -9.801   8.918  65.869  1.00  0.00    -0.452 NA 
HETATM   12  C   UNL     1     -10.434   9.062  67.181  1.00  0.00    -0.263 C  
HETATM   13  H   UNL     1     -10.304   8.252  65.283  1.00  0.00     0.000 HD 
HETATM   14  C   UNL     1      -9.761  10.160  68.028  1.00  0.00    -0.161 C  
BRANCH  14  15
HETATM   15  C   UNL     1     -10.446  10.255  69.408  1.00  0.00    -0.236 C  
BRANCH  15  16
HETATM   16  O   UNL     1      -9.560   9.742  70.411  1.00  0.00    -0.252 OA 
BRANCH  16  17
HETATM   17  C   UNL     1      -9.957   8.635  71.114  1.00  0.00    -0.225 A  
HETATM   18  C   UNL     1      -9.343   8.145  72.269  1.00  0.00    -0.290 A  
HETATM   19  C   UNL     1      -9.922   7.057  72.895  1.00  0.00    -0.187 A  
HETATM   20  C   UNL     1     -11.050   6.445  72.405  1.00  0.00    -0.268 A  
HETATM   21  C   UNL     1     -11.665   6.885  71.253  1.00  0.00    -0.371 A  
HETATM   22  O   UNL     1     -11.456   5.405  73.180  1.00  0.00    -0.292 OA 
HETATM   23  C   UNL     1     -11.111   7.998  70.611  1.00  0.00    -0.266 A  
HETATM   24  C   UNL     1     -10.491   5.477  74.254  1.00  0.00    -0.247 C  
HETATM   25  O   UNL     1      -9.474   6.477  74.041  1.00  0.00    -0.163 OA 
ENDBRANCH  16  17
ENDBRANCH  15  16
ENDBRANCH  14  15
ENDBRANCH   5   8
TORSDOF 4
ENDMDL
MODEL      232
REMARK 921   NORMALIZED FREE ENERGY PREDICTED BY IDOCK:   -3.67 KCAL/MOL
REMARK 922        TOTAL FREE ENERGY PREDICTED BY IDOCK:   -5.31 KCAL/MOL
REMARK 923 INTER-LIGAND FREE ENERGY PREDICTED BY IDOCK:   -4.30 KCAL/MOL
REMARK 924 INTRA-LIGAND FREE ENERGY PREDICTED BY IDOCK:   -1.00 KCAL/MOL
REMARK 927      BINDING AFFINITY PREDICTED BY RF-SCORE:    0.00 PKD
ROOT
HETATM    1  F   UNL     1     -11.528   5.546  71.943  1.00  0.00    -0.296 F  
HETATM    2  C   UNL     1     -10.935   5.980  70.823  1.00  0.00    -0.297 A  
HETATM    3  C   UNL     1      -9.784   5.352  70.368  1.00  0.00    -0.254 A  
HETATM    4  C   UNL     1      -9.149   5.817  69.210  1.00  0.00    -0.128 A  
HETATM    5  C   UNL     1      -9.653   6.929  68.517  1.00  0.00    -0.131 A  
HETATM    6  C   UNL     1     -11.484   7.048  70.129  1.00  0.00    -0.302 A  
HETATM    7  C   UNL     1     -10.848   7.517  68.977  1.00  0.00    -0.082 A  
ENDROOT
BRANCH   5   8
HETATM    8  C   UNL     1      -8.983   7.506  67.275  1.00  0.00    -0.130 C  
HETATM    9  C   UNL     1      -8.834   6.399  66.215  1.00  0.00    -0.152 C  
HETATM   10  C   UNL     1      -8.218   6.941  64.930  1.00  0.00    -0.074 C  
HETATM   11  N   UNL     1      -6.924   7.559  65.196  1.00  0.00    -0.057 NA 
HETATM   12  C   UNL     1      -7.047   8.680  66.130  1.00  0.00    -0.084 C  
HETATM   13  H   UNL     1      -6.461   7.842  64.333  1.00  0.00     0.000 HD 
HETATM   14  C   UNL     1      -7.627   8.237  67.488  1.00  0.00    -0.098 C  
BRANCH  14  15
HETATM   15  C   UNL     1      -7.762   9.456  68.426  1.00  0.00    -0.086 C  
BRANCH  15  16
HETATM   16  O   UNL     1      -7.625  10.659  67.660  1.00  0.00    -0.091 OA 
BRANCH  16  17
HETATM   17  C   UNL     1      -8.604  11.611  67.776  1.00  0.00    -0.144 A  
HETATM   18  C   UNL     1      -9.805  11.458  68.472  1.00  0.00    -0.200 A  
HETATM   19  C   UNL     1     -10.648  12.550  68.551  1.00  0.00    -0.243 A  
HETATM   20  C   UNL     1     -10.350  13.751  67.954  1.00  0.00    -0.244 A  
HETATM   21  C   UNL     1      -9.187  13.928  67.236  1.00  0.00    -0.235 A  
HETATM   22  O   UNL     1     -11.308  14.690  68.166  1.00  0.00    -0.275 OA 
HETATM   23  C   UNL     1      -8.305  12.843  67.158  1.00  0.00    -0.158 A  
HETATM   24  C   UNL     1     -12.213  13.962  69.025  1.00  0.00    -0.239 C  
HETATM   25  O   UNL     1     -11.836  12.582  69.214  1.00  0.00    -0.304 OA 
ENDBRANCH  16  17
ENDBRANCH  15  16
ENDBRANCH  14  15
ENDBRANCH   5   8
TORSDOF 4
ENDMDL
MODEL      233
REMARK 921   NORMALIZED FREE ENERGY PREDICTED BY IDOCK:   -3.65 KCAL/MOL
REMARK 922        TOTAL FREE ENERGY PREDICTED BY IDOCK:   -5.28 KCAL/MOL
REMARK 923 INTER-LIGAND FREE ENERGY PREDICTED BY IDOCK:   -4.29 KCAL/MOL
REMARK 924 INTRA-LIGAND FREE ENERGY PREDICTED BY IDOCK:   -0.99 KCAL/MOL
REMARK 927      BINDING AFFINITY PREDICTED BY RF-SCORE:    0.00 PKD
ROOT
HETATM    1  F   UNL     1      -5.278  13.713  70.515  1.00  0.00    -0.093 F  
HETATM    2  C   UNL     1      -5.657  12.909  69.513  1.00  0.00    -0.089 A  
HETATM    3  C   UNL     1      -5.426  11.543  69.603  1.00  0.00    -0.064 A  
HETATM    4  C   UNL     1      -5.799  10.703  68.547  1.00  0.00    -0.040 A  
HETATM    5  C   UNL     1      -6.383  11.234  67.385  1.00  0.00    -0.076 A  
HETATM    6  C   UNL     1      -6.279  13.453  68.399  1.00  0.00    -0.088 A  
HETATM    7  C   UNL     1      -6.646  12.617  67.342  1.00  0.00    -0.145 A  
ENDROOT
BRANCH   5   8
HETATM    8  C   UNL     1      -6.774  10.375  66.187  1.00  0.00    -0.117 C  
HETATM    9  C   UNL     1      -5.663  10.448  65.123  1.00  0.00    -0.138 C  
HETATM   10  C   UNL     1      -5.983   9.560  63.926  1.00  0.00    -0.094 C  
HETATM   11  N   UNL     1      -7.267   9.924  63.339  1.00  0.00    -0.128 NA 
HETATM   12  C   UNL     1      -8.360   9.773  64.301  1.00  0.00    -0.167 C  
HETATM   13  H   UNL     1      -7.449   9.400  62.483  1.00  0.00     0.000 HD 
HETATM   14  C   UNL     1      -8.160  10.662  65.544  1.00  0.00    -0.129 C  
BRANCH  14  15
HETATM   15  C   UNL     1      -9.322  10.447  66.538  1.00  0.00    -0.163 C  
BRANCH  15  16
HETATM   16  O   UNL     1     -10.295  11.483  66.360  1.00  0.00    -0.223 OA 
BRANCH  16  17
HETATM   17  C   UNL     1     -10.698  12.184  67.465  1.00  0.00    -0.232 A  
HETATM   18  C   UNL     1     -10.988  13.550  67.498  1.00  0.00    -0.283 A  
HETATM   19  C   UNL     1     -11.455  14.082  68.685  1.00  0.00    -0.302 A  
HETATM   20  C   UNL     1     -11.617  13.319  69.816  1.00  0.00    -0.227 A  
HETATM   21  C   UNL     1     -11.313  11.975  69.827  1.00  0.00    -0.201 A  
HETATM   22  O   UNL     1     -12.098  14.038  70.864  1.00  0.00    -0.333 OA 
HETATM   23  C   UNL     1     -10.857  11.407  68.631  1.00  0.00    -0.249 A  
HETATM   24  C   UNL     1     -12.287  15.328  70.242  1.00  0.00    -0.366 C  
HETATM   25  O   UNL     1     -11.814  15.380  68.880  1.00  0.00    -0.349 OA 
ENDBRANCH  16  17
ENDBRANCH  15  16
ENDBRANCH  14  15
ENDBRANCH   5   8
TORSDOF 4
ENDMDL
MODEL      234
REMARK 921   NORMALIZED FREE ENERGY PREDICTED BY IDOCK:   -3.44 KCAL/MOL
REMARK 922        TOTAL FREE ENERGY PREDICTED BY IDOCK:   -5.02 KCAL/MOL
REMARK 923 INTER-LIGAND FREE ENERGY PREDICTED BY IDOCK:   -2.96 KCAL/MOL
REMARK 924 INTRA-LIGAND FREE ENERGY PREDICTED BY IDOCK:   -2.06 KCAL/MOL
REMARK 927      BINDING AFFINITY PREDICTED BY RF-SCORE:    0.00 PKD
ROOT
HETATM    1  F   UNL     1      -6.292   8.651  72.847  1.00  0.00    -0.089 F  
HETATM    2  C   UNL     1      -6.743   8.938  71.619  1.00  0.00    -0.061 A  
HETATM    3  C   UNL     1      -8.109   8.944  71.373  1.00  0.00    -0.160 A  
HETATM    4  C   UNL     1      -8.582   9.221  70.084  1.00  0.00    -0.215 A  
HETATM    5  C   UNL     1      -7.686   9.469  69.032  1.00  0.00    -0.076 A  
HETATM    6  C   UNL     1      -5.837   9.230  70.609  1.00  0.00    -0.045 A  
HETATM    7  C   UNL     1      -6.308   9.500  69.323  1.00  0.00    -0.044 A  
ENDROOT
BRANCH   5   8
HETATM    8  C   UNL     1      -8.141   9.736  67.602  1.00  0.00    -0.113 C  
HETATM    9  C   UNL     1      -8.968  11.034  67.563  1.00  0.00    -0.137 C  
HETATM   10  C   UNL     1      -9.400  11.374  66.141  1.00  0.00    -0.215 C  
HETATM   11  N   UNL     1     -10.159  10.276  65.553  1.00  0.00    -0.293 NA 
HETATM   12  C   UNL     1      -9.365   9.049  65.488  1.00  0.00    -0.187 C  
HETATM   13  H   UNL     1     -10.532  10.528  64.638  1.00  0.00     0.000 HD 
HETATM   14  C   UNL     1      -8.904   8.586  66.884  1.00  0.00    -0.153 C  
BRANCH  14  15
HETATM   15  C   UNL     1      -8.049   7.306  66.760  1.00  0.00    -0.119 C  
BRANCH  15  16
HETATM   16  O   UNL     1      -8.757   6.207  67.345  1.00  0.00    -0.107 OA 
BRANCH  16  17
HETATM   17  C   UNL     1      -8.498   5.899  68.654  1.00  0.00    -0.111 A  
HETATM   18  C   UNL     1      -7.228   5.787  69.226  1.00  0.00    -0.066 A  
HETATM   19  C   UNL     1      -7.151   5.543  70.584  1.00  0.00    -0.062 A  
HETATM   20  C   UNL     1      -8.270   5.389  71.365  1.00  0.00    -0.117 A  
HETATM   21  C   UNL     1      -9.538   5.465  70.830  1.00  0.00    -0.228 A  
HETATM   22  O   UNL     1      -7.967   5.170  72.671  1.00  0.00    -0.100 OA 
HETATM   23  C   UNL     1      -9.644   5.732  69.459  1.00  0.00    -0.181 A  
HETATM   24  C   UNL     1      -6.526   5.273  72.634  1.00  0.00    -0.055 C  
HETATM   25  O   UNL     1      -6.000   5.438  71.302  1.00  0.00    -0.025 OA 
ENDBRANCH  16  17
ENDBRANCH  15  16
ENDBRANCH  14  15
ENDBRANCH   5   8
TORSDOF 4
ENDMDL
MODEL      235
REMARK 921   NORMALIZED FREE ENERGY PREDICTED BY IDOCK:   -2.99 KCAL/MOL
REMARK 922        TOTAL FREE ENERGY PREDICTED BY IDOCK:   -4.47 KCAL/MOL
REMARK 923 INTER-LIGAND FREE ENERGY PREDICTED BY IDOCK:   -4.78 KCAL/MOL
REMARK 924 INTRA-LIGAND FREE ENERGY PREDICTED BY IDOCK:    0.30 KCAL/MOL
REMARK 927      BINDING AFFINITY PREDICTED BY RF-SCORE:    0.00 PKD
ROOT
HETATM    1  F   UNL     1      -5.806  13.099  70.669  1.00  0.00    -0.158 F  
HETATM    2  C   UNL     1      -6.401  12.426  69.675  1.00  0.00    -0.107 A  
HETATM    3  C   UNL     1      -6.490  11.042  69.739  1.00  0.00    -0.137 A  
HETATM    4  C   UNL     1      -7.092  10.336  68.691  1.00  0.00    -0.075 A  
HETATM    5  C   UNL     1      -7.583  11.012  67.563  1.00  0.00    -0.106 A  
HETATM    6  C   UNL     1      -6.925  13.124  68.596  1.00  0.00    -0.102 A  
HETATM    7  C   UNL     1      -7.519  12.419  67.547  1.00  0.00    -0.150 A  
ENDROOT
BRANCH   5   8
HETATM    8  C   UNL     1      -8.211  10.293  66.374  1.00  0.00    -0.129 C  
HETATM    9  C   UNL     1      -7.151  10.105  65.272  1.00  0.00    -0.137 C  
HETATM   10  C   UNL     1      -7.718   9.340  64.082  1.00  0.00    -0.120 C  
HETATM   11  N   UNL     1      -8.890  10.018  63.541  1.00  0.00    -0.214 NA 
HETATM   12  C   UNL     1      -9.955  10.127  64.538  1.00  0.00    -0.205 C  
HETATM   13  H   UNL     1      -9.222   9.567  62.688  1.00  0.00     0.000 HD 
HETATM   14  C   UNL     1      -9.503  10.922  65.779  1.00  0.00    -0.246 C  
BRANCH  14  15
HETATM   15  C   UNL     1     -10.650  10.986  66.811  1.00  0.00    -0.266 C  
BRANCH  15  16
HETATM   16  O   UNL     1     -10.096  11.045  68.130  1.00  0.00    -0.170 OA 
BRANCH  16  17
HETATM   17  C   UNL     1     -10.597  10.191  69.077  1.00  0.00    -0.223 A  
HETATM   18  C   UNL     1     -11.295  10.573  70.225  1.00  0.00    -0.407 A  
HETATM   19  C   UNL     1     -11.796   9.573  71.037  1.00  0.00    -0.330 A  
HETATM   20  C   UNL     1     -11.610   8.241  70.759  1.00  0.00    -0.236 A  
HETATM   21  C   UNL     1     -10.902   7.829  69.651  1.00  0.00    -0.185 A  
HETATM   22  O   UNL     1     -12.195   7.431  71.679  1.00  0.00    -0.299 OA 
HETATM   23  C   UNL     1     -10.401   8.822  68.800  1.00  0.00    -0.234 A  
HETATM   24  C   UNL     1     -12.833   8.407  72.532  1.00  0.00    -0.207 C  
HETATM   25  O   UNL     1     -12.523   9.769  72.171  1.00  0.00    -0.336 OA 
ENDBRANCH  16  17
ENDBRANCH  15  16
ENDBRANCH  14  15
ENDBRANCH   5   8
TORSDOF 4
ENDMDL
MODEL      236
REMARK 921   NORMALIZED FREE ENERGY PREDICTED BY IDOCK:   -2.85 KCAL/MOL
REMARK 922        TOTAL FREE ENERGY PREDICTED BY IDOCK:   -4.29 KCAL/MOL
REMARK 923 INTER-LIGAND FREE ENERGY PREDICTED BY IDOCK:   -3.24 KCAL/MOL
REMARK 924 INTRA-LIGAND FREE ENERGY PREDICTED BY IDOCK:   -1.05 KCAL/MOL
REMARK 927      BINDING AFFINITY PREDICTED BY RF-SCORE:    0.00 PKD
ROOT
HETATM    1  F   UNL     1     -11.279  15.339  64.536  1.00  0.00    -0.371 F  
HETATM    2  C   UNL     1     -10.404  15.098  65.522  1.00  0.00    -0.375 A  
HETATM    3  C   UNL     1      -9.265  15.884  65.637  1.00  0.00    -0.104 A  
HETATM    4  C   UNL     1      -8.338  15.620  66.651  1.00  0.00    -0.310 A  
HETATM    5  C   UNL     1      -8.537  14.551  67.540  1.00  0.00    -0.198 A  
HETATM    6  C   UNL     1     -10.651  14.069  66.418  1.00  0.00    -0.280 A  
HETATM    7  C   UNL     1      -9.723  13.800  67.427  1.00  0.00    -0.235 A  
ENDROOT
BRANCH   5   8
HETATM    8  C   UNL     1      -7.542  14.190  68.638  1.00  0.00    -0.126 C  
HETATM    9  C   UNL     1      -7.481  15.334  69.667  1.00  0.00    -0.181 C  
HETATM   10  C   UNL     1      -6.539  14.996  70.817  1.00  0.00     0.309 C  
HETATM   11  N   UNL     1      -5.201  14.694  70.320  1.00  0.00    -0.097 NA 
HETATM   12  C   UNL     1      -5.213  13.547  69.411  1.00  0.00    -0.082 C  
HETATM   13  H   UNL     1      -4.541  14.557  71.085  1.00  0.00     0.000 HD 
HETATM   14  C   UNL     1      -6.109  13.795  68.181  1.00  0.00    -0.120 C  
BRANCH  14  15
HETATM   15  C   UNL     1      -6.109  12.550  67.269  1.00  0.00    -0.117 C  
BRANCH  15  16
HETATM   16  O   UNL     1      -6.960  11.548  67.838  1.00  0.00    -0.069 OA 
BRANCH  16  17
HETATM   17  C   UNL     1      -7.270  10.456  67.070  1.00  0.00    -0.093 A  
HETATM   18  C   UNL     1      -7.199   9.125  67.487  1.00  0.00    -0.080 A  
HETATM   19  C   UNL     1      -7.622   8.149  66.605  1.00  0.00    -0.093 A  
HETATM   20  C   UNL     1      -8.082   8.449  65.346  1.00  0.00    -0.133 A  
HETATM   21  C   UNL     1      -8.139   9.749  64.892  1.00  0.00    -0.140 A  
HETATM   22  O   UNL     1      -8.457   7.343  64.651  1.00  0.00    -0.022 OA 
HETATM   23  C   UNL     1      -7.735  10.759  65.774  1.00  0.00    -0.094 A  
HETATM   24  C   UNL     1      -8.246   6.317  65.645  1.00  0.00    -0.143 C  
HETATM   25  O   UNL     1      -7.650   6.813  66.861  1.00  0.00    -0.088 OA 
ENDBRANCH  16  17
ENDBRANCH  15  16
ENDBRANCH  14  15
ENDBRANCH   5   8
TORSDOF 4
ENDMDL
MODEL      237
REMARK 921   NORMALIZED FREE ENERGY PREDICTED BY IDOCK:   -2.60 KCAL/MOL
REMARK 922        TOTAL FREE ENERGY PREDICTED BY IDOCK:   -3.99 KCAL/MOL
REMARK 923 INTER-LIGAND FREE ENERGY PREDICTED BY IDOCK:   -3.85 KCAL/MOL
REMARK 924 INTRA-LIGAND FREE ENERGY PREDICTED BY IDOCK:   -0.14 KCAL/MOL
REMARK 927      BINDING AFFINITY PREDICTED BY RF-SCORE:    0.00 PKD
ROOT
HETATM    1  F   UNL     1      -7.211  11.633  67.658  1.00  0.00    -0.085 F  
HETATM    2  C   UNL     1      -8.022  10.709  68.189  1.00  0.00    -0.113 A  
HETATM    3  C   UNL     1      -8.006  10.486  69.560  1.00  0.00    -0.119 A  
HETATM    4  C   UNL     1      -8.836   9.505  70.114  1.00  0.00    -0.266 A  
HETATM    5  C   UNL     1      -9.668   8.726  69.294  1.00  0.00    -0.172 A  
HETATM    6  C   UNL     1      -8.872   9.989  67.362  1.00  0.00    -0.132 A  
HETATM    7  C   UNL     1      -9.695   9.005  67.913  1.00  0.00    -0.185 A  
ENDROOT
BRANCH   5   8
HETATM    8  C   UNL     1     -10.563   7.616  69.835  1.00  0.00    -0.237 C  
HETATM    9  C   UNL     1     -11.615   8.225  70.780  1.00  0.00    -0.250 C  
HETATM   10  C   UNL     1     -12.571   7.159  71.306  1.00  0.00    -0.380 C  
HETATM   11  N   UNL     1     -11.839   6.096  71.985  1.00  0.00    -0.311 NA 
HETATM   12  C   UNL     1     -10.896   5.433  71.084  1.00  0.00    -0.118 C  
HETATM   13  H   UNL     1     -12.472   5.426  72.421  1.00  0.00     0.000 HD 
HETATM   14  C   UNL     1      -9.850   6.415  70.520  1.00  0.00    -0.207 C  
BRANCH  14  15
HETATM   15  C   UNL     1      -8.897   5.675  69.557  1.00  0.00    -0.112 C  
BRANCH  15  16
HETATM   16  O   UNL     1      -9.022   6.236  68.245  1.00  0.00    -0.117 OA 
BRANCH  16  17
HETATM   17  C   UNL     1      -8.940   5.388  67.172  1.00  0.00    -0.112 A  
HETATM   18  C   UNL     1      -9.263   4.029  67.185  1.00  0.00    -0.185 A  
HETATM   19  C   UNL     1      -9.194   3.338  65.991  1.00  0.00    -0.148 A  
HETATM   20  C   UNL     1      -8.802   3.937  64.819  1.00  0.00    -0.123 A  
HETATM   21  C   UNL     1      -8.449   5.269  64.775  1.00  0.00    -0.149 A  
HETATM   22  O   UNL     1      -8.817   3.080  63.765  1.00  0.00    -0.092 OA 
HETATM   23  C   UNL     1      -8.530   5.997  65.968  1.00  0.00    -0.139 A  
HETATM   24  C   UNL     1      -9.331   1.887  64.396  1.00  0.00    -0.132 C  
HETATM   25  O   UNL     1      -9.504   2.024  65.821  1.00  0.00     0.029 OA 
ENDBRANCH  16  17
ENDBRANCH  15  16
ENDBRANCH  14  15
ENDBRANCH   5   8
TORSDOF 4
ENDMDL
MODEL      238
REMARK 921   NORMALIZED FREE ENERGY PREDICTED BY IDOCK:   -2.26 KCAL/MOL
REMARK 922        TOTAL FREE ENERGY PREDICTED BY IDOCK:   -3.57 KCAL/MOL
REMARK 923 INTER-LIGAND FREE ENERGY PREDICTED BY IDOCK:   -4.42 KCAL/MOL
REMARK 924 INTRA-LIGAND FREE ENERGY PREDICTED BY IDOCK:    0.85 KCAL/MOL
REMARK 927      BINDING AFFINITY PREDICTED BY RF-SCORE:    0.00 PKD
ROOT
HETATM    1  F   UNL     1     -12.276  15.335  63.091  1.00  0.00     0.644 F  
HETATM    2  C   UNL     1     -11.989  14.739  64.256  1.00  0.00    -0.368 A  
HETATM    3  C   UNL     1     -12.930  13.912  64.855  1.00  0.00    -0.095 A  
HETATM    4  C   UNL     1     -12.641  13.307  66.084  1.00  0.00    -0.208 A  
HETATM    5  C   UNL     1     -11.417  13.547  66.729  1.00  0.00    -0.374 A  
HETATM    6  C   UNL     1     -10.752  14.953  64.846  1.00  0.00    -0.426 A  
HETATM    7  C   UNL     1     -10.465  14.355  66.075  1.00  0.00    -0.307 A  
ENDROOT
BRANCH   5   8
HETATM    8  C   UNL     1     -11.064  12.949  68.086  1.00  0.00    -0.282 C  
HETATM    9  C   UNL     1     -11.124  11.412  67.997  1.00  0.00    -0.317 C  
HETATM   10  C   UNL     1     -10.723  10.765  69.318  1.00  0.00    -0.229 C  
HETATM   11  N   UNL     1     -11.570  11.239  70.406  1.00  0.00    -0.472 NA 
HETATM   12  C   UNL     1     -11.462  12.689  70.578  1.00  0.00     0.595 C  
HETATM   13  H   UNL     1     -11.373  10.745  71.276  1.00  0.00     0.000 HD 
HETATM   14  C   UNL     1     -11.883  13.453  69.307  1.00  0.00    -0.385 C  
BRANCH  14  15
HETATM   15  C   UNL     1     -11.726  14.973  69.530  1.00  0.00    -0.322 C  
BRANCH  15  16
HETATM   16  O   UNL     1     -10.994  15.537  68.435  1.00  0.00    -0.269 OA 
BRANCH  16  17
HETATM   17  C   UNL     1      -9.695  15.911  68.656  1.00  0.00    -0.207 A  
HETATM   18  C   UNL     1      -8.804  15.278  69.526  1.00  0.00    -0.181 A  
HETATM   19  C   UNL     1      -7.504  15.743  69.569  1.00  0.00    -0.181 A  
HETATM   20  C   UNL     1      -7.080  16.806  68.809  1.00  0.00    -0.202 A  
HETATM   21  C   UNL     1      -7.939  17.472  67.962  1.00  0.00    -0.234 A  
HETATM   22  O   UNL     1      -5.764  17.088  68.997  1.00  0.00    -0.145 OA 
HETATM   23  C   UNL     1      -9.257  17.007  67.883  1.00  0.00    -0.239 A  
HETATM   24  C   UNL     1      -5.391  16.035  69.912  1.00  0.00    -0.133 C  
HETATM   25  O   UNL     1      -6.505  15.223  70.333  1.00  0.00    -0.084 OA 
ENDBRANCH  16  17
ENDBRANCH  15  16
ENDBRANCH  14  15
ENDBRANCH   5   8
TORSDOF 4
ENDMDL
MODEL      239
REMARK 921   NORMALIZED FREE ENERGY PREDICTED BY IDOCK:   -1.92 KCAL/MOL
REMARK 922        TOTAL FREE ENERGY PREDICTED BY IDOCK:   -3.15 KCAL/MOL
REMARK 923 INTER-LIGAND FREE ENERGY PREDICTED BY IDOCK:   -3.13 KCAL/MOL
REMARK 924 INTRA-LIGAND FREE ENERGY PREDICTED BY IDOCK:   -0.03 KCAL/MOL
REMARK 927      BINDING AFFINITY PREDICTED BY RF-SCORE:    0.00 PKD
ROOT
HETATM    1  F   UNL     1      -5.986  16.204  72.008  1.00  0.00     0.756 F  
HETATM    2  C   UNL     1      -6.137  15.069  71.313  1.00  0.00     0.343 A  
HETATM    3  C   UNL     1      -5.585  13.890  71.795  1.00  0.00    -0.215 A  
HETATM    4  C   UNL     1      -5.721  12.707  71.060  1.00  0.00    -0.000 A  
HETATM    5  C   UNL     1      -6.391  12.706  69.826  1.00  0.00    -0.070 A  
HETATM    6  C   UNL     1      -6.848  15.086  70.122  1.00  0.00    -0.062 A  
HETATM    7  C   UNL     1      -6.979  13.907  69.385  1.00  0.00    -0.022 A  
ENDROOT
BRANCH   5   8
HETATM    8  C   UNL     1      -6.536  11.458  68.962  1.00  0.00    -0.069 C  
HETATM    9  C   UNL     1      -5.193  11.156  68.271  1.00  0.00    -0.039 C  
HETATM   10  C   UNL     1      -5.272   9.883  67.437  1.00  0.00    -0.035 C  
HETATM   11  N   UNL     1      -6.338   9.977  66.446  1.00  0.00    -0.070 NA 
HETATM   12  C   UNL     1      -7.644  10.169  67.079  1.00  0.00    -0.092 C  
HETATM   13  H   UNL     1      -6.341   9.171  65.822  1.00  0.00     0.000 HD 
HETATM   14  C   UNL     1      -7.692  11.458  67.922  1.00  0.00    -0.114 C  
BRANCH  14  15
HETATM   15  C   UNL     1      -9.077  11.600  68.588  1.00  0.00    -0.100 C  
BRANCH  15  16
HETATM   16  O   UNL     1      -9.681  12.829  68.166  1.00  0.00    -0.214 OA 
BRANCH  16  17
HETATM   17  C   UNL     1     -10.448  12.812  67.031  1.00  0.00    -0.237 A  
HETATM   18  C   UNL     1     -10.165  12.086  65.871  1.00  0.00    -0.263 A  
HETATM   19  C   UNL     1     -11.089  12.124  64.845  1.00  0.00    -0.319 A  
HETATM   20  C   UNL     1     -12.245  12.862  64.927  1.00  0.00    -0.453 A  
HETATM   21  C   UNL     1     -12.542  13.612  66.044  1.00  0.00    -0.441 A  
HETATM   22  O   UNL     1     -13.015  12.748  63.813  1.00  0.00    -0.676 OA 
HETATM   23  C   UNL     1     -11.632  13.574  67.107  1.00  0.00    -0.393 A  
HETATM   24  C   UNL     1     -12.243  11.797  63.048  1.00  0.00     0.052 C  
HETATM   25  O   UNL     1     -10.986  11.453  63.666  1.00  0.00    -0.393 OA 
ENDBRANCH  16  17
ENDBRANCH  15  16
ENDBRANCH  14  15
ENDBRANCH   5   8
TORSDOF 4
ENDMDL
MODEL      240
REMARK 921   NORMALIZED FREE ENERGY PREDICTED BY IDOCK:   -1.12 KCAL/MOL
REMARK 922        TOTAL FREE ENERGY PREDICTED BY IDOCK:   -2.17 KCAL/MOL
REMARK 923 INTER-LIGAND FREE ENERGY PREDICTED BY IDOCK:   -1.21 KCAL/MOL
REMARK 924 INTRA-LIGAND FREE ENERGY PREDICTED BY IDOCK:   -0.95 KCAL/MOL
REMARK 927      BINDING AFFINITY PREDICTED BY RF-SCORE:    0.00 PKD
ROOT
HETATM    1  F   UNL     1      -6.032  15.745  70.809  1.00  0.00    -0.103 F  
HETATM    2  C   UNL     1      -6.433  14.736  70.024  1.00  0.00    -0.169 A  
HETATM    3  C   UNL     1      -5.871  13.476  70.183  1.00  0.00    -0.148 A  
HETATM    4  C   UNL     1      -6.271  12.426  69.348  1.00  0.00    -0.114 A  
HETATM    5  C   UNL     1      -7.219  12.641  68.335  1.00  0.00    -0.111 A  
HETATM    6  C   UNL     1      -7.409  14.963  69.065  1.00  0.00    -0.143 A  
HETATM    7  C   UNL     1      -7.804  13.918  68.227  1.00  0.00    -0.146 A  
ENDROOT
BRANCH   5   8
HETATM    8  C   UNL     1      -7.663  11.547  67.370  1.00  0.00    -0.143 C  
HETATM    9  C   UNL     1      -6.690  11.490  66.178  1.00  0.00     0.242 C  
HETATM   10  C   UNL     1      -7.063  10.372  65.211  1.00  0.00    -0.098 C  
HETATM   11  N   UNL     1      -8.432  10.533  64.735  1.00  0.00    -0.231 NA 
HETATM   12  C   UNL     1      -9.392  10.494  65.839  1.00  0.00    -0.181 C  
HETATM   13  H   UNL     1      -8.661   9.845  64.018  1.00  0.00     0.000 HD 
HETATM   14  C   UNL     1      -9.134  11.614  66.866  1.00  0.00    -0.188 C  
BRANCH  14  15
HETATM   15  C   UNL     1     -10.153  11.515  68.022  1.00  0.00    -0.186 C  
BRANCH  15  16
HETATM   16  O   UNL     1     -11.198  12.472  67.813  1.00  0.00    -0.238 OA 
BRANCH  16  17
HETATM   17  C   UNL     1     -11.195  13.606  68.581  1.00  0.00    -0.277 A  
HETATM   18  C   UNL     1     -11.000  14.906  68.107  1.00  0.00    -0.276 A  
HETATM   19  C   UNL     1     -11.104  15.945  69.012  1.00  0.00    -0.294 A  
HETATM   20  C   UNL     1     -11.366  15.733  70.344  1.00  0.00    -0.374 A  
HETATM   21  C   UNL     1     -11.535  14.462  70.851  1.00  0.00    -0.105 A  
HETATM   22  O   UNL     1     -11.437  16.891  71.051  1.00  0.00     0.077 OA 
HETATM   23  C   UNL     1     -11.456  13.393  69.950  1.00  0.00    -0.181 A  
HETATM   24  C   UNL     1     -11.259  17.862  69.997  1.00  0.00     2.404 C  
HETATM   25  O   UNL     1     -10.975  17.266  68.714  1.00  0.00    -0.232 OA 
ENDBRANCH  16  17
ENDBRANCH  15  16
ENDBRANCH  14  15
ENDBRANCH   5   8
TORSDOF 4
ENDMDL
MODEL      241
REMARK 921   NORMALIZED FREE ENERGY PREDICTED BY IDOCK:   -0.81 KCAL/MOL
REMARK 922        TOTAL FREE ENERGY PREDICTED BY IDOCK:   -1.78 KCAL/MOL
REMARK 923 INTER-LIGAND FREE ENERGY PREDICTED BY IDOCK:   -2.51 KCAL/MOL
REMARK 924 INTRA-LIGAND FREE ENERGY PREDICTED BY IDOCK:    0.74 KCAL/MOL
REMARK 927      BINDING AFFINITY PREDICTED BY RF-SCORE:    0.00 PKD
ROOT
HETATM    1  F   UNL     1      -5.235  14.914  72.572  1.00  0.00    -0.182 F  
HETATM    2  C   UNL     1      -5.602  13.903  71.774  1.00  0.00    -0.211 A  
HETATM    3  C   UNL     1      -5.126  12.623  72.025  1.00  0.00     0.016 A  
HETATM    4  C   UNL     1      -5.489  11.568  71.179  1.00  0.00    -0.008 A  
HETATM    5  C   UNL     1      -6.311  11.797  70.064  1.00  0.00    -0.092 A  
HETATM    6  C   UNL     1      -6.457  14.147  70.710  1.00  0.00     0.098 A  
HETATM    7  C   UNL     1      -6.814  13.097  69.861  1.00  0.00     0.338 A  
ENDROOT
BRANCH   5   8
HETATM    8  C   UNL     1      -6.706  10.697  69.086  1.00  0.00    -0.073 C  
HETATM    9  C   UNL     1      -5.532  10.417  68.129  1.00  0.00    -0.033 C  
HETATM   10  C   UNL     1      -5.860   9.283  67.164  1.00  0.00    -0.045 C  
HETATM   11  N   UNL     1      -7.068   9.583  66.404  1.00  0.00    -0.087 NA 
HETATM   12  C   UNL     1      -8.225   9.759  67.283  1.00  0.00    -0.117 C  
HETATM   13  H   UNL     1      -7.245   8.875  65.691  1.00  0.00     0.000 HD 
HETATM   14  C   UNL     1      -8.019  10.915  68.281  1.00  0.00    -0.121 C  
BRANCH  14  15
HETATM   15  C   UNL     1      -9.253  11.043  69.201  1.00  0.00    -0.005 C  
BRANCH  15  16
HETATM   16  O   UNL     1      -9.582  12.428  69.359  1.00  0.00     0.616 OA 
BRANCH  16  17
HETATM   17  C   UNL     1      -9.698  13.195  68.230  1.00  0.00    -0.223 A  
HETATM   18  C   UNL     1     -10.783  13.186  67.351  1.00  0.00    -0.262 A  
HETATM   19  C   UNL     1     -10.769  14.082  66.299  1.00  0.00    -0.289 A  
HETATM   20  C   UNL     1      -9.724  14.948  66.089  1.00  0.00    -0.306 A  
HETATM   21  C   UNL     1      -8.624  14.964  66.920  1.00  0.00    -0.269 A  
HETATM   22  O   UNL     1      -9.920  15.748  65.008  1.00  0.00    -0.386 OA 
HETATM   23  C   UNL     1      -8.623  14.081  68.006  1.00  0.00    -0.179 A  
HETATM   24  C   UNL     1     -11.243  15.333  64.603  1.00  0.00    -0.356 C  
HETATM   25  O   UNL     1     -11.756  14.227  65.374  1.00  0.00    -0.335 OA 
ENDBRANCH  16  17
ENDBRANCH  15  16
ENDBRANCH  14  15
ENDBRANCH   5   8
TORSDOF 4
ENDMDL
MODEL      242
REMARK 921   NORMALIZED FREE ENERGY PREDICTED BY IDOCK:    1.05 KCAL/MOL
REMARK 922        TOTAL FREE ENERGY PREDICTED BY IDOCK:    0.51 KCAL/MOL
REMARK 923 INTER-LIGAND FREE ENERGY PREDICTED BY IDOCK:    0.51 KCAL/MOL
REMARK 924 INTRA-LIGAND FREE ENERGY PREDICTED BY IDOCK:    0.01 KCAL/MOL
REMARK 927      BINDING AFFINITY PREDICTED BY RF-SCORE:    0.00 PKD
ROOT
HETATM    1  F   UNL     1     -12.485  14.316  70.890  1.00  0.00    -0.335 F  
HETATM    2  C   UNL     1     -12.254  13.003  70.760  1.00  0.00    -0.272 A  
HETATM    3  C   UNL     1     -10.984  12.559  70.418  1.00  0.00     1.447 A  
HETATM    4  C   UNL     1     -10.746  11.189  70.259  1.00  0.00     0.491 A  
HETATM    5  C   UNL     1     -11.787  10.260  70.417  1.00  0.00    -0.396 A  
HETATM    6  C   UNL     1     -13.288  12.103  70.973  1.00  0.00     0.384 A  
HETATM    7  C   UNL     1     -13.054  10.737  70.808  1.00  0.00    -0.245 A  
ENDROOT
BRANCH   5   8
HETATM    8  C   UNL     1     -11.597   8.761  70.217  1.00  0.00    -0.027 C  
HETATM    9  C   UNL     1     -11.000   8.146  71.496  1.00  0.00    -0.294 C  
HETATM   10  C   UNL     1     -10.843   6.635  71.364  1.00  0.00    -0.242 C  
HETATM   11  N   UNL     1     -10.015   6.299  70.211  1.00  0.00    -0.171 NA 
HETATM   12  C   UNL     1     -10.607   6.788  68.965  1.00  0.00    -0.230 C  
HETATM   13  H   UNL     1      -9.826   5.297  70.166  1.00  0.00     0.000 HD 
HETATM   14  C   UNL     1     -10.777   8.320  68.971  1.00  0.00    -0.098 C  
BRANCH  14  15
HETATM   15  C   UNL     1     -11.428   8.783  67.649  1.00  0.00     1.458 C  
BRANCH  15  16
HETATM   16  O   UNL     1     -10.415   8.918  66.646  1.00  0.00    -0.249 OA 
BRANCH  16  17
HETATM   17  C   UNL     1      -9.105   8.813  67.035  1.00  0.00    -0.133 A  
HETATM   18  C   UNL     1      -8.429   9.717  67.858  1.00  0.00    -0.122 A  
HETATM   19  C   UNL     1      -7.127   9.417  68.213  1.00  0.00    -0.076 A  
HETATM   20  C   UNL     1      -6.489   8.285  67.767  1.00  0.00    -0.057 A  
HETATM   21  C   UNL     1      -7.117   7.386  66.932  1.00  0.00    -0.083 A  
HETATM   22  O   UNL     1      -5.222   8.179  68.246  1.00  0.00    -0.031 OA 
HETATM   23  C   UNL     1      -8.443   7.656  66.574  1.00  0.00    -0.133 A  
HETATM   24  C   UNL     1      -5.160   9.341  69.102  1.00  0.00    -0.036 C  
HETATM   25  O   UNL     1      -6.340  10.168  69.029  1.00  0.00    -0.043 OA 
ENDBRANCH  16  17
ENDBRANCH  15  16
ENDBRANCH  14  15
ENDBRANCH   5   8
TORSDOF 4
ENDMDL
MODEL      243
REMARK 921   NORMALIZED FREE ENERGY PREDICTED BY IDOCK:    1.10 KCAL/MOL
REMARK 922        TOTAL FREE ENERGY PREDICTED BY IDOCK:    0.57 KCAL/MOL
REMARK 923 INTER-LIGAND FREE ENERGY PREDICTED BY IDOCK:    1.54 KCAL/MOL
REMARK 924 INTRA-LIGAND FREE ENERGY PREDICTED BY IDOCK:   -0.96 KCAL/MOL
REMARK 927      BINDING AFFINITY PREDICTED BY RF-SCORE:    0.00 PKD
ROOT
HETATM    1  F   UNL     1     -13.576  14.974  68.416  1.00  0.00     2.393 F  
HETATM    2  C   UNL     1     -12.263  14.830  68.639  1.00  0.00    -0.077 A  
HETATM    3  C   UNL     1     -11.824  14.324  69.856  1.00  0.00    -0.382 A  
HETATM    4  C   UNL     1     -10.451  14.195  70.100  1.00  0.00     0.694 A  
HETATM    5  C   UNL     1      -9.513  14.595  69.135  1.00  0.00    -0.070 A  
HETATM    6  C   UNL     1     -11.359  15.184  67.649  1.00  0.00    -0.327 A  
HETATM    7  C   UNL     1      -9.989  15.061  67.894  1.00  0.00    -0.222 A  
ENDROOT
BRANCH   5   8
HETATM    8  C   UNL     1      -8.007  14.515  69.360  1.00  0.00     0.067 C  
HETATM    9  C   UNL     1      -7.550  15.727  70.193  1.00  0.00     0.610 C  
HETATM   10  C   UNL     1      -6.057  15.663  70.492  1.00  0.00     0.074 C  
HETATM   11  N   UNL     1      -5.285  15.582  69.258  1.00  0.00    -0.096 NA 
HETATM   12  C   UNL     1      -5.628  14.387  68.487  1.00  0.00    -0.098 C  
HETATM   13  H   UNL     1      -4.282  15.633  69.440  1.00  0.00     0.000 HD 
HETATM   14  C   UNL     1      -7.118  14.364  68.092  1.00  0.00    -0.126 C  
BRANCH  14  15
HETATM   15  C   UNL     1      -7.436  13.074  67.306  1.00  0.00    -0.074 C  
BRANCH  15  16
HETATM   16  O   UNL     1      -6.838  11.956  67.972  1.00  0.00    -0.064 OA 
BRANCH  16  17
HETATM   17  C   UNL     1      -7.666  10.974  68.449  1.00  0.00    -0.119 A  
HETATM   18  C   UNL     1      -8.272  10.963  69.707  1.00  0.00     0.432 A  
HETATM   19  C   UNL     1      -9.140   9.928  69.997  1.00  0.00    -0.178 A  
HETATM   20  C   UNL     1      -9.399   8.917  69.103  1.00  0.00    -0.148 A  
HETATM   21  C   UNL     1      -8.797   8.881  67.864  1.00  0.00    -0.133 A  
HETATM   22  O   UNL     1     -10.289   8.012  69.586  1.00  0.00    -0.211 OA 
HETATM   23  C   UNL     1      -7.929   9.930  67.538  1.00  0.00    -0.106 A  
HETATM   24  C   UNL     1     -10.615   8.607  70.861  1.00  0.00    -0.214 C  
HETATM   25  O   UNL     1      -9.835   9.784  71.158  1.00  0.00    -0.087 OA 
ENDBRANCH  16  17
ENDBRANCH  15  16
ENDBRANCH  14  15
ENDBRANCH   5   8
TORSDOF 4
ENDMDL
MODEL      244
REMARK 921   NORMALIZED FREE ENERGY PREDICTED BY IDOCK:   20.50 KCAL/MOL
REMARK 922        TOTAL FREE ENERGY PREDICTED BY IDOCK:   24.51 KCAL/MOL
REMARK 923 INTER-LIGAND FREE ENERGY PREDICTED BY IDOCK:   22.97 KCAL/MOL
REMARK 924 INTRA-LIGAND FREE ENERGY PREDICTED BY IDOCK:    1.54 KCAL/MOL
REMARK 927      BINDING AFFINITY PREDICTED BY RF-SCORE:    0.00 PKD
ROOT
HETATM    1  F   UNL     1     -13.268  15.203  67.949  1.00  0.00     1.395 F  
HETATM    2  C   UNL     1     -11.955  15.313  67.709  1.00  0.00     0.042 A  
HETATM    3  C   UNL     1     -11.048  14.662  68.534  1.00  0.00    -0.273 A  
HETATM    4  C   UNL     1      -9.675  14.794  68.300  1.00  0.00    -0.218 A  
HETATM    5  C   UNL     1      -9.204  15.600  67.251  1.00  0.00    -0.214 A  
HETATM    6  C   UNL     1     -11.518  16.074  66.634  1.00  0.00     0.409 A  
HETATM    7  C   UNL     1     -10.148  16.212  66.403  1.00  0.00    -0.321 A  
ENDROOT
BRANCH   5   8
HETATM    8  C   UNL     1      -7.720  15.815  66.972  1.00  0.00    -0.267 C  
HETATM    9  C   UNL     1      -7.471  15.750  65.454  1.00  0.00     5.047 C  
HETATM   10  C   UNL     1      -6.007  16.014  65.121  1.00  0.00     7.936 C  
HETATM   11  N   UNL     1      -5.139  15.069  65.813  1.00  0.00     5.208 NA 
HETATM   12  C   UNL     1      -5.283  15.173  67.266  1.00  0.00     0.470 C  
HETATM   13  H   UNL     1      -4.166  15.176  65.526  1.00  0.00     0.000 HD 
HETATM   14  C   UNL     1      -6.726  14.884  67.724  1.00  0.00    -0.191 C  
BRANCH  14  15
HETATM   15  C   UNL     1      -6.832  15.033  69.257  1.00  0.00    -0.149 C  
BRANCH  15  16
HETATM   16  O   UNL     1      -6.248  16.279  69.652  1.00  0.00    -0.178 OA 
BRANCH  16  17
HETATM   17  C   UNL     1      -7.053  17.387  69.679  1.00  0.00     0.226 A  
HETATM   18  C   UNL     1      -8.348  17.462  69.161  1.00  0.00     0.051 A  
HETATM   19  C   UNL     1      -9.049  18.639  69.342  1.00  0.00     0.325 A  
HETATM   20  C   UNL     1      -8.505  19.724  69.986  1.00  0.00     1.027 A  
HETATM   21  C   UNL     1      -7.220  19.695  70.484  1.00  0.00     0.627 A  
HETATM   22  O   UNL     1      -9.369  20.769  70.064  1.00  0.00     1.315 OA 
HETATM   23  C   UNL     1      -6.496  18.506  70.333  1.00  0.00     0.466 A  
HETATM   24  C   UNL     1     -10.545  20.193  69.455  1.00  0.00     0.531 C  
HETATM   25  O   UNL     1     -10.326  18.867  68.931  1.00  0.00    -0.292 OA 
ENDBRANCH  16  17
ENDBRANCH  15  16
ENDBRANCH  14  15
ENDBRANCH   5   8
TORSDOF 4
ENDMDL
MODEL      245
REMARK 921   NORMALIZED FREE ENERGY PREDICTED BY IDOCK:   46.80 KCAL/MOL
REMARK 922        TOTAL FREE ENERGY PREDICTED BY IDOCK:   56.96 KCAL/MOL
REMARK 923 INTER-LIGAND FREE ENERGY PREDICTED BY IDOCK:   56.80 KCAL/MOL
REMARK 924 INTRA-LIGAND FREE ENERGY PREDICTED BY IDOCK:    0.16 KCAL/MOL
REMARK 927      BINDING AFFINITY PREDICTED BY RF-SCORE:    0.00 PKD
ROOT
HETATM    1  F   UNL     1      -6.172  14.485  72.087  1.00  0.00     0.015 F  
HETATM    2  C   UNL     1      -7.003  13.438  72.003  1.00  0.00     4.840 A  
HETATM    3  C   UNL     1      -6.496  12.149  72.102  1.00  0.00     4.434 A  
HETATM    4  C   UNL     1      -7.359  11.052  71.992  1.00  0.00     6.735 A  
HETATM    5  C   UNL     1      -8.730  11.243  71.758  1.00  0.00    12.117 A  
HETATM    6  C   UNL     1      -8.361  13.656  71.825  1.00  0.00    10.307 A  
HETATM    7  C   UNL     1      -9.222  12.563  71.708  1.00  0.00    18.899 A  
ENDROOT
BRANCH   5   8
HETATM    8  C   UNL     1      -9.711  10.088  71.590  1.00  0.00     2.329 C  
HETATM    9  C   UNL     1      -8.983   8.757  71.853  1.00  0.00    -0.254 C  
HETATM   10  C   UNL     1      -9.938   7.573  71.750  1.00  0.00    -0.171 C  
HETATM   11  N   UNL     1     -10.586   7.542  70.444  1.00  0.00    -0.224 NA 
HETATM   12  C   UNL     1     -11.367   8.756  70.204  1.00  0.00    -0.090 C  
HETATM   13  H   UNL     1     -11.156   6.704  70.330  1.00  0.00     0.000 HD 
HETATM   14  C   UNL     1     -10.490  10.023  70.245  1.00  0.00    -0.331 C  
BRANCH  14  15
HETATM   15  C   UNL     1     -11.362  11.276  70.013  1.00  0.00    -0.208 C  
BRANCH  15  16
HETATM   16  O   UNL     1     -10.813  12.040  68.932  1.00  0.00    -0.220 OA 
BRANCH  16  17
HETATM   17  C   UNL     1      -9.857  11.450  68.148  1.00  0.00    -0.191 A  
HETATM   18  C   UNL     1      -9.959  10.191  67.554  1.00  0.00    -0.231 A  
HETATM   19  C   UNL     1      -8.928   9.781  66.730  1.00  0.00    -0.138 A  
HETATM   20  C   UNL     1      -7.818  10.558  66.503  1.00  0.00    -0.134 A  
HETATM   21  C   UNL     1      -7.672  11.794  67.095  1.00  0.00    -0.162 A  
HETATM   22  O   UNL     1      -6.936   9.971  65.653  1.00  0.00    -0.101 OA 
HETATM   23  C   UNL     1      -8.712  12.242  67.919  1.00  0.00    -0.177 A  
HETATM   24  C   UNL     1      -7.652   8.762  65.315  1.00  0.00    -0.091 C  
HETATM   25  O   UNL     1      -8.882   8.603  66.050  1.00  0.00    -0.156 OA 
ENDBRANCH  16  17
ENDBRANCH  15  16
ENDBRANCH  14  15
ENDBRANCH   5   8
TORSDOF 4
ENDMDL
MODEL      246
REMARK 921   NORMALIZED FREE ENERGY PREDICTED BY IDOCK:   58.23 KCAL/MOL
REMARK 922        TOTAL FREE ENERGY PREDICTED BY IDOCK:   71.07 KCAL/MOL
REMARK 923 INTER-LIGAND FREE ENERGY PREDICTED BY IDOCK:   64.07 KCAL/MOL
REMARK 924 INTRA-LIGAND FREE ENERGY PREDICTED BY IDOCK:    7.00 KCAL/MOL
REMARK 927      BINDING AFFINITY PREDICTED BY RF-SCORE:    0.00 PKD
ROOT
HETATM    1  F   UNL     1     -11.918  15.570  63.812  1.00  0.00    -0.228 F  
HETATM    2  C   UNL     1     -12.076  15.182  65.085  1.00  0.00     0.023 A  
HETATM    3  C   UNL     1     -13.082  14.280  65.408  1.00  0.00    -0.085 A  
HETATM    4  C   UNL     1     -13.264  13.891  66.740  1.00  0.00     1.954 A  
HETATM    5  C   UNL     1     -12.455  14.423  67.757  1.00  0.00     0.207 A  
HETATM    6  C   UNL     1     -11.229  15.683  66.062  1.00  0.00    -0.045 A  
HETATM    7  C   UNL     1     -11.415  15.300  67.392  1.00  0.00    -0.246 A  
ENDROOT
BRANCH   5   8
HETATM    8  C   UNL     1     -12.634  14.068  69.229  1.00  0.00     0.168 C  
HETATM    9  C   UNL     1     -12.774  12.541  69.373  1.00  0.00     0.754 C  
HETATM   10  C   UNL     1     -12.899  12.131  70.835  1.00  0.00    -0.102 C  
HETATM   11  N   UNL     1     -14.030  12.801  71.467  1.00  0.00     0.566 NA 
HETATM   12  C   UNL     1     -13.879  14.257  71.431  1.00  0.00    -0.292 C  
HETATM   13  H   UNL     1     -14.180  12.465  72.418  1.00  0.00     0.000 HD 
HETATM   14  C   UNL     1     -13.782  14.791  69.988  1.00  0.00     1.243 C  
BRANCH  14  15
HETATM   15  C   UNL     1     -13.598  16.323  70.005  1.00  0.00     3.376 C  
BRANCH  15  16
HETATM   16  O   UNL     1     -12.222  16.631  70.260  1.00  0.00     0.542 OA 
BRANCH  16  17
HETATM   17  C   UNL     1     -11.581  15.937  71.253  1.00  0.00    -0.452 A  
HETATM   18  C   UNL     1     -11.554  14.547  71.384  1.00  0.00    -0.117 A  
HETATM   19  C   UNL     1     -10.794  14.010  72.405  1.00  0.00     4.165 A  
HETATM   20  C   UNL     1     -10.096  14.796  73.290  1.00  0.00     5.676 A  
HETATM   21  C   UNL     1     -10.123  16.171  73.207  1.00  0.00     7.646 A  
HETATM   22  O   UNL     1      -9.408  14.064  74.205  1.00  0.00     6.759 OA 
HETATM   23  C   UNL     1     -10.869  16.740  72.169  1.00  0.00     2.044 A  
HETATM   24  C   UNL     1      -9.697  12.723  73.750  1.00  0.00    19.960 C  
HETATM   25  O   UNL     1     -10.633  12.682  72.653  1.00  0.00    10.556 OA 
ENDBRANCH  16  17
ENDBRANCH  15  16
ENDBRANCH  14  15
ENDBRANCH   5   8
TORSDOF 4
ENDMDL
