MODEL        1
REMARK 921   NORMALIZED FREE ENERGY PREDICTED BY IDOCK:    5.98 KCAL/MOL
REMARK 922        TOTAL FREE ENERGY PREDICTED BY IDOCK:   41.59 KCAL/MOL
REMARK 923 INTER-LIGAND FREE ENERGY PREDICTED BY IDOCK:   12.27 KCAL/MOL
REMARK 924 INTRA-LIGAND FREE ENERGY PREDICTED BY IDOCK:   29.32 KCAL/MOL
REMARK 927      BINDING AFFINITY PREDICTED BY RF-SCORE:    0.00 PKD
ROOT
ATOM      1  NZ  LYS A   1     -10.655  12.871  69.332  1.00  0.00    -0.412 NA 
ATOM      2  CE  LYS A   1     -10.099  13.580  68.188  1.00  0.00    -0.250 C  
ATOM      3  HZ2 LYS A   1     -11.502  12.364  69.078  1.00  0.00     0.000 HD 
ATOM      4  HZ1 LYS A   1      -9.970  12.252  69.767  1.00  0.00     0.000 HD 
ENDROOT
BRANCH   2   5
ATOM      5  CD  LYS A   1     -11.129  14.511  67.533  1.00  0.00    -0.316 C  
BRANCH   5   6
ATOM      6  CG  LYS A   1     -11.436  15.754  68.377  1.00  0.00    -0.367 C  
BRANCH   6   7
ATOM      7  CB  LYS A   1     -12.535  15.556  69.414  1.00  0.00    -0.030 C  
BRANCH   7   8
ATOM      8  CA  LYS A   1     -12.190  15.106  70.842  1.00  0.00    -0.342 C  
ATOM      9  N   LYS A   1     -10.702  14.991  71.019  1.00  0.00    -0.529 N  
ATOM     10  C   TRP A   6      -9.755  15.716  70.274  1.00  0.00     0.332 C  
ATOM     11  H   LYS A   1     -10.357  14.343  71.726  1.00  0.00     0.000 HD 
ATOM     12  O   TRP A   6      -9.956  16.851  69.846  1.00  0.00     0.106 OA 
ATOM     13  CA  TRP A   6      -8.418  14.960  69.925  1.00  0.00     0.345 C  
ATOM     14  N   TRP A   6      -8.207  15.143  68.440  1.00  0.00    -0.139 N  
HETATM   15  C   UNK A   2     -12.609  11.344  70.984  1.00  0.00    -0.386 C  
ATOM     16  CA  PHE A   3     -11.510   9.997  68.044  1.00  0.00     0.194 C  
HETATM   17  C   UNK A   5      -7.172  14.669  67.648  1.00  0.00    -0.186 C  
ATOM     18  H   TRP A   6      -8.922  15.686  67.955  1.00  0.00     0.000 HD 
ATOM     19  C   PHE A   3     -10.700   9.079  67.019  1.00  0.00    -0.114 C  
HETATM   20  O   UNK A   5      -6.017  14.597  68.075  1.00  0.00    -0.129 OA 
HETATM   21  C   UNK A   5      -7.517  14.055  66.183  1.00  0.00     3.269 C  
HETATM   22  C   UNK A   2     -13.008  10.213  69.923  1.00  0.00     0.469 C  
HETATM   23  N   UNK A   5      -7.068  12.570  66.064  1.00  0.00     1.311 N  
ATOM     24  C   LYS A   1     -13.021  13.852  71.436  1.00  0.00    -0.355 C  
HETATM   25  C   UNK A   4      -7.663  11.390  65.584  1.00  0.00     0.435 C  
ATOM     26  N   PHE A   3     -11.968   9.444  69.352  1.00  0.00     0.050 N  
HETATM   27  H   UNK A   5      -6.123  12.417  66.416  1.00  0.00     0.000 HD 
HETATM   28  H   UNK A   2     -13.955  12.741  69.950  1.00  0.00     0.000 HD 
HETATM   29  N   UNK A   4      -9.498   9.375  66.255  1.00  0.00    -0.194 N  
HETATM   30  O   UNK A   4      -7.674  11.175  64.370  1.00  0.00     0.491 OA 
HETATM   31  C   UNK A   4      -8.273  10.219  66.659  1.00  0.00    -0.125 C  
ATOM     32  O   LYS A   1     -13.506  13.938  72.570  1.00  0.00    -0.497 OA 
ATOM     33  H   PHE A   3     -11.576   8.608  69.785  1.00  0.00     0.000 HD 
HETATM   34  O   UNK A   2     -14.170  10.014  69.571  1.00  0.00     1.939 OA 
HETATM   35  C   UNK A   4      -7.222   9.118  67.114  1.00  0.00    -0.086 C  
HETATM   36  N   UNK A   2     -13.278  12.690  70.711  1.00  0.00     0.254 N  
HETATM   37  C   UNK A   4      -8.892   8.129  65.873  1.00  0.00    -0.158 C  
HETATM   38  C   UNK A   4      -8.157   7.899  67.191  1.00  0.00    -0.117 C  
ATOM     39  O   PHE A   3     -11.201   7.936  66.898  1.00  0.00     0.193 OA 
BRANCH  13  40
ATOM     40  CB  TRP A   6      -8.606  13.478  70.326  1.00  0.00     3.631 C  
BRANCH  40  41
ATOM     41  CG  TRP A   6      -7.339  12.748  70.524  1.00  0.00     2.955 A  
ATOM     42  CH2 TRP A   6      -5.856   8.933  71.260  1.00  0.00    -0.050 A  
ATOM     43  CE3 TRP A   6      -7.671  10.202  70.237  1.00  0.00     0.008 A  
ATOM     44  CZ2 TRP A   6      -5.140  10.088  71.537  1.00  0.00    -0.076 A  
ATOM     45  CD2 TRP A   6      -6.994  11.373  70.562  1.00  0.00     1.244 A  
ATOM     46  CE2 TRP A   6      -5.731  11.277  71.146  1.00  0.00     0.117 A  
ATOM     47  HE1 TRP A   6      -4.337  12.787  71.652  1.00  0.00     0.000 HD 
ATOM     48  NE1 TRP A   6      -5.261  12.537  71.298  1.00  0.00    -0.255 NA 
ATOM     49  CD1 TRP A   6      -6.217  13.410  70.904  1.00  0.00     0.285 A  
ATOM     50  CZ3 TRP A   6      -7.084   8.983  70.594  1.00  0.00    -0.084 A  
ENDBRANCH  40  41
ENDBRANCH  13  40
BRANCH  21  51
HETATM   51  C   UNK A   5      -8.847  14.429  65.553  1.00  0.00     1.418 A  
HETATM   52  C   UNK A   5      -9.323  15.734  65.741  1.00  0.00    -0.298 A  
HETATM   53  C   UNK A   5     -10.553  16.140  65.211  1.00  0.00    -0.390 A  
HETATM   54  C   UNK A   5     -11.356  15.238  64.515  1.00  0.00    -0.307 A  
HETATM   55  C   UNK A   5     -10.894  13.952  64.283  1.00  0.00    -0.185 A  
HETATM   56  C   UNK A   5      -9.639  13.576  64.762  1.00  0.00     0.428 A  
ENDBRANCH  21  51
BRANCH  38  57
HETATM   57  O   UNK A   4      -7.883   6.527  67.357  1.00  0.00    -0.109 OA 
BRANCH  57  58
HETATM   58  C   UNK A   4      -8.608   5.941  68.346  1.00  0.00    -0.113 C  
HETATM   59  H   UNK A   4      -9.723   4.328  68.851  1.00  0.00     0.000 HD 
HETATM   60  N   UNK A   4      -9.160   4.721  68.095  1.00  0.00    -0.112 N  
HETATM   61  O   UNK A   4      -8.730   6.482  69.423  1.00  0.00    -0.132 OA 
BRANCH  60  62
HETATM   62  C   UNK A   4      -9.056   3.902  66.900  1.00  0.00    -0.151 C  
BRANCH  62  63
HETATM   63  C   UNK A   4     -10.070   4.301  65.803  1.00  0.00    -0.212 C  
HETATM   64  H1  UNK A   4     -11.174   3.424  64.267  1.00  0.00     0.000 HD 
HETATM   65  H2  UNK A   4     -10.877   2.414  65.579  1.00  0.00     0.000 HD 
HETATM   66  N   UNK A   4     -10.506   3.160  64.991  1.00  0.00    -0.186 NA 
ENDBRANCH  62  63
ENDBRANCH  60  62
ENDBRANCH  57  58
ENDBRANCH  38  57
BRANCH  16  67
ATOM     67  CB  PHE A   3     -11.058  11.427  68.235  1.00  0.00    -0.300 C  
BRANCH  67  68
ATOM     68  CG  PHE A   3     -11.508  12.118  67.008  1.00  0.00    -0.415 A  
ATOM     69  CE1 PHE A   3     -13.219  13.280  65.835  1.00  0.00     0.821 A  
ATOM     70  CZ  PHE A   3     -12.979  12.473  64.711  1.00  0.00    -0.115 A  
ATOM     71  CD1 PHE A   3     -12.523  13.064  67.018  1.00  0.00     0.219 A  
ATOM     72  CD2 PHE A   3     -11.170  11.505  65.828  1.00  0.00    -0.228 A  
ATOM     73  CE2 PHE A   3     -11.950  11.543  64.711  1.00  0.00     0.164 A  
ENDBRANCH  67  68
ENDBRANCH  16  67
BRANCH  15  74
HETATM   74  C   UNK A   2     -12.798  10.762  72.402  1.00  0.00     0.362 C  
BRANCH  74  75
HETATM   75  C   UNK A   2     -12.574   9.279  72.554  1.00  0.00    -0.266 A  
HETATM   76  C   UNK A   2     -13.676   8.414  72.498  1.00  0.00    -0.194 A  
HETATM   77  C   UNK A   2     -13.512   7.045  72.657  1.00  0.00     0.790 A  
HETATM   78  C   UNK A   2     -12.236   6.504  72.793  1.00  0.00     0.392 A  
HETATM   79  C   UNK A   2     -11.134   7.356  72.880  1.00  0.00    -0.397 A  
HETATM   80  C   UNK A   2     -11.301   8.742  72.770  1.00  0.00     0.249 A  
BRANCH  78  81
HETATM   81  O   UNK A   2     -11.982   5.157  72.826  1.00  0.00    -0.179 OA 
BRANCH  81  82
HETATM   82  C   UNK A   2     -10.895   4.769  71.980  1.00  0.00     0.027 C  
BRANCH  82  83
HETATM   83  C   UNK A   2      -9.932   3.882  72.712  1.00  0.00    -0.209 A  
HETATM   84  C   UNK A   2     -10.329   2.609  73.143  1.00  0.00    -0.233 A  
HETATM   85  C   UNK A   2      -9.398   1.741  73.710  1.00  0.00    -0.075 A  
HETATM   86  C   UNK A   2      -8.071   2.143  73.856  1.00  0.00    -0.054 A  
HETATM   87  C   UNK A   2      -7.671   3.413  73.441  1.00  0.00    -0.065 A  
HETATM   88  C   UNK A   2      -8.597   4.276  72.862  1.00  0.00    -0.101 A  
ENDBRANCH  82  83
ENDBRANCH  81  82
ENDBRANCH  78  81
ENDBRANCH  74  75
ENDBRANCH  15  74
ENDBRANCH   7   8
ENDBRANCH   6   7
ENDBRANCH   5   6
ENDBRANCH   2   5
TORSDOF 18
ENDMDL
MODEL        2
REMARK 921   NORMALIZED FREE ENERGY PREDICTED BY IDOCK:    7.12 KCAL/MOL
REMARK 922        TOTAL FREE ENERGY PREDICTED BY IDOCK:   43.92 KCAL/MOL
REMARK 923 INTER-LIGAND FREE ENERGY PREDICTED BY IDOCK:   30.46 KCAL/MOL
REMARK 924 INTRA-LIGAND FREE ENERGY PREDICTED BY IDOCK:   13.46 KCAL/MOL
REMARK 927      BINDING AFFINITY PREDICTED BY RF-SCORE:    0.00 PKD
ROOT
ATOM      1  NZ  LYS A   1      -5.775  10.596  73.585  1.00  0.00     0.374 NA 
ATOM      2  CE  LYS A   1      -5.896   9.254  73.030  1.00  0.00     0.099 C  
ATOM      3  HZ2 LYS A   1      -6.193  10.652  74.513  1.00  0.00     0.000 HD 
ATOM      4  HZ1 LYS A   1      -4.807  10.918  73.594  1.00  0.00     0.000 HD 
ENDROOT
BRANCH   2   5
ATOM      5  CD  LYS A   1      -7.352   8.769  73.016  1.00  0.00     0.162 C  
BRANCH   5   6
ATOM      6  CG  LYS A   1      -8.093   9.130  71.722  1.00  0.00     0.247 C  
BRANCH   6   7
ATOM      7  CB  LYS A   1      -7.668   8.318  70.505  1.00  0.00    -0.081 C  
BRANCH   7   8
ATOM      8  CA  LYS A   1      -6.390   8.680  69.732  1.00  0.00    -0.035 C  
ATOM      9  N   LYS A   1      -6.151  10.163  69.765  1.00  0.00    -0.045 N  
ATOM     10  C   TRP A   6      -6.611  11.020  70.781  1.00  0.00     0.658 C  
ATOM     11  H   LYS A   1      -5.619  10.576  68.999  1.00  0.00     0.000 HD 
ATOM     12  O   TRP A   6      -6.736  10.673  71.954  1.00  0.00     1.217 OA 
ATOM     13  CA  TRP A   6      -7.058  12.461  70.326  1.00  0.00     1.540 C  
ATOM     14  N   TRP A   6      -8.424  12.688  70.931  1.00  0.00     7.753 N  
HETATM   15  C   UNK A   2      -7.279   8.795  66.051  1.00  0.00    -0.088 C  
ATOM     16  CA  PHE A   3     -10.390  10.162  65.707  1.00  0.00    -0.146 C  
HETATM   17  C   UNK A   5      -9.242  13.803  70.828  1.00  0.00     5.373 C  
ATOM     18  H   TRP A   6      -8.794  11.918  71.489  1.00  0.00     0.000 HD 
ATOM     19  C   PHE A   3     -11.565  11.124  65.214  1.00  0.00     0.486 C  
HETATM   20  O   UNK A   5      -8.772  14.943  70.792  1.00  0.00     1.366 OA 
HETATM   21  C   UNK A   5     -10.836  13.593  70.596  1.00  0.00     1.673 C  
HETATM   22  C   UNK A   2      -8.626   8.593  65.210  1.00  0.00    -0.180 C  
HETATM   23  N   UNK A   5     -11.314  14.252  69.270  1.00  0.00    -0.270 N  
ATOM     24  C   LYS A   1      -6.207   8.018  68.267  1.00  0.00    -0.049 C  
HETATM   25  C   UNK A   4     -12.128  13.845  68.198  1.00  0.00    -0.282 C  
ATOM     26  N   PHE A   3      -9.309   9.748  64.765  1.00  0.00    -0.293 N  
HETATM   27  H   UNK A   5     -10.952  15.198  69.150  1.00  0.00     0.000 HD 
HETATM   28  H   UNK A   2      -7.993   7.297  67.492  1.00  0.00     0.000 HD 
HETATM   29  N   UNK A   4     -12.141  12.295  65.858  1.00  0.00    -0.309 N  
HETATM   30  O   UNK A   4     -13.354  13.901  68.322  1.00  0.00     2.468 OA 
HETATM   31  C   UNK A   4     -11.446  13.375  66.711  1.00  0.00    -0.343 C  
ATOM     32  O   LYS A   1      -5.126   7.492  67.979  1.00  0.00    -0.023 OA 
ATOM     33  H   PHE A   3      -9.088  10.241  63.900  1.00  0.00     0.000 HD 
HETATM   34  O   UNK A   2      -9.095   7.482  64.966  1.00  0.00     0.320 OA 
HETATM   35  C   UNK A   4     -11.230  14.558  65.672  1.00  0.00    -0.335 C  
HETATM   36  N   UNK A   2      -7.230   7.951  67.323  1.00  0.00    -0.088 N  
HETATM   37  C   UNK A   4     -12.797  13.083  64.851  1.00  0.00    -0.297 C  
HETATM   38  C   UNK A   4     -11.541  13.802  64.369  1.00  0.00    -0.395 C  
ATOM     39  O   PHE A   3     -12.017  10.795  64.092  1.00  0.00     1.273 OA 
BRANCH  13  40
ATOM     40  CB  TRP A   6      -7.077  12.473  68.780  1.00  0.00    -0.092 C  
BRANCH  40  41
ATOM     41  CG  TRP A   6      -7.022  13.826  68.193  1.00  0.00    -0.120 A  
ATOM     42  CH2 TRP A   6      -5.841  17.715  69.069  1.00  0.00    -0.193 A  
ATOM     43  CE3 TRP A   6      -5.410  15.355  69.510  1.00  0.00    -0.099 A  
ATOM     44  CZ2 TRP A   6      -6.767  17.411  68.083  1.00  0.00    -0.178 A  
ATOM     45  CD2 TRP A   6      -6.381  15.033  68.567  1.00  0.00    -0.092 A  
ATOM     46  CE2 TRP A   6      -6.983  16.065  67.847  1.00  0.00    -0.135 A  
ATOM     47  HE1 TRP A   6      -8.374  15.993  66.252  1.00  0.00     0.000 HD 
ATOM     48  NE1 TRP A   6      -7.828  15.494  66.956  1.00  0.00    -0.223 NA 
ATOM     49  CD1 TRP A   6      -7.830  14.155  67.153  1.00  0.00    -0.037 A  
ATOM     50  CZ3 TRP A   6      -5.150  16.709  69.750  1.00  0.00    -0.153 A  
ENDBRANCH  40  41
ENDBRANCH  13  40
BRANCH  21  51
HETATM   51  C   UNK A   5     -11.433  12.243  70.953  1.00  0.00     1.241 A  
HETATM   52  C   UNK A   5     -12.744  12.212  71.451  1.00  0.00    -0.368 A  
HETATM   53  C   UNK A   5     -13.347  11.005  71.825  1.00  0.00    -0.400 A  
HETATM   54  C   UNK A   5     -12.640   9.806  71.750  1.00  0.00    -0.506 A  
HETATM   55  C   UNK A   5     -11.356   9.803  71.228  1.00  0.00    -0.445 A  
HETATM   56  C   UNK A   5     -10.786  11.002  70.800  1.00  0.00     1.085 A  
ENDBRANCH  21  51
BRANCH  38  57
HETATM   57  O   UNK A   4     -11.727  14.264  63.050  1.00  0.00     0.681 OA 
BRANCH  57  58
HETATM   58  C   UNK A   4     -12.507  15.374  62.964  1.00  0.00     3.021 C  
HETATM   59  H   UNK A   4     -12.657  17.335  63.442  1.00  0.00     0.000 HD 
HETATM   60  N   UNK A   4     -12.029  16.532  63.498  1.00  0.00     1.067 N  
HETATM   61  O   UNK A   4     -13.579  15.330  62.402  1.00  0.00     4.263 OA 
BRANCH  60  62
HETATM   62  C   UNK A   4     -10.749  16.781  64.136  1.00  0.00     2.057 C  
BRANCH  62  63
HETATM   63  C   UNK A   4     -10.883  17.215  65.615  1.00  0.00    -0.049 C  
HETATM   64  H1  UNK A   4      -9.718  18.021  67.145  1.00  0.00     0.000 HD 
HETATM   65  H2  UNK A   4      -9.264  18.496  65.597  1.00  0.00     0.000 HD 
HETATM   66  N   UNK A   4      -9.629  17.735  66.170  1.00  0.00    -0.502 NA 
ENDBRANCH  62  63
ENDBRANCH  60  62
ENDBRANCH  57  58
ENDBRANCH  38  57
BRANCH  16  67
ATOM     67  CB  PHE A   3      -9.797  10.401  67.076  1.00  0.00    -0.234 C  
BRANCH  67  68
ATOM     68  CG  PHE A   3     -10.249   9.242  67.876  1.00  0.00    -0.263 A  
ATOM     69  CE1 PHE A   3      -9.712   7.400  69.279  1.00  0.00    -0.165 A  
ATOM     70  CZ  PHE A   3     -10.557   6.583  68.510  1.00  0.00    -0.291 A  
ATOM     71  CD1 PHE A   3      -9.503   8.727  68.927  1.00  0.00    -0.145 A  
ATOM     72  CD2 PHE A   3     -11.217   8.465  67.292  1.00  0.00     0.738 A  
ATOM     73  CE2 PHE A   3     -11.309   7.117  67.473  1.00  0.00     0.168 A  
ENDBRANCH  67  68
ENDBRANCH  16  67
BRANCH  15  74
HETATM   74  C   UNK A   2      -6.081   8.649  65.086  1.00  0.00    -0.056 C  
BRANCH  74  75
HETATM   75  C   UNK A   2      -5.947   7.324  64.380  1.00  0.00    -0.037 A  
HETATM   76  C   UNK A   2      -5.960   6.144  65.136  1.00  0.00    -0.026 A  
HETATM   77  C   UNK A   2      -5.816   4.907  64.522  1.00  0.00    -0.017 A  
HETATM   78  C   UNK A   2      -5.737   4.818  63.135  1.00  0.00    -0.017 A  
HETATM   79  C   UNK A   2      -5.693   5.987  62.373  1.00  0.00    -0.022 A  
HETATM   80  C   UNK A   2      -5.789   7.239  62.993  1.00  0.00    -0.045 A  
BRANCH  78  81
HETATM   81  O   UNK A   2      -5.722   3.630  62.449  1.00  0.00    -0.011 OA 
BRANCH  81  82
HETATM   82  C   UNK A   2      -6.359   2.564  63.160  1.00  0.00    -0.017 C  
BRANCH  82  83
HETATM   83  C   UNK A   2      -7.681   3.002  63.717  1.00  0.00    -0.068 A  
HETATM   84  C   UNK A   2      -7.984   2.793  65.068  1.00  0.00    -0.082 A  
HETATM   85  C   UNK A   2      -9.159   3.311  65.610  1.00  0.00    -0.152 A  
HETATM   86  C   UNK A   2     -10.038   4.033  64.803  1.00  0.00    -0.222 A  
HETATM   87  C   UNK A   2      -9.748   4.234  63.453  1.00  0.00    -0.062 A  
HETATM   88  C   UNK A   2      -8.569   3.729  62.914  1.00  0.00    -0.087 A  
ENDBRANCH  82  83
ENDBRANCH  81  82
ENDBRANCH  78  81
ENDBRANCH  74  75
ENDBRANCH  15  74
ENDBRANCH   7   8
ENDBRANCH   6   7
ENDBRANCH   5   6
ENDBRANCH   2   5
TORSDOF 18
ENDMDL
MODEL        3
REMARK 921   NORMALIZED FREE ENERGY PREDICTED BY IDOCK:   24.77 KCAL/MOL
REMARK 922        TOTAL FREE ENERGY PREDICTED BY IDOCK:   80.16 KCAL/MOL
REMARK 923 INTER-LIGAND FREE ENERGY PREDICTED BY IDOCK:   26.49 KCAL/MOL
REMARK 924 INTRA-LIGAND FREE ENERGY PREDICTED BY IDOCK:   53.66 KCAL/MOL
REMARK 927      BINDING AFFINITY PREDICTED BY RF-SCORE:    0.00 PKD
ROOT
ATOM      1  NZ  LYS A   1     -10.665  15.079  70.961  1.00  0.00    -0.529 NA 
ATOM      2  CE  LYS A   1     -10.112  14.498  69.745  1.00  0.00     0.273 C  
ATOM      3  HZ2 LYS A   1     -11.485  14.563  71.278  1.00  0.00     0.000 HD 
ATOM      4  HZ1 LYS A   1      -9.966  15.154  71.700  1.00  0.00     0.000 HD 
ENDROOT
BRANCH   2   5
ATOM      5  CD  LYS A   1     -11.163  14.386  68.633  1.00  0.00    -0.280 C  
BRANCH   5   6
ATOM      6  CG  LYS A   1     -12.245  15.470  68.718  1.00  0.00    -0.032 C  
BRANCH   6   7
ATOM      7  CB  LYS A   1     -12.746  15.752  70.130  1.00  0.00    -0.045 C  
BRANCH   7   8
ATOM      8  CA  LYS A   1     -11.996  15.194  71.349  1.00  0.00    -0.350 C  
ATOM      9  N   LYS A   1     -10.510  15.285  71.148  1.00  0.00    -0.292 N  
ATOM     10  C   TRP A   6      -9.877  16.228  70.319  1.00  0.00     0.742 C  
ATOM     11  H   LYS A   1      -9.921  14.618  71.647  1.00  0.00     0.000 HD 
ATOM     12  O   TRP A   6     -10.312  17.362  70.129  1.00  0.00     0.289 OA 
ATOM     13  CA  TRP A   6      -8.594  15.730  69.552  1.00  0.00    -0.144 C  
ATOM     14  N   TRP A   6      -8.793  16.116  68.105  1.00  0.00    -0.181 N  
HETATM   15  C   UNK A   2     -11.921  11.421  71.013  1.00  0.00    -0.055 C  
ATOM     16  CA  PHE A   3     -11.460  10.612  67.727  1.00  0.00    -0.137 C  
HETATM   17  C   UNK A   5      -7.947  15.902  67.027  1.00  0.00    -0.235 C  
ATOM     18  H   TRP A   6      -9.667  16.598  67.892  1.00  0.00     0.000 HD 
ATOM     19  C   PHE A   3     -10.837   9.955  66.412  1.00  0.00     0.148 C  
HETATM   20  O   UNK A   5      -6.721  15.956  67.152  1.00  0.00    -0.190 OA 
HETATM   21  C   UNK A   5      -8.581  15.420  65.611  1.00  0.00     1.171 C  
HETATM   22  C   UNK A   2     -12.441  10.376  69.918  1.00  0.00    -0.056 C  
HETATM   23  N   UNK A   5      -8.006  14.045  65.165  1.00  0.00     5.527 N  
ATOM     24  C   LYS A   1     -12.494  13.767  71.926  1.00  0.00    -0.106 C  
HETATM   25  C   UNK A   4      -8.561  12.853  64.666  1.00  0.00     3.149 C  
ATOM     26  N   PHE A   3     -11.499   9.846  69.007  1.00  0.00    -0.475 N  
HETATM   27  H   UNK A   5      -6.991  13.996  65.255  1.00  0.00     0.000 HD 
HETATM   28  H   UNK A   2     -13.640  12.711  70.553  1.00  0.00     0.000 HD 
HETATM   29  N   UNK A   4      -9.914  10.518  65.438  1.00  0.00    -0.270 N  
HETATM   30  O   UNK A   4      -8.857  12.783  63.471  1.00  0.00     1.500 OA 
HETATM   31  C   UNK A   4      -8.734  11.485  65.664  1.00  0.00     0.050 C  
ATOM     32  O   LYS A   1     -12.680  13.644  73.142  1.00  0.00    -0.173 OA 
ATOM     33  H   PHE A   3     -10.915   9.034  69.202  1.00  0.00     0.000 HD 
HETATM   34  O   UNK A   2     -13.623  10.046  69.826  1.00  0.00     0.566 OA 
HETATM   35  C   UNK A   4      -7.480  10.509  65.683  1.00  0.00    -0.129 C  
HETATM   36  N   UNK A   2     -12.790  12.673  71.115  1.00  0.00    -0.287 N  
HETATM   37  C   UNK A   4      -9.283   9.432  64.739  1.00  0.00    -0.156 C  
HETATM   38  C   UNK A   4      -8.215   9.163  65.794  1.00  0.00    -0.115 C  
ATOM     39  O   PHE A   3     -11.214   8.772  66.241  1.00  0.00     1.195 OA 
BRANCH  13  40
ATOM     40  CB  TRP A   6      -8.498  14.200  69.757  1.00  0.00     0.980 C  
BRANCH  40  41
ATOM     41  CG  TRP A   6      -7.271  13.767  70.453  1.00  0.00     1.126 A  
ATOM     42  CH2 TRP A   6      -5.494  10.407  72.142  1.00  0.00     0.281 A  
ATOM     43  CE3 TRP A   6      -7.034  11.194  70.422  1.00  0.00     0.680 A  
ATOM     44  CZ2 TRP A   6      -5.131  11.703  72.477  1.00  0.00     0.356 A  
ATOM     45  CD2 TRP A   6      -6.727  12.501  70.787  1.00  0.00     1.844 A  
ATOM     46  CE2 TRP A   6      -5.748  12.712  71.758  1.00  0.00     0.643 A  
ATOM     47  HE1 TRP A   6      -4.900  14.512  72.481  1.00  0.00     0.000 HD 
ATOM     48  NE1 TRP A   6      -5.586  14.050  71.883  1.00  0.00    -0.267 NA 
ATOM     49  CD1 TRP A   6      -6.483  14.674  71.084  1.00  0.00     0.379 A  
ATOM     50  CZ3 TRP A   6      -6.405  10.153  71.112  1.00  0.00     0.148 A  
ENDBRANCH  40  41
ENDBRANCH  13  40
BRANCH  21  51
HETATM   51  C   UNK A   5     -10.062  15.660  65.378  1.00  0.00    -0.370 A  
HETATM   52  C   UNK A   5     -10.889  15.822  66.499  1.00  0.00    -0.230 A  
HETATM   53  C   UNK A   5     -12.268  16.021  66.360  1.00  0.00     1.768 A  
HETATM   54  C   UNK A   5     -12.859  16.019  65.097  1.00  0.00     2.251 A  
HETATM   55  C   UNK A   5     -12.061  15.896  63.970  1.00  0.00     0.313 A  
HETATM   56  C   UNK A   5     -10.681  15.762  64.118  1.00  0.00     1.007 A  
ENDBRANCH  21  51
BRANCH  38  57
HETATM   57  O   UNK A   4      -7.748   7.838  65.680  1.00  0.00    -0.091 OA 
BRANCH  57  58
HETATM   58  C   UNK A   4      -8.650   6.904  66.082  1.00  0.00    -0.143 C  
HETATM   59  H   UNK A   4      -9.451   5.091  65.674  1.00  0.00     0.000 HD 
HETATM   60  N   UNK A   4      -8.741   5.753  65.360  1.00  0.00    -0.217 N  
HETATM   61  O   UNK A   4      -9.327   7.088  67.070  1.00  0.00    -0.135 OA 
BRANCH  60  62
HETATM   62  C   UNK A   4      -7.965   5.338  64.205  1.00  0.00    -0.112 C  
BRANCH  62  63
HETATM   63  C   UNK A   4      -6.598   4.722  64.583  1.00  0.00    -0.043 C  
HETATM   64  H1  UNK A   4      -5.688   2.853  64.743  1.00  0.00     0.000 HD 
HETATM   65  H2  UNK A   4      -6.887   2.947  63.568  1.00  0.00     0.000 HD 
HETATM   66  N   UNK A   4      -6.590   3.258  64.493  1.00  0.00    -0.035 NA 
ENDBRANCH  62  63
ENDBRANCH  60  62
ENDBRANCH  57  58
ENDBRANCH  38  57
BRANCH  16  67
ATOM     67  CB  PHE A   3     -11.145  12.062  68.020  1.00  0.00    -0.292 C  
BRANCH  67  68
ATOM     68  CG  PHE A   3     -11.818  12.807  66.935  1.00  0.00    -0.440 A  
ATOM     69  CE1 PHE A   3     -13.823  13.680  66.002  1.00  0.00     3.535 A  
ATOM     70  CZ  PHE A   3     -13.458  13.150  64.754  1.00  0.00     0.984 A  
ATOM     71  CD1 PHE A   3     -13.031  13.456  67.121  1.00  0.00     1.678 A  
ATOM     72  CD2 PHE A   3     -11.408  12.497  65.664  1.00  0.00    -0.372 A  
ATOM     73  CE2 PHE A   3     -12.235  12.518  64.581  1.00  0.00    -0.524 A  
ENDBRANCH  67  68
ENDBRANCH  16  67
BRANCH  15  74
HETATM   74  C   UNK A   2     -11.670  10.654  72.331  1.00  0.00     2.792 C  
BRANCH  74  75
HETATM   75  C   UNK A   2     -10.986   9.317  72.208  1.00  0.00     0.264 A  
HETATM   76  C   UNK A   2     -11.736   8.147  72.393  1.00  0.00    -0.461 A  
HETATM   77  C   UNK A   2     -11.135   6.899  72.311  1.00  0.00    -0.284 A  
HETATM   78  C   UNK A   2      -9.791   6.790  71.963  1.00  0.00    -0.156 A  
HETATM   79  C   UNK A   2      -9.026   7.946  71.805  1.00  0.00    -0.172 A  
HETATM   80  C   UNK A   2      -9.618   9.209  71.936  1.00  0.00    -0.030 A  
BRANCH  78  81
HETATM   81  O   UNK A   2      -9.160   5.593  71.737  1.00  0.00    -0.136 OA 
BRANCH  81  82
HETATM   82  C   UNK A   2      -9.215   5.179  70.368  1.00  0.00    -0.148 C  
BRANCH  82  83
HETATM   83  C   UNK A   2      -8.049   4.299  70.024  1.00  0.00    -0.061 A  
HETATM   84  C   UNK A   2      -7.962   3.003  70.546  1.00  0.00    -0.049 A  
HETATM   85  C   UNK A   2      -6.946   2.146  70.126  1.00  0.00    -0.033 A  
HETATM   86  C   UNK A   2      -6.009   2.585  69.191  1.00  0.00    -0.024 A  
HETATM   87  C   UNK A   2      -6.082   3.880  68.677  1.00  0.00    -0.031 A  
HETATM   88  C   UNK A   2      -7.104   4.731  69.085  1.00  0.00    -0.052 A  
ENDBRANCH  82  83
ENDBRANCH  81  82
ENDBRANCH  78  81
ENDBRANCH  74  75
ENDBRANCH  15  74
ENDBRANCH   7   8
ENDBRANCH   6   7
ENDBRANCH   5   6
ENDBRANCH   2   5
TORSDOF 18
ENDMDL
MODEL        4
REMARK 921   NORMALIZED FREE ENERGY PREDICTED BY IDOCK:   38.75 KCAL/MOL
REMARK 922        TOTAL FREE ENERGY PREDICTED BY IDOCK:  108.83 KCAL/MOL
REMARK 923 INTER-LIGAND FREE ENERGY PREDICTED BY IDOCK:   54.86 KCAL/MOL
REMARK 924 INTRA-LIGAND FREE ENERGY PREDICTED BY IDOCK:   53.97 KCAL/MOL
REMARK 927      BINDING AFFINITY PREDICTED BY RF-SCORE:    0.00 PKD
ROOT
ATOM      1  NZ  LYS A   1      -9.688  15.167  71.340  1.00  0.00     1.301 NA 
ATOM      2  CE  LYS A   1      -9.313  14.644  70.033  1.00  0.00     0.727 C  
ATOM      3  HZ2 LYS A   1     -10.499  14.678  71.716  1.00  0.00     0.000 HD 
ATOM      4  HZ1 LYS A   1      -8.906  15.148  71.996  1.00  0.00     0.000 HD 
ENDROOT
BRANCH   2   5
ATOM      5  CD  LYS A   1     -10.488  14.673  69.046  1.00  0.00    -0.248 C  
BRANCH   5   6
ATOM      6  CG  LYS A   1     -11.414  15.878  69.250  1.00  0.00    -0.374 C  
BRANCH   6   7
ATOM      7  CB  LYS A   1     -11.768  16.162  70.705  1.00  0.00    -0.300 C  
BRANCH   7   8
ATOM      8  CA  LYS A   1     -10.970  15.510  71.844  1.00  0.00     0.075 C  
ATOM      9  N   LYS A   1      -9.499  15.517  71.536  1.00  0.00     2.258 N  
ATOM     10  C   TRP A   6      -8.868  16.452  70.696  1.00  0.00     3.224 C  
ATOM     11  H   LYS A   1      -8.920  14.795  71.964  1.00  0.00     0.000 HD 
ATOM     12  O   TRP A   6      -9.241  17.617  70.579  1.00  0.00     2.859 OA 
ATOM     13  CA  TRP A   6      -7.679  15.907  69.818  1.00  0.00     0.154 C  
ATOM     14  N   TRP A   6      -7.958  16.363  68.404  1.00  0.00    -0.170 N  
HETATM   15  C   UNK A   2     -11.163  11.757  71.368  1.00  0.00     3.223 C  
ATOM     16  CA  PHE A   3     -10.996  11.055  68.029  1.00  0.00    -0.258 C  
HETATM   17  C   UNK A   5      -7.207  16.141  67.259  1.00  0.00    -0.197 C  
ATOM     18  H   TRP A   6      -8.811  16.907  68.275  1.00  0.00     0.000 HD 
ATOM     19  C   PHE A   3     -10.514  10.415  66.649  1.00  0.00    -0.215 C  
HETATM   20  O   UNK A   5      -5.975  16.113  67.293  1.00  0.00    -0.201 OA 
HETATM   21  C   UNK A   5      -7.972  15.757  65.878  1.00  0.00     1.217 C  
HETATM   22  C   UNK A   2     -11.829  10.792  70.279  1.00  0.00    -0.349 C  
HETATM   23  N   UNK A   5      -7.522  14.368  65.340  1.00  0.00     6.608 N  
ATOM     24  C   LYS A   1     -11.516  14.094  72.405  1.00  0.00     1.605 C  
HETATM   25  C   UNK A   4      -8.188  13.234  64.842  1.00  0.00     5.275 C  
ATOM     26  N   PHE A   3     -10.992  10.242  69.281  1.00  0.00    -0.229 N  
HETATM   27  H   UNK A   5      -6.508  14.253  65.352  1.00  0.00     0.000 HD 
HETATM   28  H   UNK A   2     -12.825  13.168  71.085  1.00  0.00     0.000 HD 
HETATM   29  N   UNK A   4      -9.629  10.958  65.630  1.00  0.00    -0.212 N  
HETATM   30  O   UNK A   4      -8.573  13.231  63.671  1.00  0.00     4.228 OA 
HETATM   31  C   UNK A   4      -8.376  11.840  65.801  1.00  0.00     0.385 C  
ATOM     32  O   LYS A   1     -11.620  13.934  73.626  1.00  0.00     1.241 OA 
ATOM     33  H   PHE A   3     -10.449   9.387  69.402  1.00  0.00     0.000 HD 
HETATM   34  O   UNK A   2     -13.033  10.539  70.264  1.00  0.00    -0.266 OA 
HETATM   35  C   UNK A   4      -7.190  10.788  65.691  1.00  0.00    -0.018 C  
HETATM   36  N   UNK A   2     -11.940  13.055  71.579  1.00  0.00     0.168 N  
HETATM   37  C   UNK A   4      -9.123   9.864  64.847  1.00  0.00    -0.224 C  
HETATM   38  C   UNK A   4      -8.001   9.487  65.808  1.00  0.00    -0.111 C  
ATOM     39  O   PHE A   3     -10.978   9.265  66.465  1.00  0.00     0.106 OA 
BRANCH  13  40
ATOM     40  CB  TRP A   6      -7.668  14.367  69.959  1.00  0.00     0.552 C  
BRANCH  40  41
ATOM     41  CG  TRP A   6      -6.688  13.865  70.942  1.00  0.00     0.749 A  
ATOM     42  CH2 TRP A   6      -5.641  10.431  73.041  1.00  0.00     0.714 A  
ATOM     43  CE3 TRP A   6      -6.644  11.282  70.987  1.00  0.00     1.415 A  
ATOM     44  CZ2 TRP A   6      -5.275  11.705  73.447  1.00  0.00     0.701 A  
ATOM     45  CD2 TRP A   6      -6.340  12.572  71.409  1.00  0.00     2.048 A  
ATOM     46  CE2 TRP A   6      -5.618  12.737  72.591  1.00  0.00     0.917 A  
ATOM     47  HE1 TRP A   6      -4.843  14.490  73.490  1.00  0.00     0.000 HD 
ATOM     48  NE1 TRP A   6      -5.392  14.063  72.743  1.00  0.00    -0.313 NA 
ATOM     49  CD1 TRP A   6      -6.015  14.729  71.743  1.00  0.00     0.330 A  
ATOM     50  CZ3 TRP A   6      -6.285  10.216  71.819  1.00  0.00     0.568 A  
ENDBRANCH  40  41
ENDBRANCH  13  40
BRANCH  21  51
HETATM   51  C   UNK A   5      -9.448  16.097  65.765  1.00  0.00    -0.254 A  
HETATM   52  C   UNK A   5     -10.228  15.364  64.859  1.00  0.00    -0.162 A  
HETATM   53  C   UNK A   5     -11.589  15.642  64.685  1.00  0.00    -0.249 A  
HETATM   54  C   UNK A   5     -12.193  16.687  65.382  1.00  0.00     2.698 A  
HETATM   55  C   UNK A   5     -11.455  17.404  66.311  1.00  0.00     1.416 A  
HETATM   56  C   UNK A   5     -10.115  17.078  66.522  1.00  0.00    -0.318 A  
ENDBRANCH  21  51
BRANCH  38  57
HETATM   57  O   UNK A   4      -7.630   8.141  65.612  1.00  0.00    -0.078 OA 
BRANCH  57  58
HETATM   58  C   UNK A   4      -8.680   7.316  65.359  1.00  0.00     0.034 C  
HETATM   59  H   UNK A   4     -10.236   6.316  66.181  1.00  0.00     0.000 HD 
HETATM   60  N   UNK A   4      -9.477   6.960  66.405  1.00  0.00    -0.295 N  
HETATM   61  O   UNK A   4      -8.910   6.940  64.231  1.00  0.00     0.458 OA 
BRANCH  60  62
HETATM   62  C   UNK A   4      -9.395   7.372  67.795  1.00  0.00    -0.136 C  
BRANCH  62  63
HETATM   63  C   UNK A   4      -8.242   6.685  68.563  1.00  0.00    -0.119 C  
HETATM   64  H1  UNK A   4      -6.801   5.205  68.273  1.00  0.00     0.000 HD 
HETATM   65  H2  UNK A   4      -7.233   6.042  66.880  1.00  0.00     0.000 HD 
HETATM   66  N   UNK A   4      -7.562   5.659  67.766  1.00  0.00    -0.088 NA 
ENDBRANCH  62  63
ENDBRANCH  60  62
ENDBRANCH  57  58
ENDBRANCH  38  57
BRANCH  16  67
ATOM     67  CB  PHE A   3     -10.567  12.469  68.350  1.00  0.00    -0.256 C  
BRANCH  67  68
ATOM     68  CG  PHE A   3     -11.300  13.302  67.373  1.00  0.00    -0.337 A  
ATOM     69  CE1 PHE A   3     -13.316  14.383  66.724  1.00  0.00     2.780 A  
ATOM     70  CZ  PHE A   3     -13.169  13.853  65.431  1.00  0.00    -0.048 A  
ATOM     71  CD1 PHE A   3     -12.410  14.057  67.725  1.00  0.00    -0.040 A  
ATOM     72  CD2 PHE A   3     -11.091  12.987  66.055  1.00  0.00    -0.301 A  
ATOM     73  CE2 PHE A   3     -12.045  13.114  65.091  1.00  0.00    -0.463 A  
ENDBRANCH  67  68
ENDBRANCH  16  67
BRANCH  15  74
HETATM   74  C   UNK A   2     -10.868  10.923  72.635  1.00  0.00     8.909 C  
BRANCH  74  75
HETATM   75  C   UNK A   2     -10.099   9.643  72.431  1.00  0.00     2.379 A  
HETATM   76  C   UNK A   2     -10.098   8.679  73.448  1.00  0.00     1.157 A  
HETATM   77  C   UNK A   2      -9.381   7.498  73.305  1.00  0.00    -0.271 A  
HETATM   78  C   UNK A   2      -8.719   7.221  72.112  1.00  0.00    -0.120 A  
HETATM   79  C   UNK A   2      -8.687   8.185  71.103  1.00  0.00    -0.161 A  
HETATM   80  C   UNK A   2      -9.368   9.399  71.264  1.00  0.00    -0.060 A  
BRANCH  78  81
HETATM   81  O   UNK A   2      -8.099   6.026  71.848  1.00  0.00    -0.106 OA 
BRANCH  81  82
HETATM   82  C   UNK A   2      -8.923   5.117  71.112  1.00  0.00    -0.138 C  
BRANCH  82  83
HETATM   83  C   UNK A   2     -10.172   4.784  71.874  1.00  0.00    -0.261 A  
HETATM   84  C   UNK A   2     -10.214   3.660  72.707  1.00  0.00    -0.239 A  
HETATM   85  C   UNK A   2     -11.331   3.425  73.508  1.00  0.00    -0.228 A  
HETATM   86  C   UNK A   2     -12.410   4.307  73.473  1.00  0.00     0.793 A  
HETATM   87  C   UNK A   2     -12.380   5.422  72.635  1.00  0.00     0.246 A  
HETATM   88  C   UNK A   2     -11.260   5.666  71.846  1.00  0.00    -0.246 A  
ENDBRANCH  82  83
ENDBRANCH  81  82
ENDBRANCH  78  81
ENDBRANCH  74  75
ENDBRANCH  15  74
ENDBRANCH   7   8
ENDBRANCH   6   7
ENDBRANCH   5   6
ENDBRANCH   2   5
TORSDOF 18
ENDMDL
MODEL        5
REMARK 921   NORMALIZED FREE ENERGY PREDICTED BY IDOCK:   48.39 KCAL/MOL
REMARK 922        TOTAL FREE ENERGY PREDICTED BY IDOCK:  128.62 KCAL/MOL
REMARK 923 INTER-LIGAND FREE ENERGY PREDICTED BY IDOCK:   94.19 KCAL/MOL
REMARK 924 INTRA-LIGAND FREE ENERGY PREDICTED BY IDOCK:   34.44 KCAL/MOL
REMARK 927      BINDING AFFINITY PREDICTED BY RF-SCORE:    0.00 PKD
ROOT
ATOM      1  NZ  LYS A   1      -5.346  12.085  73.701  1.00  0.00     0.097 NA 
ATOM      2  CE  LYS A   1      -5.849  10.736  73.478  1.00  0.00     1.607 C  
ATOM      3  HZ2 LYS A   1      -5.632  12.441  74.613  1.00  0.00     0.000 HD 
ATOM      4  HZ1 LYS A   1      -4.333  12.139  73.585  1.00  0.00     0.000 HD 
ENDROOT
BRANCH   2   5
ATOM      5  CD  LYS A   1      -7.371  10.656  73.653  1.00  0.00     6.998 C  
BRANCH   5   6
ATOM      6  CG  LYS A   1      -8.137  10.811  72.333  1.00  0.00    10.129 C  
BRANCH   6   7
ATOM      7  CB  LYS A   1      -7.876   9.704  71.319  1.00  0.00     0.560 C  
BRANCH   7   8
ATOM      8  CA  LYS A   1      -6.590   9.701  70.478  1.00  0.00    -0.107 C  
ATOM      9  N   LYS A   1      -5.979  11.073  70.435  1.00  0.00    -0.140 N  
ATOM     10  C   TRP A   6      -6.154  12.052  71.430  1.00  0.00     1.302 C  
ATOM     11  H   LYS A   1      -5.400  11.310  69.630  1.00  0.00     0.000 HD 
ATOM     12  O   TRP A   6      -6.302  11.788  72.621  1.00  0.00     2.786 OA 
ATOM     13  CA  TRP A   6      -6.241  13.544  70.930  1.00  0.00     0.204 C  
ATOM     14  N   TRP A   6      -7.471  14.133  71.580  1.00  0.00     2.617 N  
HETATM   15  C   UNK A   2      -7.607   9.919  66.836  1.00  0.00    -0.095 C  
ATOM     16  CA  PHE A   3     -10.281  12.026  66.559  1.00  0.00    -0.206 C  
HETATM   17  C   UNK A   5      -7.982  15.417  71.461  1.00  0.00     4.342 C  
ATOM     18  H   TRP A   6      -7.996  13.503  72.186  1.00  0.00     0.000 HD 
ATOM     19  C   PHE A   3     -11.196  13.241  66.072  1.00  0.00    -0.297 C  
HETATM   20  O   UNK A   5      -7.241  16.397  71.354  1.00  0.00     3.811 OA 
HETATM   21  C   UNK A   5      -9.588  15.615  71.303  1.00  0.00     2.642 C  
HETATM   22  C   UNK A   2      -9.002  10.042  66.061  1.00  0.00    -0.148 C  
HETATM   23  N   UNK A   5      -9.949  16.331  69.970  1.00  0.00     0.071 N  
ATOM     24  C   LYS A   1      -6.656   8.966  69.039  1.00  0.00    -0.048 C  
HETATM   25  C   UNK A   4     -10.894  16.111  68.952  1.00  0.00    -0.305 C  
ATOM     26  N   PHE A   3      -9.390  11.318  65.593  1.00  0.00    -0.221 N  
HETATM   27  H   UNK A   5      -9.365  17.148  69.793  1.00  0.00     0.000 HD 
HETATM   28  H   UNK A   2      -8.605   8.702  68.371  1.00  0.00     0.000 HD 
HETATM   29  N   UNK A   4     -11.420  14.541  66.686  1.00  0.00    -0.357 N  
HETATM   30  O   UNK A   4     -12.057  16.484  69.123  1.00  0.00     0.121 OA 
HETATM   31  C   UNK A   4     -10.431  15.434  67.461  1.00  0.00    -0.275 C  
ATOM     32  O   LYS A   1      -5.762   8.171  68.730  1.00  0.00    -0.034 OA 
ATOM     33  H   PHE A   3      -9.096  11.709  64.698  1.00  0.00     0.000 HD 
HETATM   34  O   UNK A   2      -9.751   9.081  65.886  1.00  0.00    -0.271 OA 
HETATM   35  C   UNK A   4      -9.974  16.487  66.362  1.00  0.00    -0.318 C  
HETATM   36  N   UNK A   2      -7.710   9.133  68.141  1.00  0.00    -0.091 N  
HETATM   37  C   UNK A   4     -11.905  15.437  65.673  1.00  0.00     0.268 C  
HETATM   38  C   UNK A   4     -10.534  15.794  65.108  1.00  0.00    -0.366 C  
ATOM     39  O   PHE A   3     -11.774  13.002  64.985  1.00  0.00    -0.314 OA 
BRANCH  13  40
ATOM     40  CB  TRP A   6      -6.336  13.509  69.387  1.00  0.00    -0.110 C  
BRANCH  40  41
ATOM     41  CG  TRP A   6      -6.829  14.766  68.791  1.00  0.00    -0.099 A  
ATOM     42  CH2 TRP A   6      -7.480  16.596  65.113  1.00  0.00     3.998 A  
ATOM     43  CE3 TRP A   6      -7.390  14.460  66.287  1.00  0.00     2.834 A  
ATOM     44  CZ2 TRP A   6      -7.336  17.306  66.296  1.00  0.00    -0.342 A  
ATOM     45  CD2 TRP A   6      -7.184  15.155  67.475  1.00  0.00    -0.227 A  
ATOM     46  CE2 TRP A   6      -7.222  16.549  67.449  1.00  0.00    -0.149 A  
ATOM     47  HE1 TRP A   6      -7.102  17.953  69.029  1.00  0.00     0.000 HD 
ATOM     48  NE1 TRP A   6      -7.066  16.980  68.722  1.00  0.00    -0.208 NA 
ATOM     49  CD1 TRP A   6      -6.854  15.909  69.522  1.00  0.00    -0.192 A  
ATOM     50  CZ3 TRP A   6      -7.538  15.199  65.109  1.00  0.00     8.294 A  
ENDBRANCH  40  41
ENDBRANCH  13  40
BRANCH  21  51
HETATM   51  C   UNK A   5     -10.489  14.476  71.745  1.00  0.00     2.552 A  
HETATM   52  C   UNK A   5     -11.367  14.705  72.814  1.00  0.00     0.639 A  
HETATM   53  C   UNK A   5     -12.209  13.693  73.291  1.00  0.00     1.464 A  
HETATM   54  C   UNK A   5     -12.161  12.414  72.737  1.00  0.00     3.464 A  
HETATM   55  C   UNK A   5     -11.329  12.169  71.656  1.00  0.00     3.838 A  
HETATM   56  C   UNK A   5     -10.541  13.202  71.149  1.00  0.00     5.085 A  
ENDBRANCH  21  51
BRANCH  38  57
HETATM   57  O   UNK A   4     -10.663  16.244  63.778  1.00  0.00     0.559 OA 
BRANCH  57  58
HETATM   58  C   UNK A   4     -11.783  16.982  63.557  1.00  0.00     4.913 C  
HETATM   59  H   UNK A   4     -12.694  18.756  63.903  1.00  0.00     0.000 HD 
HETATM   60  N   UNK A   4     -11.824  18.246  64.062  1.00  0.00     6.493 N  
HETATM   61  O   UNK A   4     -12.699  16.529  62.905  1.00  0.00     4.062 OA 
BRANCH  60  62
HETATM   62  C   UNK A   4     -10.800  18.968  64.796  1.00  0.00     2.290 C  
BRANCH  62  63
HETATM   63  C   UNK A   4     -11.073  19.026  66.317  1.00  0.00     0.235 C  
HETATM   64  H1  UNK A   4     -10.164  19.701  68.069  1.00  0.00     0.000 HD 
HETATM   65  H2  UNK A   4      -9.780  20.591  66.695  1.00  0.00     0.000 HD 
HETATM   66  N   UNK A   4      -9.984  19.663  67.065  1.00  0.00    -0.363 NA 
ENDBRANCH  62  63
ENDBRANCH  60  62
ENDBRANCH  57  58
ENDBRANCH  38  57
BRANCH  16  67
ATOM     67  CB  PHE A   3      -9.577  12.150  67.891  1.00  0.00    -0.198 C  
BRANCH  67  68
ATOM     68  CG  PHE A   3     -10.469  11.449  68.840  1.00  0.00    -0.219 A  
ATOM     69  CE1 PHE A   3     -11.881   9.598  69.322  1.00  0.00     0.456 A  
ATOM     70  CZ  PHE A   3     -12.854  10.484  69.814  1.00  0.00     0.206 A  
ATOM     71  CD1 PHE A   3     -10.702  10.083  68.771  1.00  0.00    -0.250 A  
ATOM     72  CD2 PHE A   3     -11.352  12.249  69.519  1.00  0.00    -0.258 A  
ATOM     73  CE2 PHE A   3     -12.599  11.846  69.891  1.00  0.00     0.081 A  
ENDBRANCH  67  68
ENDBRANCH  16  67
BRANCH  15  74
HETATM   74  C   UNK A   2      -6.537   9.439  65.830  1.00  0.00    -0.076 C  
BRANCH  74  75
HETATM   75  C   UNK A   2      -6.677   8.025  65.326  1.00  0.00    -0.055 A  
HETATM   76  C   UNK A   2      -6.515   6.962  66.225  1.00  0.00    -0.051 A  
HETATM   77  C   UNK A   2      -6.613   5.646  65.793  1.00  0.00    -0.041 A  
HETATM   78  C   UNK A   2      -6.956   5.367  64.472  1.00  0.00    -0.049 A  
HETATM   79  C   UNK A   2      -7.091   6.415  63.561  1.00  0.00    -0.054 A  
HETATM   80  C   UNK A   2      -6.943   7.743  63.983  1.00  0.00    -0.066 A  
BRANCH  78  81
HETATM   81  O   UNK A   2      -7.197   4.101  64.002  1.00  0.00    -0.049 OA 
BRANCH  81  82
HETATM   82  C   UNK A   2      -8.059   3.341  64.853  1.00  0.00    -0.090 C  
BRANCH  82  83
HETATM   83  C   UNK A   2      -9.499   3.680  64.603  1.00  0.00    -0.159 A  
HETATM   84  C   UNK A   2     -10.501   2.729  64.832  1.00  0.00     0.728 A  
HETATM   85  C   UNK A   2     -11.844   3.086  64.720  1.00  0.00     4.385 A  
HETATM   86  C   UNK A   2     -12.189   4.390  64.369  1.00  0.00     3.487 A  
HETATM   87  C   UNK A   2     -11.196   5.340  64.127  1.00  0.00     2.903 A  
HETATM   88  C   UNK A   2      -9.856   4.988  64.253  1.00  0.00     0.561 A  
ENDBRANCH  82  83
ENDBRANCH  81  82
ENDBRANCH  78  81
ENDBRANCH  74  75
ENDBRANCH  15  74
ENDBRANCH   7   8
ENDBRANCH   6   7
ENDBRANCH   5   6
ENDBRANCH   2   5
TORSDOF 18
ENDMDL
MODEL        6
REMARK 921   NORMALIZED FREE ENERGY PREDICTED BY IDOCK:   51.84 KCAL/MOL
REMARK 922        TOTAL FREE ENERGY PREDICTED BY IDOCK:  135.70 KCAL/MOL
REMARK 923 INTER-LIGAND FREE ENERGY PREDICTED BY IDOCK:   96.93 KCAL/MOL
REMARK 924 INTRA-LIGAND FREE ENERGY PREDICTED BY IDOCK:   38.77 KCAL/MOL
REMARK 927      BINDING AFFINITY PREDICTED BY RF-SCORE:    0.00 PKD
ROOT
ATOM      1  NZ  LYS A   1      -5.357  12.095  73.703  1.00  0.00     0.068 NA 
ATOM      2  CE  LYS A   1      -6.019  10.811  73.516  1.00  0.00     1.939 C  
ATOM      3  HZ2 LYS A   1      -5.532  12.471  74.634  1.00  0.00     0.000 HD 
ATOM      4  HZ1 LYS A   1      -4.356  12.040  73.508  1.00  0.00     0.000 HD 
ENDROOT
BRANCH   2   5
ATOM      5  CD  LYS A   1      -7.523  10.894  73.809  1.00  0.00     9.009 C  
BRANCH   5   6
ATOM      6  CG  LYS A   1      -8.364  11.178  72.557  1.00  0.00    15.006 C  
BRANCH   6   7
ATOM      7  CB  LYS A   1      -8.383  10.042  71.540  1.00  0.00     2.431 C  
BRANCH   7   8
ATOM      8  CA  LYS A   1      -7.187   9.811  70.605  1.00  0.00    -0.069 C  
ATOM      9  N   LYS A   1      -6.309  11.029  70.552  1.00  0.00    -0.148 N  
ATOM     10  C   TRP A   6      -6.208  11.981  71.583  1.00  0.00     2.219 C  
ATOM     11  H   LYS A   1      -5.750  11.176  69.712  1.00  0.00     0.000 HD 
ATOM     12  O   TRP A   6      -6.325  11.703  72.774  1.00  0.00     2.837 OA 
ATOM     13  CA  TRP A   6      -6.018  13.478  71.131  1.00  0.00     0.029 C  
ATOM     14  N   TRP A   6      -7.051  14.280  71.887  1.00  0.00     1.868 N  
HETATM   15  C   UNK A   2      -8.386  10.385  67.058  1.00  0.00    -0.127 C  
ATOM     16  CA  PHE A   3     -10.577  13.005  67.041  1.00  0.00    -0.257 C  
HETATM   17  C   UNK A   5      -7.292  15.645  71.842  1.00  0.00     4.960 C  
ATOM     18  H   TRP A   6      -7.652  13.746  72.515  1.00  0.00     0.000 HD 
ATOM     19  C   PHE A   3     -11.251  14.401  66.657  1.00  0.00    -0.339 C  
HETATM   20  O   UNK A   5      -6.372  16.455  71.705  1.00  0.00     1.901 OA 
HETATM   21  C   UNK A   5      -8.828  16.174  71.813  1.00  0.00     7.824 C  
HETATM   22  C   UNK A   2      -9.775  10.823  66.394  1.00  0.00    -0.199 C  
HETATM   23  N   UNK A   5      -9.124  17.004  70.530  1.00  0.00     3.027 N  
ATOM     24  C   LYS A   1      -7.503   9.166  69.155  1.00  0.00    -0.072 C  
HETATM   25  C   UNK A   4     -10.162  17.026  69.582  1.00  0.00    -0.008 C  
ATOM     26  N   PHE A   3      -9.921  12.170  65.991  1.00  0.00    -0.232 N  
HETATM   27  H   UNK A   5      -8.397  17.691  70.331  1.00  0.00     0.000 HD 
HETATM   28  H   UNK A   2      -9.506   9.335  68.631  1.00  0.00     0.000 HD 
HETATM   29  N   UNK A   4     -11.158  15.692  67.322  1.00  0.00    -0.282 N  
HETATM   30  O   UNK A   4     -11.208  17.621  69.850  1.00  0.00     1.005 OA 
HETATM   31  C   UNK A   4      -9.953  16.330  68.042  1.00  0.00    -0.240 C  
ATOM     32  O   LYS A   1      -6.817   8.219  68.758  1.00  0.00    -0.059 OA 
ATOM     33  H   PHE A   3      -9.614  12.530  65.088  1.00  0.00     0.000 HD 
HETATM   34  O   UNK A   2     -10.717  10.045  66.251  1.00  0.00    -0.090 OA 
HETATM   35  C   UNK A   4      -9.365  17.312  66.940  1.00  0.00    -0.264 C  
HETATM   36  N   UNK A   2      -8.558   9.583  68.345  1.00  0.00    -0.119 N  
HETATM   37  C   UNK A   4     -11.515  16.711  66.372  1.00  0.00     0.893 C  
HETATM   38  C   UNK A   4     -10.142  16.802  65.714  1.00  0.00    -0.253 C  
ATOM     39  O   PHE A   3     -11.939  14.331  65.612  1.00  0.00    -0.367 OA 
BRANCH  13  40
ATOM     40  CB  TRP A   6      -6.224  13.528  69.599  1.00  0.00    -0.121 C  
BRANCH  40  41
ATOM     41  CG  TRP A   6      -6.503  14.881  69.078  1.00  0.00    -0.102 A  
ATOM     42  CH2 TRP A   6      -7.027  16.958  65.514  1.00  0.00     1.558 A  
ATOM     43  CE3 TRP A   6      -7.275  14.796  66.614  1.00  0.00     1.236 A  
ATOM     44  CZ2 TRP A   6      -6.673  17.577  66.703  1.00  0.00    -0.256 A  
ATOM     45  CD2 TRP A   6      -6.862  15.387  67.803  1.00  0.00    -0.188 A  
ATOM     46  CE2 TRP A   6      -6.631  16.763  67.822  1.00  0.00    -0.144 A  
ATOM     47  HE1 TRP A   6      -6.140  18.048  69.431  1.00  0.00     0.000 HD 
ATOM     48  NE1 TRP A   6      -6.312  17.101  69.093  1.00  0.00    -0.207 NA 
ATOM     49  CD1 TRP A   6      -6.260  15.975  69.843  1.00  0.00    -0.154 A  
ATOM     50  CZ3 TRP A   6      -7.354  15.600  65.472  1.00  0.00     5.019 A  
ENDBRANCH  40  41
ENDBRANCH  13  40
BRANCH  21  51
HETATM   51  C   UNK A   5      -9.914  15.227  72.291  1.00  0.00     3.674 A  
HETATM   52  C   UNK A   5     -11.251  15.608  72.106  1.00  0.00    -0.215 A  
HETATM   53  C   UNK A   5     -12.303  14.795  72.546  1.00  0.00    -0.388 A  
HETATM   54  C   UNK A   5     -12.042  13.603  73.220  1.00  0.00     1.751 A  
HETATM   55  C   UNK A   5     -10.731  13.185  73.385  1.00  0.00    11.890 A  
HETATM   56  C   UNK A   5      -9.692  13.971  72.887  1.00  0.00     9.647 A  
ENDBRANCH  21  51
BRANCH  38  57
HETATM   57  O   UNK A   4     -10.266  17.324  64.410  1.00  0.00     1.252 OA 
BRANCH  57  58
HETATM   58  C   UNK A   4     -11.222  18.284  64.295  1.00  0.00     4.688 C  
HETATM   59  H   UNK A   4     -11.721  20.190  64.758  1.00  0.00     0.000 HD 
HETATM   60  N   UNK A   4     -10.967  19.506  64.838  1.00  0.00     0.813 N  
HETATM   61  O   UNK A   4     -12.253  18.057  63.700  1.00  0.00     6.369 OA 
BRANCH  60  62
HETATM   62  C   UNK A   4      -9.768  19.971  65.514  1.00  0.00     0.144 C  
BRANCH  62  63
HETATM   63  C   UNK A   4      -9.920  20.015  67.053  1.00  0.00    -0.445 C  
HETATM   64  H1  UNK A   4     -11.420  20.110  68.498  1.00  0.00     0.000 HD 
HETATM   65  H2  UNK A   4     -11.862  19.314  67.084  1.00  0.00     0.000 HD 
HETATM   66  N   UNK A   4     -11.321  20.081  67.483  1.00  0.00     0.355 NA 
ENDBRANCH  62  63
ENDBRANCH  60  62
ENDBRANCH  57  58
ENDBRANCH  38  57
BRANCH  16  67
ATOM     67  CB  PHE A   3      -9.772  12.926  68.318  1.00  0.00    -0.217 C  
BRANCH  67  68
ATOM     68  CG  PHE A   3     -10.724  12.390  69.315  1.00  0.00     0.004 A  
ATOM     69  CE1 PHE A   3     -12.465  10.863  69.855  1.00  0.00    -0.292 A  
ATOM     70  CZ  PHE A   3     -13.185  11.913  70.448  1.00  0.00     0.733 A  
ATOM     71  CD1 PHE A   3     -11.251  11.109  69.226  1.00  0.00    -0.331 A  
ATOM     72  CD2 PHE A   3     -11.362  13.329  70.085  1.00  0.00     0.101 A  
ATOM     73  CE2 PHE A   3     -12.637  13.185  70.543  1.00  0.00    -0.237 A  
ENDBRANCH  67  68
ENDBRANCH  16  67
BRANCH  15  74
HETATM   74  C   UNK A   2      -7.511   9.738  65.961  1.00  0.00    -0.102 C  
BRANCH  74  75
HETATM   75  C   UNK A   2      -6.859   8.425  66.310  1.00  0.00    -0.073 A  
HETATM   76  C   UNK A   2      -5.881   8.395  67.315  1.00  0.00    -0.043 A  
HETATM   77  C   UNK A   2      -5.242   7.209  67.648  1.00  0.00    -0.019 A  
HETATM   78  C   UNK A   2      -5.623   6.014  67.042  1.00  0.00    -0.012 A  
HETATM   79  C   UNK A   2      -6.574   6.034  66.020  1.00  0.00    -0.048 A  
HETATM   80  C   UNK A   2      -7.185   7.238  65.647  1.00  0.00    -0.070 A  
BRANCH  78  81
HETATM   81  O   UNK A   2      -5.131   4.787  67.407  1.00  0.00    -0.006 OA 
BRANCH  81  82
HETATM   82  C   UNK A   2      -5.131   4.581  68.823  1.00  0.00     0.000 C  
BRANCH  82  83
HETATM   83  C   UNK A   2      -6.486   4.153  69.305  1.00  0.00    -0.033 A  
HETATM   84  C   UNK A   2      -7.027   4.702  70.475  1.00  0.00    -0.037 A  
HETATM   85  C   UNK A   2      -8.334   4.397  70.852  1.00  0.00    -0.096 A  
HETATM   86  C   UNK A   2      -9.101   3.538  70.066  1.00  0.00    -0.197 A  
HETATM   87  C   UNK A   2      -8.565   2.978  68.906  1.00  0.00    -0.113 A  
HETATM   88  C   UNK A   2      -7.265   3.293  68.522  1.00  0.00    -0.050 A  
ENDBRANCH  82  83
ENDBRANCH  81  82
ENDBRANCH  78  81
ENDBRANCH  74  75
ENDBRANCH  15  74
ENDBRANCH   7   8
ENDBRANCH   6   7
ENDBRANCH   5   6
ENDBRANCH   2   5
TORSDOF 18
ENDMDL
MODEL        7
REMARK 921   NORMALIZED FREE ENERGY PREDICTED BY IDOCK:   68.04 KCAL/MOL
REMARK 922        TOTAL FREE ENERGY PREDICTED BY IDOCK:  168.96 KCAL/MOL
REMARK 923 INTER-LIGAND FREE ENERGY PREDICTED BY IDOCK:   83.80 KCAL/MOL
REMARK 924 INTRA-LIGAND FREE ENERGY PREDICTED BY IDOCK:   85.16 KCAL/MOL
REMARK 927      BINDING AFFINITY PREDICTED BY RF-SCORE:    0.00 PKD
ROOT
ATOM      1  NZ  LYS A   1      -5.357  12.097  73.703  1.00  0.00     0.068 NA 
ATOM      2  CE  LYS A   1      -6.034  10.822  73.507  1.00  0.00     1.939 C  
ATOM      3  HZ2 LYS A   1      -5.548  12.479  74.629  1.00  0.00     0.000 HD 
ATOM      4  HZ1 LYS A   1      -4.354  12.027  73.531  1.00  0.00     0.000 HD 
ENDROOT
BRANCH   2   5
ATOM      5  CD  LYS A   1      -7.543  10.928  73.766  1.00  0.00     9.804 C  
BRANCH   5   6
ATOM      6  CG  LYS A   1      -8.351  11.216  72.494  1.00  0.00    15.006 C  
BRANCH   6   7
ATOM      7  CB  LYS A   1      -8.371  10.072  71.487  1.00  0.00     2.431 C  
BRANCH   7   8
ATOM      8  CA  LYS A   1      -7.156   9.804  70.586  1.00  0.00    -0.087 C  
ATOM      9  N   LYS A   1      -6.246  10.999  70.549  1.00  0.00    -0.110 N  
ATOM     10  C   TRP A   6      -6.149  11.956  71.576  1.00  0.00     1.509 C  
ATOM     11  H   LYS A   1      -5.661  11.126  69.724  1.00  0.00     0.000 HD 
ATOM     12  O   TRP A   6      -6.306  11.689  72.766  1.00  0.00     2.837 OA 
ATOM     13  CA  TRP A   6      -5.908  13.444  71.120  1.00  0.00    -0.045 C  
ATOM     14  N   TRP A   6      -6.941  14.277  71.843  1.00  0.00     1.490 N  
HETATM   15  C   UNK A   2      -8.242  10.382  67.004  1.00  0.00    -0.123 C  
ATOM     16  CA  PHE A   3     -10.365  13.057  66.909  1.00  0.00    -0.245 C  
HETATM   17  C   UNK A   5      -7.145  15.648  71.781  1.00  0.00     3.802 C  
ATOM     18  H   TRP A   6      -7.572  13.763  72.457  1.00  0.00     0.000 HD 
ATOM     19  C   PHE A   3     -10.992  14.467  66.499  1.00  0.00    -0.316 C  
HETATM   20  O   UNK A   5      -6.202  16.433  71.664  1.00  0.00     1.568 OA 
HETATM   21  C   UNK A   5      -8.666  16.216  71.707  1.00  0.00     8.062 C  
HETATM   22  C   UNK A   2      -9.601  10.851  66.299  1.00  0.00    -0.200 C  
HETATM   23  N   UNK A   5      -8.906  17.043  70.411  1.00  0.00     2.772 N  
ATOM     24  C   LYS A   1      -7.449   9.157  69.133  1.00  0.00    -0.072 C  
HETATM   25  C   UNK A   4      -9.917  17.084  69.434  1.00  0.00    -0.090 C  
ATOM     26  N   PHE A   3      -9.702  12.198  65.884  1.00  0.00    -0.243 N  
HETATM   27  H   UNK A   5      -8.156  17.710  70.228  1.00  0.00     0.000 HD 
HETATM   28  H   UNK A   2      -9.432   9.373  68.552  1.00  0.00     0.000 HD 
HETATM   29  N   UNK A   4     -10.884  15.760  67.157  1.00  0.00    -0.315 N  
HETATM   30  O   UNK A   4     -10.954  17.708  69.671  1.00  0.00     0.418 OA 
HETATM   31  C   UNK A   4      -9.684  16.373  67.905  1.00  0.00    -0.235 C  
ATOM     32  O   LYS A   1      -6.776   8.189  68.761  1.00  0.00    -0.055 OA 
ATOM     33  H   PHE A   3      -9.361  12.544  64.987  1.00  0.00     0.000 HD 
HETATM   34  O   UNK A   2     -10.559  10.095  66.136  1.00  0.00    -0.146 OA 
HETATM   35  C   UNK A   4      -9.041  17.331  66.813  1.00  0.00    -0.269 C  
HETATM   36  N   UNK A   2      -8.471   9.594  68.291  1.00  0.00    -0.118 N  
HETATM   37  C   UNK A   4     -11.189  16.780  66.191  1.00  0.00     0.504 C  
HETATM   38  C   UNK A   4      -9.797  16.832  65.570  1.00  0.00     0.056 C  
ATOM     39  O   PHE A   3     -11.653  14.407  65.435  1.00  0.00    -0.332 OA 
BRANCH  13  40
ATOM     40  CB  TRP A   6      -6.071  13.488  69.582  1.00  0.00    -0.121 C  
BRANCH  40  41
ATOM     41  CG  TRP A   6      -6.306  14.843  69.046  1.00  0.00    -0.099 A  
ATOM     42  CH2 TRP A   6      -6.759  18.796  70.256  1.00  0.00     0.464 A  
ATOM     43  CE3 TRP A   6      -5.714  16.657  70.787  1.00  0.00     0.143 A  
ATOM     44  CZ2 TRP A   6      -7.226  18.320  69.039  1.00  0.00    -0.237 A  
ATOM     45  CD2 TRP A   6      -6.227  16.146  69.599  1.00  0.00    -0.191 A  
ATOM     46  CE2 TRP A   6      -6.913  17.005  68.742  1.00  0.00    -0.211 A  
ATOM     47  HE1 TRP A   6      -7.709  16.665  66.810  1.00  0.00     0.000 HD 
ATOM     48  NE1 TRP A   6      -7.245  16.294  67.639  1.00  0.00    -0.129 NA 
ATOM     49  CD1 TRP A   6      -6.859  15.008  67.818  1.00  0.00    -0.170 A  
ATOM     50  CZ3 TRP A   6      -5.990  17.992  71.102  1.00  0.00     0.853 A  
ENDBRANCH  40  41
ENDBRANCH  13  40
BRANCH  21  51
HETATM   51  C   UNK A   5      -9.788  15.299  72.161  1.00  0.00     3.816 A  
HETATM   52  C   UNK A   5     -10.294  14.369  71.243  1.00  0.00     2.387 A  
HETATM   53  C   UNK A   5     -11.346  13.511  71.585  1.00  0.00     2.528 A  
HETATM   54  C   UNK A   5     -11.945  13.592  72.841  1.00  0.00     1.531 A  
HETATM   55  C   UNK A   5     -11.442  14.478  73.781  1.00  0.00     0.885 A  
HETATM   56  C   UNK A   5     -10.354  15.285  73.450  1.00  0.00     4.494 A  
ENDBRANCH  21  51
BRANCH  38  57
HETATM   57  O   UNK A   4      -9.872  17.348  64.260  1.00  0.00     3.293 OA 
BRANCH  57  58
HETATM   58  C   UNK A   4     -10.800  18.330  64.113  1.00  0.00     5.603 C  
HETATM   59  H   UNK A   4     -11.263  20.251  64.550  1.00  0.00     0.000 HD 
HETATM   60  N   UNK A   4     -10.529  19.550  64.655  1.00  0.00     2.089 N  
HETATM   61  O   UNK A   4     -11.819  18.125  63.491  1.00  0.00     5.998 OA 
BRANCH  60  62
HETATM   62  C   UNK A   4      -9.339  19.989  65.361  1.00  0.00     0.602 C  
BRANCH  62  63
HETATM   63  C   UNK A   4      -8.349  20.761  64.458  1.00  0.00     2.116 C  
HETATM   64  H1  UNK A   4      -6.392  21.481  64.500  1.00  0.00     0.000 HD 
HETATM   65  H2  UNK A   4      -6.643  20.087  65.406  1.00  0.00     0.000 HD 
HETATM   66  N   UNK A   4      -7.045  20.972  65.096  1.00  0.00    -0.377 NA 
ENDBRANCH  62  63
ENDBRANCH  60  62
ENDBRANCH  57  58
ENDBRANCH  38  57
BRANCH  16  67
ATOM     67  CB  PHE A   3      -9.597  12.967  68.209  1.00  0.00    -0.212 C  
BRANCH  67  68
ATOM     68  CG  PHE A   3      -9.895  11.609  68.714  1.00  0.00    -0.129 A  
ATOM     69  CE1 PHE A   3     -11.491  10.031  69.499  1.00  0.00    -0.176 A  
ATOM     70  CZ  PHE A   3     -10.635   9.715  70.566  1.00  0.00    -0.369 A  
ATOM     71  CD1 PHE A   3     -11.152  11.032  68.597  1.00  0.00    -0.294 A  
ATOM     72  CD2 PHE A   3      -9.012  11.118  69.641  1.00  0.00     0.693 A  
ATOM     73  CE2 PHE A   3      -9.375  10.289  70.660  1.00  0.00     0.936 A  
ENDBRANCH  67  68
ENDBRANCH  16  67
BRANCH  15  74
HETATM   74  C   UNK A   2      -7.355   9.705  65.935  1.00  0.00    -0.099 C  
BRANCH  74  75
HETATM   75  C   UNK A   2      -6.746   8.379  66.311  1.00  0.00    -0.065 A  
HETATM   76  C   UNK A   2      -7.080   7.800  67.544  1.00  0.00    -0.083 A  
HETATM   77  C   UNK A   2      -6.521   6.591  67.934  1.00  0.00    -0.052 A  
HETATM   78  C   UNK A   2      -5.681   5.896  67.068  1.00  0.00    -0.017 A  
HETATM   79  C   UNK A   2      -5.317   6.475  65.851  1.00  0.00    -0.017 A  
HETATM   80  C   UNK A   2      -5.840   7.718  65.475  1.00  0.00    -0.038 A  
BRANCH  78  81
HETATM   81  O   UNK A   2      -5.193   4.641  67.328  1.00  0.00    -0.010 OA 
BRANCH  81  82
HETATM   82  C   UNK A   2      -6.198   3.732  67.788  1.00  0.00    -0.036 C  
BRANCH  82  83
HETATM   83  C   UNK A   2      -7.486   3.932  67.045  1.00  0.00    -0.072 A  
HETATM   84  C   UNK A   2      -7.594   3.554  65.701  1.00  0.00    -0.078 A  
HETATM   85  C   UNK A   2      -8.826   3.624  65.051  1.00  0.00    -0.123 A  
HETATM   86  C   UNK A   2      -9.950   4.081  65.739  1.00  0.00    -0.153 A  
HETATM   87  C   UNK A   2      -9.846   4.471  67.074  1.00  0.00    -0.232 A  
HETATM   88  C   UNK A   2      -8.621   4.388  67.728  1.00  0.00    -0.109 A  
ENDBRANCH  82  83
ENDBRANCH  81  82
ENDBRANCH  78  81
ENDBRANCH  74  75
ENDBRANCH  15  74
ENDBRANCH   7   8
ENDBRANCH   6   7
ENDBRANCH   5   6
ENDBRANCH   2   5
TORSDOF 18
ENDMDL
