MODEL        1
REMARK 921   NORMALIZED FREE ENERGY PREDICTED BY IDOCK:   -6.65 KCAL/MOL
REMARK 922        TOTAL FREE ENERGY PREDICTED BY IDOCK:  -12.47 KCAL/MOL
REMARK 923 INTER-LIGAND FREE ENERGY PREDICTED BY IDOCK:  -10.16 KCAL/MOL
REMARK 924 INTRA-LIGAND FREE ENERGY PREDICTED BY IDOCK:   -2.31 KCAL/MOL
REMARK 927      BINDING AFFINITY PREDICTED BY RF-SCORE:    0.00 PKD
ROOT
HETATM    1  C   UNL     1      -6.093  20.692  68.079  1.00  0.00    -0.336 C  
HETATM    2  C   UNL     1      -6.949  21.099  66.883  1.00  0.00    -0.199 C  
ENDROOT
BRANCH   2   3
HETATM    3  N   UNL     1      -7.079  20.053  65.852  1.00  0.00    -0.285 NA 
BRANCH   3   4
HETATM    4  C   UNL     1      -7.747  18.866  66.186  1.00  0.00    -0.257 A  
HETATM    5  C   UNL     1      -7.143  17.605  66.081  1.00  0.00    -0.347 A  
HETATM    6  C   UNL     1      -9.055  18.875  66.696  1.00  0.00    -0.338 A  
HETATM    7  C   UNL     1      -7.772  16.430  66.543  1.00  0.00    -0.295 A  
HETATM    8  C   UNL     1      -9.693  17.704  67.162  1.00  0.00    -0.291 A  
HETATM    9  C   UNL     1      -9.046  16.468  67.126  1.00  0.00    -0.227 A  
BRANCH   9  10
HETATM   10  C   UNL     1      -9.659  15.217  67.705  1.00  0.00    -0.206 C  
BRANCH  10  11
HETATM   11  C   UNL     1      -9.411  13.873  67.028  1.00  0.00    -0.256 A  
HETATM   12  H   UNL     1     -11.883  12.694  64.163  1.00  0.00     0.000 HD 
HETATM   13  C   UNL     1      -8.370  12.948  67.276  1.00  0.00    -0.185 A  
HETATM   14  O   UNL     1     -11.175  12.088  64.349  1.00  0.00    -0.315 OA 
HETATM   15  C   UNL     1      -8.294  11.716  66.588  1.00  0.00    -0.154 A  
HETATM   16  S   UNL     1      -7.021  13.159  68.410  1.00  0.00    -0.116 S  
HETATM   17  C   UNL     1     -10.361  13.481  66.056  1.00  0.00    -0.303 A  
HETATM   18  O   UNL     1      -7.126  14.440  69.068  1.00  0.00    -0.110 OA 
HETATM   19  O   UNL     1      -6.938  11.934  69.167  1.00  0.00    -0.105 OA 
HETATM   20  O   UNL     1      -9.654   8.786  65.483  1.00  0.00    -0.138 OA 
HETATM   21  C   UNL     1      -9.200  11.408  65.585  1.00  0.00    -0.193 A  
HETATM   22  O   UNL     1      -5.739  13.197  67.411  1.00  0.00    -0.315 OA 
HETATM   23  O   UNL     1      -9.652  10.085  63.411  1.00  0.00    -0.262 OA 
HETATM   24  O   UNL     1      -7.486   9.682  64.663  1.00  0.00    -0.112 OA 
HETATM   25  S   UNL     1      -8.914   9.939  64.645  1.00  0.00    -0.241 S  
HETATM   26  C   UNL     1     -10.233  12.293  65.314  1.00  0.00    -0.278 A  
ENDBRANCH  10  11
BRANCH  10  27
HETATM   27  C   UNL     1     -10.583  15.322  68.715  1.00  0.00    -0.240 A  
HETATM   28  C   UNL     1     -10.161  15.685  70.065  1.00  0.00    -0.220 A  
HETATM   29  C   UNL     1     -12.427  15.262  70.985  1.00  0.00    -0.384 A  
HETATM   30  C   UNL     1     -12.905  15.109  69.567  1.00  0.00     0.239 A  
HETATM   31  C   UNL     1     -12.036  15.127  68.534  1.00  0.00    -0.146 A  
HETATM   32  C   UNL     1     -11.001  15.710  71.106  1.00  0.00    -0.245 A  
BRANCH  29  33
HETATM   33  N   UNL     1     -13.147  14.996  72.046  1.00  0.00    -0.326 NA 
BRANCH  33  34
HETATM   34  C   UNL     1     -13.249  15.896  73.260  1.00  0.00    -0.595 C  
HETATM   35  C   UNL     1     -12.393  15.414  74.413  1.00  0.00    -0.766 C  
ENDBRANCH  33  34
BRANCH  33  36
HETATM   36  C   UNL     1     -14.109  13.821  72.082  1.00  0.00    -0.511 C  
HETATM   37  C   UNL     1     -13.340  12.509  72.087  1.00  0.00    -0.540 C  
ENDBRANCH  33  36
ENDBRANCH  29  33
ENDBRANCH  10  27
ENDBRANCH   9  10
ENDBRANCH   3   4
BRANCH   3  38
HETATM   38  C   UNL     1      -6.122  20.037  64.730  1.00  0.00    -0.261 C  
HETATM   39  C   UNL     1      -6.314  21.206  63.771  1.00  0.00    -0.298 C  
ENDBRANCH   3  38
ENDBRANCH   2   3
TORSDOF 9
ENDMDL
MODEL        2
REMARK 921   NORMALIZED FREE ENERGY PREDICTED BY IDOCK:   -6.60 KCAL/MOL
REMARK 922        TOTAL FREE ENERGY PREDICTED BY IDOCK:  -12.39 KCAL/MOL
REMARK 923 INTER-LIGAND FREE ENERGY PREDICTED BY IDOCK:  -10.62 KCAL/MOL
REMARK 924 INTRA-LIGAND FREE ENERGY PREDICTED BY IDOCK:   -1.77 KCAL/MOL
REMARK 927      BINDING AFFINITY PREDICTED BY RF-SCORE:    0.00 PKD
ROOT
HETATM    1  C   UNL     1      -5.879  20.784  64.073  1.00  0.00    -0.326 C  
HETATM    2  C   UNL     1      -6.045  19.377  64.641  1.00  0.00    -0.257 C  
ENDROOT
BRANCH   2   3
HETATM    3  N   UNL     1      -6.728  19.332  65.947  1.00  0.00    -0.233 NA 
BRANCH   3   4
HETATM    4  C   UNL     1      -7.391  18.152  66.315  1.00  0.00    -0.267 A  
HETATM    5  C   UNL     1      -6.706  16.969  66.631  1.00  0.00    -0.273 A  
HETATM    6  C   UNL     1      -8.789  18.100  66.437  1.00  0.00    -0.255 A  
HETATM    7  C   UNL     1      -7.369  15.828  67.127  1.00  0.00    -0.257 A  
HETATM    8  C   UNL     1      -9.462  16.961  66.934  1.00  0.00    -0.261 A  
HETATM    9  C   UNL     1      -8.758  15.820  67.321  1.00  0.00    -0.210 A  
BRANCH   9  10
HETATM   10  C   UNL     1      -9.434  14.625  67.947  1.00  0.00    -0.210 C  
BRANCH  10  11
HETATM   11  C   UNL     1      -9.155  13.229  67.402  1.00  0.00    -0.216 A  
HETATM   12  H   UNL     1      -6.569  10.914  69.315  1.00  0.00     0.000 HD 
HETATM   13  C   UNL     1      -9.722  12.605  66.267  1.00  0.00    -0.259 A  
HETATM   14  O   UNL     1      -6.963  10.517  68.547  1.00  0.00    -0.063 OA 
HETATM   15  C   UNL     1      -9.332  11.308  65.861  1.00  0.00    -0.240 A  
HETATM   16  S   UNL     1     -10.983  13.277  65.212  1.00  0.00    -0.300 S  
HETATM   17  C   UNL     1      -8.180  12.474  68.093  1.00  0.00    -0.170 A  
HETATM   18  O   UNL     1     -11.367  14.588  65.680  1.00  0.00    -0.326 OA 
HETATM   19  O   UNL     1     -10.527  13.070  63.860  1.00  0.00    -0.392 OA 
HETATM   20  O   UNL     1      -6.967   8.979  65.064  1.00  0.00    -0.078 OA 
HETATM   21  C   UNL     1      -8.432  10.572  66.615  1.00  0.00    -0.129 A  
HETATM   22  O   UNL     1     -12.221  12.256  65.467  1.00  0.00    -0.577 OA 
HETATM   23  O   UNL     1      -7.598   8.224  67.303  1.00  0.00    -0.094 OA 
HETATM   24  O   UNL     1      -9.352   8.418  65.484  1.00  0.00    -0.077 OA 
HETATM   25  S   UNL     1      -8.151   8.891  66.146  1.00  0.00    -0.117 S  
HETATM   26  C   UNL     1      -7.857  11.152  67.736  1.00  0.00    -0.114 A  
ENDBRANCH  10  11
BRANCH  10  27
HETATM   27  C   UNL     1     -10.434  14.821  68.868  1.00  0.00    -0.249 A  
HETATM   28  C   UNL     1     -10.195  15.643  70.052  1.00  0.00    -0.277 A  
HETATM   29  C   UNL     1     -12.394  15.034  71.030  1.00  0.00    -0.332 A  
HETATM   30  C   UNL     1     -12.723  14.376  69.718  1.00  0.00    -0.025 A  
HETATM   31  C   UNL     1     -11.801  14.277  68.737  1.00  0.00    -0.377 A  
HETATM   32  C   UNL     1     -11.099  15.790  71.027  1.00  0.00    -0.327 A  
BRANCH  29  33
HETATM   33  N   UNL     1     -13.122  14.940  72.113  1.00  0.00    -0.321 NA 
BRANCH  33  34
HETATM   34  C   UNL     1     -13.193  16.002  73.192  1.00  0.00    -0.537 C  
HETATM   35  C   UNL     1     -12.385  15.635  74.420  1.00  0.00    -0.802 C  
ENDBRANCH  33  34
BRANCH  33  36
HETATM   36  C   UNL     1     -14.126  13.817  72.305  1.00  0.00    -0.531 C  
HETATM   37  C   UNL     1     -13.433  12.467  72.203  1.00  0.00    -0.523 C  
ENDBRANCH  33  36
ENDBRANCH  29  33
ENDBRANCH  10  27
ENDBRANCH   9  10
ENDBRANCH   3   4
BRANCH   3  38
HETATM   38  C   UNL     1      -7.136  20.600  66.580  1.00  0.00    -0.238 C  
HETATM   39  C   UNL     1      -6.446  20.843  67.918  1.00  0.00    -0.382 C  
ENDBRANCH   3  38
ENDBRANCH   2   3
TORSDOF 9
ENDMDL
MODEL        3
REMARK 921   NORMALIZED FREE ENERGY PREDICTED BY IDOCK:   -6.41 KCAL/MOL
REMARK 922        TOTAL FREE ENERGY PREDICTED BY IDOCK:  -12.10 KCAL/MOL
REMARK 923 INTER-LIGAND FREE ENERGY PREDICTED BY IDOCK:  -10.70 KCAL/MOL
REMARK 924 INTRA-LIGAND FREE ENERGY PREDICTED BY IDOCK:   -1.40 KCAL/MOL
REMARK 927      BINDING AFFINITY PREDICTED BY RF-SCORE:    0.00 PKD
ROOT
HETATM    1  C   UNL     1      -5.326   8.734  64.877  1.00  0.00    -0.039 C  
HETATM    2  C   UNL     1      -6.179   8.460  63.641  1.00  0.00    -0.073 C  
ENDROOT
BRANCH   2   3
HETATM    3  N   UNL     1      -7.575   8.091  63.944  1.00  0.00    -0.120 NA 
BRANCH   3   4
HETATM    4  C   UNL     1      -8.335   8.955  64.745  1.00  0.00    -0.175 A  
HETATM    5  C   UNL     1      -9.198   8.491  65.749  1.00  0.00    -0.210 A  
HETATM    6  C   UNL     1      -8.237  10.351  64.622  1.00  0.00    -0.137 A  
HETATM    7  C   UNL     1      -9.856   9.367  66.637  1.00  0.00    -0.309 A  
HETATM    8  C   UNL     1      -8.892  11.236  65.507  1.00  0.00    -0.094 A  
HETATM    9  C   UNL     1      -9.683  10.756  66.552  1.00  0.00    -0.236 A  
BRANCH   9  10
HETATM   10  C   UNL     1     -10.315  11.668  67.573  1.00  0.00    -0.220 C  
BRANCH  10  11
HETATM   11  C   UNL     1     -10.294  13.177  67.353  1.00  0.00    -0.239 A  
HETATM   12  H   UNL     1      -7.726  15.373  69.423  1.00  0.00     0.000 HD 
HETATM   13  C   UNL     1     -11.087  13.941  66.465  1.00  0.00    -0.308 A  
HETATM   14  O   UNL     1      -8.271  15.865  68.819  1.00  0.00    -0.169 OA 
HETATM   15  C   UNL     1     -10.978  15.349  66.400  1.00  0.00    -0.277 A  
HETATM   16  S   UNL     1     -12.277  13.314  65.307  1.00  0.00    -0.475 S  
HETATM   17  C   UNL     1      -9.399  13.912  68.163  1.00  0.00    -0.203 A  
HETATM   18  O   UNL     1     -12.334  11.873  65.392  1.00  0.00    -0.352 OA 
HETATM   19  O   UNL     1     -13.462  14.118  65.473  1.00  0.00    -0.643 OA 
HETATM   20  O   UNL     1     -10.901  18.441  67.845  1.00  0.00    -0.356 OA 
HETATM   21  C   UNL     1     -10.030  16.021  67.153  1.00  0.00    -0.249 A  
HETATM   22  O   UNL     1     -11.613  13.720  63.881  1.00  0.00    -0.327 OA 
HETATM   23  O   UNL     1      -8.525  18.111  67.371  1.00  0.00    -0.237 OA 
HETATM   24  O   UNL     1     -10.223  18.013  65.492  1.00  0.00    -0.556 OA 
HETATM   25  S   UNL     1      -9.831  17.753  66.864  1.00  0.00    -0.328 S  
HETATM   26  C   UNL     1      -9.234  15.303  68.034  1.00  0.00    -0.188 A  
ENDBRANCH  10  11
BRANCH  10  27
HETATM   27  C   UNL     1     -10.731  11.150  68.776  1.00  0.00    -0.236 A  
HETATM   28  C   UNL     1      -9.884  10.210  69.506  1.00  0.00    -0.255 A  
HETATM   29  C   UNL     1     -11.666   9.761  71.174  1.00  0.00    -0.385 A  
HETATM   30  C   UNL     1     -12.444  10.888  70.553  1.00  0.00    -0.438 A  
HETATM   31  C   UNL     1     -12.002  11.508  69.438  1.00  0.00    -0.392 A  
HETATM   32  C   UNL     1     -10.276   9.603  70.631  1.00  0.00    -0.346 A  
BRANCH  29  33
HETATM   33  N   UNL     1     -12.137   8.940  72.079  1.00  0.00    -0.360 NA 
BRANCH  33  34
HETATM   34  C   UNL     1     -13.601   8.828  72.453  1.00  0.00    -0.406 C  
HETATM   35  C   UNL     1     -14.404   8.054  71.428  1.00  0.00    -0.490 C  
ENDBRANCH  33  34
BRANCH  33  36
HETATM   36  C   UNL     1     -11.267   7.874  72.720  1.00  0.00    -0.405 C  
HETATM   37  C   UNL     1     -11.524   6.523  72.070  1.00  0.00    -0.342 C  
ENDBRANCH  33  36
ENDBRANCH  29  33
ENDBRANCH  10  27
ENDBRANCH   9  10
ENDBRANCH   3   4
BRANCH   3  38
HETATM   38  C   UNL     1      -7.971   6.674  63.855  1.00  0.00    -0.075 C  
HETATM   39  C   UNL     1      -6.825   5.718  64.165  1.00  0.00    -0.049 C  
ENDBRANCH   3  38
ENDBRANCH   2   3
TORSDOF 9
ENDMDL
MODEL        4
REMARK 921   NORMALIZED FREE ENERGY PREDICTED BY IDOCK:   -6.23 KCAL/MOL
REMARK 922        TOTAL FREE ENERGY PREDICTED BY IDOCK:  -11.82 KCAL/MOL
REMARK 923 INTER-LIGAND FREE ENERGY PREDICTED BY IDOCK:  -10.17 KCAL/MOL
REMARK 924 INTRA-LIGAND FREE ENERGY PREDICTED BY IDOCK:   -1.65 KCAL/MOL
REMARK 927      BINDING AFFINITY PREDICTED BY RF-SCORE:    0.00 PKD
ROOT
HETATM    1  C   UNL     1     -11.109   6.753  72.776  1.00  0.00    -0.292 C  
HETATM    2  C   UNL     1     -10.777   8.222  72.527  1.00  0.00    -0.341 C  
ENDROOT
BRANCH   2   3
HETATM    3  N   UNL     1     -11.746   8.921  71.663  1.00  0.00    -0.316 NA 
BRANCH   3   4
HETATM    4  C   UNL     1     -11.258   9.697  70.602  1.00  0.00    -0.320 A  
HETATM    5  C   UNL     1      -9.929   9.621  70.160  1.00  0.00    -0.309 A  
HETATM    6  C   UNL     1     -12.091  10.568  69.882  1.00  0.00    -0.318 A  
HETATM    7  C   UNL     1      -9.479  10.305  69.012  1.00  0.00    -0.206 A  
HETATM    8  C   UNL     1     -11.650  11.257  68.730  1.00  0.00    -0.383 A  
HETATM    9  C   UNL     1     -10.346  11.106  68.255  1.00  0.00    -0.198 A  
BRANCH   9  10
HETATM   10  C   UNL     1      -9.872  11.747  66.975  1.00  0.00    -0.213 C  
BRANCH  10  11
HETATM   11  C   UNL     1     -10.035  13.250  66.778  1.00  0.00    -0.263 A  
HETATM   12  H   UNL     1      -7.281  15.680  68.267  1.00  0.00     0.000 HD 
HETATM   13  C   UNL     1     -11.069  13.935  66.098  1.00  0.00    -0.299 A  
HETATM   14  O   UNL     1      -7.987  16.118  67.805  1.00  0.00    -0.138 OA 
HETATM   15  C   UNL     1     -11.104  15.347  66.031  1.00  0.00    -0.233 A  
HETATM   16  S   UNL     1     -12.424  13.197  65.220  1.00  0.00    -0.470 S  
HETATM   17  C   UNL     1      -9.053  14.068  67.383  1.00  0.00    -0.209 A  
HETATM   18  O   UNL     1     -12.331  11.758  65.292  1.00  0.00    -0.223 OA 
HETATM   19  O   UNL     1     -13.610  13.892  65.654  1.00  0.00    -0.478 OA 
HETATM   20  O   UNL     1     -10.987  18.440  67.471  1.00  0.00    -0.354 OA 
HETATM   21  C   UNL     1     -10.077  16.106  66.569  1.00  0.00    -0.291 A  
HETATM   22  O   UNL     1     -12.128  13.656  63.688  1.00  0.00    -0.508 OA 
HETATM   23  O   UNL     1      -8.753  18.325  66.482  1.00  0.00    -0.273 OA 
HETATM   24  O   UNL     1     -10.807  18.065  65.021  1.00  0.00    -0.738 OA 
HETATM   25  S   UNL     1     -10.101  17.848  66.269  1.00  0.00    -0.326 S  
HETATM   26  C   UNL     1      -9.046  15.468  67.242  1.00  0.00    -0.203 A  
ENDBRANCH  10  11
BRANCH  10  27
HETATM   27  C   UNL     1      -9.477  10.952  65.928  1.00  0.00    -0.241 A  
HETATM   28  C   UNL     1      -9.376   9.504  66.099  1.00  0.00    -0.254 A  
HETATM   29  C   UNL     1      -8.345   9.221  63.858  1.00  0.00    -0.179 A  
HETATM   30  C   UNL     1      -8.657  10.670  63.602  1.00  0.00    -0.110 A  
HETATM   31  C   UNL     1      -9.167  11.455  64.574  1.00  0.00    -0.010 A  
HETATM   32  C   UNL     1      -8.906   8.692  65.145  1.00  0.00    -0.147 A  
BRANCH  29  33
HETATM   33  N   UNL     1      -7.616   8.466  63.076  1.00  0.00    -0.114 NA 
BRANCH  33  34
HETATM   34  C   UNL     1      -6.123   8.631  62.877  1.00  0.00    -0.087 C  
HETATM   35  C   UNL     1      -5.387   8.873  64.179  1.00  0.00    -0.056 C  
ENDBRANCH  33  34
BRANCH  33  36
HETATM   36  C   UNL     1      -8.178   7.216  62.422  1.00  0.00    -0.071 C  
HETATM   37  C   UNL     1      -7.570   5.973  63.053  1.00  0.00    -0.084 C  
ENDBRANCH  33  36
ENDBRANCH  29  33
ENDBRANCH  10  27
ENDBRANCH   9  10
ENDBRANCH   3   4
BRANCH   3  38
HETATM   38  C   UNL     1     -13.091   9.211  72.193  1.00  0.00    -0.446 C  
HETATM   39  C   UNL     1     -14.177   8.352  71.556  1.00  0.00    -0.471 C  
ENDBRANCH   3  38
ENDBRANCH   2   3
TORSDOF 9
ENDMDL
MODEL        5
REMARK 921   NORMALIZED FREE ENERGY PREDICTED BY IDOCK:   -5.46 KCAL/MOL
REMARK 922        TOTAL FREE ENERGY PREDICTED BY IDOCK:  -10.64 KCAL/MOL
REMARK 923 INTER-LIGAND FREE ENERGY PREDICTED BY IDOCK:   -8.66 KCAL/MOL
REMARK 924 INTRA-LIGAND FREE ENERGY PREDICTED BY IDOCK:   -1.99 KCAL/MOL
REMARK 927      BINDING AFFINITY PREDICTED BY RF-SCORE:    0.00 PKD
ROOT
HETATM    1  C   UNL     1     -12.518  12.240  63.462  1.00  0.00    -0.642 C  
HETATM    2  C   UNL     1     -11.287  12.823  64.151  1.00  0.00    -0.390 C  
ENDROOT
BRANCH   2   3
HETATM    3  N   UNL     1     -11.289  12.669  65.618  1.00  0.00    -0.308 NA 
BRANCH   3   4
HETATM    4  C   UNL     1     -10.961  11.417  66.158  1.00  0.00    -0.236 A  
HETATM    5  C   UNL     1     -10.189  10.474  65.464  1.00  0.00    -0.325 A  
HETATM    6  C   UNL     1     -11.349  11.051  67.457  1.00  0.00    -0.332 A  
HETATM    7  C   UNL     1      -9.752   9.274  66.063  1.00  0.00    -0.359 A  
HETATM    8  C   UNL     1     -10.915   9.852  68.066  1.00  0.00    -0.269 A  
HETATM    9  C   UNL     1     -10.079   8.962  67.390  1.00  0.00    -0.288 A  
BRANCH   9  10
HETATM   10  C   UNL     1      -9.519   7.723  68.044  1.00  0.00    -0.153 C  
BRANCH  10  11
HETATM   11  C   UNL     1      -8.934   7.810  69.449  1.00  0.00    -0.142 A  
HETATM   12  H   UNL     1      -5.401   9.535  69.943  1.00  0.00     0.000 HD 
HETATM   13  C   UNL     1      -9.503   7.355  70.661  1.00  0.00    -0.164 A  
HETATM   14  O   UNL     1      -5.803   9.220  70.744  1.00  0.00    -0.039 OA 
HETATM   15  C   UNL     1      -8.817   7.474  71.892  1.00  0.00    -0.134 A  
HETATM   16  S   UNL     1     -11.106   6.620  70.865  1.00  0.00    -0.305 S  
HETATM   17  C   UNL     1      -7.645   8.382  69.553  1.00  0.00    -0.090 A  
HETATM   18  O   UNL     1     -11.778   6.544  69.588  1.00  0.00    -0.357 OA 
HETATM   19  O   UNL     1     -10.909   5.444  71.676  1.00  0.00    -0.229 OA 
HETATM   20  O   UNL     1      -6.063   7.054  73.866  1.00  0.00    -0.062 OA 
HETATM   21  C   UNL     1      -7.590   8.115  71.960  1.00  0.00    -0.106 A  
HETATM   22  O   UNL     1     -11.871   7.720  71.785  1.00  0.00    -0.270 OA 
HETATM   23  O   UNL     1      -5.927   9.454  73.417  1.00  0.00    -0.314 OA 
HETATM   24  O   UNL     1      -7.998   8.478  74.503  1.00  0.00    -0.304 OA 
HETATM   25  S   UNL     1      -6.898   8.392  73.562  1.00  0.00    -0.053 S  
HETATM   26  C   UNL     1      -7.004   8.575  70.790  1.00  0.00    -0.050 A  
ENDBRANCH  10  11
BRANCH  10  27
HETATM   27  C   UNL     1      -9.366   6.578  67.301  1.00  0.00    -0.129 A  
HETATM   28  C   UNL     1     -10.537   5.866  66.794  1.00  0.00    -0.368 A  
HETATM   29  C   UNL     1      -9.148   3.974  65.986  1.00  0.00    -0.144 A  
HETATM   30  C   UNL     1      -7.938   4.808  66.305  1.00  0.00    -0.103 A  
HETATM   31  C   UNL     1      -8.059   6.002  66.924  1.00  0.00    -0.105 A  
HETATM   32  C   UNL     1     -10.452   4.698  66.148  1.00  0.00    -0.281 A  
BRANCH  29  33
HETATM   33  N   UNL     1      -9.112   2.712  65.638  1.00  0.00    -0.139 NA 
BRANCH  33  34
HETATM   34  C   UNL     1      -9.256   2.212  64.215  1.00  0.00    -0.125 C  
HETATM   35  C   UNL     1     -10.516   2.721  63.546  1.00  0.00    -0.207 C  
ENDBRANCH  33  34
BRANCH  33  36
HETATM   36  C   UNL     1      -8.732   1.623  66.625  1.00  0.00    -0.115 C  
HETATM   37  C   UNL     1      -9.325   1.922  67.994  1.00  0.00    -0.225 C  
ENDBRANCH  33  36
ENDBRANCH  29  33
ENDBRANCH  10  27
ENDBRANCH   9  10
ENDBRANCH   3   4
BRANCH   3  38
HETATM   38  C   UNL     1     -12.089  13.603  66.431  1.00  0.00    -0.433 C  
HETATM   39  C   UNL     1     -11.304  14.839  66.856  1.00  0.00    -0.358 C  
ENDBRANCH   3  38
ENDBRANCH   2   3
TORSDOF 9
ENDMDL
MODEL        6
REMARK 921   NORMALIZED FREE ENERGY PREDICTED BY IDOCK:   -5.28 KCAL/MOL
REMARK 922        TOTAL FREE ENERGY PREDICTED BY IDOCK:  -10.36 KCAL/MOL
REMARK 923 INTER-LIGAND FREE ENERGY PREDICTED BY IDOCK:   -9.11 KCAL/MOL
REMARK 924 INTRA-LIGAND FREE ENERGY PREDICTED BY IDOCK:   -1.26 KCAL/MOL
REMARK 927      BINDING AFFINITY PREDICTED BY RF-SCORE:    0.00 PKD
ROOT
HETATM    1  C   UNL     1      -7.874   3.956  71.733  1.00  0.00    -0.070 C  
HETATM    2  C   UNL     1      -9.301   3.430  71.594  1.00  0.00    -0.136 C  
ENDROOT
BRANCH   2   3
HETATM    3  N   UNL     1     -10.338   4.377  72.041  1.00  0.00    -0.159 NA 
BRANCH   3   4
HETATM    4  C   UNL     1     -10.482   5.587  71.347  1.00  0.00    -0.240 A  
HETATM    5  C   UNL     1     -10.459   6.834  71.988  1.00  0.00    -0.226 A  
HETATM    6  C   UNL     1     -10.610   5.622  69.949  1.00  0.00    -0.399 A  
HETATM    7  C   UNL     1     -10.470   8.048  71.271  1.00  0.00    -0.238 A  
HETATM    8  C   UNL     1     -10.621   6.834  69.221  1.00  0.00    -0.262 A  
HETATM    9  C   UNL     1     -10.514   8.065  69.869  1.00  0.00    -0.233 A  
BRANCH   9  10
HETATM   10  C   UNL     1     -10.424   9.370  69.118  1.00  0.00    -0.230 C  
BRANCH  10  11
HETATM   11  C   UNL     1      -9.380   9.538  68.020  1.00  0.00    -0.143 A  
HETATM   12  H   UNL     1     -10.562   9.471  64.237  1.00  0.00     0.000 HD 
HETATM   13  C   UNL     1      -7.988   9.737  68.161  1.00  0.00    -0.100 A  
HETATM   14  O   UNL     1      -9.629   9.602  64.358  1.00  0.00    -0.196 OA 
HETATM   15  C   UNL     1      -7.135   9.839  67.037  1.00  0.00    -0.086 A  
HETATM   16  S   UNL     1      -7.097   9.920  69.686  1.00  0.00    -0.110 S  
HETATM   17  C   UNL     1      -9.855   9.445  66.691  1.00  0.00    -0.309 A  
HETATM   18  O   UNL     1      -8.011   9.837  70.802  1.00  0.00    -0.288 OA 
HETATM   19  O   UNL     1      -5.953   9.048  69.591  1.00  0.00    -0.032 OA 
HETATM   20  O   UNL     1      -5.940   8.713  64.045  1.00  0.00    -0.069 OA 
HETATM   21  C   UNL     1      -7.654   9.824  65.753  1.00  0.00    -0.108 A  
HETATM   22  O   UNL     1      -6.551  11.448  69.581  1.00  0.00    -0.120 OA 
HETATM   23  O   UNL     1      -7.357  10.557  63.292  1.00  0.00    -0.096 OA 
HETATM   24  O   UNL     1      -5.476  10.987  64.934  1.00  0.00    -0.148 OA 
HETATM   25  S   UNL     1      -6.544  10.153  64.417  1.00  0.00    -0.085 S  
HETATM   26  C   UNL     1      -9.016   9.632  65.577  1.00  0.00    -0.183 A  
ENDBRANCH  10  11
BRANCH  10  27
HETATM   27  C   UNL     1     -11.148  10.452  69.556  1.00  0.00    -0.314 A  
HETATM   28  C   UNL     1     -10.959  11.764  68.940  1.00  0.00    -0.288 A  
HETATM   29  C   UNL     1     -12.407  12.865  70.629  1.00  0.00    -0.302 A  
HETATM   30  C   UNL     1     -12.773  11.491  71.118  1.00  0.00    -0.458 A  
HETATM   31  C   UNL     1     -12.172  10.391  70.619  1.00  0.00    -0.441 A  
HETATM   32  C   UNL     1     -11.564  12.869  69.388  1.00  0.00    -0.363 A  
BRANCH  29  33
HETATM   33  N   UNL     1     -12.735  13.981  71.229  1.00  0.00    -0.346 NA 
BRANCH  33  34
HETATM   34  C   UNL     1     -12.657  15.353  70.589  1.00  0.00    -0.439 C  
HETATM   35  C   UNL     1     -11.314  16.019  70.809  1.00  0.00    -0.427 C  
ENDBRANCH  33  34
BRANCH  33  36
HETATM   36  C   UNL     1     -13.413  13.987  72.588  1.00  0.00    -0.547 C  
HETATM   37  C   UNL     1     -12.523  14.667  73.617  1.00  0.00    -0.374 C  
ENDBRANCH  33  36
ENDBRANCH  29  33
ENDBRANCH  10  27
ENDBRANCH   9  10
ENDBRANCH   3   4
BRANCH   3  38
HETATM   38  C   UNL     1     -10.824   4.296  73.431  1.00  0.00    -0.253 C  
HETATM   39  C   UNL     1     -10.909   2.863  73.945  1.00  0.00    -0.291 C  
ENDBRANCH   3  38
ENDBRANCH   2   3
TORSDOF 9
ENDMDL
MODEL        7
REMARK 921   NORMALIZED FREE ENERGY PREDICTED BY IDOCK:   -5.20 KCAL/MOL
REMARK 922        TOTAL FREE ENERGY PREDICTED BY IDOCK:  -10.25 KCAL/MOL
REMARK 923 INTER-LIGAND FREE ENERGY PREDICTED BY IDOCK:   -8.74 KCAL/MOL
REMARK 924 INTRA-LIGAND FREE ENERGY PREDICTED BY IDOCK:   -1.50 KCAL/MOL
REMARK 927      BINDING AFFINITY PREDICTED BY RF-SCORE:    0.00 PKD
ROOT
HETATM    1  C   UNL     1     -10.688   7.573  66.982  1.00  0.00    -0.367 C  
HETATM    2  C   UNL     1      -9.211   7.959  66.993  1.00  0.00    -0.148 C  
ENDROOT
BRANCH   2   3
HETATM    3  N   UNL     1      -8.882   9.104  66.124  1.00  0.00    -0.149 NA 
BRANCH   3   4
HETATM    4  C   UNL     1      -9.261  10.388  66.540  1.00  0.00    -0.160 A  
HETATM    5  C   UNL     1      -9.417  10.729  67.892  1.00  0.00    -0.165 A  
HETATM    6  C   UNL     1      -9.461  11.431  65.621  1.00  0.00    -0.253 A  
HETATM    7  C   UNL     1      -9.668  12.053  68.308  1.00  0.00    -0.205 A  
HETATM    8  C   UNL     1      -9.713  12.760  66.029  1.00  0.00    -0.226 A  
HETATM    9  C   UNL     1      -9.783  13.098  67.381  1.00  0.00    -0.220 A  
BRANCH   9  10
HETATM   10  C   UNL     1      -9.951  14.522  67.852  1.00  0.00    -0.226 C  
BRANCH  10  11
HETATM   11  C   UNL     1      -9.007  15.603  67.338  1.00  0.00    -0.205 A  
HETATM   12  H   UNL     1     -10.529  18.688  65.370  1.00  0.00     0.000 HD 
HETATM   13  C   UNL     1      -7.602  15.675  67.480  1.00  0.00    -0.175 A  
HETATM   14  O   UNL     1      -9.585  18.714  65.477  1.00  0.00    -0.183 OA 
HETATM   15  C   UNL     1      -6.853  16.730  66.910  1.00  0.00    -0.255 A  
HETATM   16  S   UNL     1      -6.572  14.540  68.375  1.00  0.00    -0.116 S  
HETATM   17  C   UNL     1      -9.603  16.646  66.592  1.00  0.00    -0.280 A  
HETATM   18  O   UNL     1      -7.382  13.497  68.960  1.00  0.00    -0.087 OA 
HETATM   19  O   UNL     1      -5.467  14.227  67.503  1.00  0.00    -0.337 OA 
HETATM   20  O   UNL     1      -5.967  18.732  64.290  1.00  0.00    -0.393 OA 
HETATM   21  C   UNL     1      -7.486  17.775  66.257  1.00  0.00    -0.293 A  
HETATM   22  O   UNL     1      -5.993  15.475  69.572  1.00  0.00    -0.113 OA 
HETATM   23  O   UNL     1      -7.393  20.262  65.557  1.00  0.00    -0.294 OA 
HETATM   24  O   UNL     1      -5.359  19.219  66.650  1.00  0.00    -0.162 OA 
HETATM   25  S   UNL     1      -6.493  19.147  65.749  1.00  0.00    -0.257 S  
HETATM   26  C   UNL     1      -8.864  17.738  66.100  1.00  0.00    -0.091 A  
ENDBRANCH  10  11
BRANCH  10  27
HETATM   27  C   UNL     1     -10.823  14.795  68.877  1.00  0.00    -0.259 A  
HETATM   28  C   UNL     1     -10.326  14.976  70.239  1.00  0.00    -0.002 A  
HETATM   29  C   UNL     1     -12.628  15.065  71.164  1.00  0.00    -0.348 A  
HETATM   30  C   UNL     1     -13.128  15.103  69.746  1.00  0.00     0.333 A  
HETATM   31  C   UNL     1     -12.280  14.965  68.704  1.00  0.00    -0.101 A  
HETATM   32  C   UNL     1     -11.135  15.149  71.290  1.00  0.00    -0.257 A  
BRANCH  29  33
HETATM   33  N   UNL     1     -13.390  14.925  72.219  1.00  0.00    -0.356 NA 
BRANCH  33  34
HETATM   34  C   UNL     1     -14.143  13.657  72.569  1.00  0.00    -0.381 C  
HETATM   35  C   UNL     1     -13.409  12.407  72.130  1.00  0.00    -0.508 C  
ENDBRANCH  33  34
BRANCH  33  36
HETATM   36  C   UNL     1     -13.446  15.981  73.308  1.00  0.00    -0.484 C  
HETATM   37  C   UNL     1     -12.514  15.610  74.451  1.00  0.00    -0.790 C  
ENDBRANCH  33  36
ENDBRANCH  29  33
ENDBRANCH  10  27
ENDBRANCH   9  10
ENDBRANCH   3   4
BRANCH   3  38
HETATM   38  C   UNL     1      -8.649   8.864  64.688  1.00  0.00    -0.143 C  
HETATM   39  C   UNL     1      -7.219   8.434  64.384  1.00  0.00    -0.087 C  
ENDBRANCH   3  38
ENDBRANCH   2   3
TORSDOF 9
ENDMDL
MODEL        8
REMARK 921   NORMALIZED FREE ENERGY PREDICTED BY IDOCK:   -5.07 KCAL/MOL
REMARK 922        TOTAL FREE ENERGY PREDICTED BY IDOCK:  -10.04 KCAL/MOL
REMARK 923 INTER-LIGAND FREE ENERGY PREDICTED BY IDOCK:   -8.44 KCAL/MOL
REMARK 924 INTRA-LIGAND FREE ENERGY PREDICTED BY IDOCK:   -1.60 KCAL/MOL
REMARK 927      BINDING AFFINITY PREDICTED BY RF-SCORE:    0.00 PKD
ROOT
HETATM    1  C   UNL     1     -12.892   9.129  72.315  1.00  0.00    -0.472 C  
HETATM    2  C   UNL     1     -13.533   9.943  71.193  1.00  0.00    -0.240 C  
ENDROOT
BRANCH   2   3
HETATM    3  N   UNL     1     -13.131  11.361  71.174  1.00  0.00    -0.223 NA 
BRANCH   3   4
HETATM    4  C   UNL     1     -12.054  11.739  70.358  1.00  0.00    -0.352 A  
HETATM    5  C   UNL     1     -11.208  10.805  69.743  1.00  0.00    -0.365 A  
HETATM    6  C   UNL     1     -11.788  13.087  70.068  1.00  0.00    -0.355 A  
HETATM    7  C   UNL     1     -10.213  11.187  68.820  1.00  0.00    -0.219 A  
HETATM    8  C   UNL     1     -10.794  13.480  69.144  1.00  0.00    -0.173 A  
HETATM    9  C   UNL     1     -10.015  12.532  68.478  1.00  0.00    -0.170 A  
BRANCH   9  10
HETATM   10  C   UNL     1      -9.014  12.911  67.415  1.00  0.00    -0.199 C  
BRANCH  10  11
HETATM   11  C   UNL     1      -8.697  14.382  67.166  1.00  0.00    -0.243 A  
HETATM   12  H   UNL     1     -11.073  16.470  64.779  1.00  0.00     0.000 HD 
HETATM   13  C   UNL     1      -7.635  15.149  67.700  1.00  0.00    -0.174 A  
HETATM   14  O   UNL     1     -10.351  16.964  65.150  1.00  0.00    -0.631 OA 
HETATM   15  C   UNL     1      -7.448  16.504  67.343  1.00  0.00    -0.177 A  
HETATM   16  S   UNL     1      -6.423  14.599  68.875  1.00  0.00    -0.096 S  
HETATM   17  C   UNL     1      -9.546  15.057  66.259  1.00  0.00    -0.335 A  
HETATM   18  O   UNL     1      -6.671  13.221  69.229  1.00  0.00    -0.107 OA 
HETATM   19  O   UNL     1      -5.144  15.021  68.360  1.00  0.00    -0.093 OA 
HETATM   20  O   UNL     1      -7.137  19.004  65.039  1.00  0.00    -0.400 OA 
HETATM   21  C   UNL     1      -8.351  17.149  66.514  1.00  0.00    -0.274 A  
HETATM   22  O   UNL     1      -6.755  15.530  70.167  1.00  0.00    -0.099 OA 
HETATM   23  O   UNL     1      -9.423  19.394  65.815  1.00  0.00    -0.391 OA 
HETATM   24  O   UNL     1      -7.500  19.415  67.464  1.00  0.00    -0.235 OA 
HETATM   25  S   UNL     1      -8.151  18.889  66.280  1.00  0.00    -0.232 S  
HETATM   26  C   UNL     1      -9.406  16.427  65.974  1.00  0.00    -0.300 A  
ENDBRANCH  10  11
BRANCH  10  27
HETATM   27  C   UNL     1      -8.544  11.947  66.556  1.00  0.00    -0.126 A  
HETATM   28  C   UNL     1      -9.394  11.438  65.483  1.00  0.00    -0.228 A  
HETATM   29  C   UNL     1      -7.743   9.682  64.887  1.00  0.00    -0.120 A  
HETATM   30  C   UNL     1      -6.786  10.348  65.837  1.00  0.00    -0.131 A  
HETATM   31  C   UNL     1      -7.179  11.385  66.608  1.00  0.00    -0.102 A  
HETATM   32  C   UNL     1      -9.024  10.435  64.679  1.00  0.00    -0.235 A  
BRANCH  29  33
HETATM   33  N   UNL     1      -7.535   8.527  64.309  1.00  0.00    -0.105 NA 
BRANCH  33  34
HETATM   34  C   UNL     1      -8.284   7.253  64.644  1.00  0.00    -0.027 C  
HETATM   35  C   UNL     1      -8.472   7.067  66.136  1.00  0.00    -0.136 C  
ENDBRANCH  33  34
BRANCH  33  36
HETATM   36  C   UNL     1      -6.631   8.393  63.095  1.00  0.00    -0.086 C  
HETATM   37  C   UNL     1      -6.068   6.983  63.010  1.00  0.00    -0.044 C  
ENDBRANCH  33  36
ENDBRANCH  29  33
ENDBRANCH  10  27
ENDBRANCH   9  10
ENDBRANCH   3   4
BRANCH   3  38
HETATM   38  C   UNL     1     -13.485  12.217  72.321  1.00  0.00    -0.193 C  
HETATM   39  C   UNL     1     -14.020  13.581  71.900  1.00  0.00    -0.351 C  
ENDBRANCH   3  38
ENDBRANCH   2   3
TORSDOF 9
ENDMDL
MODEL        9
REMARK 921   NORMALIZED FREE ENERGY PREDICTED BY IDOCK:   -5.03 KCAL/MOL
REMARK 922        TOTAL FREE ENERGY PREDICTED BY IDOCK:   -9.99 KCAL/MOL
REMARK 923 INTER-LIGAND FREE ENERGY PREDICTED BY IDOCK:   -8.14 KCAL/MOL
REMARK 924 INTRA-LIGAND FREE ENERGY PREDICTED BY IDOCK:   -1.85 KCAL/MOL
REMARK 927      BINDING AFFINITY PREDICTED BY RF-SCORE:    0.00 PKD
ROOT
HETATM    1  C   UNL     1      -9.429   4.240  62.785  1.00  0.00    -0.131 C  
HETATM    2  C   UNL     1     -10.058   3.083  63.556  1.00  0.00    -0.165 C  
ENDROOT
BRANCH   2   3
HETATM    3  N   UNL     1      -9.534   2.916  64.925  1.00  0.00    -0.147 NA 
BRANCH   3   4
HETATM    4  C   UNL     1      -9.542   4.026  65.783  1.00  0.00    -0.191 A  
HETATM    5  C   UNL     1      -8.395   4.465  66.459  1.00  0.00    -0.105 A  
HETATM    6  C   UNL     1     -10.699   4.798  65.977  1.00  0.00    -0.211 A  
HETATM    7  C   UNL     1      -8.378   5.657  67.213  1.00  0.00    -0.100 A  
HETATM    8  C   UNL     1     -10.692   5.993  66.730  1.00  0.00    -0.374 A  
HETATM    9  C   UNL     1      -9.522   6.461  67.330  1.00  0.00    -0.135 A  
BRANCH   9  10
HETATM   10  C   UNL     1      -9.456   7.781  68.057  1.00  0.00    -0.153 C  
BRANCH  10  11
HETATM   11  C   UNL     1      -8.902   7.834  69.476  1.00  0.00    -0.139 A  
HETATM   12  H   UNL     1      -5.335   9.455  70.073  1.00  0.00     0.000 HD 
HETATM   13  C   UNL     1      -9.510   7.379  70.669  1.00  0.00    -0.164 A  
HETATM   14  O   UNL     1      -5.764   9.141  70.861  1.00  0.00    -0.034 OA 
HETATM   15  C   UNL     1      -8.850   7.463  71.916  1.00  0.00    -0.128 A  
HETATM   16  S   UNL     1     -11.137   6.686  70.826  1.00  0.00    -0.307 S  
HETATM   17  C   UNL     1      -7.600   8.369  69.617  1.00  0.00    -0.089 A  
HETATM   18  O   UNL     1     -11.781   6.645  69.534  1.00  0.00    -0.263 OA 
HETATM   19  O   UNL     1     -10.991   5.495  71.626  1.00  0.00    -0.238 OA 
HETATM   20  O   UNL     1      -6.155   6.943  73.946  1.00  0.00    -0.062 OA 
HETATM   21  C   UNL     1      -7.608   8.070  72.021  1.00  0.00    -0.091 A  
HETATM   22  O   UNL     1     -11.893   7.795  71.743  1.00  0.00    -0.270 OA 
HETATM   23  O   UNL     1      -5.944   9.344  73.532  1.00  0.00    -0.315 OA 
HETATM   24  O   UNL     1      -8.065   8.411  74.558  1.00  0.00    -0.244 OA 
HETATM   25  S   UNL     1      -6.946   8.307  73.641  1.00  0.00    -0.098 S  
HETATM   26  C   UNL     1      -6.983   8.529  70.871  1.00  0.00    -0.057 A  
ENDBRANCH  10  11
BRANCH  10  27
HETATM   27  C   UNL     1     -10.068   8.883  67.511  1.00  0.00    -0.285 A  
HETATM   28  C   UNL     1      -9.823   9.249  66.119  1.00  0.00    -0.363 A  
HETATM   29  C   UNL     1     -11.075  11.378  66.364  1.00  0.00    -0.240 A  
HETATM   30  C   UNL     1     -11.510  10.893  67.719  1.00  0.00    -0.323 A  
HETATM   31  C   UNL     1     -11.024   9.744  68.237  1.00  0.00    -0.215 A  
HETATM   32  C   UNL     1     -10.315  10.362  65.564  1.00  0.00    -0.265 A  
BRANCH  29  33
HETATM   33  N   UNL     1     -11.281  12.586  65.904  1.00  0.00    -0.305 NA 
BRANCH  33  34
HETATM   34  C   UNL     1     -12.445  12.978  65.017  1.00  0.00    -0.477 C  
HETATM   35  C   UNL     1     -12.258  12.528  63.582  1.00  0.00    -0.642 C  
ENDBRANCH  33  34
BRANCH  33  36
HETATM   36  C   UNL     1     -10.457  13.771  66.377  1.00  0.00    -0.284 C  
HETATM   37  C   UNL     1     -11.318  14.720  67.195  1.00  0.00    -0.363 C  
ENDBRANCH  33  36
ENDBRANCH  29  33
ENDBRANCH  10  27
ENDBRANCH   9  10
ENDBRANCH   3   4
BRANCH   3  38
HETATM   38  C   UNL     1      -8.589   1.817  65.195  1.00  0.00    -0.107 C  
HETATM   39  C   UNL     1      -7.638   1.554  64.033  1.00  0.00    -0.058 C  
ENDBRANCH   3  38
ENDBRANCH   2   3
TORSDOF 9
ENDMDL
MODEL       10
REMARK 921   NORMALIZED FREE ENERGY PREDICTED BY IDOCK:   -4.87 KCAL/MOL
REMARK 922        TOTAL FREE ENERGY PREDICTED BY IDOCK:   -9.75 KCAL/MOL
REMARK 923 INTER-LIGAND FREE ENERGY PREDICTED BY IDOCK:   -7.59 KCAL/MOL
REMARK 924 INTRA-LIGAND FREE ENERGY PREDICTED BY IDOCK:   -2.15 KCAL/MOL
REMARK 927      BINDING AFFINITY PREDICTED BY RF-SCORE:    0.00 PKD
ROOT
HETATM    1  C   UNL     1      -9.573  11.461  63.040  1.00  0.00    -0.397 C  
HETATM    2  C   UNL     1      -8.790  10.247  62.548  1.00  0.00    -0.241 C  
ENDROOT
BRANCH   2   3
HETATM    3  N   UNL     1      -7.710   9.819  63.456  1.00  0.00    -0.126 NA 
BRANCH   3   4
HETATM    4  C   UNL     1      -8.036   9.522  64.788  1.00  0.00    -0.123 A  
HETATM    5  C   UNL     1      -7.450  10.187  65.875  1.00  0.00    -0.125 A  
HETATM    6  C   UNL     1      -9.013   8.568  65.111  1.00  0.00    -0.059 A  
HETATM    7  C   UNL     1      -7.877   9.978  67.202  1.00  0.00    -0.099 A  
HETATM    8  C   UNL     1      -9.449   8.352  66.438  1.00  0.00    -0.293 A  
HETATM    9  C   UNL     1      -8.913   9.081  67.501  1.00  0.00    -0.131 A  
BRANCH   9  10
HETATM   10  C   UNL     1      -9.423   8.946  68.914  1.00  0.00    -0.152 C  
BRANCH  10  11
HETATM   11  C   UNL     1      -9.035   7.727  69.743  1.00  0.00    -0.146 A  
HETATM   12  H   UNL     1     -10.832   4.271  69.015  1.00  0.00     0.000 HD 
HETATM   13  C   UNL     1      -8.071   7.644  70.774  1.00  0.00    -0.103 A  
HETATM   14  O   UNL     1     -10.181   4.240  69.706  1.00  0.00    -0.087 OA 
HETATM   15  C   UNL     1      -7.847   6.441  71.484  1.00  0.00    -0.101 A  
HETATM   16  S   UNL     1      -6.996   8.946  71.323  1.00  0.00    -0.076 S  
HETATM   17  C   UNL     1      -9.753   6.539  69.477  1.00  0.00    -0.161 A  
HETATM   18  O   UNL     1      -7.242  10.143  70.553  1.00  0.00    -0.284 OA 
HETATM   19  O   UNL     1      -7.077   8.954  72.762  1.00  0.00    -0.334 OA 
HETATM   20  O   UNL     1      -8.936   3.744  73.270  1.00  0.00    -0.101 OA 
HETATM   21  C   UNL     1      -8.516   5.279  71.136  1.00  0.00    -0.123 A  
HETATM   22  O   UNL     1      -5.530   8.369  70.923  1.00  0.00    -0.028 OA 
HETATM   23  O   UNL     1      -8.490   2.695  71.107  1.00  0.00    -0.060 OA 
HETATM   24  O   UNL     1      -6.643   3.926  72.329  1.00  0.00    -0.017 OA 
HETATM   25  S   UNL     1      -8.034   3.783  71.942  1.00  0.00    -0.068 S  
HETATM   26  C   UNL     1      -9.468   5.324  70.128  1.00  0.00    -0.160 A  
ENDBRANCH  10  11
BRANCH  10  27
HETATM   27  C   UNL     1     -10.380   9.818  69.372  1.00  0.00    -0.232 A  
HETATM   28  C   UNL     1     -10.861  10.901  68.517  1.00  0.00    -0.262 A  
HETATM   29  C   UNL     1     -12.175  11.902  70.369  1.00  0.00    -0.314 A  
HETATM   30  C   UNL     1     -11.859  10.671  71.174  1.00  0.00    -0.339 A  
HETATM   31  C   UNL     1     -11.018   9.727  70.701  1.00  0.00    -0.398 A  
HETATM   32  C   UNL     1     -11.720  11.834  68.942  1.00  0.00    -0.384 A  
BRANCH  29  33
HETATM   33  N   UNL     1     -12.754  12.974  70.846  1.00  0.00    -0.266 NA 
BRANCH  33  34
HETATM   34  C   UNL     1     -13.517  13.026  72.154  1.00  0.00    -0.542 C  
HETATM   35  C   UNL     1     -14.350  14.285  72.291  1.00  0.00    -0.527 C  
ENDBRANCH  33  34
BRANCH  33  36
HETATM   36  C   UNL     1     -12.556  14.339  70.209  1.00  0.00    -0.319 C  
HETATM   37  C   UNL     1     -11.152  14.852  70.489  1.00  0.00    -0.196 C  
ENDBRANCH  33  36
ENDBRANCH  29  33
ENDBRANCH  10  27
ENDBRANCH   9  10
ENDBRANCH   3   4
BRANCH   3  38
HETATM   38  C   UNL     1      -6.320  10.187  63.132  1.00  0.00    -0.139 C  
HETATM   39  C   UNL     1      -5.462   8.986  62.751  1.00  0.00    -0.077 C  
ENDBRANCH   3  38
ENDBRANCH   2   3
TORSDOF 9
ENDMDL
MODEL       11
REMARK 921   NORMALIZED FREE ENERGY PREDICTED BY IDOCK:   -4.85 KCAL/MOL
REMARK 922        TOTAL FREE ENERGY PREDICTED BY IDOCK:   -9.71 KCAL/MOL
REMARK 923 INTER-LIGAND FREE ENERGY PREDICTED BY IDOCK:   -8.56 KCAL/MOL
REMARK 924 INTRA-LIGAND FREE ENERGY PREDICTED BY IDOCK:   -1.16 KCAL/MOL
REMARK 927      BINDING AFFINITY PREDICTED BY RF-SCORE:    0.00 PKD
ROOT
HETATM    1  C   UNL     1      -6.484  20.653  65.735  1.00  0.00    -0.257 C  
HETATM    2  C   UNL     1      -6.748  19.164  65.529  1.00  0.00    -0.264 C  
ENDROOT
BRANCH   2   3
HETATM    3  N   UNL     1      -6.479  18.334  66.718  1.00  0.00    -0.176 NA 
BRANCH   3   4
HETATM    4  C   UNL     1      -7.037  17.049  66.776  1.00  0.00    -0.238 A  
HETATM    5  C   UNL     1      -6.407  15.981  67.430  1.00  0.00    -0.206 A  
HETATM    6  C   UNL     1      -8.294  16.766  66.217  1.00  0.00    -0.353 A  
HETATM    7  C   UNL     1      -7.033  14.728  67.598  1.00  0.00    -0.204 A  
HETATM    8  C   UNL     1      -8.930  15.515  66.381  1.00  0.00    -0.359 A  
HETATM    9  C   UNL     1      -8.324  14.488  67.106  1.00  0.00    -0.226 A  
BRANCH   9  10
HETATM   10  C   UNL     1      -9.015  13.176  67.384  1.00  0.00    -0.201 C  
BRANCH  10  11
HETATM   11  C   UNL     1      -8.585  11.923  66.630  1.00  0.00    -0.163 A  
HETATM   12  H   UNL     1      -5.854   9.558  68.259  1.00  0.00     0.000 HD 
HETATM   13  C   UNL     1      -9.051  11.451  65.381  1.00  0.00    -0.103 A  
HETATM   14  O   UNL     1      -6.181   9.262  67.418  1.00  0.00    -0.056 OA 
HETATM   15  C   UNL     1      -8.524  10.282  64.786  1.00  0.00    -0.179 A  
HETATM   16  S   UNL     1     -10.334  12.177  64.391  1.00  0.00    -0.333 S  
HETATM   17  C   UNL     1      -7.565  11.152  67.234  1.00  0.00    -0.126 A  
HETATM   18  O   UNL     1     -10.858  13.351  65.050  1.00  0.00    -0.298 OA 
HETATM   19  O   UNL     1      -9.816  12.243  63.047  1.00  0.00    -0.314 OA 
HETATM   20  O   UNL     1      -5.921   8.341  63.732  1.00  0.00    -0.065 OA 
HETATM   21  C   UNL     1      -7.583   9.512  65.451  1.00  0.00    -0.106 A  
HETATM   22  O   UNL     1     -11.476  11.021  64.412  1.00  0.00     0.059 OA 
HETATM   23  O   UNL     1      -6.551   7.166  65.782  1.00  0.00    -0.049 OA 
HETATM   24  O   UNL     1      -8.253   7.507  63.937  1.00  0.00    -0.078 OA 
HETATM   25  S   UNL     1      -7.127   7.967  64.725  1.00  0.00    -0.078 S  
HETATM   26  C   UNL     1      -7.105   9.943  66.680  1.00  0.00    -0.087 A  
ENDBRANCH  10  11
BRANCH  10  27
HETATM   27  C   UNL     1     -10.144  13.160  68.165  1.00  0.00    -0.237 A  
HETATM   28  C   UNL     1     -10.482  14.312  68.997  1.00  0.00    -0.212 A  
HETATM   29  C   UNL     1     -12.346  13.091  70.090  1.00  0.00    -0.200 A  
HETATM   30  C   UNL     1     -12.137  11.996  69.080  1.00  0.00    -0.241 A  
HETATM   31  C   UNL     1     -11.107  12.041  68.208  1.00  0.00    -0.290 A  
HETATM   32  C   UNL     1     -11.514  14.316  69.848  1.00  0.00    -0.301 A  
BRANCH  29  33
HETATM   33  N   UNL     1     -13.139  13.005  71.128  1.00  0.00    -0.174 NA 
BRANCH  33  34
HETATM   34  C   UNL     1     -13.324  11.754  71.963  1.00  0.00    -0.312 C  
HETATM   35  C   UNL     1     -12.525  10.581  71.435  1.00  0.00    -0.516 C  
ENDBRANCH  33  34
BRANCH  33  36
HETATM   36  C   UNL     1     -13.823  14.229  71.713  1.00  0.00    -0.430 C  
HETATM   37  C   UNL     1     -13.189  14.600  73.045  1.00  0.00    -0.587 C  
ENDBRANCH  33  36
ENDBRANCH  29  33
ENDBRANCH  10  27
ENDBRANCH   9  10
ENDBRANCH   3   4
BRANCH   3  38
HETATM   38  C   UNL     1      -6.101  18.999  67.978  1.00  0.00    -0.218 C  
HETATM   39  C   UNL     1      -7.270  19.148  68.945  1.00  0.00    -0.376 C  
ENDBRANCH   3  38
ENDBRANCH   2   3
TORSDOF 9
ENDMDL
MODEL       12
REMARK 921   NORMALIZED FREE ENERGY PREDICTED BY IDOCK:   -4.82 KCAL/MOL
REMARK 922        TOTAL FREE ENERGY PREDICTED BY IDOCK:   -9.66 KCAL/MOL
REMARK 923 INTER-LIGAND FREE ENERGY PREDICTED BY IDOCK:   -7.40 KCAL/MOL
REMARK 924 INTRA-LIGAND FREE ENERGY PREDICTED BY IDOCK:   -2.26 KCAL/MOL
REMARK 927      BINDING AFFINITY PREDICTED BY RF-SCORE:    0.00 PKD
ROOT
HETATM    1  C   UNL     1     -11.430   4.815  73.058  1.00  0.00    -0.297 C  
HETATM    2  C   UNL     1     -10.524   5.530  72.058  1.00  0.00    -0.222 C  
ENDROOT
BRANCH   2   3
HETATM    3  N   UNL     1     -10.264   6.944  72.385  1.00  0.00    -0.185 NA 
BRANCH   3   4
HETATM    4  C   UNL     1     -10.082   7.851  71.331  1.00  0.00    -0.176 A  
HETATM    5  C   UNL     1      -9.042   8.791  71.315  1.00  0.00    -0.300 A  
HETATM    6  C   UNL     1     -10.910   7.836  70.197  1.00  0.00    -0.248 A  
HETATM    7  C   UNL     1      -8.786   9.608  70.195  1.00  0.00    -0.266 A  
HETATM    8  C   UNL     1     -10.660   8.650  69.069  1.00  0.00    -0.179 A  
HETATM    9  C   UNL     1      -9.572   9.523  69.036  1.00  0.00    -0.166 A  
BRANCH   9  10
HETATM   10  C   UNL     1      -9.220  10.332  67.813  1.00  0.00    -0.149 C  
BRANCH  10  11
HETATM   11  C   UNL     1      -9.337  11.852  67.855  1.00  0.00    -0.187 A  
HETATM   12  H   UNL     1     -12.946  13.490  67.807  1.00  0.00     0.000 HD 
HETATM   13  C   UNL     1      -8.297  12.807  67.925  1.00  0.00    -0.172 A  
HETATM   14  O   UNL     1     -12.230  14.112  67.853  1.00  0.00    -0.319 OA 
HETATM   15  C   UNL     1      -8.563  14.196  67.918  1.00  0.00    -0.178 A  
HETATM   16  S   UNL     1      -6.559  12.467  68.060  1.00  0.00    -0.102 S  
HETATM   17  C   UNL     1     -10.648  12.377  67.775  1.00  0.00    -0.236 A  
HETATM   18  O   UNL     1      -6.339  11.040  68.090  1.00  0.00    -0.056 OA 
HETATM   19  O   UNL     1      -5.909  13.303  67.081  1.00  0.00    -0.317 OA 
HETATM   20  O   UNL     1     -10.050  16.977  66.611  1.00  0.00    -0.284 OA 
HETATM   21  C   UNL     1      -9.866  14.666  67.921  1.00  0.00    -0.217 A  
HETATM   22  O   UNL     1      -6.206  13.074  69.526  1.00  0.00    -0.107 OA 
HETATM   23  O   UNL     1     -11.471  16.588  68.563  1.00  0.00    -0.317 OA 
HETATM   24  O   UNL     1      -8.976  16.925  68.852  1.00  0.00    -0.259 OA 
HETATM   25  S   UNL     1     -10.110  16.406  68.111  1.00  0.00    -0.260 S  
HETATM   26  C   UNL     1     -10.912  13.757  67.854  1.00  0.00    -0.253 A  
ENDBRANCH  10  11
BRANCH  10  27
HETATM   27  C   UNL     1      -8.983   9.689  66.623  1.00  0.00    -0.166 A  
HETATM   28  C   UNL     1      -8.288   8.404  66.605  1.00  0.00    -0.110 A  
HETATM   29  C   UNL     1      -8.159   8.407  64.126  1.00  0.00    -0.145 A  
HETATM   30  C   UNL     1      -9.064   9.608  64.144  1.00  0.00    -0.256 A  
HETATM   31  C   UNL     1      -9.423  10.193  65.306  1.00  0.00    -0.306 A  
HETATM   32  C   UNL     1      -7.947   7.780  65.473  1.00  0.00    -0.121 A  
BRANCH  29  33
HETATM   33  N   UNL     1      -7.555   7.945  63.061  1.00  0.00    -0.118 NA 
BRANCH  33  34
HETATM   34  C   UNL     1      -6.295   8.541  62.465  1.00  0.00    -0.091 C  
HETATM   35  C   UNL     1      -5.474   9.302  63.486  1.00  0.00    -0.067 C  
ENDBRANCH  33  34
BRANCH  33  36
HETATM   36  C   UNL     1      -7.965   6.632  62.417  1.00  0.00    -0.105 C  
HETATM   37  C   UNL     1      -6.974   5.536  62.776  1.00  0.00    -0.036 C  
ENDBRANCH  33  36
ENDBRANCH  29  33
ENDBRANCH  10  27
ENDBRANCH   9  10
ENDBRANCH   3   4
BRANCH   3  38
HETATM   38  C   UNL     1      -9.712   7.278  73.711  1.00  0.00    -0.298 C  
HETATM   39  C   UNL     1      -8.388   6.576  73.994  1.00  0.00    -0.129 C  
ENDBRANCH   3  38
ENDBRANCH   2   3
TORSDOF 9
ENDMDL
MODEL       13
REMARK 921   NORMALIZED FREE ENERGY PREDICTED BY IDOCK:   -4.78 KCAL/MOL
REMARK 922        TOTAL FREE ENERGY PREDICTED BY IDOCK:   -9.60 KCAL/MOL
REMARK 923 INTER-LIGAND FREE ENERGY PREDICTED BY IDOCK:   -8.26 KCAL/MOL
REMARK 924 INTRA-LIGAND FREE ENERGY PREDICTED BY IDOCK:   -1.34 KCAL/MOL
REMARK 927      BINDING AFFINITY PREDICTED BY RF-SCORE:    0.00 PKD
ROOT
HETATM    1  C   UNL     1     -10.159   3.593  73.804  1.00  0.00    -0.187 C  
HETATM    2  C   UNL     1     -11.194   4.707  73.667  1.00  0.00    -0.267 C  
ENDROOT
BRANCH   2   3
HETATM    3  N   UNL     1     -10.618   6.030  73.364  1.00  0.00    -0.246 NA 
BRANCH   3   4
HETATM    4  C   UNL     1     -10.618   6.468  72.031  1.00  0.00    -0.217 A  
HETATM    5  C   UNL     1      -9.797   7.512  71.580  1.00  0.00    -0.185 A  
HETATM    6  C   UNL     1     -11.410   5.848  71.052  1.00  0.00    -0.221 A  
HETATM    7  C   UNL     1      -9.704   7.858  70.217  1.00  0.00    -0.183 A  
HETATM    8  C   UNL     1     -11.323   6.188  69.683  1.00  0.00    -0.442 A  
HETATM    9  C   UNL     1     -10.441   7.174  69.240  1.00  0.00    -0.220 A  
BRANCH   9  10
HETATM   10  C   UNL     1     -10.251   7.492  67.777  1.00  0.00    -0.257 C  
BRANCH  10  11
HETATM   11  C   UNL     1      -9.689   6.429  66.840  1.00  0.00    -0.190 A  
HETATM   12  H   UNL     1     -12.213   4.100  64.862  1.00  0.00     0.000 HD 
HETATM   13  C   UNL     1      -8.333   6.148  66.550  1.00  0.00    -0.113 A  
HETATM   14  O   UNL     1     -11.295   3.930  64.684  1.00  0.00    -0.209 OA 
HETATM   15  C   UNL     1      -7.964   5.096  65.681  1.00  0.00    -0.108 A  
HETATM   16  S   UNL     1      -6.919   7.031  67.161  1.00  0.00    -0.080 S  
HETATM   17  C   UNL     1     -10.637   5.591  66.209  1.00  0.00    -0.222 A  
HETATM   18  O   UNL     1      -7.347   8.110  68.020  1.00  0.00    -0.092 OA 
HETATM   19  O   UNL     1      -5.990   6.031  67.623  1.00  0.00    -0.016 OA 
HETATM   20  O   UNL     1      -8.107   1.848  64.643  1.00  0.00    -0.072 OA 
HETATM   21  C   UNL     1      -8.928   4.352  65.021  1.00  0.00    -0.145 A  
HETATM   22  O   UNL     1      -6.303   7.671  65.799  1.00  0.00    -0.041 OA 
HETATM   23  O   UNL     1      -9.511   2.918  62.951  1.00  0.00    -0.093 OA 
HETATM   24  O   UNL     1      -7.116   3.676  63.282  1.00  0.00    -0.046 OA 
HETATM   25  S   UNL     1      -8.379   3.192  63.807  1.00  0.00    -0.086 S  
HETATM   26  C   UNL     1     -10.268   4.601  65.280  1.00  0.00    -0.095 A  
ENDBRANCH  10  11
BRANCH  10  27
HETATM   27  C   UNL     1     -10.404   8.786  67.343  1.00  0.00    -0.349 A  
HETATM   28  C   UNL     1     -11.021   9.787  68.210  1.00  0.00    -0.215 A  
HETATM   29  C   UNL     1     -11.055  11.474  66.390  1.00  0.00    -0.269 A  
HETATM   30  C   UNL     1     -10.223  10.521  65.577  1.00  0.00    -0.325 A  
HETATM   31  C   UNL     1      -9.944   9.280  66.029  1.00  0.00    -0.325 A  
HETATM   32  C   UNL     1     -11.281  11.035  67.806  1.00  0.00    -0.374 A  
BRANCH  29  33
HETATM   33  N   UNL     1     -11.590  12.576  65.927  1.00  0.00    -0.384 NA 
BRANCH  33  34
HETATM   34  C   UNL     1     -11.121  13.972  66.286  1.00  0.00    -0.307 C  
HETATM   35  C   UNL     1      -9.613  14.063  66.411  1.00  0.00    -0.299 C  
ENDBRANCH  33  34
BRANCH  33  36
HETATM   36  C   UNL     1     -12.633  12.554  64.824  1.00  0.00    -0.413 C  
HETATM   37  C   UNL     1     -12.059  13.143  63.545  1.00  0.00    -0.585 C  
ENDBRANCH  33  36
ENDBRANCH  29  33
ENDBRANCH  10  27
ENDBRANCH   9  10
ENDBRANCH   3   4
BRANCH   3  38
HETATM   38  C   UNL     1      -9.643   6.613  74.302  1.00  0.00    -0.270 C  
HETATM   39  C   UNL     1      -8.205   6.224  73.979  1.00  0.00    -0.111 C  
ENDBRANCH   3  38
ENDBRANCH   2   3
TORSDOF 9
ENDMDL
MODEL       14
REMARK 921   NORMALIZED FREE ENERGY PREDICTED BY IDOCK:   -4.72 KCAL/MOL
REMARK 922        TOTAL FREE ENERGY PREDICTED BY IDOCK:   -9.51 KCAL/MOL
REMARK 923 INTER-LIGAND FREE ENERGY PREDICTED BY IDOCK:   -7.54 KCAL/MOL
REMARK 924 INTRA-LIGAND FREE ENERGY PREDICTED BY IDOCK:   -1.97 KCAL/MOL
REMARK 927      BINDING AFFINITY PREDICTED BY RF-SCORE:    0.00 PKD
ROOT
HETATM    1  C   UNL     1      -9.702   6.782  72.789  1.00  0.00    -0.170 C  
HETATM    2  C   UNL     1     -11.148   6.532  72.369  1.00  0.00    -0.259 C  
ENDROOT
BRANCH   2   3
HETATM    3  N   UNL     1     -11.822   7.715  71.801  1.00  0.00    -0.279 NA 
BRANCH   3   4
HETATM    4  C   UNL     1     -11.227   8.362  70.708  1.00  0.00    -0.263 A  
HETATM    5  C   UNL     1     -10.669   9.644  70.802  1.00  0.00    -0.401 A  
HETATM    6  C   UNL     1     -11.111   7.736  69.456  1.00  0.00    -0.006 A  
HETATM    7  C   UNL     1      -9.957  10.233  69.737  1.00  0.00    -0.222 A  
HETATM    8  C   UNL     1     -10.399   8.317  68.384  1.00  0.00    -0.237 A  
HETATM    9  C   UNL     1      -9.779   9.560  68.520  1.00  0.00    -0.162 A  
BRANCH   9  10
HETATM   10  C   UNL     1      -8.929  10.165  67.430  1.00  0.00    -0.142 C  
BRANCH  10  11
HETATM   11  C   UNL     1      -8.735  11.676  67.375  1.00  0.00    -0.155 A  
HETATM   12  H   UNL     1      -5.064  13.143  67.652  1.00  0.00     0.000 HD 
HETATM   13  C   UNL     1      -9.721  12.678  67.218  1.00  0.00    -0.207 A  
HETATM   14  O   UNL     1      -5.745  13.797  67.547  1.00  0.00    -0.334 OA 
HETATM   15  C   UNL     1      -9.389  14.052  67.223  1.00  0.00    -0.230 A  
HETATM   16  S   UNL     1     -11.459  12.417  66.966  1.00  0.00    -0.369 S  
HETATM   17  C   UNL     1      -7.410  12.141  67.539  1.00  0.00    -0.135 A  
HETATM   18  O   UNL     1     -11.746  11.002  66.941  1.00  0.00    -0.336 OA 
HETATM   19  O   UNL     1     -12.135  13.300  67.884  1.00  0.00    -0.331 OA 
HETATM   20  O   UNL     1      -7.865  16.783  68.591  1.00  0.00    -0.217 OA 
HETATM   21  C   UNL     1      -8.068  14.460  67.305  1.00  0.00    -0.187 A  
HETATM   22  O   UNL     1     -11.680  13.014  65.470  1.00  0.00    -0.333 OA 
HETATM   23  O   UNL     1      -6.332  16.293  66.750  1.00  0.00    -0.298 OA 
HETATM   24  O   UNL     1      -8.781  16.742  66.281  1.00  0.00    -0.284 OA 
HETATM   25  S   UNL     1      -7.729  16.183  67.107  1.00  0.00    -0.217 S  
HETATM   26  C   UNL     1      -7.074  13.505  67.459  1.00  0.00    -0.148 A  
ENDBRANCH  10  11
BRANCH  10  27
HETATM   27  C   UNL     1      -8.497   9.374  66.394  1.00  0.00    -0.131 A  
HETATM   28  C   UNL     1      -7.450   8.379  66.612  1.00  0.00    -0.082 A  
HETATM   29  C   UNL     1      -7.301   7.873  64.186  1.00  0.00    -0.097 A  
HETATM   30  C   UNL     1      -8.524   8.727  63.997  1.00  0.00    -0.121 A  
HETATM   31  C   UNL     1      -9.054   9.422  65.026  1.00  0.00    -0.271 A  
HETATM   32  C   UNL     1      -6.926   7.649  65.621  1.00  0.00    -0.060 A  
BRANCH  29  33
HETATM   33  N   UNL     1      -6.575   7.386  63.212  1.00  0.00    -0.053 NA 
BRANCH  33  34
HETATM   34  C   UNL     1      -5.220   7.926  62.801  1.00  0.00    -0.051 C  
HETATM   35  C   UNL     1      -5.185   9.440  62.767  1.00  0.00    -0.075 C  
ENDBRANCH  33  34
BRANCH  33  36
HETATM   36  C   UNL     1      -6.949   6.094  62.506  1.00  0.00    -0.041 C  
HETATM   37  C   UNL     1      -5.726   5.202  62.358  1.00  0.00    -0.014 C  
ENDBRANCH  33  36
ENDBRANCH  29  33
ENDBRANCH  10  27
ENDBRANCH   9  10
ENDBRANCH   3   4
BRANCH   3  38
HETATM   38  C   UNL     1     -12.763   8.472  72.646  1.00  0.00    -0.180 C  
HETATM   39  C   UNL     1     -13.940   9.039  71.862  1.00  0.00    -0.445 C  
ENDBRANCH   3  38
ENDBRANCH   2   3
TORSDOF 9
ENDMDL
MODEL       15
REMARK 921   NORMALIZED FREE ENERGY PREDICTED BY IDOCK:   -4.66 KCAL/MOL
REMARK 922        TOTAL FREE ENERGY PREDICTED BY IDOCK:   -9.43 KCAL/MOL
REMARK 923 INTER-LIGAND FREE ENERGY PREDICTED BY IDOCK:   -8.12 KCAL/MOL
REMARK 924 INTRA-LIGAND FREE ENERGY PREDICTED BY IDOCK:   -1.31 KCAL/MOL
REMARK 927      BINDING AFFINITY PREDICTED BY RF-SCORE:    0.00 PKD
ROOT
HETATM    1  C   UNL     1      -9.787  11.422  63.056  1.00  0.00    -0.373 C  
HETATM    2  C   UNL     1      -9.246  10.049  62.664  1.00  0.00    -0.295 C  
ENDROOT
BRANCH   2   3
HETATM    3  N   UNL     1      -8.205   9.531  63.571  1.00  0.00    -0.152 NA 
BRANCH   3   4
HETATM    4  C   UNL     1      -8.479   9.485  64.945  1.00  0.00    -0.158 A  
HETATM    5  C   UNL     1      -7.636  10.065  65.904  1.00  0.00    -0.114 A  
HETATM    6  C   UNL     1      -9.652   8.893  65.442  1.00  0.00     0.010 A  
HETATM    7  C   UNL     1      -7.984  10.131  67.269  1.00  0.00    -0.110 A  
HETATM    8  C   UNL     1     -10.009   8.955  66.808  1.00  0.00    -0.338 A  
HETATM    9  C   UNL     1      -9.198   9.608  67.737  1.00  0.00    -0.135 A  
BRANCH   9  10
HETATM   10  C   UNL     1      -9.597   9.778  69.181  1.00  0.00    -0.192 C  
BRANCH  10  11
HETATM   11  C   UNL     1      -9.106   8.777  70.222  1.00  0.00    -0.185 A  
HETATM   12  H   UNL     1      -6.178   9.849  72.669  1.00  0.00     0.000 HD 
HETATM   13  C   UNL     1      -9.576   7.465  70.462  1.00  0.00    -0.172 A  
HETATM   14  O   UNL     1      -6.510   8.970  72.810  1.00  0.00    -0.301 OA 
HETATM   15  C   UNL     1      -8.990   6.637  71.446  1.00  0.00    -0.139 A  
HETATM   16  S   UNL     1     -10.932   6.664  69.643  1.00  0.00    -0.333 S  
HETATM   17  C   UNL     1      -8.020   9.196  71.025  1.00  0.00    -0.166 A  
HETATM   18  O   UNL     1     -11.514   7.556  68.668  1.00  0.00     0.423 OA 
HETATM   19  O   UNL     1     -10.459   5.355  69.269  1.00  0.00    -0.256 OA 
HETATM   20  O   UNL     1      -6.295   5.170  72.943  1.00  0.00    -0.043 OA 
HETATM   21  C   UNL     1      -7.981   7.116  72.266  1.00  0.00    -0.097 A  
HETATM   22  O   UNL     1     -11.994   6.465  70.858  1.00  0.00    -0.338 OA 
HETATM   23  O   UNL     1      -6.787   6.945  74.552  1.00  0.00    -0.090 OA 
HETATM   24  O   UNL     1      -8.560   5.234  73.964  1.00  0.00    -0.115 OA 
HETATM   25  S   UNL     1      -7.444   6.083  73.595  1.00  0.00    -0.092 S  
HETATM   26  C   UNL     1      -7.497   8.400  72.060  1.00  0.00    -0.105 A  
ENDBRANCH  10  11
BRANCH  10  27
HETATM   27  C   UNL     1     -10.546  10.713  69.514  1.00  0.00    -0.265 A  
HETATM   28  C   UNL     1     -10.682  11.937  68.729  1.00  0.00    -0.257 A  
HETATM   29  C   UNL     1     -12.317  12.892  70.334  1.00  0.00    -0.258 A  
HETATM   30  C   UNL     1     -12.341  11.550  71.011  1.00  0.00    -0.434 A  
HETATM   31  C   UNL     1     -11.506  10.560  70.626  1.00  0.00    -0.418 A  
HETATM   32  C   UNL     1     -11.522  12.923  69.062  1.00  0.00    -0.358 A  
BRANCH  29  33
HETATM   33  N   UNL     1     -12.887  13.973  70.803  1.00  0.00    -0.311 NA 
BRANCH  33  34
HETATM   34  C   UNL     1     -13.790  14.005  72.020  1.00  0.00    -0.490 C  
HETATM   35  C   UNL     1     -13.126  14.652  73.218  1.00  0.00    -0.505 C  
ENDBRANCH  33  34
BRANCH  33  36
HETATM   36  C   UNL     1     -12.543  15.353  70.270  1.00  0.00    -0.336 C  
HETATM   37  C   UNL     1     -11.324  15.907  70.990  1.00  0.00    -0.434 C  
ENDBRANCH  33  36
ENDBRANCH  29  33
ENDBRANCH  10  27
ENDBRANCH   9  10
ENDBRANCH   3   4
BRANCH   3  38
HETATM   38  C   UNL     1      -6.798   9.560  63.130  1.00  0.00    -0.103 C  
HETATM   39  C   UNL     1      -6.278   8.186  62.720  1.00  0.00    -0.082 C  
ENDBRANCH   3  38
ENDBRANCH   2   3
TORSDOF 9
ENDMDL
MODEL       16
REMARK 921   NORMALIZED FREE ENERGY PREDICTED BY IDOCK:   -4.64 KCAL/MOL
REMARK 922        TOTAL FREE ENERGY PREDICTED BY IDOCK:   -9.40 KCAL/MOL
REMARK 923 INTER-LIGAND FREE ENERGY PREDICTED BY IDOCK:   -7.05 KCAL/MOL
REMARK 924 INTRA-LIGAND FREE ENERGY PREDICTED BY IDOCK:   -2.35 KCAL/MOL
REMARK 927      BINDING AFFINITY PREDICTED BY RF-SCORE:    0.00 PKD
ROOT
HETATM    1  C   UNL     1     -10.996  13.987  64.524  1.00  0.00    -0.361 C  
HETATM    2  C   UNL     1     -10.690  14.810  65.773  1.00  0.00    -0.326 C  
ENDROOT
BRANCH   2   3
HETATM    3  N   UNL     1     -10.887  14.080  67.039  1.00  0.00    -0.288 NA 
BRANCH   3   4
HETATM    4  C   UNL     1     -10.378  12.777  67.144  1.00  0.00    -0.233 A  
HETATM    5  C   UNL     1      -9.004  12.500  67.129  1.00  0.00    -0.200 A  
HETATM    6  C   UNL     1     -11.222  11.669  67.323  1.00  0.00    -0.365 A  
HETATM    7  C   UNL     1      -8.496  11.206  67.369  1.00  0.00    -0.134 A  
HETATM    8  C   UNL     1     -10.723  10.370  67.564  1.00  0.00    -0.339 A  
HETATM    9  C   UNL     1      -9.350  10.125  67.628  1.00  0.00    -0.162 A  
BRANCH   9  10
HETATM   10  C   UNL     1      -8.785   8.772  67.981  1.00  0.00    -0.141 C  
BRANCH  10  11
HETATM   11  C   UNL     1      -8.605   8.388  69.446  1.00  0.00    -0.129 A  
HETATM   12  H   UNL     1      -5.802  10.218  71.568  1.00  0.00     0.000 HD 
HETATM   13  C   UNL     1      -9.337   7.439  70.196  1.00  0.00    -0.158 A  
HETATM   14  O   UNL     1      -6.307   9.574  72.051  1.00  0.00    -0.296 OA 
HETATM   15  C   UNL     1      -9.025   7.163  71.547  1.00  0.00    -0.135 A  
HETATM   16  S   UNL     1     -10.726   6.490  69.629  1.00  0.00    -0.301 S  
HETATM   17  C   UNL     1      -7.550   9.032  70.133  1.00  0.00    -0.082 A  
HETATM   18  O   UNL     1     -11.022   6.824  68.256  1.00  0.00    -0.237 OA 
HETATM   19  O   UNL     1     -10.471   5.128  70.028  1.00  0.00    -0.293 OA 
HETATM   20  O   UNL     1      -6.830   6.367  74.037  1.00  0.00    -0.081 OA 
HETATM   21  C   UNL     1      -8.036   7.876  72.206  1.00  0.00    -0.127 A  
HETATM   22  O   UNL     1     -11.928   7.052  70.568  1.00  0.00    -0.325 OA 
HETATM   23  O   UNL     1      -7.144   8.754  74.467  1.00  0.00    -0.327 OA 
HETATM   24  O   UNL     1      -9.137   7.189  74.459  1.00  0.00    -0.211 OA 
HETATM   25  S   UNL     1      -7.848   7.605  73.941  1.00  0.00    -0.169 S  
HETATM   26  C   UNL     1      -7.300   8.817  71.500  1.00  0.00    -0.085 A  
ENDBRANCH  10  11
BRANCH  10  27
HETATM   27  C   UNL     1      -8.262   7.979  66.989  1.00  0.00    -0.116 A  
HETATM   28  C   UNL     1      -8.639   8.199  65.594  1.00  0.00    -0.181 A  
HETATM   29  C   UNL     1      -7.449   6.148  64.857  1.00  0.00    -0.083 A  
HETATM   30  C   UNL     1      -6.883   6.053  66.247  1.00  0.00    -0.061 A  
HETATM   31  C   UNL     1      -7.280   6.900  67.220  1.00  0.00    -0.089 A  
HETATM   32  C   UNL     1      -8.236   7.399  64.600  1.00  0.00    -0.043 A  
BRANCH  29  33
HETATM   33  N   UNL     1      -7.327   5.224  63.938  1.00  0.00    -0.050 NA 
BRANCH  33  34
HETATM   34  C   UNL     1      -8.400   4.875  62.926  1.00  0.00    -0.107 C  
HETATM   35  C   UNL     1      -9.475   3.978  63.506  1.00  0.00    -0.147 C  
ENDBRANCH  33  34
BRANCH  33  36
HETATM   36  C   UNL     1      -6.003   4.526  63.679  1.00  0.00    -0.018 C  
HETATM   37  C   UNL     1      -6.020   3.127  64.275  1.00  0.00    -0.018 C  
ENDBRANCH  33  36
ENDBRANCH  29  33
ENDBRANCH  10  27
ENDBRANCH   9  10
ENDBRANCH   3   4
BRANCH   3  38
HETATM   38  C   UNL     1     -11.992  14.483  67.928  1.00  0.00    -0.287 C  
HETATM   39  C   UNL     1     -11.546  14.684  69.372  1.00  0.00    -0.342 C  
ENDBRANCH   3  38
ENDBRANCH   2   3
TORSDOF 9
ENDMDL
MODEL       17
REMARK 921   NORMALIZED FREE ENERGY PREDICTED BY IDOCK:   -4.62 KCAL/MOL
REMARK 922        TOTAL FREE ENERGY PREDICTED BY IDOCK:   -9.36 KCAL/MOL
REMARK 923 INTER-LIGAND FREE ENERGY PREDICTED BY IDOCK:   -7.91 KCAL/MOL
REMARK 924 INTRA-LIGAND FREE ENERGY PREDICTED BY IDOCK:   -1.45 KCAL/MOL
REMARK 927      BINDING AFFINITY PREDICTED BY RF-SCORE:    0.00 PKD
ROOT
HETATM    1  C   UNL     1     -14.342   8.580  72.499  1.00  0.00    -0.325 C  
HETATM    2  C   UNL     1     -13.606   9.536  71.562  1.00  0.00    -0.323 C  
ENDROOT
BRANCH   2   3
HETATM    3  N   UNL     1     -12.147   9.330  71.518  1.00  0.00    -0.337 NA 
BRANCH   3   4
HETATM    4  C   UNL     1     -11.388  10.115  70.637  1.00  0.00    -0.352 A  
HETATM    5  C   UNL     1     -10.065   9.802  70.296  1.00  0.00    -0.323 A  
HETATM    6  C   UNL     1     -11.932  11.243  70.002  1.00  0.00    -0.447 A  
HETATM    7  C   UNL     1      -9.354  10.518  69.311  1.00  0.00    -0.177 A  
HETATM    8  C   UNL     1     -11.228  11.966  69.013  1.00  0.00    -0.316 A  
HETATM    9  C   UNL     1      -9.941  11.592  68.626  1.00  0.00    -0.207 A  
BRANCH   9  10
HETATM   10  C   UNL     1      -9.201  12.280  67.506  1.00  0.00    -0.181 C  
BRANCH  10  11
HETATM   11  C   UNL     1      -8.612  11.451  66.369  1.00  0.00    -0.174 A  
HETATM   12  H   UNL     1      -5.346   9.315  67.057  1.00  0.00     0.000 HD 
HETATM   13  C   UNL     1      -9.093  11.317  65.046  1.00  0.00    -0.070 A  
HETATM   14  O   UNL     1      -5.688   9.242  66.173  1.00  0.00    -0.048 OA 
HETATM   15  C   UNL     1      -8.412  10.535  64.085  1.00  0.00    -0.122 A  
HETATM   16  S   UNL     1     -10.575  12.036  64.384  1.00  0.00    -0.346 S  
HETATM   17  C   UNL     1      -7.414  10.759  66.659  1.00  0.00    -0.135 A  
HETATM   18  O   UNL     1     -11.250  12.802  65.407  1.00  0.00    -0.281 OA 
HETATM   19  O   UNL     1     -10.204  12.635  63.126  1.00  0.00    -0.202 OA 
HETATM   20  O   UNL     1      -5.596   9.621  62.385  1.00  0.00    -0.088 OA 
HETATM   21  C   UNL     1      -7.285   9.808  64.435  1.00  0.00    -0.129 A  
HETATM   22  O   UNL     1     -11.472  10.722  64.050  1.00  0.00     0.542 OA 
HETATM   23  O   UNL     1      -5.802   7.748  63.945  1.00  0.00    -0.051 OA 
HETATM   24  O   UNL     1      -7.700   8.298  62.359  1.00  0.00    -0.115 OA 
HETATM   25  S   UNL     1      -6.613   8.707  63.228  1.00  0.00    -0.089 S  
HETATM   26  C   UNL     1      -6.787   9.915  65.725  1.00  0.00    -0.104 A  
ENDBRANCH  10  11
BRANCH  10  27
HETATM   27  C   UNL     1      -8.899  13.615  67.617  1.00  0.00    -0.194 A  
HETATM   28  C   UNL     1      -8.331  14.142  68.855  1.00  0.00    -0.003 A  
HETATM   29  C   UNL     1      -8.522  16.483  68.052  1.00  0.00    -0.186 A  
HETATM   30  C   UNL     1      -8.892  15.924  66.706  1.00  0.00    -0.294 A  
HETATM   31  C   UNL     1      -9.073  14.598  66.528  1.00  0.00    -0.267 A  
HETATM   32  C   UNL     1      -8.107  15.446  69.053  1.00  0.00    -0.213 A  
BRANCH  29  33
HETATM   33  N   UNL     1      -8.585  17.750  68.375  1.00  0.00    -0.286 NA 
BRANCH  33  34
HETATM   34  C   UNL     1      -7.421  18.717  68.287  1.00  0.00    -0.281 C  
HETATM   35  C   UNL     1      -7.072  19.327  69.629  1.00  0.00    -0.120 C  
ENDBRANCH  33  34
BRANCH  33  36
HETATM   36  C   UNL     1      -9.907  18.425  68.701  1.00  0.00    -0.376 C  
HETATM   37  C   UNL     1     -10.419  19.192  67.492  1.00  0.00    -0.549 C  
ENDBRANCH  33  36
ENDBRANCH  29  33
ENDBRANCH  10  27
ENDBRANCH   9  10
ENDBRANCH   3   4
BRANCH   3  38
HETATM   38  C   UNL     1     -11.596   8.039  71.970  1.00  0.00    -0.316 C  
HETATM   39  C   UNL     1     -12.046   6.867  71.103  1.00  0.00    -0.428 C  
ENDBRANCH   3  38
ENDBRANCH   2   3
TORSDOF 9
ENDMDL
MODEL       18
REMARK 921   NORMALIZED FREE ENERGY PREDICTED BY IDOCK:   -4.56 KCAL/MOL
REMARK 922        TOTAL FREE ENERGY PREDICTED BY IDOCK:   -9.28 KCAL/MOL
REMARK 923 INTER-LIGAND FREE ENERGY PREDICTED BY IDOCK:   -7.36 KCAL/MOL
REMARK 924 INTRA-LIGAND FREE ENERGY PREDICTED BY IDOCK:   -1.92 KCAL/MOL
REMARK 927      BINDING AFFINITY PREDICTED BY RF-SCORE:    0.00 PKD
ROOT
HETATM    1  C   UNL     1      -9.367   2.792  64.700  1.00  0.00    -0.147 C  
HETATM    2  C   UNL     1      -7.872   2.486  64.672  1.00  0.00    -0.077 C  
ENDROOT
BRANCH   2   3
HETATM    3  N   UNL     1      -7.018   3.674  64.488  1.00  0.00    -0.049 NA 
BRANCH   3   4
HETATM    4  C   UNL     1      -7.276   4.809  65.269  1.00  0.00    -0.068 A  
HETATM    5  C   UNL     1      -8.136   5.835  64.850  1.00  0.00    -0.131 A  
HETATM    6  C   UNL     1      -6.722   4.963  66.551  1.00  0.00    -0.054 A  
HETATM    7  C   UNL     1      -8.494   6.906  65.694  1.00  0.00    -0.141 A  
HETATM    8  C   UNL     1      -7.076   6.032  67.404  1.00  0.00    -0.074 A  
HETATM    9  C   UNL     1      -7.997   7.001  67.001  1.00  0.00    -0.116 A  
BRANCH   9  10
HETATM   10  C   UNL     1      -8.470   8.099  67.921  1.00  0.00    -0.132 C  
BRANCH  10  11
HETATM   11  C   UNL     1      -8.522   7.854  69.425  1.00  0.00    -0.133 A  
HETATM   12  H   UNL     1      -6.148   9.971  71.788  1.00  0.00     0.000 HD 
HETATM   13  C   UNL     1      -9.343   6.946  70.134  1.00  0.00    -0.159 A  
HETATM   14  O   UNL     1      -6.708   9.354  72.242  1.00  0.00    -0.288 OA 
HETATM   15  C   UNL     1      -9.249   6.803  71.538  1.00  0.00    -0.149 A  
HETATM   16  S   UNL     1     -10.598   5.897  69.444  1.00  0.00    -0.335 S  
HETATM   17  C   UNL     1      -7.609   8.597  70.209  1.00  0.00    -0.074 A  
HETATM   18  O   UNL     1     -10.675   6.097  68.016  1.00  0.00    -0.239 OA 
HETATM   19  O   UNL     1     -10.379   4.587  70.004  1.00  0.00    -0.144 OA 
HETATM   20  O   UNL     1      -7.469   6.317  74.410  1.00  0.00    -0.093 OA 
HETATM   21  C   UNL     1      -8.398   7.610  72.276  1.00  0.00    -0.108 A  
HETATM   22  O   UNL     1     -11.950   6.493  70.121  1.00  0.00    -0.383 OA 
HETATM   23  O   UNL     1      -7.907   8.718  74.559  1.00  0.00    -0.387 OA 
HETATM   24  O   UNL     1      -9.834   7.082  74.379  1.00  0.00    -0.270 OA 
HETATM   25  S   UNL     1      -8.488   7.501  74.037  1.00  0.00    -0.236 S  
HETATM   26  C   UNL     1      -7.579   8.512  71.613  1.00  0.00    -0.108 A  
ENDBRANCH  10  11
BRANCH  10  27
HETATM   27  C   UNL     1      -9.028   9.234  67.386  1.00  0.00    -0.135 A  
HETATM   28  C   UNL     1     -10.472   9.445  67.448  1.00  0.00    -0.343 A  
HETATM   29  C   UNL     1     -10.331  11.458  66.001  1.00  0.00    -0.249 A  
HETATM   30  C   UNL     1      -8.835  11.364  66.126  1.00  0.00    -0.186 A  
HETATM   31  C   UNL     1      -8.252  10.323  66.759  1.00  0.00    -0.124 A  
HETATM   32  C   UNL     1     -11.080  10.483  66.861  1.00  0.00    -0.124 A  
BRANCH  29  33
HETATM   33  N   UNL     1     -10.961  12.271  65.192  1.00  0.00    -0.294 NA 
BRANCH  33  34
HETATM   34  C   UNL     1     -11.275  13.720  65.508  1.00  0.00    -0.299 C  
HETATM   35  C   UNL     1     -12.085  13.874  66.779  1.00  0.00    -0.476 C  
ENDBRANCH  33  34
BRANCH  33  36
HETATM   36  C   UNL     1     -11.281  11.883  63.759  1.00  0.00    -0.440 C  
HETATM   37  C   UNL     1     -12.762  12.081  63.478  1.00  0.00    -0.567 C  
ENDBRANCH  33  36
ENDBRANCH  29  33
ENDBRANCH  10  27
ENDBRANCH   9  10
ENDBRANCH   3   4
BRANCH   3  38
HETATM   38  C   UNL     1      -6.295   3.839  63.214  1.00  0.00    -0.022 C  
HETATM   39  C   UNL     1      -5.522   2.591  62.805  1.00  0.00    -0.008 C  
ENDBRANCH   3  38
ENDBRANCH   2   3
TORSDOF 9
ENDMDL
MODEL       19
REMARK 921   NORMALIZED FREE ENERGY PREDICTED BY IDOCK:   -4.52 KCAL/MOL
REMARK 922        TOTAL FREE ENERGY PREDICTED BY IDOCK:   -9.20 KCAL/MOL
REMARK 923 INTER-LIGAND FREE ENERGY PREDICTED BY IDOCK:   -7.57 KCAL/MOL
REMARK 924 INTRA-LIGAND FREE ENERGY PREDICTED BY IDOCK:   -1.63 KCAL/MOL
REMARK 927      BINDING AFFINITY PREDICTED BY RF-SCORE:    0.00 PKD
ROOT
HETATM    1  C   UNL     1     -12.665   9.747  72.362  1.00  0.00    -0.214 C  
HETATM    2  C   UNL     1     -13.709  10.596  71.642  1.00  0.00     0.146 C  
ENDROOT
BRANCH   2   3
HETATM    3  N   UNL     1     -13.334  12.016  71.498  1.00  0.00    -0.159 NA 
BRANCH   3   4
HETATM    4  C   UNL     1     -12.363  12.357  70.546  1.00  0.00    -0.262 A  
HETATM    5  C   UNL     1     -11.650  11.394  69.816  1.00  0.00    -0.407 A  
HETATM    6  C   UNL     1     -12.080  13.695  70.230  1.00  0.00    -0.427 A  
HETATM    7  C   UNL     1     -10.772  11.744  68.769  1.00  0.00    -0.255 A  
HETATM    8  C   UNL     1     -11.203  14.055  69.182  1.00  0.00    -0.308 A  
HETATM    9  C   UNL     1     -10.563  13.084  68.411  1.00  0.00    -0.264 A  
BRANCH   9  10
HETATM   10  C   UNL     1      -9.700  13.431  67.224  1.00  0.00    -0.232 C  
BRANCH  10  11
HETATM   11  C   UNL     1      -9.200  12.323  66.304  1.00  0.00    -0.171 A  
HETATM   12  H   UNL     1      -5.836  10.443  67.233  1.00  0.00     0.000 HD 
HETATM   13  C   UNL     1      -9.798  11.835  65.119  1.00  0.00    -0.235 A  
HETATM   14  O   UNL     1      -6.256  10.134  66.439  1.00  0.00    -0.064 OA 
HETATM   15  C   UNL     1      -9.190  10.819  64.346  1.00  0.00    -0.250 A  
HETATM   16  S   UNL     1     -11.350  12.352  64.431  1.00  0.00    -0.365 S  
HETATM   17  C   UNL     1      -7.964  11.731  66.656  1.00  0.00    -0.070 A  
HETATM   18  O   UNL     1     -11.945  13.369  65.267  1.00  0.00    -0.343 OA 
HETATM   19  O   UNL     1     -11.111  12.584  63.028  1.00  0.00    -0.226 OA 
HETATM   20  O   UNL     1      -6.524   9.467  62.699  1.00  0.00    -0.097 OA 
HETATM   21  C   UNL     1      -8.020  10.210  64.772  1.00  0.00    -0.146 A  
HETATM   22  O   UNL     1     -12.244  10.999  64.552  1.00  0.00     0.799 OA 
HETATM   23  O   UNL     1      -6.543   8.090  64.720  1.00  0.00    -0.048 OA 
HETATM   24  O   UNL     1      -8.591   8.194  63.232  1.00  0.00     0.012 OA 
HETATM   25  S   UNL     1      -7.438   8.820  63.850  1.00  0.00    -0.123 S  
HETATM   26  C   UNL     1      -7.407  10.662  65.931  1.00  0.00    -0.128 A  
ENDBRANCH  10  11
BRANCH  10  27
HETATM   27  C   UNL     1      -9.216  14.710  67.093  1.00  0.00    -0.231 A  
HETATM   28  C   UNL     1      -8.148  15.188  67.968  1.00  0.00    -0.138 A  
HETATM   29  C   UNL     1      -8.346  17.503  67.096  1.00  0.00    -0.216 A  
HETATM   30  C   UNL     1      -9.280  16.961  66.049  1.00  0.00    -0.205 A  
HETATM   31  C   UNL     1      -9.680  15.671  66.072  1.00  0.00    -0.378 A  
HETATM   32  C   UNL     1      -7.705  16.449  67.949  1.00  0.00    -0.161 A  
BRANCH  29  33
HETATM   33  N   UNL     1      -8.121  18.775  67.306  1.00  0.00    -0.242 NA 
BRANCH  33  34
HETATM   34  C   UNL     1      -7.761  19.772  66.222  1.00  0.00    -0.319 C  
HETATM   35  C   UNL     1      -7.032  20.983  66.767  1.00  0.00    -0.290 C  
ENDBRANCH  33  34
BRANCH  33  36
HETATM   36  C   UNL     1      -8.385  19.420  68.655  1.00  0.00    -0.362 C  
HETATM   37  C   UNL     1      -9.879  19.454  68.940  1.00  0.00    -0.523 C  
ENDBRANCH  33  36
ENDBRANCH  29  33
ENDBRANCH  10  27
ENDBRANCH   9  10
ENDBRANCH   3   4
BRANCH   3  38
HETATM   38  C   UNL     1     -13.572  12.932  72.628  1.00  0.00    -0.138 C  
HETATM   39  C   UNL     1     -14.384  14.160  72.235  1.00  0.00    -0.533 C  
ENDBRANCH   3  38
ENDBRANCH   2   3
TORSDOF 9
ENDMDL
MODEL       20
REMARK 921   NORMALIZED FREE ENERGY PREDICTED BY IDOCK:   -4.45 KCAL/MOL
REMARK 922        TOTAL FREE ENERGY PREDICTED BY IDOCK:   -9.10 KCAL/MOL
REMARK 923 INTER-LIGAND FREE ENERGY PREDICTED BY IDOCK:   -6.84 KCAL/MOL
REMARK 924 INTRA-LIGAND FREE ENERGY PREDICTED BY IDOCK:   -2.26 KCAL/MOL
REMARK 927      BINDING AFFINITY PREDICTED BY RF-SCORE:    0.00 PKD
ROOT
HETATM    1  C   UNL     1      -7.994   3.692  74.550  1.00  0.00    -0.073 C  
HETATM    2  C   UNL     1      -8.952   4.873  74.413  1.00  0.00    -0.111 C  
ENDROOT
BRANCH   2   3
HETATM    3  N   UNL     1      -9.939   4.723  73.328  1.00  0.00    -0.151 NA 
BRANCH   3   4
HETATM    4  C   UNL     1      -9.778   5.494  72.167  1.00  0.00    -0.158 A  
HETATM    5  C   UNL     1      -8.581   5.518  71.437  1.00  0.00    -0.131 A  
HETATM    6  C   UNL     1     -10.832   6.256  71.637  1.00  0.00    -0.298 A  
HETATM    7  C   UNL     1      -8.469   6.189  70.201  1.00  0.00    -0.133 A  
HETATM    8  C   UNL     1     -10.729   6.931  70.400  1.00  0.00    -0.278 A  
HETATM    9  C   UNL     1      -9.556   6.877  69.645  1.00  0.00    -0.146 A  
BRANCH   9  10
HETATM   10  C   UNL     1      -9.445   7.502  68.277  1.00  0.00    -0.146 C  
BRANCH  10  11
HETATM   11  C   UNL     1      -9.492   9.020  68.135  1.00  0.00    -0.155 A  
HETATM   12  H   UNL     1     -13.021  10.820  68.027  1.00  0.00     0.000 HD 
HETATM   13  C   UNL     1      -8.407   9.923  68.046  1.00  0.00    -0.113 A  
HETATM   14  O   UNL     1     -12.275  11.406  67.967  1.00  0.00    -0.607 OA 
HETATM   15  C   UNL     1      -8.610  11.312  67.878  1.00  0.00    -0.134 A  
HETATM   16  S   UNL     1      -6.682   9.514  68.154  1.00  0.00    -0.062 S  
HETATM   17  C   UNL     1     -10.779   9.597  68.042  1.00  0.00    -0.284 A  
HETATM   18  O   UNL     1      -6.526   8.092  68.352  1.00  0.00    -0.054 OA 
HETATM   19  O   UNL     1      -6.039  10.191  67.055  1.00  0.00    -0.054 OA 
HETATM   20  O   UNL     1     -10.026  13.985  66.297  1.00  0.00    -0.288 OA 
HETATM   21  C   UNL     1      -9.889  11.844  67.874  1.00  0.00    -0.190 A  
HETATM   22  O   UNL     1      -6.236  10.276  69.519  1.00  0.00    -0.044 OA 
HETATM   23  O   UNL     1     -11.374  13.909  68.336  1.00  0.00    -0.254 OA 
HETATM   24  O   UNL     1      -8.856  14.152  68.484  1.00  0.00    -0.187 OA 
HETATM   25  S   UNL     1     -10.044  13.604  67.857  1.00  0.00    -0.250 S  
HETATM   26  C   UNL     1     -10.977  10.988  67.960  1.00  0.00    -0.258 A  
ENDBRANCH  10  11
BRANCH  10  27
HETATM   27  C   UNL     1      -9.496   6.702  67.162  1.00  0.00    -0.158 A  
HETATM   28  C   UNL     1     -10.503   5.649  67.056  1.00  0.00    -0.344 A  
HETATM   29  C   UNL     1      -9.479   4.754  64.980  1.00  0.00    -0.077 A  
HETATM   30  C   UNL     1      -8.588   5.966  64.972  1.00  0.00    -0.065 A  
HETATM   31  C   UNL     1      -8.602   6.847  65.995  1.00  0.00    -0.150 A  
HETATM   32  C   UNL     1     -10.540   4.779  66.040  1.00  0.00    -0.300 A  
BRANCH  29  33
HETATM   33  N   UNL     1      -9.346   3.727  64.179  1.00  0.00    -0.137 NA 
BRANCH  33  34
HETATM   34  C   UNL     1     -10.175   3.501  62.931  1.00  0.00    -0.173 C  
HETATM   35  C   UNL     1     -11.002   2.234  63.006  1.00  0.00    -0.238 C  
ENDBRANCH  33  34
BRANCH  33  36
HETATM   36  C   UNL     1      -8.201   2.741  64.330  1.00  0.00    -0.083 C  
HETATM   37  C   UNL     1      -7.203   2.914  63.195  1.00  0.00    -0.045 C  
ENDBRANCH  33  36
ENDBRANCH  29  33
ENDBRANCH  10  27
ENDBRANCH   9  10
ENDBRANCH   3   4
BRANCH   3  38
HETATM   38  C   UNL     1     -11.280   4.204  73.652  1.00  0.00    -0.225 C  
HETATM   39  C   UNL     1     -11.369   2.686  73.546  1.00  0.00    -0.285 C  
ENDBRANCH   3  38
ENDBRANCH   2   3
TORSDOF 9
ENDMDL
MODEL       21
REMARK 921   NORMALIZED FREE ENERGY PREDICTED BY IDOCK:   -4.44 KCAL/MOL
REMARK 922        TOTAL FREE ENERGY PREDICTED BY IDOCK:   -9.08 KCAL/MOL
REMARK 923 INTER-LIGAND FREE ENERGY PREDICTED BY IDOCK:   -7.65 KCAL/MOL
REMARK 924 INTRA-LIGAND FREE ENERGY PREDICTED BY IDOCK:   -1.43 KCAL/MOL
REMARK 927      BINDING AFFINITY PREDICTED BY RF-SCORE:    0.00 PKD
ROOT
HETATM    1  C   UNL     1      -5.263   5.273  63.772  1.00  0.00    -0.010 C  
HETATM    2  C   UNL     1      -5.813   6.669  64.055  1.00  0.00    -0.031 C  
ENDROOT
BRANCH   2   3
HETATM    3  N   UNL     1      -7.283   6.730  64.142  1.00  0.00    -0.065 NA 
BRANCH   3   4
HETATM    4  C   UNL     1      -7.861   7.525  65.143  1.00  0.00    -0.122 A  
HETATM    5  C   UNL     1      -7.744   7.224  66.507  1.00  0.00    -0.093 A  
HETATM    6  C   UNL     1      -8.555   8.707  64.836  1.00  0.00    -0.163 A  
HETATM    7  C   UNL     1      -8.212   8.096  67.512  1.00  0.00    -0.123 A  
HETATM    8  C   UNL     1      -9.026   9.587  65.835  1.00  0.00    -0.210 A  
HETATM    9  C   UNL     1      -8.829   9.313  67.189  1.00  0.00    -0.137 A  
BRANCH   9  10
HETATM   10  C   UNL     1      -9.232  10.277  68.278  1.00  0.00    -0.139 C  
BRANCH  10  11
HETATM   11  C   UNL     1      -9.256  11.774  67.988  1.00  0.00    -0.181 A  
HETATM   12  H   UNL     1     -12.755  13.561  67.470  1.00  0.00     0.000 HD 
HETATM   13  C   UNL     1      -8.160  12.662  67.887  1.00  0.00    -0.165 A  
HETATM   14  O   UNL     1     -12.003  14.138  67.405  1.00  0.00    -0.395 OA 
HETATM   15  C   UNL     1      -8.341  14.029  67.573  1.00  0.00    -0.200 A  
HETATM   16  S   UNL     1      -6.450  12.263  68.149  1.00  0.00    -0.071 S  
HETATM   17  C   UNL     1     -10.530  12.342  67.754  1.00  0.00    -0.225 A  
HETATM   18  O   UNL     1      -6.319  10.866  68.493  1.00  0.00    -0.049 OA 
HETATM   19  O   UNL     1      -5.730  12.830  67.037  1.00  0.00    -0.334 OA 
HETATM   20  O   UNL     1      -9.626  16.540  65.651  1.00  0.00    -0.511 OA 
HETATM   21  C   UNL     1      -9.612  14.561  67.431  1.00  0.00    -0.212 A  
HETATM   22  O   UNL     1      -6.091  13.152  69.462  1.00  0.00    -0.100 OA 
HETATM   23  O   UNL     1     -11.108  16.662  67.592  1.00  0.00    -0.244 OA 
HETATM   24  O   UNL     1      -8.604  16.914  67.885  1.00  0.00    -0.201 OA 
HETATM   25  S   UNL     1      -9.752  16.311  67.235  1.00  0.00    -0.241 S  
HETATM   26  C   UNL     1     -10.710  13.718  67.526  1.00  0.00    -0.256 A  
ENDBRANCH  10  11
BRANCH  10  27
HETATM   27  C   UNL     1      -9.385   9.819  69.563  1.00  0.00    -0.226 A  
HETATM   28  C   UNL     1      -8.235   9.310  70.307  1.00  0.00    -0.187 A  
HETATM   29  C   UNL     1      -9.673   8.536  72.176  1.00  0.00    -0.317 A  
HETATM   30  C   UNL     1     -10.815   9.256  71.513  1.00  0.00    -0.442 A  
HETATM   31  C   UNL     1     -10.665   9.831  70.301  1.00  0.00    -0.358 A  
HETATM   32  C   UNL     1      -8.342   8.764  71.523  1.00  0.00    -0.212 A  
BRANCH  29  33
HETATM   33  N   UNL     1      -9.795   7.735  73.205  1.00  0.00    -0.277 NA 
BRANCH  33  34
HETATM   34  C   UNL     1     -10.850   6.655  73.329  1.00  0.00    -0.261 C  
HETATM   35  C   UNL     1     -10.880   5.733  72.127  1.00  0.00    -0.296 C  
ENDBRANCH  33  34
BRANCH  33  36
HETATM   36  C   UNL     1      -8.755   7.694  74.311  1.00  0.00    -0.210 C  
HETATM   37  C   UNL     1      -8.122   6.314  74.388  1.00  0.00    -0.123 C  
ENDBRANCH  33  36
ENDBRANCH  29  33
ENDBRANCH  10  27
ENDBRANCH   9  10
ENDBRANCH   3   4
BRANCH   3  38
HETATM   38  C   UNL     1      -8.077   5.630  63.565  1.00  0.00    -0.112 C  
HETATM   39  C   UNL     1      -8.788   4.794  64.623  1.00  0.00    -0.152 C  
ENDBRANCH   3  38
ENDBRANCH   2   3
TORSDOF 9
ENDMDL
MODEL       22
REMARK 921   NORMALIZED FREE ENERGY PREDICTED BY IDOCK:   -4.28 KCAL/MOL
REMARK 922        TOTAL FREE ENERGY PREDICTED BY IDOCK:   -8.85 KCAL/MOL
REMARK 923 INTER-LIGAND FREE ENERGY PREDICTED BY IDOCK:   -7.00 KCAL/MOL
REMARK 924 INTRA-LIGAND FREE ENERGY PREDICTED BY IDOCK:   -1.85 KCAL/MOL
REMARK 927      BINDING AFFINITY PREDICTED BY RF-SCORE:    0.00 PKD
ROOT
HETATM    1  C   UNL     1     -10.231  15.188  65.603  1.00  0.00    -0.387 C  
HETATM    2  C   UNL     1     -10.323  15.867  66.968  1.00  0.00    -0.297 C  
ENDROOT
BRANCH   2   3
HETATM    3  N   UNL     1     -10.651  14.950  68.075  1.00  0.00    -0.245 NA 
BRANCH   3   4
HETATM    4  C   UNL     1     -10.356  13.587  67.923  1.00  0.00    -0.249 A  
HETATM    5  C   UNL     1      -9.053  13.080  68.022  1.00  0.00    -0.210 A  
HETATM    6  C   UNL     1     -11.367  12.635  67.708  1.00  0.00    -0.349 A  
HETATM    7  C   UNL     1      -8.781  11.696  68.000  1.00  0.00    -0.157 A  
HETATM    8  C   UNL     1     -11.104  11.247  67.686  1.00  0.00    -0.336 A  
HETATM    9  C   UNL     1      -9.812  10.754  67.868  1.00  0.00    -0.185 A  
BRANCH   9  10
HETATM   10  C   UNL     1      -9.512   9.278  67.948  1.00  0.00    -0.154 C  
BRANCH  10  11
HETATM   11  C   UNL     1      -9.606   8.560  69.290  1.00  0.00    -0.170 A  
HETATM   12  H   UNL     1     -12.964   6.667  70.210  1.00  0.00     0.000 HD 
HETATM   13  C   UNL     1      -8.618   8.455  70.296  1.00  0.00    -0.128 A  
HETATM   14  O   UNL     1     -12.285   6.612  70.872  1.00  0.00    -0.368 OA 
HETATM   15  C   UNL     1      -8.868   7.783  71.514  1.00  0.00    -0.150 A  
HETATM   16  S   UNL     1      -6.959   9.083  70.215  1.00  0.00    -0.061 S  
HETATM   17  C   UNL     1     -10.849   7.955  69.586  1.00  0.00    -0.177 A  
HETATM   18  O   UNL     1      -6.742   9.737  68.946  1.00  0.00    -0.049 OA 
HETATM   19  O   UNL     1      -6.730   9.774  71.460  1.00  0.00    -0.318 OA 
HETATM   20  O   UNL     1     -10.742   7.192  74.305  1.00  0.00    -0.107 OA 
HETATM   21  C   UNL     1     -10.073   7.134  71.729  1.00  0.00    -0.183 A  
HETATM   22  O   UNL     1      -6.076   7.719  70.250  1.00  0.00    -0.029 OA 
HETATM   23  O   UNL     1     -11.316   5.231  72.961  1.00  0.00    -0.305 OA 
HETATM   24  O   UNL     1      -8.898   5.704  73.556  1.00  0.00    -0.123 OA 
HETATM   25  S   UNL     1     -10.228   6.155  73.192  1.00  0.00    -0.213 S  
HETATM   26  C   UNL     1     -11.065   7.214  70.763  1.00  0.00    -0.269 A  
ENDBRANCH  10  11
BRANCH  10  27
HETATM   27  C   UNL     1      -8.974   8.639  66.858  1.00  0.00    -0.161 A  
HETATM   28  C   UNL     1      -8.272   7.368  67.021  1.00  0.00    -0.121 A  
HETATM   29  C   UNL     1      -7.532   7.370  64.651  1.00  0.00    -0.093 A  
HETATM   30  C   UNL     1      -8.436   8.552  64.436  1.00  0.00    -0.089 A  
HETATM   31  C   UNL     1      -9.084   9.131  65.470  1.00  0.00    -0.275 A  
HETATM   32  C   UNL     1      -7.648   6.750  66.012  1.00  0.00    -0.086 A  
BRANCH  29  33
HETATM   33  N   UNL     1      -6.673   6.920  63.772  1.00  0.00    -0.042 NA 
BRANCH  33  34
HETATM   34  C   UNL     1      -7.041   6.072  62.572  1.00  0.00    -0.042 C  
HETATM   35  C   UNL     1      -8.179   5.115  62.865  1.00  0.00    -0.104 C  
ENDBRANCH  33  34
BRANCH  33  36
HETATM   36  C   UNL     1      -5.222   7.369  63.772  1.00  0.00    -0.033 C  
HETATM   37  C   UNL     1      -5.135   8.872  63.982  1.00  0.00    -0.055 C  
ENDBRANCH  33  36
ENDBRANCH  29  33
ENDBRANCH  10  27
ENDBRANCH   9  10
ENDBRANCH   3   4
BRANCH   3  38
HETATM   38  C   UNL     1     -11.688  15.346  69.044  1.00  0.00    -0.361 C  
HETATM   39  C   UNL     1     -11.315  15.009  70.483  1.00  0.00    -0.316 C  
ENDBRANCH   3  38
ENDBRANCH   2   3
TORSDOF 9
ENDMDL
MODEL       23
REMARK 921   NORMALIZED FREE ENERGY PREDICTED BY IDOCK:   -4.28 KCAL/MOL
REMARK 922        TOTAL FREE ENERGY PREDICTED BY IDOCK:   -8.84 KCAL/MOL
REMARK 923 INTER-LIGAND FREE ENERGY PREDICTED BY IDOCK:   -6.88 KCAL/MOL
REMARK 924 INTRA-LIGAND FREE ENERGY PREDICTED BY IDOCK:   -1.96 KCAL/MOL
REMARK 927      BINDING AFFINITY PREDICTED BY RF-SCORE:    0.00 PKD
ROOT
HETATM    1  C   UNL     1     -10.338  16.013  65.812  1.00  0.00    -0.398 C  
HETATM    2  C   UNL     1     -10.828  15.154  66.976  1.00  0.00    -0.314 C  
ENDROOT
BRANCH   2   3
HETATM    3  N   UNL     1     -11.565  13.946  66.563  1.00  0.00    -0.352 NA 
BRANCH   3   4
HETATM    4  C   UNL     1     -10.963  12.695  66.763  1.00  0.00    -0.262 A  
HETATM    5  C   UNL     1      -9.595  12.474  66.551  1.00  0.00    -0.242 A  
HETATM    6  C   UNL     1     -11.693  11.594  67.239  1.00  0.00    -0.255 A  
HETATM    7  C   UNL     1      -8.972  11.252  66.880  1.00  0.00    -0.163 A  
HETATM    8  C   UNL     1     -11.078  10.367  67.573  1.00  0.00    -0.336 A  
HETATM    9  C   UNL     1      -9.701  10.189  67.433  1.00  0.00    -0.192 A  
BRANCH   9  10
HETATM   10  C   UNL     1      -8.999   8.928  67.872  1.00  0.00    -0.142 C  
BRANCH  10  11
HETATM   11  C   UNL     1      -8.834   7.775  66.888  1.00  0.00    -0.143 A  
HETATM   12  H   UNL     1     -11.743   5.101  66.576  1.00  0.00     0.000 HD 
HETATM   13  C   UNL     1      -7.749   7.516  66.019  1.00  0.00    -0.094 A  
HETATM   14  O   UNL     1     -11.001   4.948  66.002  1.00  0.00    -0.245 OA 
HETATM   15  C   UNL     1      -7.723   6.375  65.184  1.00  0.00    -0.100 A  
HETATM   16  S   UNL     1      -6.309   8.531  65.798  1.00  0.00    -0.052 S  
HETATM   17  C   UNL     1      -9.878   6.822  66.866  1.00  0.00    -0.229 A  
HETATM   18  O   UNL     1      -6.392   9.695  66.649  1.00  0.00    -0.064 OA 
HETATM   19  O   UNL     1      -5.176   7.641  65.859  1.00  0.00    -0.024 OA 
HETATM   20  O   UNL     1      -8.009   3.015  64.656  1.00  0.00    -0.081 OA 
HETATM   21  C   UNL     1      -8.804   5.511  65.135  1.00  0.00    -0.079 A  
HETATM   22  O   UNL     1      -6.464   9.011  64.253  1.00  0.00    -0.078 OA 
HETATM   23  O   UNL     1     -10.138   3.793  63.737  1.00  0.00    -0.173 OA 
HETATM   24  O   UNL     1      -7.952   4.688  62.819  1.00  0.00    -0.065 OA 
HETATM   25  S   UNL     1      -8.770   4.224  63.923  1.00  0.00    -0.129 S  
HETATM   26  C   UNL     1      -9.887   5.735  65.972  1.00  0.00     0.024 A  
ENDBRANCH  10  11
BRANCH  10  27
HETATM   27  C   UNL     1      -8.687   8.756  69.198  1.00  0.00    -0.136 A  
HETATM   28  C   UNL     1      -7.390   8.206  69.585  1.00  0.00    -0.073 A  
HETATM   29  C   UNL     1      -8.061   8.062  71.970  1.00  0.00    -0.131 A  
HETATM   30  C   UNL     1      -9.300   8.830  71.602  1.00  0.00    -0.345 A  
HETATM   31  C   UNL     1      -9.577   9.130  70.315  1.00  0.00    -0.249 A  
HETATM   32  C   UNL     1      -7.069   7.928  70.853  1.00  0.00    -0.049 A  
BRANCH  29  33
HETATM   33  N   UNL     1      -7.849   7.505  73.136  1.00  0.00    -0.096 NA 
BRANCH  33  34
HETATM   34  C   UNL     1      -6.542   6.860  73.552  1.00  0.00    -0.067 C  
HETATM   35  C   UNL     1      -6.557   5.355  73.376  1.00  0.00    -0.072 C  
ENDBRANCH  33  34
BRANCH  33  36
HETATM   36  C   UNL     1      -8.854   7.618  74.269  1.00  0.00    -0.182 C  
HETATM   37  C   UNL     1      -9.842   6.464  74.214  1.00  0.00    -0.320 C  
ENDBRANCH  33  36
ENDBRANCH  29  33
ENDBRANCH  10  27
ENDBRANCH   9  10
ENDBRANCH   3   4
BRANCH   3  38
HETATM   38  C   UNL     1     -12.617  14.070  65.538  1.00  0.00    -0.516 C  
HETATM   39  C   UNL     1     -12.222  13.445  64.205  1.00  0.00    -0.457 C  
ENDBRANCH   3  38
ENDBRANCH   2   3
TORSDOF 9
ENDMDL
MODEL       24
REMARK 921   NORMALIZED FREE ENERGY PREDICTED BY IDOCK:   -4.25 KCAL/MOL
REMARK 922        TOTAL FREE ENERGY PREDICTED BY IDOCK:   -8.80 KCAL/MOL
REMARK 923 INTER-LIGAND FREE ENERGY PREDICTED BY IDOCK:   -7.74 KCAL/MOL
REMARK 924 INTRA-LIGAND FREE ENERGY PREDICTED BY IDOCK:   -1.06 KCAL/MOL
REMARK 927      BINDING AFFINITY PREDICTED BY RF-SCORE:    0.00 PKD
ROOT
HETATM    1  C   UNL     1      -5.829  20.508  65.342  1.00  0.00    -0.245 C  
HETATM    2  C   UNL     1      -6.717  19.277  65.172  1.00  0.00    -0.147 C  
ENDROOT
BRANCH   2   3
HETATM    3  N   UNL     1      -7.469  18.907  66.385  1.00  0.00    -0.244 NA 
BRANCH   3   4
HETATM    4  C   UNL     1      -7.879  17.574  66.536  1.00  0.00    -0.276 A  
HETATM    5  C   UNL     1      -7.091  16.610  67.182  1.00  0.00    -0.221 A  
HETATM    6  C   UNL     1      -9.135  17.135  66.088  1.00  0.00    -0.214 A  
HETATM    7  C   UNL     1      -7.564  15.308  67.447  1.00  0.00    -0.229 A  
HETATM    8  C   UNL     1      -9.618  15.833  66.349  1.00  0.00    -0.311 A  
HETATM    9  C   UNL     1      -8.853  14.911  67.065  1.00  0.00    -0.255 A  
BRANCH   9  10
HETATM   10  C   UNL     1      -9.376  13.548  67.446  1.00  0.00    -0.228 C  
BRANCH  10  11
HETATM   11  C   UNL     1      -8.888  12.315  66.694  1.00  0.00    -0.167 A  
HETATM   12  H   UNL     1     -10.647  11.343  63.278  1.00  0.00     0.000 HD 
HETATM   13  C   UNL     1      -7.841  11.434  67.048  1.00  0.00    -0.158 A  
HETATM   14  O   UNL     1      -9.940  10.764  63.537  1.00  0.00    -0.323 OA 
HETATM   15  C   UNL     1      -7.527  10.301  66.261  1.00  0.00    -0.118 A  
HETATM   16  S   UNL     1      -6.760  11.587  68.448  1.00  0.00    -0.071 S  
HETATM   17  C   UNL     1      -9.594  11.986  65.513  1.00  0.00    -0.174 A  
HETATM   18  O   UNL     1      -7.100  12.770  69.204  1.00  0.00    -0.068 OA 
HETATM   19  O   UNL     1      -6.721  10.287  69.070  1.00  0.00    -0.051 OA 
HETATM   20  O   UNL     1      -8.392   7.450  64.596  1.00  0.00    -0.080 OA 
HETATM   21  C   UNL     1      -8.191  10.062  65.069  1.00  0.00    -0.148 A  
HETATM   22  O   UNL     1      -5.316  11.827  67.739  1.00  0.00    -0.047 OA 
HETATM   23  O   UNL     1      -8.098   8.990  62.719  1.00  0.00    -0.145 OA 
HETATM   24  O   UNL     1      -6.190   8.572  64.333  1.00  0.00    -0.065 OA 
HETATM   25  S   UNL     1      -7.604   8.740  64.054  1.00  0.00    -0.130 S  
HETATM   26  C   UNL     1      -9.223  10.908  64.690  1.00  0.00    -0.197 A  
ENDBRANCH  10  11
BRANCH  10  27
HETATM   27  C   UNL     1     -10.422  13.450  68.331  1.00  0.00    -0.257 A  
HETATM   28  C   UNL     1     -10.503  14.348  69.480  1.00  0.00    -0.028 A  
HETATM   29  C   UNL     1     -12.432  13.107  70.429  1.00  0.00    -0.210 A  
HETATM   30  C   UNL     1     -12.484  12.330  69.142  1.00  0.00     0.337 A  
HETATM   31  C   UNL     1     -11.540  12.494  68.191  1.00  0.00    -0.390 A  
HETATM   32  C   UNL     1     -11.445  14.236  70.424  1.00  0.00    -0.188 A  
BRANCH  29  33
HETATM   33  N   UNL     1     -13.136  12.827  71.496  1.00  0.00    -0.344 NA 
BRANCH  33  34
HETATM   34  C   UNL     1     -13.285  11.438  72.084  1.00  0.00    -0.188 C  
HETATM   35  C   UNL     1     -13.015  10.347  71.068  1.00  0.00    -0.490 C  
ENDBRANCH  33  34
BRANCH  33  36
HETATM   36  C   UNL     1     -13.732  13.918  72.368  1.00  0.00    -0.576 C  
HETATM   37  C   UNL     1     -14.359  15.001  71.503  1.00  0.00    -0.651 C  
ENDBRANCH  33  36
ENDBRANCH  29  33
ENDBRANCH  10  27
ENDBRANCH   9  10
ENDBRANCH   3   4
BRANCH   3  38
HETATM   38  C   UNL     1      -8.194  19.958  67.122  1.00  0.00    -0.312 C  
HETATM   39  C   UNL     1      -7.524  20.327  68.440  1.00  0.00    -0.130 C  
ENDBRANCH   3  38
ENDBRANCH   2   3
TORSDOF 9
ENDMDL
MODEL       25
REMARK 921   NORMALIZED FREE ENERGY PREDICTED BY IDOCK:   -4.08 KCAL/MOL
REMARK 922        TOTAL FREE ENERGY PREDICTED BY IDOCK:   -8.53 KCAL/MOL
REMARK 923 INTER-LIGAND FREE ENERGY PREDICTED BY IDOCK:   -6.59 KCAL/MOL
REMARK 924 INTRA-LIGAND FREE ENERGY PREDICTED BY IDOCK:   -1.94 KCAL/MOL
REMARK 927      BINDING AFFINITY PREDICTED BY RF-SCORE:    0.00 PKD
ROOT
HETATM    1  C   UNL     1     -11.161   4.769  73.473  1.00  0.00    -0.412 C  
HETATM    2  C   UNL     1     -11.449   6.113  72.809  1.00  0.00    -0.183 C  
ENDROOT
BRANCH   2   3
HETATM    3  N   UNL     1     -10.305   7.045  72.814  1.00  0.00    -0.206 NA 
BRANCH   3   4
HETATM    4  C   UNL     1      -9.905   7.617  71.598  1.00  0.00    -0.162 A  
HETATM    5  C   UNL     1      -9.824   9.004  71.407  1.00  0.00    -0.381 A  
HETATM    6  C   UNL     1      -9.509   6.827  70.507  1.00  0.00    -0.171 A  
HETATM    7  C   UNL     1      -9.295   9.570  70.229  1.00  0.00    -0.305 A  
HETATM    8  C   UNL     1      -8.977   7.384  69.323  1.00  0.00    -0.136 A  
HETATM    9  C   UNL     1      -8.827   8.765  69.181  1.00  0.00    -0.137 A  
BRANCH   9  10
HETATM   10  C   UNL     1      -8.173   9.387  67.972  1.00  0.00    -0.114 C  
BRANCH  10  11
HETATM   11  C   UNL     1      -8.227  10.899  67.780  1.00  0.00    -0.116 A  
HETATM   12  H   UNL     1      -4.898  13.001  68.232  1.00  0.00     0.000 HD 
HETATM   13  C   UNL     1      -9.342  11.696  67.434  1.00  0.00    -0.168 A  
HETATM   14  O   UNL     1      -5.662  13.515  68.000  1.00  0.00    -0.102 OA 
HETATM   15  C   UNL     1      -9.244  13.103  67.329  1.00  0.00    -0.221 A  
HETATM   16  S   UNL     1     -10.977  11.116  67.056  1.00  0.00    -0.267 S  
HETATM   17  C   UNL     1      -7.021  11.599  68.014  1.00  0.00    -0.078 A  
HETATM   18  O   UNL     1     -11.022   9.676  67.151  1.00  0.00    -0.190 OA 
HETATM   19  O   UNL     1     -11.882  11.943  67.815  1.00  0.00    -0.518 OA 
HETATM   20  O   UNL     1      -8.343  16.165  68.540  1.00  0.00    -0.176 OA 
HETATM   21  C   UNL     1      -8.024  13.740  67.486  1.00  0.00    -0.181 A  
HETATM   22  O   UNL     1     -11.135  11.535  65.493  1.00  0.00    -0.271 OA 
HETATM   23  O   UNL     1      -6.565  15.793  66.903  1.00  0.00    -0.276 OA 
HETATM   24  O   UNL     1      -8.992  15.766  66.173  1.00  0.00    -0.320 OA 
HETATM   25  S   UNL     1      -7.954  15.473  67.144  1.00  0.00    -0.233 S  
HETATM   26  C   UNL     1      -6.908  12.989  67.824  1.00  0.00    -0.144 A  
ENDBRANCH  10  11
BRANCH  10  27
HETATM   27  C   UNL     1      -7.705   8.578  66.966  1.00  0.00    -0.092 A  
HETATM   28  C   UNL     1      -8.449   8.453  65.715  1.00  0.00    -0.169 A  
HETATM   29  C   UNL     1      -6.954   6.645  64.903  1.00  0.00    -0.058 A  
HETATM   30  C   UNL     1      -6.069   6.933  66.084  1.00  0.00    -0.035 A  
HETATM   31  C   UNL     1      -6.439   7.819  67.032  1.00  0.00    -0.055 A  
HETATM   32  C   UNL     1      -8.092   7.609  64.740  1.00  0.00    -0.121 A  
BRANCH  29  33
HETATM   33  N   UNL     1      -6.806   5.628  64.092  1.00  0.00    -0.048 NA 
BRANCH  33  34
HETATM   34  C   UNL     1      -7.792   4.485  63.963  1.00  0.00    -0.086 C  
HETATM   35  C   UNL     1      -8.586   4.258  65.233  1.00  0.00    -0.121 C  
ENDBRANCH  33  34
BRANCH  33  36
HETATM   36  C   UNL     1      -5.701   5.593  63.051  1.00  0.00    -0.014 C  
HETATM   37  C   UNL     1      -5.291   4.156  62.766  1.00  0.00    -0.009 C  
ENDBRANCH  33  36
ENDBRANCH  29  33
ENDBRANCH  10  27
ENDBRANCH   9  10
ENDBRANCH   3   4
BRANCH   3  38
HETATM   38  C   UNL     1      -9.329   6.966  73.917  1.00  0.00    -0.210 C  
HETATM   39  C   UNL     1      -8.012   6.323  73.497  1.00  0.00    -0.100 C  
ENDBRANCH   3  38
ENDBRANCH   2   3
TORSDOF 9
ENDMDL
MODEL       26
REMARK 921   NORMALIZED FREE ENERGY PREDICTED BY IDOCK:   -3.98 KCAL/MOL
REMARK 922        TOTAL FREE ENERGY PREDICTED BY IDOCK:   -8.38 KCAL/MOL
REMARK 923 INTER-LIGAND FREE ENERGY PREDICTED BY IDOCK:   -7.90 KCAL/MOL
REMARK 924 INTRA-LIGAND FREE ENERGY PREDICTED BY IDOCK:   -0.48 KCAL/MOL
REMARK 927      BINDING AFFINITY PREDICTED BY RF-SCORE:    0.00 PKD
ROOT
HETATM    1  C   UNL     1      -5.145  20.756  69.453  1.00  0.00    -0.355 C  
HETATM    2  C   UNL     1      -6.595  20.298  69.315  1.00  0.00    -0.217 C  
ENDROOT
BRANCH   2   3
HETATM    3  N   UNL     1      -6.927  19.744  67.989  1.00  0.00    -0.265 NA 
BRANCH   3   4
HETATM    4  C   UNL     1      -7.487  18.460  67.922  1.00  0.00    -0.236 A  
HETATM    5  C   UNL     1      -6.745  17.298  68.180  1.00  0.00    -0.179 A  
HETATM    6  C   UNL     1      -8.849  18.265  67.639  1.00  0.00    -0.261 A  
HETATM    7  C   UNL     1      -7.344  16.023  68.242  1.00  0.00    -0.129 A  
HETATM    8  C   UNL     1      -9.458  16.991  67.699  1.00  0.00    -0.236 A  
HETATM    9  C   UNL     1      -8.721  15.855  68.038  1.00  0.00    -0.169 A  
BRANCH   9  10
HETATM   10  C   UNL     1      -9.358  14.498  68.207  1.00  0.00    -0.203 C  
BRANCH  10  11
HETATM   11  C   UNL     1      -9.108  13.412  67.167  1.00  0.00    -0.235 A  
HETATM   12  H   UNL     1      -5.997  11.002  67.633  1.00  0.00     0.000 HD 
HETATM   13  C   UNL     1      -9.869  13.117  66.012  1.00  0.00    -0.260 A  
HETATM   14  O   UNL     1      -6.523  10.824  66.862  1.00  0.00    -0.075 OA 
HETATM   15  C   UNL     1      -9.487  12.094  65.114  1.00  0.00     0.049 A  
HETATM   16  S   UNL     1     -11.380  13.906  65.514  1.00  0.00    -0.316 S  
HETATM   17  C   UNL     1      -7.950  12.624  67.356  1.00  0.00    -0.177 A  
HETATM   18  O   UNL     1     -11.744  14.922  66.473  1.00  0.00    -0.312 OA 
HETATM   19  O   UNL     1     -11.227  14.219  64.115  1.00  0.00    -0.206 OA 
HETATM   20  O   UNL     1      -7.199  10.522  63.127  1.00  0.00    -0.104 OA 
HETATM   21  C   UNL     1      -8.389  11.292  65.381  1.00  0.00     0.198 A  
HETATM   22  O   UNL     1     -12.452  12.688  65.621  1.00  0.00    -0.622 OA 
HETATM   23  O   UNL     1      -7.254   8.995  65.036  1.00  0.00    -0.089 OA 
HETATM   24  O   UNL     1      -9.381   9.515  63.761  1.00  0.00    -0.145 OA 
HETATM   25  S   UNL     1      -8.100   9.916  64.310  1.00  0.00    -0.160 S  
HETATM   26  C   UNL     1      -7.621  11.552  66.506  1.00  0.00    -0.036 A  
ENDBRANCH  10  11
BRANCH  10  27
HETATM   27  C   UNL     1     -10.304  14.314  69.186  1.00  0.00    -0.136 A  
HETATM   28  C   UNL     1     -11.230  13.187  69.113  1.00  0.00    -0.303 A  
HETATM   29  C   UNL     1     -12.542  14.024  71.047  1.00  0.00    -0.366 A  
HETATM   30  C   UNL     1     -11.462  15.050  71.254  1.00  0.00    -0.359 A  
HETATM   31  C   UNL     1     -10.444  15.177  70.377  1.00  0.00    -0.107 A  
HETATM   32  C   UNL     1     -12.230  13.012  69.984  1.00  0.00    -0.306 A  
BRANCH  29  33
HETATM   33  N   UNL     1     -13.685  14.007  71.685  1.00  0.00    -0.354 NA 
BRANCH  33  34
HETATM   34  C   UNL     1     -14.328  12.759  72.257  1.00  0.00     0.336 C  
HETATM   35  C   UNL     1     -13.609  11.493  71.841  1.00  0.00    -0.097 C  
ENDBRANCH  33  34
BRANCH  33  36
HETATM   36  C   UNL     1     -14.398  15.288  72.078  1.00  0.00    -0.589 C  
HETATM   37  C   UNL     1     -13.765  15.882  73.327  1.00  0.00    -0.409 C  
ENDBRANCH  33  36
ENDBRANCH  29  33
ENDBRANCH  10  27
ENDBRANCH   9  10
ENDBRANCH   3   4
BRANCH   3  38
HETATM   38  C   UNL     1      -6.235  20.278  66.802  1.00  0.00    -0.185 C  
HETATM   39  C   UNL     1      -6.472  19.440  65.551  1.00  0.00    -0.288 C  
ENDBRANCH   3  38
ENDBRANCH   2   3
TORSDOF 9
ENDMDL
MODEL       27
REMARK 921   NORMALIZED FREE ENERGY PREDICTED BY IDOCK:   -3.93 KCAL/MOL
REMARK 922        TOTAL FREE ENERGY PREDICTED BY IDOCK:   -8.30 KCAL/MOL
REMARK 923 INTER-LIGAND FREE ENERGY PREDICTED BY IDOCK:   -6.93 KCAL/MOL
REMARK 924 INTRA-LIGAND FREE ENERGY PREDICTED BY IDOCK:   -1.37 KCAL/MOL
REMARK 927      BINDING AFFINITY PREDICTED BY RF-SCORE:    0.00 PKD
ROOT
HETATM    1  C   UNL     1      -9.351  10.631  62.631  1.00  0.00    -0.332 C  
HETATM    2  C   UNL     1      -8.797   9.222  62.432  1.00  0.00    -0.233 C  
ENDROOT
BRANCH   2   3
HETATM    3  N   UNL     1      -7.874   8.783  63.496  1.00  0.00    -0.141 NA 
BRANCH   3   4
HETATM    4  C   UNL     1      -8.285   8.911  64.830  1.00  0.00    -0.160 A  
HETATM    5  C   UNL     1      -7.511   9.565  65.800  1.00  0.00    -0.100 A  
HETATM    6  C   UNL     1      -9.531   8.431  65.266  1.00  0.00     0.398 A  
HETATM    7  C   UNL     1      -7.988   9.806  67.104  1.00  0.00    -0.102 A  
HETATM    8  C   UNL     1     -10.017   8.668  66.572  1.00  0.00    -0.353 A  
HETATM    9  C   UNL     1      -9.268   9.392  67.500  1.00  0.00    -0.139 A  
BRANCH   9  10
HETATM   10  C   UNL     1      -9.797   9.748  68.867  1.00  0.00    -0.177 C  
BRANCH  10  11
HETATM   11  C   UNL     1      -9.841   8.685  69.959  1.00  0.00    -0.185 A  
HETATM   12  H   UNL     1     -13.075   6.417  70.288  1.00  0.00     0.000 HD 
HETATM   13  C   UNL     1      -8.843   8.366  70.908  1.00  0.00    -0.159 A  
HETATM   14  O   UNL     1     -12.389   6.222  70.916  1.00  0.00    -0.043 OA 
HETATM   15  C   UNL     1      -9.046   7.371  71.892  1.00  0.00    -0.146 A  
HETATM   16  S   UNL     1      -7.225   9.089  71.021  1.00  0.00    -0.094 S  
HETATM   17  C   UNL     1     -11.044   7.949  70.064  1.00  0.00    -0.165 A  
HETATM   18  O   UNL     1      -7.054  10.078  69.982  1.00  0.00    -0.111 OA 
HETATM   19  O   UNL     1      -7.030   9.423  72.410  1.00  0.00    -0.155 OA 
HETATM   20  O   UNL     1     -10.865   5.926  74.393  1.00  0.00    -0.067 OA 
HETATM   21  C   UNL     1     -10.208   6.618  71.907  1.00  0.00    -0.186 A  
HETATM   22  O   UNL     1      -6.262   7.822  70.689  1.00  0.00    -0.037 OA 
HETATM   23  O   UNL     1     -11.328   4.380  72.556  1.00  0.00     0.093 OA 
HETATM   24  O   UNL     1      -8.940   4.813  73.284  1.00  0.00    -0.113 OA 
HETATM   25  S   UNL     1     -10.296   5.267  73.043  1.00  0.00    -0.209 S  
HETATM   26  C   UNL     1     -11.209   6.902  70.989  1.00  0.00    -0.282 A  
ENDBRANCH  10  11
BRANCH  10  27
HETATM   27  C   UNL     1     -10.409  10.962  69.059  1.00  0.00    -0.230 A  
HETATM   28  C   UNL     1      -9.927  12.149  68.357  1.00  0.00    -0.206 A  
HETATM   29  C   UNL     1     -11.442  13.636  69.644  1.00  0.00    -0.221 A  
HETATM   30  C   UNL     1     -12.087  12.395  70.197  1.00  0.00    -0.366 A  
HETATM   31  C   UNL     1     -11.587  11.170  69.925  1.00  0.00    -0.416 A  
HETATM   32  C   UNL     1     -10.421  13.373  68.577  1.00  0.00    -0.260 A  
BRANCH  29  33
HETATM   33  N   UNL     1     -11.689  14.852  70.061  1.00  0.00    -0.276 NA 
BRANCH  33  34
HETATM   34  C   UNL     1     -11.773  16.066  69.158  1.00  0.00    -0.307 C  
HETATM   35  C   UNL     1     -10.503  16.892  69.177  1.00  0.00    -0.335 C  
ENDBRANCH  33  34
BRANCH  33  36
HETATM   36  C   UNL     1     -12.104  15.135  71.494  1.00  0.00    -0.345 C  
HETATM   37  C   UNL     1     -13.575  15.517  71.552  1.00  0.00    -0.571 C  
ENDBRANCH  33  36
ENDBRANCH  29  33
ENDBRANCH  10  27
ENDBRANCH   9  10
ENDBRANCH   3   4
BRANCH   3  38
HETATM   38  C   UNL     1      -6.431   8.714  63.202  1.00  0.00    -0.090 C  
HETATM   39  C   UNL     1      -5.768  10.086  63.160  1.00  0.00    -0.114 C  
ENDBRANCH   3  38
ENDBRANCH   2   3
TORSDOF 9
ENDMDL
MODEL       28
REMARK 921   NORMALIZED FREE ENERGY PREDICTED BY IDOCK:   -3.78 KCAL/MOL
REMARK 922        TOTAL FREE ENERGY PREDICTED BY IDOCK:   -8.08 KCAL/MOL
REMARK 923 INTER-LIGAND FREE ENERGY PREDICTED BY IDOCK:   -6.10 KCAL/MOL
REMARK 924 INTRA-LIGAND FREE ENERGY PREDICTED BY IDOCK:   -1.98 KCAL/MOL
REMARK 927      BINDING AFFINITY PREDICTED BY RF-SCORE:    0.00 PKD
ROOT
HETATM    1  C   UNL     1      -5.129   4.944  63.141  1.00  0.00    -0.009 C  
HETATM    2  C   UNL     1      -5.826   6.268  62.838  1.00  0.00    -0.026 C  
ENDROOT
BRANCH   2   3
HETATM    3  N   UNL     1      -7.266   6.276  63.156  1.00  0.00    -0.053 NA 
BRANCH   3   4
HETATM    4  C   UNL     1      -7.699   6.998  64.278  1.00  0.00    -0.117 A  
HETATM    5  C   UNL     1      -7.330   6.653  65.586  1.00  0.00    -0.075 A  
HETATM    6  C   UNL     1      -8.493   8.149  64.151  1.00  0.00     0.063 A  
HETATM    7  C   UNL     1      -7.658   7.458  66.696  1.00  0.00    -0.100 A  
HETATM    8  C   UNL     1      -8.826   8.963  65.257  1.00  0.00    -0.227 A  
HETATM    9  C   UNL     1      -8.382   8.649  66.543  1.00  0.00    -0.108 A  
BRANCH   9  10
HETATM   10  C   UNL     1      -8.636   9.547  67.728  1.00  0.00    -0.115 C  
BRANCH  10  11
HETATM   11  C   UNL     1      -8.412   9.014  69.139  1.00  0.00    -0.128 A  
HETATM   12  H   UNL     1      -5.444  10.511  71.296  1.00  0.00     0.000 HD 
HETATM   13  C   UNL     1      -9.154   8.027  69.828  1.00  0.00    -0.149 A  
HETATM   14  O   UNL     1      -5.956   9.844  71.738  1.00  0.00    -0.286 OA 
HETATM   15  C   UNL     1      -8.799   7.607  71.131  1.00  0.00    -0.140 A  
HETATM   16  S   UNL     1     -10.607   7.195  69.237  1.00  0.00    -0.211 S  
HETATM   17  C   UNL     1      -7.302   9.544  69.836  1.00  0.00    -0.103 A  
HETATM   18  O   UNL     1     -10.946   7.674  67.918  1.00  0.00    -0.076 OA 
HETATM   19  O   UNL     1     -10.398   5.791  69.492  1.00  0.00    -0.212 OA 
HETATM   20  O   UNL     1      -6.539   6.482  73.429  1.00  0.00    -0.068 OA 
HETATM   21  C   UNL     1      -7.752   8.211  71.808  1.00  0.00    -0.102 A  
HETATM   22  O   UNL     1     -11.743   7.711  70.280  1.00  0.00    -0.143 OA 
HETATM   23  O   UNL     1      -6.727   8.826  74.100  1.00  0.00    -0.281 OA 
HETATM   24  O   UNL     1      -8.787   7.352  74.034  1.00  0.00    -0.196 OA 
HETATM   25  S   UNL     1      -7.503   7.764  73.499  1.00  0.00    -0.135 S  
HETATM   26  C   UNL     1      -7.004   9.185  71.164  1.00  0.00    -0.081 A  
ENDBRANCH  10  11
BRANCH  10  27
HETATM   27  C   UNL     1      -9.245  10.763  67.536  1.00  0.00    -0.150 A  
HETATM   28  C   UNL     1      -8.461  11.921  67.114  1.00  0.00    -0.173 A  
HETATM   29  C   UNL     1     -10.394  13.450  67.410  1.00  0.00    -0.240 A  
HETATM   30  C   UNL     1     -11.246  12.229  67.624  1.00  0.00    -0.346 A  
HETATM   31  C   UNL     1     -10.695  10.998  67.692  1.00  0.00    -0.281 A  
HETATM   32  C   UNL     1      -8.982  13.148  67.004  1.00  0.00    -0.228 A  
BRANCH  29  33
HETATM   33  N   UNL     1     -10.799  14.681  67.594  1.00  0.00    -0.277 NA 
BRANCH  33  34
HETATM   34  C   UNL     1     -12.019  15.070  68.404  1.00  0.00    -0.200 C  
HETATM   35  C   UNL     1     -11.693  15.314  69.863  1.00  0.00    -0.349 C  
ENDBRANCH  33  34
BRANCH  33  36
HETATM   36  C   UNL     1      -9.961  15.870  67.156  1.00  0.00    -0.240 C  
HETATM   37  C   UNL     1     -10.434  16.378  65.803  1.00  0.00    -0.369 C  
ENDBRANCH  33  36
ENDBRANCH  29  33
ENDBRANCH  10  27
ENDBRANCH   9  10
ENDBRANCH   3   4
BRANCH   3  38
HETATM   38  C   UNL     1      -8.113   5.181  62.648  1.00  0.00    -0.092 C  
HETATM   39  C   UNL     1      -9.096   4.661  63.690  1.00  0.00    -0.075 C  
ENDBRANCH   3  38
ENDBRANCH   2   3
TORSDOF 9
ENDMDL
MODEL       29
REMARK 921   NORMALIZED FREE ENERGY PREDICTED BY IDOCK:   -3.74 KCAL/MOL
REMARK 922        TOTAL FREE ENERGY PREDICTED BY IDOCK:   -8.02 KCAL/MOL
REMARK 923 INTER-LIGAND FREE ENERGY PREDICTED BY IDOCK:   -6.68 KCAL/MOL
REMARK 924 INTRA-LIGAND FREE ENERGY PREDICTED BY IDOCK:   -1.34 KCAL/MOL
REMARK 927      BINDING AFFINITY PREDICTED BY RF-SCORE:    0.00 PKD
ROOT
HETATM    1  C   UNL     1     -10.425  16.044  65.667  1.00  0.00    -0.416 C  
HETATM    2  C   UNL     1     -10.889  15.232  66.873  1.00  0.00    -0.317 C  
ENDROOT
BRANCH   2   3
HETATM    3  N   UNL     1     -11.562  13.967  66.523  1.00  0.00    -0.352 NA 
BRANCH   3   4
HETATM    4  C   UNL     1     -10.870  12.764  66.727  1.00  0.00    -0.264 A  
HETATM    5  C   UNL     1      -9.478  12.662  66.596  1.00  0.00    -0.244 A  
HETATM    6  C   UNL     1     -11.533  11.592  67.126  1.00  0.00    -0.344 A  
HETATM    7  C   UNL     1      -8.776  11.486  66.930  1.00  0.00    -0.181 A  
HETATM    8  C   UNL     1     -10.839  10.409  67.464  1.00  0.00    -0.358 A  
HETATM    9  C   UNL     1      -9.446  10.349  67.407  1.00  0.00    -0.170 A  
BRANCH   9  10
HETATM   10  C   UNL     1      -8.668   9.136  67.854  1.00  0.00    -0.128 C  
BRANCH  10  11
HETATM   11  C   UNL     1      -8.327   8.045  66.845  1.00  0.00    -0.116 A  
HETATM   12  H   UNL     1      -5.107   8.481  64.576  1.00  0.00     0.000 HD 
HETATM   13  C   UNL     1      -9.018   6.835  66.600  1.00  0.00    -0.144 A  
HETATM   14  O   UNL     1      -5.589   7.675  64.429  1.00  0.00    -0.033 OA 
HETATM   15  C   UNL     1      -8.598   5.932  65.596  1.00  0.00    -0.155 A  
HETATM   16  S   UNL     1     -10.443   6.238  67.474  1.00  0.00    -0.276 S  
HETATM   17  C   UNL     1      -7.202   8.286  66.024  1.00  0.00    -0.072 A  
HETATM   18  O   UNL     1     -10.818   7.179  68.504  1.00  0.00    -0.177 OA 
HETATM   19  O   UNL     1     -11.385   5.818  66.467  1.00  0.00     0.011 OA 
HETATM   20  O   UNL     1      -7.651   5.199  62.400  1.00  0.00    -0.054 OA 
HETATM   21  C   UNL     1      -7.442   6.169  64.870  1.00  0.00    -0.083 A  
HETATM   22  O   UNL     1      -9.867   4.896  68.188  1.00  0.00    -0.152 OA 
HETATM   23  O   UNL     1      -5.483   5.148  63.528  1.00  0.00    -0.013 OA 
HETATM   24  O   UNL     1      -7.358   3.632  64.306  1.00  0.00    -0.064 OA 
HETATM   25  S   UNL     1      -6.885   4.897  63.778  1.00  0.00    -0.048 S  
HETATM   26  C   UNL     1      -6.738   7.345  65.086  1.00  0.00    -0.044 A  
ENDBRANCH  10  11
BRANCH  10  27
HETATM   27  C   UNL     1      -8.443   8.935  69.193  1.00  0.00    -0.132 A  
HETATM   28  C   UNL     1      -7.144   8.455  69.659  1.00  0.00    -0.052 A  
HETATM   29  C   UNL     1      -7.977   8.181  71.981  1.00  0.00    -0.124 A  
HETATM   30  C   UNL     1      -9.234   8.882  71.546  1.00  0.00    -0.322 A  
HETATM   31  C   UNL     1      -9.436   9.210  70.252  1.00  0.00    -0.253 A  
HETATM   32  C   UNL     1      -6.899   8.152  70.938  1.00  0.00    -0.042 A  
BRANCH  29  33
HETATM   33  N   UNL     1      -7.814   7.596  73.141  1.00  0.00    -0.102 NA 
BRANCH  33  34
HETATM   34  C   UNL     1      -6.639   6.706  73.494  1.00  0.00    -0.065 C  
HETATM   35  C   UNL     1      -6.627   5.418  72.696  1.00  0.00    -0.065 C  
ENDBRANCH  33  34
BRANCH  33  36
HETATM   36  C   UNL     1      -8.711   7.909  74.325  1.00  0.00    -0.132 C  
HETATM   37  C   UNL     1      -9.779   6.836  74.475  1.00  0.00    -0.270 C  
ENDBRANCH  33  36
ENDBRANCH  29  33
ENDBRANCH  10  27
ENDBRANCH   9  10
ENDBRANCH   3   4
BRANCH   3  38
HETATM   38  C   UNL     1     -12.663  13.994  65.543  1.00  0.00    -0.486 C  
HETATM   39  C   UNL     1     -12.195  13.722  64.118  1.00  0.00    -0.443 C  
ENDBRANCH   3  38
ENDBRANCH   2   3
TORSDOF 9
ENDMDL
MODEL       30
REMARK 921   NORMALIZED FREE ENERGY PREDICTED BY IDOCK:   -3.55 KCAL/MOL
REMARK 922        TOTAL FREE ENERGY PREDICTED BY IDOCK:   -7.73 KCAL/MOL
REMARK 923 INTER-LIGAND FREE ENERGY PREDICTED BY IDOCK:   -8.54 KCAL/MOL
REMARK 924 INTRA-LIGAND FREE ENERGY PREDICTED BY IDOCK:    0.81 KCAL/MOL
REMARK 927      BINDING AFFINITY PREDICTED BY RF-SCORE:    0.00 PKD
ROOT
HETATM    1  C   UNL     1      -7.727   4.705  73.935  1.00  0.00    -0.094 C  
HETATM    2  C   UNL     1      -8.790   5.768  73.667  1.00  0.00    -0.121 C  
ENDROOT
BRANCH   2   3
HETATM    3  N   UNL     1      -9.410   5.675  72.332  1.00  0.00    -0.144 NA 
BRANCH   3   4
HETATM    4  C   UNL     1      -9.722   6.863  71.656  1.00  0.00    -0.161 A  
HETATM    5  C   UNL     1      -8.819   7.931  71.551  1.00  0.00    -0.160 A  
HETATM    6  C   UNL     1     -10.950   7.035  70.997  1.00  0.00    -0.279 A  
HETATM    7  C   UNL     1      -9.088   9.067  70.760  1.00  0.00    -0.297 A  
HETATM    8  C   UNL     1     -11.229   8.169  70.202  1.00  0.00    -0.134 A  
HETATM    9  C   UNL     1     -10.287   9.186  70.041  1.00  0.00    -0.231 A  
BRANCH   9  10
HETATM   10  C   UNL     1     -10.513  10.361  69.122  1.00  0.00    -0.248 C  
BRANCH  10  11
HETATM   11  C   UNL     1     -11.099  11.653  69.679  1.00  0.00    -0.177 A  
HETATM   12  H   UNL     1     -13.826  11.431  72.546  1.00  0.00     0.000 HD 
HETATM   13  C   UNL     1     -10.787  12.983  69.314  1.00  0.00     0.003 A  
HETATM   14  O   UNL     1     -13.600  12.315  72.283  1.00  0.00    -0.472 OA 
HETATM   15  C   UNL     1     -11.448  14.087  69.899  1.00  0.00    -0.272 A  
HETATM   16  S   UNL     1      -9.554  13.494  68.143  1.00  0.00    -0.215 S  
HETATM   17  C   UNL     1     -12.110  11.507  70.657  1.00  0.00    -0.450 A  
HETATM   18  O   UNL     1      -8.888  12.336  67.593  1.00  0.00    -0.159 OA 
HETATM   19  O   UNL     1     -10.189  14.466  67.289  1.00  0.00    -0.250 OA 
HETATM   20  O   UNL     1     -14.269  15.770  70.828  1.00  0.00    -0.178 OA 
HETATM   21  C   UNL     1     -12.375  13.901  70.913  1.00  0.00    -0.377 A  
HETATM   22  O   UNL     1      -8.499  14.295  69.086  1.00  0.00    -0.017 OA 
HETATM   23  O   UNL     1     -13.535  14.904  72.993  1.00  0.00    -0.466 OA 
HETATM   24  O   UNL     1     -11.993  16.374  71.622  1.00  0.00    -0.424 OA 
HETATM   25  S   UNL     1     -13.006  15.340  71.721  1.00  0.00    -0.433 S  
HETATM   26  C   UNL     1     -12.704  12.610  71.297  1.00  0.00    -0.257 A  
ENDBRANCH  10  11
BRANCH  10  27
HETATM   27  C   UNL     1     -10.369  10.194  67.766  1.00  0.00    -0.253 A  
HETATM   28  C   UNL     1      -9.346   9.295  67.238  1.00  0.00    -0.161 A  
HETATM   29  C   UNL     1      -9.786  10.021  64.905  1.00  0.00    -0.281 A  
HETATM   30  C   UNL     1     -10.980  10.770  65.430  1.00  0.00     0.040 A  
HETATM   31  C   UNL     1     -11.225  10.849  66.755  1.00  0.00    -0.109 A  
HETATM   32  C   UNL     1      -9.099   9.167  65.929  1.00  0.00    -0.256 A  
BRANCH  29  33
HETATM   33  N   UNL     1      -9.328  10.113  63.682  1.00  0.00    -0.283 NA 
BRANCH  33  34
HETATM   34  C   UNL     1      -8.445   9.076  63.018  1.00  0.00    -0.190 C  
HETATM   35  C   UNL     1      -6.971   9.398  63.152  1.00  0.00    -0.098 C  
ENDBRANCH  33  34
BRANCH  33  36
HETATM   36  C   UNL     1      -9.799  11.202  62.733  1.00  0.00    -0.223 C  
HETATM   37  C   UNL     1     -10.172  12.454  63.512  1.00  0.00    -0.339 C  
ENDBRANCH  33  36
ENDBRANCH  29  33
ENDBRANCH  10  27
ENDBRANCH   9  10
ENDBRANCH   3   4
BRANCH   3  38
HETATM   38  C   UNL     1     -10.131   4.442  71.966  1.00  0.00    -0.186 C  
HETATM   39  C   UNL     1      -9.276   3.473  71.157  1.00  0.00    -0.192 C  
ENDBRANCH   3  38
ENDBRANCH   2   3
TORSDOF 9
ENDMDL
MODEL       31
REMARK 921   NORMALIZED FREE ENERGY PREDICTED BY IDOCK:   -3.53 KCAL/MOL
REMARK 922        TOTAL FREE ENERGY PREDICTED BY IDOCK:   -7.70 KCAL/MOL
REMARK 923 INTER-LIGAND FREE ENERGY PREDICTED BY IDOCK:   -5.53 KCAL/MOL
REMARK 924 INTRA-LIGAND FREE ENERGY PREDICTED BY IDOCK:   -2.17 KCAL/MOL
REMARK 927      BINDING AFFINITY PREDICTED BY RF-SCORE:    0.00 PKD
ROOT
HETATM    1  C   UNL     1      -7.381   4.244  73.378  1.00  0.00    -0.076 C  
HETATM    2  C   UNL     1      -8.425   5.357  73.425  1.00  0.00    -0.116 C  
ENDROOT
BRANCH   2   3
HETATM    3  N   UNL     1      -9.378   5.335  72.300  1.00  0.00    -0.141 NA 
BRANCH   3   4
HETATM    4  C   UNL     1      -9.306   6.358  71.343  1.00  0.00    -0.152 A  
HETATM    5  C   UNL     1      -8.291   7.326  71.348  1.00  0.00    -0.110 A  
HETATM    6  C   UNL     1     -10.226   6.444  70.286  1.00  0.00    -0.236 A  
HETATM    7  C   UNL     1      -8.148   8.269  70.309  1.00  0.00    -0.104 A  
HETATM    8  C   UNL     1     -10.091   7.385  69.241  1.00  0.00    -0.186 A  
HETATM    9  C   UNL     1      -9.027   8.288  69.217  1.00  0.00    -0.147 A  
BRANCH   9  10
HETATM   10  C   UNL     1      -8.798   9.238  68.068  1.00  0.00    -0.128 C  
BRANCH  10  11
HETATM   11  C   UNL     1      -9.136  10.716  68.232  1.00  0.00    -0.153 A  
HETATM   12  H   UNL     1     -12.939  11.826  68.134  1.00  0.00     0.000 HD 
HETATM   13  C   UNL     1      -8.249  11.798  68.438  1.00  0.00    -0.154 A  
HETATM   14  O   UNL     1     -12.323  12.537  68.270  1.00  0.00    -0.130 OA 
HETATM   15  C   UNL     1      -8.713  13.130  68.534  1.00  0.00    -0.049 A  
HETATM   16  S   UNL     1      -6.487  11.695  68.634  1.00  0.00    -0.064 S  
HETATM   17  C   UNL     1     -10.505  11.057  68.128  1.00  0.00    -0.216 A  
HETATM   18  O   UNL     1      -6.063  10.317  68.555  1.00  0.00    -0.044 OA 
HETATM   19  O   UNL     1      -5.926  12.700  67.766  1.00  0.00    -0.096 OA 
HETATM   20  O   UNL     1     -10.534  15.781  67.391  1.00  0.00    -0.283 OA 
HETATM   21  C   UNL     1     -10.070  13.410  68.508  1.00  0.00    -0.207 A  
HETATM   22  O   UNL     1      -6.284  12.209  70.163  1.00  0.00    -0.145 OA 
HETATM   23  O   UNL     1     -11.961  15.020  69.225  1.00  0.00    -0.307 OA 
HETATM   24  O   UNL     1      -9.555  15.677  69.673  1.00  0.00    -0.277 OA 
HETATM   25  S   UNL     1     -10.570  15.073  68.832  1.00  0.00    -0.251 S  
HETATM   26  C   UNL     1     -10.969  12.372  68.310  1.00  0.00    -0.236 A  
ENDBRANCH  10  11
BRANCH  10  27
HETATM   27  C   UNL     1      -8.470   8.737  66.833  1.00  0.00    -0.112 A  
HETATM   28  C   UNL     1      -7.513   7.639  66.713  1.00  0.00    -0.093 A  
HETATM   29  C   UNL     1      -7.478   7.821  64.237  1.00  0.00    -0.100 A  
HETATM   30  C   UNL     1      -8.622   8.790  64.356  1.00  0.00    -0.110 A  
HETATM   31  C   UNL     1      -9.057   9.210  65.563  1.00  0.00    -0.275 A  
HETATM   32  C   UNL     1      -7.085   7.176  65.533  1.00  0.00    -0.064 A  
BRANCH  29  33
HETATM   33  N   UNL     1      -6.827   7.569  63.130  1.00  0.00    -0.065 NA 
BRANCH  33  34
HETATM   34  C   UNL     1      -6.845   6.236  62.410  1.00  0.00    -0.038 C  
HETATM   35  C   UNL     1      -5.721   5.322  62.853  1.00  0.00    -0.014 C  
ENDBRANCH  33  34
BRANCH  33  36
HETATM   36  C   UNL     1      -6.125   8.667  62.350  1.00  0.00    -0.092 C  
HETATM   37  C   UNL     1      -5.255   9.500  63.278  1.00  0.00    -0.070 C  
ENDBRANCH  33  36
ENDBRANCH  29  33
ENDBRANCH  10  27
ENDBRANCH   9  10
ENDBRANCH   3   4
BRANCH   3  38
HETATM   38  C   UNL     1     -10.647   4.600  72.457  1.00  0.00    -0.179 C  
HETATM   39  C   UNL     1     -10.697   3.773  73.736  1.00  0.00    -0.308 C  
ENDBRANCH   3  38
ENDBRANCH   2   3
TORSDOF 9
ENDMDL
MODEL       32
REMARK 921   NORMALIZED FREE ENERGY PREDICTED BY IDOCK:   -3.52 KCAL/MOL
REMARK 922        TOTAL FREE ENERGY PREDICTED BY IDOCK:   -7.68 KCAL/MOL
REMARK 923 INTER-LIGAND FREE ENERGY PREDICTED BY IDOCK:   -7.99 KCAL/MOL
REMARK 924 INTRA-LIGAND FREE ENERGY PREDICTED BY IDOCK:    0.31 KCAL/MOL
REMARK 927      BINDING AFFINITY PREDICTED BY RF-SCORE:    0.00 PKD
ROOT
HETATM    1  C   UNL     1      -8.736   7.384  65.844  1.00  0.00    -0.161 C  
HETATM    2  C   UNL     1      -7.963   7.627  64.550  1.00  0.00    -0.130 C  
ENDROOT
BRANCH   2   3
HETATM    3  N   UNL     1      -7.949   9.035  64.113  1.00  0.00    -0.136 NA 
BRANCH   3   4
HETATM    4  C   UNL     1      -8.449  10.011  64.988  1.00  0.00    -0.160 A  
HETATM    5  C   UNL     1      -7.697  10.524  66.055  1.00  0.00    -0.147 A  
HETATM    6  C   UNL     1      -9.725  10.571  64.815  1.00  0.00    -0.365 A  
HETATM    7  C   UNL     1      -8.154  11.597  66.848  1.00  0.00    -0.164 A  
HETATM    8  C   UNL     1     -10.191  11.646  65.604  1.00  0.00    -0.284 A  
HETATM    9  C   UNL     1      -9.397  12.200  66.609  1.00  0.00    -0.226 A  
BRANCH   9  10
HETATM   10  C   UNL     1      -9.824  13.410  67.403  1.00  0.00    -0.227 C  
BRANCH  10  11
HETATM   11  C   UNL     1      -9.056  14.719  67.254  1.00  0.00    -0.214 A  
HETATM   12  H   UNL     1     -10.755  17.718  65.298  1.00  0.00     0.000 HD 
HETATM   13  C   UNL     1      -7.770  15.038  67.748  1.00  0.00    -0.153 A  
HETATM   14  O   UNL     1      -9.889  17.908  65.639  1.00  0.00    -0.512 OA 
HETATM   15  C   UNL     1      -7.169  16.293  67.495  1.00  0.00    -0.179 A  
HETATM   16  S   UNL     1      -6.736  13.999  68.750  1.00  0.00    -0.107 S  
HETATM   17  C   UNL     1      -9.690  15.730  66.495  1.00  0.00    -0.285 A  
HETATM   18  O   UNL     1      -7.401  12.742  69.004  1.00  0.00    -0.057 OA 
HETATM   19  O   UNL     1      -5.424  14.042  68.153  1.00  0.00    -0.105 OA 
HETATM   20  O   UNL     1      -6.196  18.805  65.399  1.00  0.00    -0.237 OA 
HETATM   21  C   UNL     1      -7.859  17.284  66.816  1.00  0.00    -0.243 A  
HETATM   22  O   UNL     1      -6.662  14.833  70.143  1.00  0.00    -0.182 OA 
HETATM   23  O   UNL     1      -8.172  19.819  66.422  1.00  0.00    -0.317 OA 
HETATM   24  O   UNL     1      -6.250  19.033  67.873  1.00  0.00    -0.204 OA 
HETATM   25  S   UNL     1      -7.111  18.882  66.716  1.00  0.00    -0.214 S  
HETATM   26  C   UNL     1      -9.124  17.006  66.319  1.00  0.00    -0.246 A  
ENDBRANCH  10  11
BRANCH  10  27
HETATM   27  C   UNL     1     -10.771  13.272  68.387  1.00  0.00    -0.273 A  
HETATM   28  C   UNL     1     -11.210  14.434  69.156  1.00  0.00    -0.300 A  
HETATM   29  C   UNL     1     -12.542  13.021  70.702  1.00  0.00    -0.193 A  
HETATM   30  C   UNL     1     -12.269  11.865  69.779  1.00  0.00    -0.241 A  
HETATM   31  C   UNL     1     -11.439  11.998  68.723  1.00  0.00    -0.355 A  
HETATM   32  C   UNL     1     -12.057  14.344  70.187  1.00  0.00    -0.397 A  
BRANCH  29  33
HETATM   33  N   UNL     1     -13.108  12.917  71.878  1.00  0.00    -0.395 NA 
BRANCH  33  34
HETATM   34  C   UNL     1     -13.329  14.077  72.828  1.00  0.00    -0.500 C  
HETATM   35  C   UNL     1     -14.380  15.046  72.324  1.00  0.00    -0.540 C  
ENDBRANCH  33  34
BRANCH  33  36
HETATM   36  C   UNL     1     -13.773  11.629  72.333  1.00  0.00     0.400 C  
HETATM   37  C   UNL     1     -12.755  10.501  72.388  1.00  0.00     0.335 C  
ENDBRANCH  33  36
ENDBRANCH  29  33
ENDBRANCH  10  27
ENDBRANCH   9  10
ENDBRANCH   3   4
BRANCH   3  38
HETATM   38  C   UNL     1      -7.910   9.332  62.669  1.00  0.00    -0.122 C  
HETATM   39  C   UNL     1      -7.593  10.793  62.373  1.00  0.00    -0.153 C  
ENDBRANCH   3  38
ENDBRANCH   2   3
TORSDOF 9
ENDMDL
MODEL       33
REMARK 921   NORMALIZED FREE ENERGY PREDICTED BY IDOCK:   -3.44 KCAL/MOL
REMARK 922        TOTAL FREE ENERGY PREDICTED BY IDOCK:   -7.56 KCAL/MOL
REMARK 923 INTER-LIGAND FREE ENERGY PREDICTED BY IDOCK:   -5.85 KCAL/MOL
REMARK 924 INTRA-LIGAND FREE ENERGY PREDICTED BY IDOCK:   -1.71 KCAL/MOL
REMARK 927      BINDING AFFINITY PREDICTED BY RF-SCORE:    0.00 PKD
ROOT
HETATM    1  C   UNL     1      -5.411  17.370  71.563  1.00  0.00     0.246 C  
HETATM    2  C   UNL     1      -5.335  17.137  70.056  1.00  0.00    -0.214 C  
ENDROOT
BRANCH   2   3
HETATM    3  N   UNL     1      -6.645  16.932  69.412  1.00  0.00    -0.232 NA 
BRANCH   3   4
HETATM    4  C   UNL     1      -7.109  15.619  69.244  1.00  0.00    -0.189 A  
HETATM    5  C   UNL     1      -8.391  15.328  68.756  1.00  0.00    -0.179 A  
HETATM    6  C   UNL     1      -6.291  14.510  69.511  1.00  0.00    -0.128 A  
HETATM    7  C   UNL     1      -8.802  14.011  68.465  1.00  0.00    -0.160 A  
HETATM    8  C   UNL     1      -6.693  13.187  69.222  1.00  0.00    -0.061 A  
HETATM    9  C   UNL     1      -7.942  12.920  68.659  1.00  0.00    -0.024 A  
BRANCH   9  10
HETATM   10  C   UNL     1      -8.365  11.532  68.247  1.00  0.00    -0.154 C  
BRANCH  10  11
HETATM   11  C   UNL     1      -9.038  10.615  69.263  1.00  0.00    -0.117 A  
HETATM   12  H   UNL     1      -6.786   8.149  71.396  1.00  0.00     0.000 HD 
HETATM   13  C   UNL     1     -10.413  10.523  69.580  1.00  0.00    -0.219 A  
HETATM   14  O   UNL     1      -7.715   8.104  71.590  1.00  0.00    -0.077 OA 
HETATM   15  C   UNL     1     -10.895   9.590  70.526  1.00  0.00    -0.352 A  
HETATM   16  S   UNL     1     -11.719  11.525  68.913  1.00  0.00    -0.352 S  
HETATM   17  C   UNL     1      -8.189   9.717  69.950  1.00  0.00    -0.184 A  
HETATM   18  O   UNL     1     -11.177  12.478  67.974  1.00  0.00    -0.236 OA 
HETATM   19  O   UNL     1     -12.769  10.613  68.530  1.00  0.00     0.433 OA 
HETATM   20  O   UNL     1     -11.130   6.433  71.802  1.00  0.00    -0.243 OA 
HETATM   21  C   UNL     1     -10.019   8.785  71.235  1.00  0.00    -0.263 A  
HETATM   22  O   UNL     1     -12.235  12.332  70.227  1.00  0.00    -0.319 OA 
HETATM   23  O   UNL     1      -9.584   7.445  73.403  1.00  0.00    -0.199 OA 
HETATM   24  O   UNL     1     -11.874   8.462  73.029  1.00  0.00    -0.231 OA 
HETATM   25  S   UNL     1     -10.687   7.791  72.535  1.00  0.00    -0.344 S  
HETATM   26  C   UNL     1      -8.663   8.850  70.952  1.00  0.00    -0.210 A  
ENDBRANCH  10  11
BRANCH  10  27
HETATM   27  C   UNL     1      -7.970  11.040  67.028  1.00  0.00    -0.137 A  
HETATM   28  C   UNL     1      -8.951  10.829  65.965  1.00  0.00    -0.196 A  
HETATM   29  C   UNL     1      -7.275   9.707  64.518  1.00  0.00    -0.121 A  
HETATM   30  C   UNL     1      -6.228  10.125  65.514  1.00  0.00    -0.101 A  
HETATM   31  C   UNL     1      -6.570  10.728  66.672  1.00  0.00    -0.112 A  
HETATM   32  C   UNL     1      -8.640  10.265  64.793  1.00  0.00    -0.193 A  
BRANCH  29  33
HETATM   33  N   UNL     1      -7.064   8.894  63.514  1.00  0.00    -0.089 NA 
BRANCH  33  34
HETATM   34  C   UNL     1      -6.092   9.164  62.382  1.00  0.00    -0.094 C  
HETATM   35  C   UNL     1      -5.560  10.583  62.402  1.00  0.00    -0.136 C  
ENDBRANCH  33  34
BRANCH  33  36
HETATM   36  C   UNL     1      -7.651   7.494  63.484  1.00  0.00    -0.118 C  
HETATM   37  C   UNL     1      -6.861   6.572  64.399  1.00  0.00    -0.042 C  
ENDBRANCH  33  36
ENDBRANCH  29  33
ENDBRANCH  10  27
ENDBRANCH   9  10
ENDBRANCH   3   4
BRANCH   3  38
HETATM   38  C   UNL     1      -7.181  17.991  68.536  1.00  0.00    -0.263 C  
HETATM   39  C   UNL     1      -6.206  19.146  68.339  1.00  0.00    -0.247 C  
ENDBRANCH   3  38
ENDBRANCH   2   3
TORSDOF 9
ENDMDL
MODEL       34
REMARK 921   NORMALIZED FREE ENERGY PREDICTED BY IDOCK:   -3.39 KCAL/MOL
REMARK 922        TOTAL FREE ENERGY PREDICTED BY IDOCK:   -7.49 KCAL/MOL
REMARK 923 INTER-LIGAND FREE ENERGY PREDICTED BY IDOCK:   -5.52 KCAL/MOL
REMARK 924 INTRA-LIGAND FREE ENERGY PREDICTED BY IDOCK:   -1.97 KCAL/MOL
REMARK 927      BINDING AFFINITY PREDICTED BY RF-SCORE:    0.00 PKD
ROOT
HETATM    1  C   UNL     1     -10.894   4.426  73.565  1.00  0.00    -0.358 C  
HETATM    2  C   UNL     1      -9.661   5.106  74.155  1.00  0.00    -0.155 C  
ENDROOT
BRANCH   2   3
HETATM    3  N   UNL     1      -8.507   5.160  73.238  1.00  0.00    -0.113 NA 
BRANCH   3   4
HETATM    4  C   UNL     1      -8.604   5.959  72.090  1.00  0.00    -0.129 A  
HETATM    5  C   UNL     1      -8.245   7.315  72.081  1.00  0.00    -0.109 A  
HETATM    6  C   UNL     1      -9.023   5.431  70.858  1.00  0.00    -0.156 A  
HETATM    7  C   UNL     1      -8.218   8.077  70.895  1.00  0.00    -0.103 A  
HETATM    8  C   UNL     1      -8.999   6.186  69.665  1.00  0.00    -0.134 A  
HETATM    9  C   UNL     1      -8.561   7.511  69.658  1.00  0.00    -0.136 A  
BRANCH   9  10
HETATM   10  C   UNL     1      -8.429   8.314  68.388  1.00  0.00    -0.129 C  
BRANCH  10  11
HETATM   11  C   UNL     1      -8.954   9.745  68.342  1.00  0.00    -0.123 A  
HETATM   12  H   UNL     1     -12.870  10.346  68.448  1.00  0.00     0.000 HD 
HETATM   13  C   UNL     1      -8.211  10.946  68.278  1.00  0.00    -0.127 A  
HETATM   14  O   UNL     1     -12.349  11.139  68.404  1.00  0.00    -0.556 OA 
HETATM   15  C   UNL     1      -8.846  12.207  68.203  1.00  0.00    -0.187 A  
HETATM   16  S   UNL     1      -6.443  11.096  68.311  1.00  0.00    -0.058 S  
HETATM   17  C   UNL     1     -10.361   9.891  68.323  1.00  0.00    -0.232 A  
HETATM   18  O   UNL     1      -5.840   9.788  68.415  1.00  0.00    -0.043 OA 
HETATM   19  O   UNL     1      -6.096  11.995  67.238  1.00  0.00    -0.117 OA 
HETATM   20  O   UNL     1     -11.100  14.375  66.833  1.00  0.00    -0.307 OA 
HETATM   21  C   UNL     1     -10.227  12.310  68.269  1.00  0.00    -0.220 A  
HETATM   22  O   UNL     1      -6.193  11.891  69.707  1.00  0.00    -0.120 OA 
HETATM   23  O   UNL     1     -12.259  13.776  68.901  1.00  0.00    -0.344 OA 
HETATM   24  O   UNL     1      -9.939  14.792  68.991  1.00  0.00    -0.228 OA 
HETATM   25  S   UNL     1     -10.925  13.930  68.366  1.00  0.00    -0.264 S  
HETATM   26  C   UNL     1     -10.987  11.151  68.334  1.00  0.00    -0.227 A  
ENDBRANCH  10  11
BRANCH  10  27
HETATM   27  C   UNL     1      -8.016   7.692  67.236  1.00  0.00    -0.118 A  
HETATM   28  C   UNL     1      -6.793   6.891  67.228  1.00  0.00    -0.072 A  
HETATM   29  C   UNL     1      -6.895   6.597  64.765  1.00  0.00    -0.050 A  
HETATM   30  C   UNL     1      -8.260   7.225  64.810  1.00  0.00    -0.055 A  
HETATM   31  C   UNL     1      -8.755   7.736  65.958  1.00  0.00    -0.184 A  
HETATM   32  C   UNL     1      -6.293   6.343  66.116  1.00  0.00    -0.042 A  
BRANCH  29  33
HETATM   33  N   UNL     1      -6.237   6.322  63.667  1.00  0.00    -0.026 NA 
BRANCH  33  34
HETATM   34  C   UNL     1      -5.311   7.291  62.959  1.00  0.00    -0.034 C  
HETATM   35  C   UNL     1      -5.305   8.663  63.602  1.00  0.00    -0.062 C  
ENDBRANCH  33  34
BRANCH  33  36
HETATM   36  C   UNL     1      -6.197   4.918  63.091  1.00  0.00    -0.022 C  
HETATM   37  C   UNL     1      -7.397   4.117  63.573  1.00  0.00    -0.051 C  
ENDBRANCH  33  36
ENDBRANCH  29  33
ENDBRANCH  10  27
ENDBRANCH   9  10
ENDBRANCH   3   4
BRANCH   3  38
HETATM   38  C   UNL     1      -7.537   4.050  73.250  1.00  0.00    -0.079 C  
HETATM   39  C   UNL     1      -6.327   4.330  74.134  1.00  0.00    -0.046 C  
ENDBRANCH   3  38
ENDBRANCH   2   3
TORSDOF 9
ENDMDL
MODEL       35
REMARK 921   NORMALIZED FREE ENERGY PREDICTED BY IDOCK:   -3.38 KCAL/MOL
REMARK 922        TOTAL FREE ENERGY PREDICTED BY IDOCK:   -7.47 KCAL/MOL
REMARK 923 INTER-LIGAND FREE ENERGY PREDICTED BY IDOCK:   -6.56 KCAL/MOL
REMARK 924 INTRA-LIGAND FREE ENERGY PREDICTED BY IDOCK:   -0.91 KCAL/MOL
REMARK 927      BINDING AFFINITY PREDICTED BY RF-SCORE:    0.00 PKD
ROOT
HETATM    1  C   UNL     1      -5.651  17.828  70.540  1.00  0.00    -0.179 C  
HETATM    2  C   UNL     1      -6.080  17.328  69.163  1.00  0.00    -0.217 C  
ENDROOT
BRANCH   2   3
HETATM    3  N   UNL     1      -7.525  17.055  69.045  1.00  0.00    -0.235 NA 
BRANCH   3   4
HETATM    4  C   UNL     1      -7.944  15.724  68.907  1.00  0.00    -0.197 A  
HETATM    5  C   UNL     1      -9.287  15.371  68.715  1.00  0.00    -0.209 A  
HETATM    6  C   UNL     1      -7.027  14.660  68.904  1.00  0.00    -0.112 A  
HETATM    7  C   UNL     1      -9.684  14.045  68.445  1.00  0.00    -0.223 A  
HETATM    8  C   UNL     1      -7.415  13.329  68.633  1.00  0.00    -0.099 A  
HETATM    9  C   UNL     1      -8.746  13.007  68.363  1.00  0.00    -0.115 A  
BRANCH   9  10
HETATM   10  C   UNL     1      -9.178  11.615  67.973  1.00  0.00    -0.178 C  
BRANCH  10  11
HETATM   11  C   UNL     1      -9.934  10.751  68.977  1.00  0.00    -0.214 A  
HETATM   12  H   UNL     1     -13.885  11.019  69.132  1.00  0.00     0.000 HD 
HETATM   13  C   UNL     1      -9.407   9.814  69.895  1.00  0.00    -0.231 A  
HETATM   14  O   UNL     1     -13.507  10.396  69.741  1.00  0.00     0.210 OA 
HETATM   15  C   UNL     1     -10.238   9.111  70.797  1.00  0.00    -0.325 A  
HETATM   16  S   UNL     1      -7.702   9.344  70.061  1.00  0.00    -0.142 S  
HETATM   17  C   UNL     1     -11.336  10.935  69.026  1.00  0.00    -0.348 A  
HETATM   18  O   UNL     1      -6.898  10.067  69.104  1.00  0.00    -0.052 OA 
HETATM   19  O   UNL     1      -7.408   9.391  71.472  1.00  0.00    -0.334 OA 
HETATM   20  O   UNL     1     -12.679   8.983  73.179  1.00  0.00    -0.062 OA 
HETATM   21  C   UNL     1     -11.614   9.262  70.755  1.00  0.00    -0.285 A  
HETATM   22  O   UNL     1      -7.737   7.778  69.626  1.00  0.00    -0.097 OA 
HETATM   23  O   UNL     1     -13.922   8.197  71.226  1.00  0.00    -0.280 OA 
HETATM   24  O   UNL     1     -11.833   6.978  71.980  1.00  0.00    -0.282 OA 
HETATM   25  S   UNL     1     -12.587   8.201  71.780  1.00  0.00    -0.340 S  
HETATM   26  C   UNL     1     -12.167  10.171  69.866  1.00  0.00     0.018 A  
ENDBRANCH  10  11
BRANCH  10  27
HETATM   27  C   UNL     1      -8.725  11.071  66.797  1.00  0.00    -0.152 A  
HETATM   28  C   UNL     1      -9.671  10.597  65.790  1.00  0.00    -0.272 A  
HETATM   29  C   UNL     1      -7.854   9.618  64.412  1.00  0.00    -0.129 A  
HETATM   30  C   UNL     1      -6.877  10.299  65.330  1.00  0.00    -0.131 A  
HETATM   31  C   UNL     1      -7.298  10.955  66.433  1.00  0.00    -0.141 A  
HETATM   32  C   UNL     1      -9.288   9.973  64.671  1.00  0.00    -0.338 A  
BRANCH  29  33
HETATM   33  N   UNL     1      -7.526   8.752  63.487  1.00  0.00    -0.104 NA 
BRANCH  33  34
HETATM   34  C   UNL     1      -8.199   7.407  63.295  1.00  0.00     0.060 C  
HETATM   35  C   UNL     1      -7.906   6.446  64.429  1.00  0.00    -0.115 C  
ENDBRANCH  33  34
BRANCH  33  36
HETATM   36  C   UNL     1      -6.543   9.098  62.382  1.00  0.00    -0.093 C  
HETATM   37  C   UNL     1      -5.229   9.577  62.977  1.00  0.00    -0.074 C  
ENDBRANCH  33  36
ENDBRANCH  29  33
ENDBRANCH  10  27
ENDBRANCH   9  10
ENDBRANCH   3   4
BRANCH   3  38
HETATM   38  C   UNL     1      -8.416  18.131  68.574  1.00  0.00    -0.299 C  
HETATM   39  C   UNL     1      -8.143  18.536  67.130  1.00  0.00    -0.248 C  
ENDBRANCH   3  38
ENDBRANCH   2   3
TORSDOF 9
ENDMDL
MODEL       36
REMARK 921   NORMALIZED FREE ENERGY PREDICTED BY IDOCK:   -3.32 KCAL/MOL
REMARK 922        TOTAL FREE ENERGY PREDICTED BY IDOCK:   -7.37 KCAL/MOL
REMARK 923 INTER-LIGAND FREE ENERGY PREDICTED BY IDOCK:   -6.57 KCAL/MOL
REMARK 924 INTRA-LIGAND FREE ENERGY PREDICTED BY IDOCK:   -0.80 KCAL/MOL
REMARK 927      BINDING AFFINITY PREDICTED BY RF-SCORE:    0.00 PKD
ROOT
HETATM    1  C   UNL     1      -8.149   5.825  74.010  1.00  0.00    -0.109 C  
HETATM    2  C   UNL     1      -9.282   6.769  73.616  1.00  0.00    -0.155 C  
ENDROOT
BRANCH   2   3
HETATM    3  N   UNL     1      -9.996   6.372  72.388  1.00  0.00    -0.171 NA 
BRANCH   3   4
HETATM    4  C   UNL     1      -9.756   7.098  71.212  1.00  0.00    -0.170 A  
HETATM    5  C   UNL     1      -8.475   7.238  70.659  1.00  0.00    -0.140 A  
HETATM    6  C   UNL     1     -10.803   7.690  70.486  1.00  0.00    -0.249 A  
HETATM    7  C   UNL     1      -8.260   7.855  69.409  1.00  0.00    -0.130 A  
HETATM    8  C   UNL     1     -10.597   8.309  69.232  1.00  0.00    -0.191 A  
HETATM    9  C   UNL     1      -9.327   8.368  68.657  1.00  0.00    -0.143 A  
BRANCH   9  10
HETATM   10  C   UNL     1      -9.088   8.932  67.279  1.00  0.00    -0.153 C  
BRANCH  10  11
HETATM   11  C   UNL     1      -9.352  10.410  67.013  1.00  0.00    -0.176 A  
HETATM   12  H   UNL     1     -13.008  11.542  65.985  1.00  0.00     0.000 HD 
HETATM   13  C   UNL     1      -8.441  11.489  67.096  1.00  0.00    -0.158 A  
HETATM   14  O   UNL     1     -12.377  12.250  66.047  1.00  0.00    -0.609 OA 
HETATM   15  C   UNL     1      -8.827  12.811  66.780  1.00  0.00    -0.161 A  
HETATM   16  S   UNL     1      -6.745  11.400  67.616  1.00  0.00    -0.082 S  
HETATM   17  C   UNL     1     -10.660  10.743  66.592  1.00  0.00    -0.291 A  
HETATM   18  O   UNL     1      -6.405  10.038  67.953  1.00  0.00    -0.057 OA 
HETATM   19  O   UNL     1      -5.987  12.140  66.637  1.00  0.00    -0.226 OA 
HETATM   20  O   UNL     1     -10.262  15.126  64.721  1.00  0.00    -0.288 OA 
HETATM   21  C   UNL     1     -10.141  13.105  66.451  1.00  0.00    -0.281 A  
HETATM   22  O   UNL     1      -6.761  12.281  68.982  1.00  0.00    -0.096 OA 
HETATM   23  O   UNL     1     -12.014  14.886  66.410  1.00  0.00    -0.228 OA 
HETATM   24  O   UNL     1      -9.675  15.582  67.093  1.00  0.00    -0.219 OA 
HETATM   25  S   UNL     1     -10.578  14.807  66.263  1.00  0.00    -0.316 S  
HETATM   26  C   UNL     1     -11.061  12.072  66.360  1.00  0.00    -0.318 A  
ENDBRANCH  10  11
BRANCH  10  27
HETATM   27  C   UNL     1      -8.822   8.078  66.237  1.00  0.00    -0.191 A  
HETATM   28  C   UNL     1      -9.310   6.702  66.268  1.00  0.00    -0.144 A  
HETATM   29  C   UNL     1      -8.039   6.109  64.220  1.00  0.00    -0.093 A  
HETATM   30  C   UNL     1      -7.723   7.571  64.069  1.00  0.00    -0.125 A  
HETATM   31  C   UNL     1      -8.082   8.463  65.017  1.00  0.00    -0.147 A  
HETATM   32  C   UNL     1      -9.001   5.801  65.329  1.00  0.00    -0.001 A  
BRANCH  29  33
HETATM   33  N   UNL     1      -7.507   5.154  63.499  1.00  0.00    -0.051 NA 
BRANCH  33  34
HETATM   34  C   UNL     1      -6.018   4.906  63.370  1.00  0.00    -0.018 C  
HETATM   35  C   UNL     1      -5.345   5.888  62.433  1.00  0.00    -0.017 C  
ENDBRANCH  33  34
BRANCH  33  36
HETATM   36  C   UNL     1      -8.358   4.071  62.858  1.00  0.00    -0.084 C  
HETATM   37  C   UNL     1      -7.849   2.695  63.258  1.00  0.00    -0.068 C  
ENDBRANCH  33  36
ENDBRANCH  29  33
ENDBRANCH  10  27
ENDBRANCH   9  10
ENDBRANCH   3   4
BRANCH   3  38
HETATM   38  C   UNL     1     -11.257   5.618  72.511  1.00  0.00    -0.293 C  
HETATM   39  C   UNL     1     -12.449   6.356  71.914  1.00  0.00    -0.219 C  
ENDBRANCH   3  38
ENDBRANCH   2   3
TORSDOF 9
ENDMDL
MODEL       37
REMARK 921   NORMALIZED FREE ENERGY PREDICTED BY IDOCK:   -3.06 KCAL/MOL
REMARK 922        TOTAL FREE ENERGY PREDICTED BY IDOCK:   -6.99 KCAL/MOL
REMARK 923 INTER-LIGAND FREE ENERGY PREDICTED BY IDOCK:   -7.19 KCAL/MOL
REMARK 924 INTRA-LIGAND FREE ENERGY PREDICTED BY IDOCK:    0.20 KCAL/MOL
REMARK 927      BINDING AFFINITY PREDICTED BY RF-SCORE:    0.00 PKD
ROOT
HETATM    1  C   UNL     1      -7.018   7.342  62.591  1.00  0.00    -0.071 C  
HETATM    2  C   UNL     1      -8.403   7.967  62.738  1.00  0.00    -0.052 C  
ENDROOT
BRANCH   2   3
HETATM    3  N   UNL     1      -8.424   9.203  63.542  1.00  0.00    -0.197 NA 
BRANCH   3   4
HETATM    4  C   UNL     1      -8.917   9.139  64.854  1.00  0.00    -0.151 A  
HETATM    5  C   UNL     1      -8.300   8.378  65.857  1.00  0.00    -0.137 A  
HETATM    6  C   UNL     1     -10.042   9.879  65.253  1.00  0.00    -0.227 A  
HETATM    7  C   UNL     1      -8.723   8.423  67.201  1.00  0.00    -0.131 A  
HETATM    8  C   UNL     1     -10.473   9.931  66.598  1.00  0.00    -0.239 A  
HETATM    9  C   UNL     1      -9.797   9.232  67.599  1.00  0.00    -0.221 A  
BRANCH   9  10
HETATM   10  C   UNL     1     -10.170   9.344  69.057  1.00  0.00    -0.216 C  
BRANCH  10  11
HETATM   11  C   UNL     1     -10.862  10.604  69.564  1.00  0.00    -0.303 A  
HETATM   12  H   UNL     1      -9.715  14.119  68.138  1.00  0.00     0.000 HD 
HETATM   13  C   UNL     1     -11.914  10.705  70.505  1.00  0.00    -0.352 A  
HETATM   14  O   UNL     1     -10.420  14.161  68.773  1.00  0.00    -0.244 OA 
HETATM   15  C   UNL     1     -12.431  11.957  70.907  1.00  0.00    -0.397 A  
HETATM   16  S   UNL     1     -12.759   9.356  71.291  1.00  0.00    -0.293 S  
HETATM   17  C   UNL     1     -10.368  11.830  69.063  1.00  0.00    -0.087 A  
HETATM   18  O   UNL     1     -12.215   8.099  70.830  1.00  0.00    -0.233 OA 
HETATM   19  O   UNL     1     -12.809   9.677  72.696  1.00  0.00    -0.212 OA 
HETATM   20  O   UNL     1     -12.056  15.146  72.067  1.00  0.00    -0.330 OA 
HETATM   21  C   UNL     1     -11.973  13.131  70.329  1.00  0.00    -0.292 A  
HETATM   22  O   UNL     1     -14.267   9.510  70.705  1.00  0.00     0.085 OA 
HETATM   23  O   UNL     1     -12.500  15.582  69.703  1.00  0.00    -0.270 OA 
HETATM   24  O   UNL     1     -14.174  14.285  71.094  1.00  0.00    -0.208 OA 
HETATM   25  S   UNL     1     -12.809  14.630  70.746  1.00  0.00    -0.349 S  
HETATM   26  C   UNL     1     -10.943  13.069  69.402  1.00  0.00     0.011 A  
ENDBRANCH  10  11
BRANCH  10  27
HETATM   27  C   UNL     1      -9.715   8.400  69.944  1.00  0.00    -0.179 A  
HETATM   28  C   UNL     1      -9.627   6.996  69.547  1.00  0.00    -0.153 A  
HETATM   29  C   UNL     1      -9.060   6.285  71.857  1.00  0.00    -0.143 A  
HETATM   30  C   UNL     1      -8.932   7.742  72.206  1.00  0.00    -0.194 A  
HETATM   31  C   UNL     1      -9.251   8.703  71.314  1.00  0.00    -0.283 A  
HETATM   32  C   UNL     1      -9.282   6.023  70.397  1.00  0.00    -0.167 A  
BRANCH  29  33
HETATM   33  N   UNL     1      -9.031   5.306  72.725  1.00  0.00    -0.122 NA 
BRANCH  33  34
HETATM   34  C   UNL     1      -7.763   4.686  73.275  1.00  0.00    -0.088 C  
HETATM   35  C   UNL     1      -7.000   5.631  74.181  1.00  0.00    -0.081 C  
ENDBRANCH  33  34
BRANCH  33  36
HETATM   36  C   UNL     1     -10.292   4.814  73.415  1.00  0.00    -0.190 C  
HETATM   37  C   UNL     1     -10.324   3.293  73.432  1.00  0.00    -0.241 C  
ENDBRANCH  33  36
ENDBRANCH  29  33
ENDBRANCH  10  27
ENDBRANCH   9  10
ENDBRANCH   3   4
BRANCH   3  38
HETATM   38  C   UNL     1      -8.424  10.504  62.848  1.00  0.00    -0.186 C  
HETATM   39  C   UNL     1      -7.045  10.901  62.334  1.00  0.00    -0.048 C  
ENDBRANCH   3  38
ENDBRANCH   2   3
TORSDOF 9
ENDMDL
MODEL       38
REMARK 921   NORMALIZED FREE ENERGY PREDICTED BY IDOCK:   -3.05 KCAL/MOL
REMARK 922        TOTAL FREE ENERGY PREDICTED BY IDOCK:   -6.97 KCAL/MOL
REMARK 923 INTER-LIGAND FREE ENERGY PREDICTED BY IDOCK:   -8.33 KCAL/MOL
REMARK 924 INTRA-LIGAND FREE ENERGY PREDICTED BY IDOCK:    1.36 KCAL/MOL
REMARK 927      BINDING AFFINITY PREDICTED BY RF-SCORE:    0.00 PKD
ROOT
HETATM    1  C   UNL     1      -7.184   8.785  62.860  1.00  0.00    -0.093 C  
HETATM    2  C   UNL     1      -8.694   9.006  62.825  1.00  0.00    -0.154 C  
ENDROOT
BRANCH   2   3
HETATM    3  N   UNL     1      -9.140  10.226  63.522  1.00  0.00    -0.239 NA 
BRANCH   3   4
HETATM    4  C   UNL     1      -9.508  10.127  64.872  1.00  0.00    -0.289 A  
HETATM    5  C   UNL     1      -8.668   9.566  65.845  1.00  0.00    -0.168 A  
HETATM    6  C   UNL     1     -10.731  10.633  65.341  1.00  0.00    -0.106 A  
HETATM    7  C   UNL     1      -8.988   9.589  67.218  1.00  0.00    -0.143 A  
HETATM    8  C   UNL     1     -11.061  10.662  66.714  1.00  0.00    -0.103 A  
HETATM    9  C   UNL     1     -10.177  10.173  67.678  1.00  0.00    -0.246 A  
BRANCH   9  10
HETATM   10  C   UNL     1     -10.454  10.278  69.157  1.00  0.00    -0.246 C  
BRANCH  10  11
HETATM   11  C   UNL     1     -11.086  11.547  69.719  1.00  0.00    -0.156 A  
HETATM   12  H   UNL     1     -14.007  11.211  72.375  1.00  0.00     0.000 HD 
HETATM   13  C   UNL     1     -10.756  12.891  69.425  1.00  0.00     0.196 A  
HETATM   14  O   UNL     1     -13.769  12.105  72.161  1.00  0.00    -0.345 OA 
HETATM   15  C   UNL     1     -11.464  13.970  70.002  1.00  0.00    -0.235 A  
HETATM   16  S   UNL     1      -9.447  13.448  68.364  1.00  0.00    -0.131 S  
HETATM   17  C   UNL     1     -12.163  11.362  70.616  1.00  0.00    -0.484 A  
HETATM   18  O   UNL     1      -8.737  12.313  67.821  1.00  0.00    -0.157 OA 
HETATM   19  O   UNL     1     -10.026  14.449  67.503  1.00  0.00    -0.222 OA 
HETATM   20  O   UNL     1     -14.353  15.609  70.789  1.00  0.00    -0.240 OA 
HETATM   21  C   UNL     1     -12.459  13.744  70.939  1.00  0.00    -0.377 A  
HETATM   22  O   UNL     1      -8.466  14.217  69.408  1.00  0.00     0.149 OA 
HETATM   23  O   UNL     1     -13.769  14.666  72.968  1.00  0.00    -0.555 OA 
HETATM   24  O   UNL     1     -12.142  16.191  71.764  1.00  0.00    -0.472 OA 
HETATM   25  S   UNL     1     -13.153  15.151  71.753  1.00  0.00    -0.418 S  
HETATM   26  C   UNL     1     -12.807  12.439  71.252  1.00  0.00    -0.240 A  
ENDBRANCH  10  11
BRANCH  10  27
HETATM   27  C   UNL     1      -9.963   9.316  70.006  1.00  0.00    -0.238 A  
HETATM   28  C   UNL     1     -10.737   8.108  70.278  1.00  0.00    -0.235 A  
HETATM   29  C   UNL     1      -9.143   7.373  72.033  1.00  0.00    -0.128 A  
HETATM   30  C   UNL     1      -8.242   8.494  71.594  1.00  0.00    -0.209 A  
HETATM   31  C   UNL     1      -8.643   9.388  70.666  1.00  0.00    -0.247 A  
HETATM   32  C   UNL     1     -10.353   7.185  71.166  1.00  0.00    -0.214 A  
BRANCH  29  33
HETATM   33  N   UNL     1      -8.949   6.633  73.095  1.00  0.00    -0.127 NA 
BRANCH  33  34
HETATM   34  C   UNL     1      -7.620   6.009  73.473  1.00  0.00    -0.096 C  
HETATM   35  C   UNL     1      -6.607   6.076  72.349  1.00  0.00    -0.067 C  
ENDBRANCH  33  34
BRANCH  33  36
HETATM   36  C   UNL     1     -10.014   6.481  74.167  1.00  0.00    -0.322 C  
HETATM   37  C   UNL     1     -10.385   5.016  74.336  1.00  0.00    -0.321 C  
ENDBRANCH  33  36
ENDBRANCH  29  33
ENDBRANCH  10  27
ENDBRANCH   9  10
ENDBRANCH   3   4
BRANCH   3  38
HETATM   38  C   UNL     1      -9.666  11.350  62.726  1.00  0.00    -0.219 C  
HETATM   39  C   UNL     1     -10.290  12.444  63.584  1.00  0.00    -0.434 C  
ENDBRANCH   3  38
ENDBRANCH   2   3
TORSDOF 9
ENDMDL
MODEL       39
REMARK 921   NORMALIZED FREE ENERGY PREDICTED BY IDOCK:   -2.99 KCAL/MOL
REMARK 922        TOTAL FREE ENERGY PREDICTED BY IDOCK:   -6.88 KCAL/MOL
REMARK 923 INTER-LIGAND FREE ENERGY PREDICTED BY IDOCK:   -5.63 KCAL/MOL
REMARK 924 INTRA-LIGAND FREE ENERGY PREDICTED BY IDOCK:   -1.25 KCAL/MOL
REMARK 927      BINDING AFFINITY PREDICTED BY RF-SCORE:    0.00 PKD
ROOT
HETATM    1  C   UNL     1      -5.220   6.597  63.549  1.00  0.00    -0.026 C  
HETATM    2  C   UNL     1      -5.742   7.860  62.869  1.00  0.00    -0.063 C  
ENDROOT
BRANCH   2   3
HETATM    3  N   UNL     1      -7.180   8.107  63.082  1.00  0.00    -0.087 NA 
BRANCH   3   4
HETATM    4  C   UNL     1      -7.573   8.823  64.223  1.00  0.00    -0.117 A  
HETATM    5  C   UNL     1      -7.564   8.260  65.508  1.00  0.00    -0.087 A  
HETATM    6  C   UNL     1      -7.955  10.172  64.151  1.00  0.00    -0.154 A  
HETATM    7  C   UNL     1      -7.832   9.022  66.663  1.00  0.00    -0.100 A  
HETATM    8  C   UNL     1      -8.224  10.944  65.303  1.00  0.00     0.022 A  
HETATM    9  C   UNL     1      -8.130  10.390  66.580  1.00  0.00    -0.122 A  
BRANCH   9  10
HETATM   10  C   UNL     1      -8.315  11.209  67.834  1.00  0.00    -0.129 C  
BRANCH  10  11
HETATM   11  C   UNL     1      -9.536  10.974  68.716  1.00  0.00    -0.190 A  
HETATM   12  H   UNL     1      -9.357   8.176  71.517  1.00  0.00     0.000 HD 
HETATM   13  C   UNL     1     -10.777  11.650  68.688  1.00  0.00    -0.212 A  
HETATM   14  O   UNL     1     -10.182   8.644  71.478  1.00  0.00    -0.224 OA 
HETATM   15  C   UNL     1     -11.837  11.291  69.552  1.00  0.00    -0.427 A  
HETATM   16  S   UNL     1     -11.208  13.022  67.646  1.00  0.00    -0.296 S  
HETATM   17  C   UNL     1      -9.431   9.922  69.656  1.00  0.00    -0.252 A  
HETATM   18  O   UNL     1     -10.088  13.369  66.802  1.00  0.00    -0.250 OA 
HETATM   19  O   UNL     1     -12.499  12.709  67.084  1.00  0.00    -0.236 OA 
HETATM   20  O   UNL     1     -13.938   8.998  70.960  1.00  0.00    -0.171 OA 
HETATM   21  C   UNL     1     -11.664  10.309  70.514  1.00  0.00    -0.331 A  
HETATM   22  O   UNL     1     -11.428  14.215  68.727  1.00  0.00    -0.262 OA 
HETATM   23  O   UNL     1     -12.391   9.382  72.814  1.00  0.00     0.028 OA 
HETATM   24  O   UNL     1     -13.679  11.319  71.810  1.00  0.00    -0.038 OA 
HETATM   25  S   UNL     1     -12.971  10.061  71.677  1.00  0.00    -0.481 S  
HETATM   26  C   UNL     1     -10.458   9.625  70.571  1.00  0.00    -0.303 A  
ENDBRANCH  10  11
BRANCH  10  27
HETATM   27  C   UNL     1      -7.490  12.282  68.066  1.00  0.00    -0.115 A  
HETATM   28  C   UNL     1      -7.816  13.250  69.110  1.00  0.00     0.345 A  
HETATM   29  C   UNL     1      -5.966  14.754  68.418  1.00  0.00    -0.102 A  
HETATM   30  C   UNL     1      -5.502  13.657  67.501  1.00  0.00     0.099 A  
HETATM   31  C   UNL     1      -6.226  12.528  67.343  1.00  0.00    -0.158 A  
HETATM   32  C   UNL     1      -7.102  14.362  69.317  1.00  0.00    -0.124 A  
BRANCH  29  33
HETATM   33  N   UNL     1      -5.480  15.970  68.431  1.00  0.00    -0.100 NA 
BRANCH  33  34
HETATM   34  C   UNL     1      -5.323  16.843  67.203  1.00  0.00    -0.154 C  
HETATM   35  C   UNL     1      -6.640  17.090  66.495  1.00  0.00    -0.254 C  
ENDBRANCH  33  34
BRANCH  33  36
HETATM   36  C   UNL     1      -5.193  16.700  69.732  1.00  0.00    -0.156 C  
HETATM   37  C   UNL     1      -6.029  17.967  69.821  1.00  0.00    -0.230 C  
ENDBRANCH  33  36
ENDBRANCH  29  33
ENDBRANCH  10  27
ENDBRANCH   9  10
ENDBRANCH   3   4
BRANCH   3  38
HETATM   38  C   UNL     1      -8.159   7.217  62.432  1.00  0.00    -0.109 C  
HETATM   39  C   UNL     1      -8.283   5.865  63.127  1.00  0.00    -0.064 C  
ENDBRANCH   3  38
ENDBRANCH   2   3
TORSDOF 9
ENDMDL
MODEL       40
REMARK 921   NORMALIZED FREE ENERGY PREDICTED BY IDOCK:   -2.72 KCAL/MOL
REMARK 922        TOTAL FREE ENERGY PREDICTED BY IDOCK:   -6.47 KCAL/MOL
REMARK 923 INTER-LIGAND FREE ENERGY PREDICTED BY IDOCK:   -4.72 KCAL/MOL
REMARK 924 INTRA-LIGAND FREE ENERGY PREDICTED BY IDOCK:   -1.75 KCAL/MOL
REMARK 927      BINDING AFFINITY PREDICTED BY RF-SCORE:    0.00 PKD
ROOT
HETATM    1  C   UNL     1      -5.915  17.785  70.291  1.00  0.00    -0.036 C  
HETATM    2  C   UNL     1      -5.353  17.332  68.946  1.00  0.00    -0.149 C  
ENDROOT
BRANCH   2   3
HETATM    3  N   UNL     1      -6.363  16.766  68.032  1.00  0.00    -0.139 NA 
BRANCH   3   4
HETATM    4  C   UNL     1      -6.640  15.394  68.109  1.00  0.00    -0.133 A  
HETATM    5  C   UNL     1      -7.623  14.869  68.961  1.00  0.00    -0.151 A  
HETATM    6  C   UNL     1      -5.977  14.462  67.295  1.00  0.00     0.502 A  
HETATM    7  C   UNL     1      -7.987  13.507  68.937  1.00  0.00     0.087 A  
HETATM    8  C   UNL     1      -6.335  13.095  67.264  1.00  0.00     0.091 A  
HETATM    9  C   UNL     1      -7.372  12.604  68.058  1.00  0.00    -0.114 A  
BRANCH   9  10
HETATM   10  C   UNL     1      -7.845  11.174  67.977  1.00  0.00    -0.114 C  
BRANCH  10  11
HETATM   11  C   UNL     1      -8.953  10.692  68.908  1.00  0.00    -0.172 A  
HETATM   12  H   UNL     1      -8.025   8.201  71.848  1.00  0.00     0.000 HD 
HETATM   13  C   UNL     1     -10.325  11.031  68.883  1.00  0.00    -0.205 A  
HETATM   14  O   UNL     1      -8.943   8.443  71.809  1.00  0.00    -0.158 OA 
HETATM   15  C   UNL     1     -11.245  10.469  69.797  1.00  0.00    -0.361 A  
HETATM   16  S   UNL     1     -11.106  12.185  67.783  1.00  0.00    -0.269 S  
HETATM   17  C   UNL     1      -8.570   9.759  69.899  1.00  0.00    -0.236 A  
HETATM   18  O   UNL     1     -10.125  12.753  66.887  1.00  0.00    -0.227 OA 
HETATM   19  O   UNL     1     -12.285  11.525  67.278  1.00  0.00    -0.335 OA 
HETATM   20  O   UNL     1     -12.674   7.809  71.390  1.00  0.00    -0.326 OA 
HETATM   21  C   UNL     1     -10.813   9.621  70.804  1.00  0.00    -0.330 A  
HETATM   22  O   UNL     1     -11.603  13.348  68.805  1.00  0.00    -0.278 OA 
HETATM   23  O   UNL     1     -11.244   8.679  73.172  1.00  0.00     0.366 OA 
HETATM   24  O   UNL     1     -12.997  10.167  72.107  1.00  0.00    -0.415 OA 
HETATM   25  S   UNL     1     -11.995   9.121  72.019  1.00  0.00    -0.311 S  
HETATM   26  C   UNL     1      -9.473   9.267  70.860  1.00  0.00    -0.261 A  
ENDBRANCH  10  11
BRANCH  10  27
HETATM   27  C   UNL     1      -7.150  10.275  67.206  1.00  0.00    -0.088 A  
HETATM   28  C   UNL     1      -7.729   9.764  65.966  1.00  0.00    -0.104 A  
HETATM   29  C   UNL     1      -5.884   8.131  65.671  1.00  0.00    -0.041 A  
HETATM   30  C   UNL     1      -5.185   8.810  66.817  1.00  0.00    -0.039 A  
HETATM   31  C   UNL     1      -5.791   9.789  67.521  1.00  0.00    -0.050 A  
HETATM   32  C   UNL     1      -7.140   8.818  65.226  1.00  0.00    -0.083 A  
BRANCH  29  33
HETATM   33  N   UNL     1      -5.488   7.014  65.114  1.00  0.00    -0.027 NA 
BRANCH  33  34
HETATM   34  C   UNL     1      -5.427   5.677  65.825  1.00  0.00    -0.013 C  
HETATM   35  C   UNL     1      -6.572   5.485  66.799  1.00  0.00    -0.056 C  
ENDBRANCH  33  34
BRANCH  33  36
HETATM   36  C   UNL     1      -5.222   6.917  63.622  1.00  0.00    -0.028 C  
HETATM   37  C   UNL     1      -5.855   5.656  63.055  1.00  0.00    -0.014 C  
ENDBRANCH  33  36
ENDBRANCH  29  33
ENDBRANCH  10  27
ENDBRANCH   9  10
ENDBRANCH   3   4
BRANCH   3  38
HETATM   38  C   UNL     1      -6.667  17.481  66.779  1.00  0.00    -0.202 C  
HETATM   39  C   UNL     1      -8.164  17.651  66.543  1.00  0.00    -0.307 C  
ENDBRANCH   3  38
ENDBRANCH   2   3
TORSDOF 9
ENDMDL
MODEL       41
REMARK 921   NORMALIZED FREE ENERGY PREDICTED BY IDOCK:   -2.53 KCAL/MOL
REMARK 922        TOTAL FREE ENERGY PREDICTED BY IDOCK:   -6.17 KCAL/MOL
REMARK 923 INTER-LIGAND FREE ENERGY PREDICTED BY IDOCK:   -6.30 KCAL/MOL
REMARK 924 INTRA-LIGAND FREE ENERGY PREDICTED BY IDOCK:    0.13 KCAL/MOL
REMARK 927      BINDING AFFINITY PREDICTED BY RF-SCORE:    0.00 PKD
ROOT
HETATM    1  C   UNL     1      -8.590   4.704  72.083  1.00  0.00    -0.123 C  
HETATM    2  C   UNL     1      -7.343   5.498  71.700  1.00  0.00    -0.091 C  
ENDROOT
BRANCH   2   3
HETATM    3  N   UNL     1      -7.277   6.842  72.304  1.00  0.00    -0.085 NA 
BRANCH   3   4
HETATM    4  C   UNL     1      -7.868   7.913  71.618  1.00  0.00    -0.093 A  
HETATM    5  C   UNL     1      -7.145   8.748  70.754  1.00  0.00    -0.069 A  
HETATM    6  C   UNL     1      -9.242   8.183  71.720  1.00  0.00    -0.232 A  
HETATM    7  C   UNL     1      -7.771   9.736  69.968  1.00  0.00    -0.179 A  
HETATM    8  C   UNL     1      -9.878   9.171  70.936  1.00  0.00    -0.359 A  
HETATM    9  C   UNL     1      -9.157   9.938  70.019  1.00  0.00    -0.217 A  
BRANCH   9  10
HETATM   10  C   UNL     1      -9.820  10.931  69.097  1.00  0.00    -0.164 C  
BRANCH  10  11
HETATM   11  C   UNL     1     -10.633  12.080  69.684  1.00  0.00     0.406 A  
HETATM   12  H   UNL     1     -13.763  11.233  71.963  1.00  0.00     0.000 HD 
HETATM   13  C   UNL     1     -10.415  13.469  69.537  1.00  0.00     0.392 A  
HETATM   14  O   UNL     1     -13.597  12.161  71.848  1.00  0.00    -0.307 OA 
HETATM   15  C   UNL     1     -11.286  14.422  70.116  1.00  0.00    -0.152 A  
HETATM   16  S   UNL     1      -9.067  14.241  68.677  1.00  0.00    -0.115 S  
HETATM   17  C   UNL     1     -11.772  11.714  70.438  1.00  0.00    -0.292 A  
HETATM   18  O   UNL     1      -8.193  13.231  68.127  1.00  0.00    -0.144 OA 
HETATM   19  O   UNL     1      -9.654  15.257  67.839  1.00  0.00    -0.198 OA 
HETATM   20  O   UNL     1     -14.394  15.705  70.704  1.00  0.00    -0.100 OA 
HETATM   21  C   UNL     1     -12.343  14.020  70.915  1.00  0.00    -0.372 A  
HETATM   22  O   UNL     1      -8.284  15.000  69.881  1.00  0.00    -0.056 OA 
HETATM   23  O   UNL     1     -13.943  14.628  72.852  1.00  0.00    -0.514 OA 
HETATM   24  O   UNL     1     -12.367  16.400  71.962  1.00  0.00    -0.368 OA 
HETATM   25  S   UNL     1     -13.259  15.276  71.756  1.00  0.00    -0.463 S  
HETATM   26  C   UNL     1     -12.586  12.664  71.082  1.00  0.00    -0.258 A  
ENDBRANCH  10  11
BRANCH  10  27
HETATM   27  C   UNL     1      -9.845  10.686  67.746  1.00  0.00    -0.187 A  
HETATM   28  C   UNL     1      -9.666   9.327  67.241  1.00  0.00    -0.218 A  
HETATM   29  C   UNL     1      -9.568  10.117  64.890  1.00  0.00    -0.306 A  
HETATM   30  C   UNL     1      -9.974  11.474  65.396  1.00  0.00    -0.288 A  
HETATM   31  C   UNL     1     -10.084  11.720  66.719  1.00  0.00    -0.235 A  
HETATM   32  C   UNL     1      -9.586   9.043  65.936  1.00  0.00    -0.317 A  
BRANCH  29  33
HETATM   33  N   UNL     1      -9.184   9.864  63.664  1.00  0.00    -0.263 NA 
BRANCH  33  34
HETATM   34  C   UNL     1      -9.593  10.678  62.453  1.00  0.00    -0.138 C  
HETATM   35  C   UNL     1     -10.707  11.658  62.762  1.00  0.00     0.269 C  
ENDBRANCH  33  34
BRANCH  33  36
HETATM   36  C   UNL     1      -8.123   8.821  63.360  1.00  0.00    -0.170 C  
HETATM   37  C   UNL     1      -6.952   9.457  62.629  1.00  0.00    -0.094 C  
ENDBRANCH  33  36
ENDBRANCH  29  33
ENDBRANCH  10  27
ENDBRANCH   9  10
ENDBRANCH   3   4
BRANCH   3  38
HETATM   38  C   UNL     1      -6.214   7.129  73.285  1.00  0.00    -0.057 C  
HETATM   39  C   UNL     1      -6.619   8.185  74.306  1.00  0.00    -0.143 C  
ENDBRANCH   3  38
ENDBRANCH   2   3
TORSDOF 9
ENDMDL
MODEL       42
REMARK 921   NORMALIZED FREE ENERGY PREDICTED BY IDOCK:   -2.42 KCAL/MOL
REMARK 922        TOTAL FREE ENERGY PREDICTED BY IDOCK:   -6.01 KCAL/MOL
REMARK 923 INTER-LIGAND FREE ENERGY PREDICTED BY IDOCK:   -4.62 KCAL/MOL
REMARK 924 INTRA-LIGAND FREE ENERGY PREDICTED BY IDOCK:   -1.39 KCAL/MOL
REMARK 927      BINDING AFFINITY PREDICTED BY RF-SCORE:    0.00 PKD
ROOT
HETATM    1  C   UNL     1      -5.125   6.525  63.496  1.00  0.00    -0.025 C  
HETATM    2  C   UNL     1      -5.662   7.774  62.800  1.00  0.00    -0.059 C  
ENDROOT
BRANCH   2   3
HETATM    3  N   UNL     1      -7.093   8.031  63.045  1.00  0.00    -0.085 NA 
BRANCH   3   4
HETATM    4  C   UNL     1      -7.463   8.663  64.241  1.00  0.00    -0.109 A  
HETATM    5  C   UNL     1      -7.405   8.019  65.485  1.00  0.00    -0.075 A  
HETATM    6  C   UNL     1      -7.870  10.007  64.267  1.00  0.00    -0.144 A  
HETATM    7  C   UNL     1      -7.651   8.700  66.695  1.00  0.00    -0.089 A  
HETATM    8  C   UNL     1      -8.118  10.698  65.475  1.00  0.00    -0.129 A  
HETATM    9  C   UNL     1      -7.975  10.064  66.710  1.00  0.00    -0.114 A  
BRANCH   9  10
HETATM   10  C   UNL     1      -8.136  10.797  68.019  1.00  0.00    -0.114 C  
BRANCH  10  11
HETATM   11  C   UNL     1      -9.211  10.354  69.005  1.00  0.00    -0.194 A  
HETATM   12  H   UNL     1     -12.908  11.700  68.527  1.00  0.00     0.000 HD 
HETATM   13  C   UNL     1      -9.079   9.481  70.109  1.00  0.00    -0.240 A  
HETATM   14  O   UNL     1     -12.794  11.112  69.264  1.00  0.00    -0.131 OA 
HETATM   15  C   UNL     1     -10.169   9.193  70.962  1.00  0.00    -0.372 A  
HETATM   16  S   UNL     1      -7.611   8.605  70.591  1.00  0.00    -0.091 S  
HETATM   17  C   UNL     1     -10.496  10.915  68.817  1.00  0.00    -0.224 A  
HETATM   18  O   UNL     1      -6.535   8.909  69.678  1.00  0.00    -0.041 OA 
HETATM   19  O   UNL     1      -7.468   8.812  72.011  1.00  0.00    -0.271 OA 
HETATM   20  O   UNL     1     -12.781  10.139  72.945  1.00  0.00     0.563 OA 
HETATM   21  C   UNL     1     -11.430   9.700  70.694  1.00  0.00    -0.306 A  
HETATM   22  O   UNL     1      -8.052   7.056  70.370  1.00  0.00    -0.115 OA 
HETATM   23  O   UNL     1     -13.984   9.395  70.951  1.00  0.00    -0.107 OA 
HETATM   24  O   UNL     1     -12.430   7.805  72.167  1.00  0.00    -0.296 OA 
HETATM   25  S   UNL     1     -12.772   9.133  71.694  1.00  0.00    -0.382 S  
HETATM   26  C   UNL     1     -11.597  10.559  69.617  1.00  0.00    -0.271 A  
ENDBRANCH  10  11
BRANCH  10  27
HETATM   27  C   UNL     1      -7.445  11.966  68.227  1.00  0.00    -0.104 A  
HETATM   28  C   UNL     1      -8.024  13.028  69.046  1.00  0.00     0.295 A  
HETATM   29  C   UNL     1      -6.193  14.599  68.463  1.00  0.00    -0.089 A  
HETATM   30  C   UNL     1      -5.493  13.440  67.808  1.00  0.00    -0.085 A  
HETATM   31  C   UNL     1      -6.093  12.236  67.698  1.00  0.00    -0.120 A  
HETATM   32  C   UNL     1      -7.441  14.221  69.205  1.00  0.00    -0.067 A  
BRANCH  29  33
HETATM   33  N   UNL     1      -5.806  15.847  68.379  1.00  0.00    -0.102 NA 
BRANCH  33  34
HETATM   34  C   UNL     1      -5.246  16.487  67.125  1.00  0.00    -0.081 C  
HETATM   35  C   UNL     1      -6.142  17.581  66.582  1.00  0.00    -0.234 C  
ENDBRANCH  33  34
BRANCH  33  36
HETATM   36  C   UNL     1      -6.059  16.838  69.501  1.00  0.00    -0.218 C  
HETATM   37  C   UNL     1      -5.277  16.439  70.743  1.00  0.00    -0.172 C  
ENDBRANCH  33  36
ENDBRANCH  29  33
ENDBRANCH  10  27
ENDBRANCH   9  10
ENDBRANCH   3   4
BRANCH   3  38
HETATM   38  C   UNL     1      -8.094   7.212  62.337  1.00  0.00    -0.109 C  
HETATM   39  C   UNL     1      -8.112   5.762  62.807  1.00  0.00    -0.108 C  
ENDBRANCH   3  38
ENDBRANCH   2   3
TORSDOF 9
ENDMDL
MODEL       43
REMARK 921   NORMALIZED FREE ENERGY PREDICTED BY IDOCK:   -2.33 KCAL/MOL
REMARK 922        TOTAL FREE ENERGY PREDICTED BY IDOCK:   -5.87 KCAL/MOL
REMARK 923 INTER-LIGAND FREE ENERGY PREDICTED BY IDOCK:   -6.02 KCAL/MOL
REMARK 924 INTRA-LIGAND FREE ENERGY PREDICTED BY IDOCK:    0.15 KCAL/MOL
REMARK 927      BINDING AFFINITY PREDICTED BY RF-SCORE:    0.00 PKD
ROOT
HETATM    1  C   UNL     1      -8.734   7.384  65.837  1.00  0.00    -0.161 C  
HETATM    2  C   UNL     1      -7.955   7.615  64.544  1.00  0.00    -0.130 C  
ENDROOT
BRANCH   2   3
HETATM    3  N   UNL     1      -7.944   9.018  64.091  1.00  0.00    -0.136 NA 
BRANCH   3   4
HETATM    4  C   UNL     1      -8.457  10.001  64.949  1.00  0.00    -0.166 A  
HETATM    5  C   UNL     1      -7.714  10.539  66.011  1.00  0.00    -0.147 A  
HETATM    6  C   UNL     1      -9.738  10.545  64.763  1.00  0.00    -0.365 A  
HETATM    7  C   UNL     1      -8.186  11.618  66.786  1.00  0.00    -0.161 A  
HETATM    8  C   UNL     1     -10.218  11.627  65.534  1.00  0.00    -0.302 A  
HETATM    9  C   UNL     1      -9.434  12.205  66.534  1.00  0.00    -0.235 A  
BRANCH   9  10
HETATM   10  C   UNL     1      -9.876  13.422  67.307  1.00  0.00    -0.233 C  
BRANCH  10  11
HETATM   11  C   UNL     1      -9.127  14.739  67.135  1.00  0.00    -0.231 A  
HETATM   12  H   UNL     1      -5.170  14.728  67.364  1.00  0.00     0.000 HD 
HETATM   13  C   UNL     1      -9.663  16.022  66.880  1.00  0.00    -0.235 A  
HETATM   14  O   UNL     1      -5.554  15.580  67.194  1.00  0.00    -0.320 OA 
HETATM   15  C   UNL     1      -8.836  17.165  66.782  1.00  0.00    -0.270 A  
HETATM   16  S   UNL     1     -11.373  16.418  66.616  1.00  0.00     0.640 S  
HETATM   17  C   UNL     1      -7.722  14.680  67.287  1.00  0.00    -0.198 A  
HETATM   18  O   UNL     1     -12.174  15.219  66.699  1.00  0.00     0.232 OA 
HETATM   19  O   UNL     1     -11.654  17.562  67.448  1.00  0.00     0.553 OA 
HETATM   20  O   UNL     1      -6.375  19.220  67.955  1.00  0.00    -0.213 OA 
HETATM   21  C   UNL     1      -7.457  17.049  66.856  1.00  0.00    -0.212 A  
HETATM   22  O   UNL     1     -11.371  16.930  65.073  1.00  0.00    -0.249 OA 
HETATM   23  O   UNL     1      -5.165  18.039  66.189  1.00  0.00    -0.145 OA 
HETATM   24  O   UNL     1      -7.268  19.340  65.639  1.00  0.00    -0.354 OA 
HETATM   25  S   UNL     1      -6.495  18.494  66.527  1.00  0.00    -0.198 S  
HETATM   26  C   UNL     1      -6.897  15.805  67.104  1.00  0.00    -0.135 A  
ENDBRANCH  10  11
BRANCH  10  27
HETATM   27  C   UNL     1     -10.820  13.288  68.296  1.00  0.00    -0.276 A  
HETATM   28  C   UNL     1     -10.850  14.222  69.418  1.00  0.00    -0.197 A  
HETATM   29  C   UNL     1     -12.584  12.892  70.596  1.00  0.00    -0.177 A  
HETATM   30  C   UNL     1     -12.708  12.065  69.346  1.00  0.00     0.668 A  
HETATM   31  C   UNL     1     -11.876  12.255  68.300  1.00  0.00    -0.367 A  
HETATM   32  C   UNL     1     -11.684  14.084  70.455  1.00  0.00    -0.262 A  
BRANCH  29  33
HETATM   33  N   UNL     1     -13.157  12.606  71.737  1.00  0.00    -0.404 NA 
BRANCH  33  34
HETATM   34  C   UNL     1     -13.546  11.209  72.174  1.00  0.00     0.032 C  
HETATM   35  C   UNL     1     -12.497  10.176  71.817  1.00  0.00    -0.455 C  
ENDBRANCH  33  34
BRANCH  33  36
HETATM   36  C   UNL     1     -13.323  13.649  72.830  1.00  0.00    -0.355 C  
HETATM   37  C   UNL     1     -14.169  14.808  72.327  1.00  0.00    -0.562 C  
ENDBRANCH  33  36
ENDBRANCH  29  33
ENDBRANCH  10  27
ENDBRANCH   9  10
ENDBRANCH   3   4
BRANCH   3  38
HETATM   38  C   UNL     1      -7.892   9.297  62.644  1.00  0.00    -0.122 C  
HETATM   39  C   UNL     1      -7.748  10.783  62.333  1.00  0.00    -0.173 C  
ENDBRANCH   3  38
ENDBRANCH   2   3
TORSDOF 9
ENDMDL
MODEL       44
REMARK 921   NORMALIZED FREE ENERGY PREDICTED BY IDOCK:   -2.12 KCAL/MOL
REMARK 922        TOTAL FREE ENERGY PREDICTED BY IDOCK:   -5.55 KCAL/MOL
REMARK 923 INTER-LIGAND FREE ENERGY PREDICTED BY IDOCK:   -6.05 KCAL/MOL
REMARK 924 INTRA-LIGAND FREE ENERGY PREDICTED BY IDOCK:    0.50 KCAL/MOL
REMARK 927      BINDING AFFINITY PREDICTED BY RF-SCORE:    0.00 PKD
ROOT
HETATM    1  C   UNL     1     -10.007  17.278  65.588  1.00  0.00     0.003 C  
HETATM    2  C   UNL     1     -10.949  16.357  66.359  1.00  0.00     0.044 C  
ENDROOT
BRANCH   2   3
HETATM    3  N   UNL     1     -11.373  15.162  65.606  1.00  0.00    -0.302 NA 
BRANCH   3   4
HETATM    4  C   UNL     1     -10.927  13.906  66.041  1.00  0.00    -0.285 A  
HETATM    5  C   UNL     1      -9.579  13.640  66.325  1.00  0.00    -0.254 A  
HETATM    6  C   UNL     1     -11.819  12.846  66.266  1.00  0.00    -0.477 A  
HETATM    7  C   UNL     1      -9.158  12.417  66.887  1.00  0.00    -0.211 A  
HETATM    8  C   UNL     1     -11.406  11.617  66.830  1.00  0.00    -0.354 A  
HETATM    9  C   UNL     1     -10.074  11.398  67.183  1.00  0.00    -0.226 A  
BRANCH   9  10
HETATM   10  C   UNL     1      -9.618  10.138  67.876  1.00  0.00    -0.166 C  
BRANCH  10  11
HETATM   11  C   UNL     1      -8.805   9.104  67.105  1.00  0.00    -0.130 A  
HETATM   12  H   UNL     1     -10.662   5.927  65.635  1.00  0.00     0.000 HD 
HETATM   13  C   UNL     1      -7.422   9.122  66.811  1.00  0.00    -0.087 A  
HETATM   14  O   UNL     1      -9.730   5.960  65.451  1.00  0.00     0.263 OA 
HETATM   15  C   UNL     1      -6.799   8.063  66.112  1.00  0.00    -0.058 A  
HETATM   16  S   UNL     1      -6.275  10.417  67.212  1.00  0.00    -0.059 S  
HETATM   17  C   UNL     1      -9.512   7.964  66.657  1.00  0.00    -0.270 A  
HETATM   18  O   UNL     1      -6.961  11.486  67.900  1.00  0.00    -0.069 OA 
HETATM   19  O   UNL     1      -5.126   9.769  67.795  1.00  0.00    -0.036 OA 
HETATM   20  O   UNL     1      -6.123   4.753  65.625  1.00  0.00    -0.025 OA 
HETATM   21  C   UNL     1      -7.545   7.004  65.621  1.00  0.00    -0.093 A  
HETATM   22  O   UNL     1      -5.834  10.950  65.741  1.00  0.00    -0.138 OA 
HETATM   23  O   UNL     1      -7.746   5.143  63.838  1.00  0.00    -0.069 OA 
HETATM   24  O   UNL     1      -5.617   6.513  63.945  1.00  0.00    -0.028 OA 
HETATM   25  S   UNL     1      -6.720   5.828  64.592  1.00  0.00    -0.047 S  
HETATM   26  C   UNL     1      -8.905   6.955  65.888  1.00  0.00    -0.105 A  
ENDBRANCH  10  11
BRANCH  10  27
HETATM   27  C   UNL     1     -10.097   9.846  69.130  1.00  0.00    -0.210 A  
HETATM   28  C   UNL     1      -9.304   9.035  70.051  1.00  0.00    -0.198 A  
HETATM   29  C   UNL     1     -11.167   8.914  71.688  1.00  0.00    -0.345 A  
HETATM   30  C   UNL     1     -11.890   9.927  70.844  1.00  0.00    -0.443 A  
HETATM   31  C   UNL     1     -11.386  10.335  69.660  1.00  0.00    -0.315 A  
HETATM   32  C   UNL     1      -9.760   8.641  71.246  1.00  0.00    -0.305 A  
BRANCH  29  33
HETATM   33  N   UNL     1     -11.696   8.273  72.699  1.00  0.00    -0.392 NA 
BRANCH  33  34
HETATM   34  C   UNL     1     -13.163   8.329  73.076  1.00  0.00     0.575 C  
HETATM   35  C   UNL     1     -14.071   8.390  71.864  1.00  0.00    -0.516 C  
ENDBRANCH  33  34
BRANCH  33  36
HETATM   36  C   UNL     1     -10.907   7.247  73.495  1.00  0.00    -0.245 C  
HETATM   37  C   UNL     1     -10.696   5.988  72.668  1.00  0.00    -0.266 C  
ENDBRANCH  33  36
ENDBRANCH  29  33
ENDBRANCH  10  27
ENDBRANCH   9  10
ENDBRANCH   3   4
BRANCH   3  38
HETATM   38  C   UNL     1     -11.791  15.319  64.201  1.00  0.00    -0.124 C  
HETATM   39  C   UNL     1     -12.367  14.038  63.608  1.00  0.00    -0.087 C  
ENDBRANCH   3  38
ENDBRANCH   2   3
TORSDOF 9
ENDMDL
MODEL       45
REMARK 921   NORMALIZED FREE ENERGY PREDICTED BY IDOCK:   -2.11 KCAL/MOL
REMARK 922        TOTAL FREE ENERGY PREDICTED BY IDOCK:   -5.53 KCAL/MOL
REMARK 923 INTER-LIGAND FREE ENERGY PREDICTED BY IDOCK:   -5.53 KCAL/MOL
REMARK 924 INTRA-LIGAND FREE ENERGY PREDICTED BY IDOCK:    0.01 KCAL/MOL
REMARK 927      BINDING AFFINITY PREDICTED BY RF-SCORE:    0.00 PKD
ROOT
HETATM    1  C   UNL     1     -10.578   4.670  73.526  1.00  0.00    -0.304 C  
HETATM    2  C   UNL     1      -9.364   5.425  74.062  1.00  0.00    -0.133 C  
ENDROOT
BRANCH   2   3
HETATM    3  N   UNL     1      -8.402   5.833  73.022  1.00  0.00    -0.118 NA 
BRANCH   3   4
HETATM    4  C   UNL     1      -8.803   6.790  72.079  1.00  0.00    -0.134 A  
HETATM    5  C   UNL     1      -8.681   8.169  72.304  1.00  0.00    -0.243 A  
HETATM    6  C   UNL     1      -9.311   6.419  70.823  1.00  0.00    -0.165 A  
HETATM    7  C   UNL     1      -8.962   9.121  71.302  1.00  0.00    -0.207 A  
HETATM    8  C   UNL     1      -9.595   7.366  69.813  1.00  0.00    -0.163 A  
HETATM    9  C   UNL     1      -9.390   8.730  70.025  1.00  0.00    -0.175 A  
BRANCH   9  10
HETATM   10  C   UNL     1      -9.588   9.756  68.938  1.00  0.00    -0.167 C  
BRANCH  10  11
HETATM   11  C   UNL     1     -10.292  11.070  69.261  1.00  0.00    -0.181 A  
HETATM   12  H   UNL     1      -8.863  14.429  67.717  1.00  0.00     0.000 HD 
HETATM   13  C   UNL     1     -11.442  11.273  70.058  1.00  0.00    -0.275 A  
HETATM   14  O   UNL     1      -9.636  14.540  68.258  1.00  0.00    -0.199 OA 
HETATM   15  C   UNL     1     -11.959  12.567  70.298  1.00  0.00    -0.364 A  
HETATM   16  S   UNL     1     -12.420  10.013  70.838  1.00  0.00    -0.332 S  
HETATM   17  C   UNL     1      -9.700  12.240  68.730  1.00  0.00     0.017 A  
HETATM   18  O   UNL     1     -11.870   8.710  70.543  1.00  0.00    -0.174 OA 
HETATM   19  O   UNL     1     -12.624  10.447  72.198  1.00  0.00    -0.281 OA 
HETATM   20  O   UNL     1     -11.613  15.827  71.247  1.00  0.00    -0.367 OA 
HETATM   21  C   UNL     1     -11.396  13.678  69.691  1.00  0.00    -0.161 A  
HETATM   22  O   UNL     1     -13.843  10.158  70.065  1.00  0.00     0.466 OA 
HETATM   23  O   UNL     1     -11.760  16.084  68.820  1.00  0.00    -0.385 OA 
HETATM   24  O   UNL     1     -13.631  14.945  70.095  1.00  0.00     0.243 OA 
HETATM   25  S   UNL     1     -12.223  15.227  69.889  1.00  0.00    -0.298 S  
HETATM   26  C   UNL     1     -10.267  13.516  68.902  1.00  0.00    -0.057 A  
ENDBRANCH  10  11
BRANCH  10  27
HETATM   27  C   UNL     1      -9.309   9.423  67.636  1.00  0.00    -0.146 A  
HETATM   28  C   UNL     1      -7.943   9.096  67.235  1.00  0.00    -0.102 A  
HETATM   29  C   UNL     1      -8.571   9.012  64.835  1.00  0.00    -0.180 A  
HETATM   30  C   UNL     1     -10.006   9.127  65.271  1.00  0.00     0.367 A  
HETATM   31  C   UNL     1     -10.325   9.329  66.567  1.00  0.00    -0.270 A  
HETATM   32  C   UNL     1      -7.597   8.857  65.965  1.00  0.00    -0.094 A  
BRANCH  29  33
HETATM   33  N   UNL     1      -8.163   9.083  63.593  1.00  0.00    -0.169 NA 
BRANCH  33  34
HETATM   34  C   UNL     1      -7.731  10.362  62.905  1.00  0.00    -0.131 C  
HETATM   35  C   UNL     1      -8.908  11.189  62.428  1.00  0.00    -0.333 C  
ENDBRANCH  33  34
BRANCH  33  36
HETATM   36  C   UNL     1      -7.905   7.835  62.766  1.00  0.00    -0.135 C  
HETATM   37  C   UNL     1      -6.952   6.904  63.499  1.00  0.00    -0.057 C  
ENDBRANCH  33  36
ENDBRANCH  29  33
ENDBRANCH  10  27
ENDBRANCH   9  10
ENDBRANCH   3   4
BRANCH   3  38
HETATM   38  C   UNL     1      -7.296   4.920  72.678  1.00  0.00    -0.089 C  
HETATM   39  C   UNL     1      -5.947   5.625  72.605  1.00  0.00    -0.035 C  
ENDBRANCH   3  38
ENDBRANCH   2   3
TORSDOF 9
ENDMDL
MODEL       46
REMARK 921   NORMALIZED FREE ENERGY PREDICTED BY IDOCK:   -1.99 KCAL/MOL
REMARK 922        TOTAL FREE ENERGY PREDICTED BY IDOCK:   -5.35 KCAL/MOL
REMARK 923 INTER-LIGAND FREE ENERGY PREDICTED BY IDOCK:   -5.16 KCAL/MOL
REMARK 924 INTRA-LIGAND FREE ENERGY PREDICTED BY IDOCK:   -0.19 KCAL/MOL
REMARK 927      BINDING AFFINITY PREDICTED BY RF-SCORE:    0.00 PKD
ROOT
HETATM    1  C   UNL     1      -8.589  11.005  62.650  1.00  0.00    -0.260 C  
HETATM    2  C   UNL     1     -10.074  10.718  62.444  1.00  0.00     0.355 C  
ENDROOT
BRANCH   2   3
HETATM    3  N   UNL     1     -10.969  11.567  63.252  1.00  0.00    -0.304 NA 
BRANCH   3   4
HETATM    4  C   UNL     1     -11.021  11.354  64.637  1.00  0.00    -0.255 A  
HETATM    5  C   UNL     1     -10.161  10.464  65.297  1.00  0.00    -0.332 A  
HETATM    6  C   UNL     1     -11.912  12.063  65.458  1.00  0.00    -0.168 A  
HETATM    7  C   UNL     1     -10.129  10.353  66.702  1.00  0.00    -0.279 A  
HETATM    8  C   UNL     1     -11.887  11.959  66.867  1.00  0.00    -0.177 A  
HETATM    9  C   UNL     1     -10.970  11.129  67.513  1.00  0.00    -0.331 A  
BRANCH   9  10
HETATM   10  C   UNL     1     -10.850  11.069  69.016  1.00  0.00    -0.274 C  
BRANCH  10  11
HETATM   11  C   UNL     1     -11.360  12.232  69.860  1.00  0.00    -0.084 A  
HETATM   12  H   UNL     1     -13.938  11.487  72.776  1.00  0.00     0.000 HD 
HETATM   13  C   UNL     1     -11.020  13.601  69.758  1.00  0.00     0.168 A  
HETATM   14  O   UNL     1     -13.695  12.401  72.687  1.00  0.00    -0.213 OA 
HETATM   15  C   UNL     1     -11.610  14.576  70.595  1.00  0.00    -0.278 A  
HETATM   16  S   UNL     1      -9.833  14.314  68.646  1.00  0.00    -0.201 S  
HETATM   17  C   UNL     1     -12.323  11.911  70.845  1.00  0.00    -0.400 A  
HETATM   18  O   UNL     1      -9.239  13.279  67.832  1.00  0.00    -0.196 OA 
HETATM   19  O   UNL     1     -10.478  15.456  68.049  1.00  0.00    -0.248 OA 
HETATM   20  O   UNL     1     -14.317  16.097  72.013  1.00  0.00    -0.046 OA 
HETATM   21  C   UNL     1     -12.488  14.206  71.601  1.00  0.00    -0.311 A  
HETATM   22  O   UNL     1      -8.703  14.877  69.669  1.00  0.00    -0.058 OA 
HETATM   23  O   UNL     1     -13.501  14.784  73.908  1.00  0.00     0.192 OA 
HETATM   24  O   UNL     1     -11.982  16.469  72.779  1.00  0.00    -0.533 OA 
HETATM   25  S   UNL     1     -13.024  15.462  72.723  1.00  0.00    -0.503 S  
HETATM   26  C   UNL     1     -12.843  12.872  71.731  1.00  0.00    -0.235 A  
ENDBRANCH  10  11
BRANCH  10  27
HETATM   27  C   UNL     1     -10.115  10.064  69.595  1.00  0.00    -0.263 A  
HETATM   28  C   UNL     1      -8.679  10.228  69.806  1.00  0.00    -0.069 A  
HETATM   29  C   UNL     1      -8.424   7.866  70.526  1.00  0.00    -0.126 A  
HETATM   30  C   UNL     1      -9.925   7.769  70.522  1.00  0.00    -0.187 A  
HETATM   31  C   UNL     1     -10.688   8.790  70.077  1.00  0.00    -0.236 A  
HETATM   32  C   UNL     1      -7.899   9.249  70.276  1.00  0.00    -0.148 A  
BRANCH  29  33
HETATM   33  N   UNL     1      -7.613   6.851  70.684  1.00  0.00    -0.092 NA 
BRANCH  33  34
HETATM   34  C   UNL     1      -7.493   6.041  71.959  1.00  0.00    -0.095 C  
HETATM   35  C   UNL     1      -6.161   5.326  72.068  1.00  0.00    -0.031 C  
ENDBRANCH  33  34
BRANCH  33  36
HETATM   36  C   UNL     1      -6.833   6.264  69.520  1.00  0.00    -0.065 C  
HETATM   37  C   UNL     1      -7.721   6.162  68.289  1.00  0.00    -0.103 C  
ENDBRANCH  33  36
ENDBRANCH  29  33
ENDBRANCH  10  27
ENDBRANCH   9  10
ENDBRANCH   3   4
BRANCH   3  38
HETATM   38  C   UNL     1     -12.111  12.226  62.593  1.00  0.00     1.076 C  
HETATM   39  C   UNL     1     -12.400  13.613  63.155  1.00  0.00     0.147 C  
ENDBRANCH   3  38
ENDBRANCH   2   3
TORSDOF 9
ENDMDL
MODEL       47
REMARK 921   NORMALIZED FREE ENERGY PREDICTED BY IDOCK:   -1.50 KCAL/MOL
REMARK 922        TOTAL FREE ENERGY PREDICTED BY IDOCK:   -4.60 KCAL/MOL
REMARK 923 INTER-LIGAND FREE ENERGY PREDICTED BY IDOCK:   -2.99 KCAL/MOL
REMARK 924 INTRA-LIGAND FREE ENERGY PREDICTED BY IDOCK:   -1.61 KCAL/MOL
REMARK 927      BINDING AFFINITY PREDICTED BY RF-SCORE:    0.00 PKD
ROOT
HETATM    1  C   UNL     1      -8.536  19.717  69.983  1.00  0.00     0.982 C  
HETATM    2  C   UNL     1      -7.014  19.617  69.912  1.00  0.00    -0.082 C  
ENDROOT
BRANCH   2   3
HETATM    3  N   UNL     1      -6.513  18.914  68.716  1.00  0.00    -0.243 NA 
BRANCH   3   4
HETATM    4  C   UNL     1      -6.968  17.611  68.468  1.00  0.00    -0.231 A  
HETATM    5  C   UNL     1      -7.891  17.314  67.455  1.00  0.00    -0.198 A  
HETATM    6  C   UNL     1      -6.485  16.511  69.194  1.00  0.00    -0.193 A  
HETATM    7  C   UNL     1      -8.243  15.989  67.124  1.00  0.00    -0.226 A  
HETATM    8  C   UNL     1      -6.831  15.180  68.870  1.00  0.00    -0.120 A  
HETATM    9  C   UNL     1      -7.687  14.897  67.805  1.00  0.00    -0.174 A  
BRANCH   9  10
HETATM   10  C   UNL     1      -7.999  13.486  67.371  1.00  0.00    -0.165 C  
BRANCH  10  11
HETATM   11  C   UNL     1      -9.214  13.220  66.488  1.00  0.00    -0.182 A  
HETATM   12  H   UNL     1      -8.658  11.619  62.906  1.00  0.00     0.000 HD 
HETATM   13  C   UNL     1     -10.577  13.460  66.782  1.00  0.00    -0.277 A  
HETATM   14  O   UNL     1      -9.566  11.791  63.126  1.00  0.00    -0.371 OA 
HETATM   15  C   UNL     1     -11.596  13.194  65.839  1.00  0.00    -0.391 A  
HETATM   16  S   UNL     1     -11.234  14.075  68.312  1.00  0.00    -0.285 S  
HETATM   17  C   UNL     1      -8.946  12.704  65.199  1.00  0.00     0.995 A  
HETATM   18  O   UNL     1     -10.160  14.306  69.251  1.00  0.00    -0.119 OA 
HETATM   19  O   UNL     1     -12.157  15.125  67.960  1.00  0.00    -0.192 OA 
HETATM   20  O   UNL     1     -12.969  13.452  62.725  1.00  0.00    -0.050 OA 
HETATM   21  C   UNL     1     -11.296  12.612  64.618  1.00  0.00    -0.318 A  
HETATM   22  O   UNL     1     -12.114  12.813  68.837  1.00  0.00    -0.269 OA 
HETATM   23  O   UNL     1     -12.132  11.156  62.653  1.00  0.00     0.750 OA 
HETATM   24  O   UNL     1     -13.778  11.854  64.448  1.00  0.00    -0.139 OA 
HETATM   25  S   UNL     1     -12.647  12.134  63.584  1.00  0.00    -0.417 S  
HETATM   26  C   UNL     1      -9.970  12.361  64.297  1.00  0.00    -0.206 A  
ENDBRANCH  10  11
BRANCH  10  27
HETATM   27  C   UNL     1      -7.305  12.440  67.925  1.00  0.00    -0.112 A  
HETATM   28  C   UNL     1      -6.215  11.805  67.188  1.00  0.00    -0.147 A  
HETATM   29  C   UNL     1      -5.985  10.014  68.891  1.00  0.00    -0.034 A  
HETATM   30  C   UNL     1      -6.946  10.792  69.747  1.00  0.00    -0.141 A  
HETATM   31  C   UNL     1      -7.555  11.902  69.279  1.00  0.00     0.209 A  
HETATM   32  C   UNL     1      -5.568  10.724  67.638  1.00  0.00    -0.043 A  
BRANCH  29  33
HETATM   33  N   UNL     1      -5.563   8.804  69.158  1.00  0.00    -0.035 NA 
BRANCH  33  34
HETATM   34  C   UNL     1      -5.228   7.763  68.109  1.00  0.00    -0.031 C  
HETATM   35  C   UNL     1      -6.391   7.481  67.180  1.00  0.00    -0.053 C  
ENDBRANCH  33  34
BRANCH  33  36
HETATM   36  C   UNL     1      -5.186   8.383  70.568  1.00  0.00    -0.022 C  
HETATM   37  C   UNL     1      -6.016   7.184  70.999  1.00  0.00    -0.036 C  
ENDBRANCH  33  36
ENDBRANCH  29  33
ENDBRANCH  10  27
ENDBRANCH   9  10
ENDBRANCH   3   4
BRANCH   3  38
HETATM   38  C   UNL     1      -5.232  19.342  68.124  1.00  0.00    -0.179 C  
HETATM   39  C   UNL     1      -5.300  20.736  67.511  1.00  0.00    -0.247 C  
ENDBRANCH   3  38
ENDBRANCH   2   3
TORSDOF 9
ENDMDL
MODEL       48
REMARK 921   NORMALIZED FREE ENERGY PREDICTED BY IDOCK:   -1.44 KCAL/MOL
REMARK 922        TOTAL FREE ENERGY PREDICTED BY IDOCK:   -4.51 KCAL/MOL
REMARK 923 INTER-LIGAND FREE ENERGY PREDICTED BY IDOCK:   -5.47 KCAL/MOL
REMARK 924 INTRA-LIGAND FREE ENERGY PREDICTED BY IDOCK:    0.96 KCAL/MOL
REMARK 927      BINDING AFFINITY PREDICTED BY RF-SCORE:    0.00 PKD
ROOT
HETATM    1  C   UNL     1     -11.631   9.469  72.718  1.00  0.00     1.696 C  
HETATM    2  C   UNL     1     -13.031   9.816  72.219  1.00  0.00    -0.333 C  
ENDROOT
BRANCH   2   3
HETATM    3  N   UNL     1     -13.132  11.142  71.583  1.00  0.00    -0.457 NA 
BRANCH   3   4
HETATM    4  C   UNL     1     -12.148  11.515  70.656  1.00  0.00    -0.353 A  
HETATM    5  C   UNL     1     -11.105  10.658  70.276  1.00  0.00    -0.310 A  
HETATM    6  C   UNL     1     -12.178  12.762  70.012  1.00  0.00    -0.279 A  
HETATM    7  C   UNL     1     -10.198  10.988  69.248  1.00  0.00    -0.153 A  
HETATM    8  C   UNL     1     -11.274  13.102  68.980  1.00  0.00    -0.309 A  
HETATM    9  C   UNL     1     -10.293  12.204  68.557  1.00  0.00    -0.233 A  
BRANCH   9  10
HETATM   10  C   UNL     1      -9.377  12.495  67.394  1.00  0.00    -0.187 C  
BRANCH  10  11
HETATM   11  C   UNL     1      -8.825  11.343  66.561  1.00  0.00    -0.187 A  
HETATM   12  H   UNL     1     -10.004  10.973  62.796  1.00  0.00     0.000 HD 
HETATM   13  C   UNL     1      -7.900  10.348  66.952  1.00  0.00    -0.114 A  
HETATM   14  O   UNL     1      -9.382  10.315  63.082  1.00  0.00    -0.271 OA 
HETATM   15  C   UNL     1      -7.509   9.313  66.072  1.00  0.00    -0.095 A  
HETATM   16  S   UNL     1      -7.074  10.232  68.520  1.00  0.00    -0.076 S  
HETATM   17  C   UNL     1      -9.329  11.229  65.245  1.00  0.00    -0.225 A  
HETATM   18  O   UNL     1      -7.484  11.323  69.373  1.00  0.00    -0.085 OA 
HETATM   19  O   UNL     1      -7.208   8.860  68.944  1.00  0.00    -0.071 OA 
HETATM   20  O   UNL     1      -8.206   6.784  63.889  1.00  0.00    -0.051 OA 
HETATM   21  C   UNL     1      -7.964   9.286  64.764  1.00  0.00    -0.123 A  
HETATM   22  O   UNL     1      -5.519  10.460  68.104  1.00  0.00    -0.035 OA 
HETATM   23  O   UNL     1      -7.514   8.537  62.332  1.00  0.00    -0.101 OA 
HETATM   24  O   UNL     1      -5.940   7.768  64.162  1.00  0.00    -0.051 OA 
HETATM   25  S   UNL     1      -7.273   8.074  63.680  1.00  0.00    -0.099 S  
HETATM   26  C   UNL     1      -8.872  10.248  64.346  1.00  0.00    -0.209 A  
ENDBRANCH  10  11
BRANCH  10  27
HETATM   27  C   UNL     1      -8.898  13.770  67.214  1.00  0.00    -0.225 A  
HETATM   28  C   UNL     1      -7.869  14.303  68.103  1.00  0.00    -0.139 A  
HETATM   29  C   UNL     1      -8.051  16.568  67.104  1.00  0.00    -0.183 A  
HETATM   30  C   UNL     1      -8.940  15.963  66.052  1.00  0.00    -0.337 A  
HETATM   31  C   UNL     1      -9.330  14.673  66.128  1.00  0.00    -0.265 A  
HETATM   32  C   UNL     1      -7.434  15.566  68.035  1.00  0.00    -0.136 A  
BRANCH  29  33
HETATM   33  N   UNL     1      -7.844  17.851  67.255  1.00  0.00    -0.210 NA 
BRANCH  33  34
HETATM   34  C   UNL     1      -8.882  18.833  67.760  1.00  0.00    -0.290 C  
HETATM   35  C   UNL     1      -9.602  18.331  68.996  1.00  0.00    -0.179 C  
ENDBRANCH  33  34
BRANCH  33  36
HETATM   36  C   UNL     1      -6.459  18.459  67.110  1.00  0.00    -0.179 C  
HETATM   37  C   UNL     1      -5.885  18.794  68.477  1.00  0.00    -0.210 C  
ENDBRANCH  33  36
ENDBRANCH  29  33
ENDBRANCH  10  27
ENDBRANCH   9  10
ENDBRANCH   3   4
BRANCH   3  38
HETATM   38  C   UNL     1     -13.903  12.200  72.262  1.00  0.00     0.147 C  
HETATM   39  C   UNL     1     -13.219  13.561  72.204  1.00  0.00    -0.551 C  
ENDBRANCH   3  38
ENDBRANCH   2   3
TORSDOF 9
ENDMDL
MODEL       49
REMARK 921   NORMALIZED FREE ENERGY PREDICTED BY IDOCK:   -1.36 KCAL/MOL
REMARK 922        TOTAL FREE ENERGY PREDICTED BY IDOCK:   -4.39 KCAL/MOL
REMARK 923 INTER-LIGAND FREE ENERGY PREDICTED BY IDOCK:   -3.64 KCAL/MOL
REMARK 924 INTRA-LIGAND FREE ENERGY PREDICTED BY IDOCK:   -0.75 KCAL/MOL
REMARK 927      BINDING AFFINITY PREDICTED BY RF-SCORE:    0.00 PKD
ROOT
HETATM    1  C   UNL     1      -8.979  10.416  62.559  1.00  0.00    -0.291 C  
HETATM    2  C   UNL     1     -10.504  10.376  62.601  1.00  0.00     1.063 C  
ENDROOT
BRANCH   2   3
HETATM    3  N   UNL     1     -11.121  11.566  63.217  1.00  0.00    -0.279 NA 
BRANCH   3   4
HETATM    4  C   UNL     1     -10.606  12.029  64.436  1.00  0.00    -0.318 A  
HETATM    5  C   UNL     1     -10.574  11.237  65.592  1.00  0.00    -0.303 A  
HETATM    6  C   UNL     1     -10.041  13.309  64.558  1.00  0.00    -0.241 A  
HETATM    7  C   UNL     1      -9.935  11.661  66.776  1.00  0.00    -0.229 A  
HETATM    8  C   UNL     1      -9.399  13.743  65.739  1.00  0.00     0.120 A  
HETATM    9  C   UNL     1      -9.304  12.910  66.855  1.00  0.00    -0.240 A  
BRANCH   9  10
HETATM   10  C   UNL     1      -8.540  13.303  68.095  1.00  0.00    -0.177 C  
BRANCH  10  11
HETATM   11  C   UNL     1      -8.268  14.776  68.378  1.00  0.00    -0.154 A  
HETATM   12  H   UNL     1      -4.737  16.287  67.399  1.00  0.00     0.000 HD 
HETATM   13  C   UNL     1      -9.138  15.731  68.954  1.00  0.00    -0.225 A  
HETATM   14  O   UNL     1      -5.339  16.909  67.790  1.00  0.00    -0.109 OA 
HETATM   15  C   UNL     1      -8.725  17.062  69.191  1.00  0.00    -0.032 A  
HETATM   16  S   UNL     1     -10.827  15.465  69.434  1.00  0.00    -0.284 S  
HETATM   17  C   UNL     1      -6.970  15.241  68.062  1.00  0.00    -0.144 A  
HETATM   18  O   UNL     1     -11.210  14.102  69.150  1.00  0.00    -0.252 OA 
HETATM   19  O   UNL     1     -10.959  16.018  70.759  1.00  0.00    -0.314 OA 
HETATM   20  O   UNL     1      -6.540  19.369  70.437  1.00  0.00    -0.049 OA 
HETATM   21  C   UNL     1      -7.472  17.497  68.790  1.00  0.00    -0.258 A  
HETATM   22  O   UNL     1     -11.628  16.448  68.417  1.00  0.00    -0.286 OA 
HETATM   23  O   UNL     1      -6.009  19.496  68.054  1.00  0.00    -0.206 OA 
HETATM   24  O   UNL     1      -8.372  19.936  68.856  1.00  0.00    -0.184 OA 
HETATM   25  S   UNL     1      -7.114  19.220  68.945  1.00  0.00    -0.358 S  
HETATM   26  C   UNL     1      -6.593  16.587  68.220  1.00  0.00    -0.136 A  
ENDBRANCH  10  11
BRANCH  10  27
HETATM   27  C   UNL     1      -7.937  12.330  68.853  1.00  0.00     0.126 A  
HETATM   28  C   UNL     1      -6.562  12.504  69.317  1.00  0.00    -0.089 A  
HETATM   29  C   UNL     1      -6.470  10.184  70.196  1.00  0.00    -0.118 A  
HETATM   30  C   UNL     1      -7.946  10.088  69.920  1.00  0.00    -0.184 A  
HETATM   31  C   UNL     1      -8.602  11.084  69.287  1.00  0.00     0.072 A  
HETATM   32  C   UNL     1      -5.893  11.551  69.976  1.00  0.00    -0.134 A  
BRANCH  29  33
HETATM   33  N   UNL     1      -5.713   9.178  70.555  1.00  0.00    -0.031 NA 
BRANCH  33  34
HETATM   34  C   UNL     1      -5.151   8.145  69.599  1.00  0.00    -0.026 C  
HETATM   35  C   UNL     1      -6.187   7.124  69.174  1.00  0.00    -0.035 C  
ENDBRANCH  33  34
BRANCH  33  36
HETATM   36  C   UNL     1      -5.167   9.055  71.967  1.00  0.00    -0.053 C  
HETATM   37  C   UNL     1      -5.351   7.636  72.482  1.00  0.00    -0.036 C  
ENDBRANCH  33  36
ENDBRANCH  29  33
ENDBRANCH  10  27
ENDBRANCH   9  10
ENDBRANCH   3   4
BRANCH   3  38
HETATM   38  C   UNL     1     -12.505  11.919  62.852  1.00  0.00     0.280 C  
HETATM   39  C   UNL     1     -12.998  13.181  63.551  1.00  0.00     0.476 C  
ENDBRANCH   3  38
ENDBRANCH   2   3
TORSDOF 9
ENDMDL
MODEL       50
REMARK 921   NORMALIZED FREE ENERGY PREDICTED BY IDOCK:   -1.17 KCAL/MOL
REMARK 922        TOTAL FREE ENERGY PREDICTED BY IDOCK:   -4.09 KCAL/MOL
REMARK 923 INTER-LIGAND FREE ENERGY PREDICTED BY IDOCK:   -4.07 KCAL/MOL
REMARK 924 INTRA-LIGAND FREE ENERGY PREDICTED BY IDOCK:   -0.02 KCAL/MOL
REMARK 927      BINDING AFFINITY PREDICTED BY RF-SCORE:    0.00 PKD
ROOT
HETATM    1  C   UNL     1      -6.802   3.386  73.139  1.00  0.00    -0.039 C  
HETATM    2  C   UNL     1      -8.094   4.129  72.805  1.00  0.00    -0.092 C  
ENDROOT
BRANCH   2   3
HETATM    3  N   UNL     1      -8.390   4.201  71.362  1.00  0.00    -0.084 NA 
BRANCH   3   4
HETATM    4  C   UNL     1      -8.710   5.449  70.808  1.00  0.00    -0.132 A  
HETATM    5  C   UNL     1      -7.759   6.465  70.634  1.00  0.00    -0.105 A  
HETATM    6  C   UNL     1     -10.003   5.738  70.344  1.00  0.00    -0.257 A  
HETATM    7  C   UNL     1      -8.057   7.665  69.957  1.00  0.00    -0.120 A  
HETATM    8  C   UNL     1     -10.311   6.937  69.663  1.00  0.00    -0.224 A  
HETATM    9  C   UNL     1      -9.333   7.904  69.426  1.00  0.00    -0.152 A  
BRANCH   9  10
HETATM   10  C   UNL     1      -9.603   9.148  68.618  1.00  0.00    -0.157 C  
BRANCH  10  11
HETATM   11  C   UNL     1     -10.328  10.324  69.263  1.00  0.00    -0.250 A  
HETATM   12  H   UNL     1     -13.339   9.589  71.733  1.00  0.00     0.000 HD 
HETATM   13  C   UNL     1     -10.060  11.705  69.113  1.00  0.00     0.079 A  
HETATM   14  O   UNL     1     -13.141  10.511  71.614  1.00  0.00    -0.412 OA 
HETATM   15  C   UNL     1     -10.850  12.688  69.752  1.00  0.00     0.431 A  
HETATM   16  S   UNL     1      -8.738  12.427  68.172  1.00  0.00    -0.183 S  
HETATM   17  C   UNL     1     -11.431  10.000  70.087  1.00  0.00    -0.344 A  
HETATM   18  O   UNL     1      -7.944  11.386  67.561  1.00  0.00    -0.117 OA 
HETATM   19  O   UNL     1      -9.334  13.474  67.381  1.00  0.00    -0.211 OA 
HETATM   20  O   UNL     1     -13.857  14.095  70.547  1.00  0.00     0.293 OA 
HETATM   21  C   UNL     1     -11.871  12.323  70.615  1.00  0.00     0.052 A  
HETATM   22  O   UNL     1      -7.847  13.141  69.329  1.00  0.00     0.270 OA 
HETATM   23  O   UNL     1     -13.316  12.980  72.655  1.00  0.00    -0.463 OA 
HETATM   24  O   UNL     1     -11.725  14.692  71.677  1.00  0.00    -0.326 OA 
HETATM   25  S   UNL     1     -12.676  13.609  71.521  1.00  0.00    -0.298 S  
HETATM   26  C   UNL     1     -12.160  10.978  70.788  1.00  0.00    -0.366 A  
ENDBRANCH  10  11
BRANCH  10  27
HETATM   27  C   UNL     1      -9.368   9.139  67.265  1.00  0.00    -0.166 A  
HETATM   28  C   UNL     1      -8.220   8.417  66.721  1.00  0.00    -0.102 A  
HETATM   29  C   UNL     1      -8.614   9.325  64.445  1.00  0.00    -0.195 A  
HETATM   30  C   UNL     1      -9.913   9.880  64.960  1.00  0.00    -0.236 A  
HETATM   31  C   UNL     1     -10.238   9.795  66.267  1.00  0.00    -0.282 A  
HETATM   32  C   UNL     1      -7.889   8.452  65.426  1.00  0.00    -0.108 A  
BRANCH  29  33
HETATM   33  N   UNL     1      -8.104   9.592  63.269  1.00  0.00    -0.139 NA 
BRANCH  33  34
HETATM   34  C   UNL     1      -8.617  10.673  62.338  1.00  0.00    -0.256 C  
HETATM   35  C   UNL     1      -8.865  11.985  63.054  1.00  0.00     0.982 C  
ENDBRANCH  33  34
BRANCH  33  36
HETATM   36  C   UNL     1      -6.810   8.953  62.796  1.00  0.00    -0.093 C  
HETATM   37  C   UNL     1      -5.616   9.768  63.270  1.00  0.00    -0.092 C  
ENDBRANCH  33  36
ENDBRANCH  29  33
ENDBRANCH  10  27
ENDBRANCH   9  10
ENDBRANCH   3   4
BRANCH   3  38
HETATM   38  C   UNL     1      -8.836   2.980  70.666  1.00  0.00    -0.084 C  
HETATM   39  C   UNL     1      -9.990   2.282  71.376  1.00  0.00    -0.092 C  
ENDBRANCH   3  38
ENDBRANCH   2   3
TORSDOF 9
ENDMDL
MODEL       51
REMARK 921   NORMALIZED FREE ENERGY PREDICTED BY IDOCK:   -1.08 KCAL/MOL
REMARK 922        TOTAL FREE ENERGY PREDICTED BY IDOCK:   -3.96 KCAL/MOL
REMARK 923 INTER-LIGAND FREE ENERGY PREDICTED BY IDOCK:   -3.28 KCAL/MOL
REMARK 924 INTRA-LIGAND FREE ENERGY PREDICTED BY IDOCK:   -0.68 KCAL/MOL
REMARK 927      BINDING AFFINITY PREDICTED BY RF-SCORE:    0.00 PKD
ROOT
HETATM    1  C   UNL     1      -8.017   3.910  74.315  1.00  0.00    -0.086 C  
HETATM    2  C   UNL     1      -8.843   5.176  74.527  1.00  0.00    -0.110 C  
ENDROOT
BRANCH   2   3
HETATM    3  N   UNL     1      -8.237   6.393  73.956  1.00  0.00    -0.110 NA 
BRANCH   3   4
HETATM    4  C   UNL     1      -8.677   6.831  72.698  1.00  0.00    -0.122 A  
HETATM    5  C   UNL     1      -8.893   8.185  72.404  1.00  0.00    -0.260 A  
HETATM    6  C   UNL     1      -8.881   5.935  71.637  1.00  0.00    -0.139 A  
HETATM    7  C   UNL     1      -9.207   8.629  71.103  1.00  0.00    -0.269 A  
HETATM    8  C   UNL     1      -9.194   6.371  70.329  1.00  0.00    -0.158 A  
HETATM    9  C   UNL     1      -9.325   7.729  70.035  1.00  0.00    -0.157 A  
BRANCH   9  10
HETATM   10  C   UNL     1      -9.561   8.234  68.633  1.00  0.00    -0.152 C  
BRANCH  10  11
HETATM   11  C   UNL     1      -9.456   7.270  67.456  1.00  0.00    -0.151 A  
HETATM   12  H   UNL     1     -12.693   5.287  66.317  1.00  0.00     0.000 HD 
HETATM   13  C   UNL     1      -8.320   6.976  66.666  1.00  0.00    -0.118 A  
HETATM   14  O   UNL     1     -11.916   5.105  65.801  1.00  0.00     1.209 OA 
HETATM   15  C   UNL     1      -8.369   6.023  65.623  1.00  0.00    -0.145 A  
HETATM   16  S   UNL     1      -6.718   7.728  66.801  1.00  0.00    -0.068 S  
HETATM   17  C   UNL     1     -10.629   6.548  67.136  1.00  0.00    -0.398 A  
HETATM   18  O   UNL     1      -6.724   8.712  67.859  1.00  0.00    -0.064 OA 
HETATM   19  O   UNL     1      -5.764   6.647  66.793  1.00  0.00    -0.013 OA 
HETATM   20  O   UNL     1      -9.125   2.928  64.396  1.00  0.00    -0.110 OA 
HETATM   21  C   UNL     1      -9.560   5.398  65.291  1.00  0.00     0.206 A  
HETATM   22  O   UNL     1      -6.583   8.503  65.378  1.00  0.00    -0.058 OA 
HETATM   23  O   UNL     1     -10.955   4.243  63.447  1.00  0.00     0.037 OA 
HETATM   24  O   UNL     1      -8.550   4.868  62.953  1.00  0.00    -0.117 OA 
HETATM   25  S   UNL     1      -9.574   4.371  63.853  1.00  0.00     0.029 S  
HETATM   26  C   UNL     1     -10.694   5.663  66.044  1.00  0.00     0.156 A  
ENDBRANCH  10  11
BRANCH  10  27
HETATM   27  C   UNL     1      -9.678   9.584  68.412  1.00  0.00    -0.168 A  
HETATM   28  C   UNL     1      -8.607  10.492  68.814  1.00  0.00    -0.146 A  
HETATM   29  C   UNL     1      -9.974  12.491  68.270  1.00  0.00    -0.229 A  
HETATM   30  C   UNL     1     -10.979  11.557  67.653  1.00  0.00    -0.296 A  
HETATM   31  C   UNL     1     -10.831  10.218  67.740  1.00  0.00    -0.346 A  
HETATM   32  C   UNL     1      -8.706  11.822  68.711  1.00  0.00     0.019 A  
BRANCH  29  33
HETATM   33  N   UNL     1     -10.169  13.771  68.465  1.00  0.00    -0.237 NA 
BRANCH  33  34
HETATM   34  C   UNL     1     -11.361  14.354  69.197  1.00  0.00    -0.277 C  
HETATM   35  C   UNL     1     -11.165  14.375  70.700  1.00  0.00     0.031 C  
ENDBRANCH  33  34
BRANCH  33  36
HETATM   36  C   UNL     1      -9.104  14.800  68.128  1.00  0.00    -0.180 C  
HETATM   37  C   UNL     1      -8.095  14.905  69.260  1.00  0.00    -0.135 C  
ENDBRANCH  33  36
ENDBRANCH  29  33
ENDBRANCH  10  27
ENDBRANCH   9  10
ENDBRANCH   3   4
BRANCH   3  38
HETATM   38  C   UNL     1      -6.903   6.810  74.425  1.00  0.00    -0.091 C  
HETATM   39  C   UNL     1      -5.870   6.860  73.306  1.00  0.00    -0.053 C  
ENDBRANCH   3  38
ENDBRANCH   2   3
TORSDOF 9
ENDMDL
MODEL       52
REMARK 921   NORMALIZED FREE ENERGY PREDICTED BY IDOCK:   -0.58 KCAL/MOL
REMARK 922        TOTAL FREE ENERGY PREDICTED BY IDOCK:   -3.19 KCAL/MOL
REMARK 923 INTER-LIGAND FREE ENERGY PREDICTED BY IDOCK:   -1.48 KCAL/MOL
REMARK 924 INTRA-LIGAND FREE ENERGY PREDICTED BY IDOCK:   -1.71 KCAL/MOL
REMARK 927      BINDING AFFINITY PREDICTED BY RF-SCORE:    0.00 PKD
ROOT
HETATM    1  C   UNL     1      -5.806  16.863  72.558  1.00  0.00     2.375 C  
HETATM    2  C   UNL     1      -5.173  16.655  71.185  1.00  0.00    -0.074 C  
ENDROOT
BRANCH   2   3
HETATM    3  N   UNL     1      -6.135  16.684  70.068  1.00  0.00    -0.200 NA 
BRANCH   3   4
HETATM    4  C   UNL     1      -6.771  15.488  69.704  1.00  0.00    -0.180 A  
HETATM    5  C   UNL     1      -7.989  15.462  69.009  1.00  0.00    -0.202 A  
HETATM    6  C   UNL     1      -6.195  14.236  69.972  1.00  0.00    -0.157 A  
HETATM    7  C   UNL     1      -8.556  14.263  68.531  1.00  0.00    -0.175 A  
HETATM    8  C   UNL     1      -6.754  13.029  69.496  1.00  0.00     0.029 A  
HETATM    9  C   UNL     1      -7.925  13.027  68.736  1.00  0.00     0.058 A  
BRANCH   9  10
HETATM   10  C   UNL     1      -8.494  11.769  68.130  1.00  0.00    -0.158 C  
BRANCH  10  11
HETATM   11  C   UNL     1      -9.590  11.869  67.075  1.00  0.00    -0.196 A  
HETATM   12  H   UNL     1      -8.644  11.256  63.275  1.00  0.00     0.000 HD 
HETATM   13  C   UNL     1     -10.963  12.148  67.265  1.00  0.00    -0.260 A  
HETATM   14  O   UNL     1      -9.562  11.447  63.429  1.00  0.00    -0.296 OA 
HETATM   15  C   UNL     1     -11.858  12.246  66.175  1.00  0.00    -0.398 A  
HETATM   16  S   UNL     1     -11.786  12.384  68.821  1.00  0.00    -0.267 S  
HETATM   17  C   UNL     1      -9.179  11.699  65.732  1.00  0.00    -0.184 A  
HETATM   18  O   UNL     1     -10.840  12.249  69.903  1.00  0.00     0.243 OA 
HETATM   19  O   UNL     1     -12.589  13.573  68.674  1.00  0.00     0.124 OA 
HETATM   20  O   UNL     1     -12.774  13.469  63.122  1.00  0.00    -0.718 OA 
HETATM   21  C   UNL     1     -11.429  11.992  64.882  1.00  0.00    -0.294 A  
HETATM   22  O   UNL     1     -12.803  11.117  68.864  1.00  0.00     0.003 OA 
HETATM   23  O   UNL     1     -12.072  11.210  62.504  1.00  0.00     0.985 OA 
HETATM   24  O   UNL     1     -13.904  11.548  64.221  1.00  0.00     0.623 OA 
HETATM   25  S   UNL     1     -12.651  11.943  63.607  1.00  0.00    -0.303 S  
HETATM   26  C   UNL     1     -10.089  11.713  64.659  1.00  0.00    -0.262 A  
ENDBRANCH  10  11
BRANCH  10  27
HETATM   27  C   UNL     1      -8.160  10.550  68.667  1.00  0.00    -0.127 A  
HETATM   28  C   UNL     1      -7.348   9.605  67.904  1.00  0.00    -0.082 A  
HETATM   29  C   UNL     1      -7.669   7.821  69.600  1.00  0.00    -0.101 A  
HETATM   30  C   UNL     1      -8.310   8.859  70.479  1.00  0.00    -0.177 A  
HETATM   31  C   UNL     1      -8.540  10.110  70.025  1.00  0.00    -0.019 A  
HETATM   32  C   UNL     1      -7.073   8.370  68.337  1.00  0.00    -0.080 A  
BRANCH  29  33
HETATM   33  N   UNL     1      -7.651   6.537  69.855  1.00  0.00    -0.097 NA 
BRANCH  33  34
HETATM   34  C   UNL     1      -6.852   5.897  70.973  1.00  0.00    -0.065 C  
HETATM   35  C   UNL     1      -5.781   6.818  71.520  1.00  0.00    -0.036 C  
ENDBRANCH  33  34
BRANCH  33  36
HETATM   36  C   UNL     1      -8.592   5.571  69.156  1.00  0.00    -0.104 C  
HETATM   37  C   UNL     1      -9.655   5.077  70.124  1.00  0.00    -0.257 C  
ENDBRANCH  33  36
ENDBRANCH  29  33
ENDBRANCH  10  27
ENDBRANCH   9  10
ENDBRANCH   3   4
BRANCH   3  38
HETATM   38  C   UNL     1      -6.036  17.766  69.072  1.00  0.00    -0.201 C  
HETATM   39  C   UNL     1      -7.201  18.747  69.145  1.00  0.00    -0.253 C  
ENDBRANCH   3  38
ENDBRANCH   2   3
TORSDOF 9
ENDMDL
MODEL       53
REMARK 921   NORMALIZED FREE ENERGY PREDICTED BY IDOCK:   -0.03 KCAL/MOL
REMARK 922        TOTAL FREE ENERGY PREDICTED BY IDOCK:   -2.35 KCAL/MOL
REMARK 923 INTER-LIGAND FREE ENERGY PREDICTED BY IDOCK:   -2.17 KCAL/MOL
REMARK 924 INTRA-LIGAND FREE ENERGY PREDICTED BY IDOCK:   -0.18 KCAL/MOL
REMARK 927      BINDING AFFINITY PREDICTED BY RF-SCORE:    0.00 PKD
ROOT
HETATM    1  C   UNL     1     -12.276  13.942  63.767  1.00  0.00    -0.310 C  
HETATM    2  C   UNL     1     -11.996  12.697  62.929  1.00  0.00     0.290 C  
ENDROOT
BRANCH   2   3
HETATM    3  N   UNL     1     -10.868  11.884  63.419  1.00  0.00    -0.406 NA 
BRANCH   3   4
HETATM    4  C   UNL     1     -10.777  11.628  64.795  1.00  0.00    -0.309 A  
HETATM    5  C   UNL     1      -9.742  12.138  65.592  1.00  0.00    -0.223 A  
HETATM    6  C   UNL     1     -11.754  10.878  65.470  1.00  0.00     1.166 A  
HETATM    7  C   UNL     1      -9.730  11.988  66.994  1.00  0.00    -0.204 A  
HETATM    8  C   UNL     1     -11.751  10.723  66.874  1.00  0.00     0.779 A  
HETATM    9  C   UNL     1     -10.758  11.307  67.662  1.00  0.00    -0.270 A  
BRANCH   9  10
HETATM   10  C   UNL     1     -10.778  11.244  69.169  1.00  0.00    -0.247 C  
BRANCH  10  11
HETATM   11  C   UNL     1     -10.350   9.963  69.877  1.00  0.00    -0.298 A  
HETATM   12  H   UNL     1     -13.142   7.414  71.066  1.00  0.00     0.000 HD 
HETATM   13  C   UNL     1      -9.038   9.525  70.172  1.00  0.00    -0.240 A  
HETATM   14  O   UNL     1     -12.252   7.142  71.254  1.00  0.00    -0.328 OA 
HETATM   15  C   UNL     1      -8.799   8.321  70.874  1.00  0.00    -0.171 A  
HETATM   16  S   UNL     1      -7.527  10.338  69.718  1.00  0.00    -0.150 S  
HETATM   17  C   UNL     1     -11.394   9.123  70.330  1.00  0.00    -0.217 A  
HETATM   18  O   UNL     1      -7.820  11.546  68.982  1.00  0.00    -0.100 OA 
HETATM   19  O   UNL     1      -6.713  10.367  70.908  1.00  0.00    -0.341 OA 
HETATM   20  O   UNL     1      -9.322   6.202  73.499  1.00  0.00    -0.131 OA 
HETATM   21  C   UNL     1      -9.848   7.488  71.227  1.00  0.00    -0.179 A  
HETATM   22  O   UNL     1      -6.855   9.264  68.698  1.00  0.00    -0.060 OA 
HETATM   23  O   UNL     1     -10.612   5.075  71.754  1.00  0.00    -0.201 OA 
HETATM   24  O   UNL     1      -8.143   5.534  71.416  1.00  0.00    -0.112 OA 
HETATM   25  S   UNL     1      -9.447   5.914  71.924  1.00  0.00    -0.150 S  
HETATM   26  C   UNL     1     -11.148   7.885  70.951  1.00  0.00    -0.255 A  
ENDBRANCH  10  11
BRANCH  10  27
HETATM   27  C   UNL     1     -11.360  12.265  69.879  1.00  0.00    -0.084 A  
HETATM   28  C   UNL     1     -11.309  13.636  69.376  1.00  0.00    -0.303 A  
HETATM   29  C   UNL     1     -12.289  14.537  71.471  1.00  0.00    -0.361 A  
HETATM   30  C   UNL     1     -12.543  13.115  71.889  1.00  0.00    -0.114 A  
HETATM   31  C   UNL     1     -12.095  12.080  71.147  1.00  0.00     0.056 A  
HETATM   32  C   UNL     1     -11.774  14.681  70.069  1.00  0.00    -0.348 A  
BRANCH  29  33
HETATM   33  N   UNL     1     -12.448  15.581  72.245  1.00  0.00    -0.357 NA 
BRANCH  33  34
HETATM   34  C   UNL     1     -11.582  16.824  72.195  1.00  0.00     0.186 C  
HETATM   35  C   UNL     1     -11.363  17.321  70.781  1.00  0.00     1.448 C  
ENDBRANCH  33  34
BRANCH  33  36
HETATM   36  C   UNL     1     -13.653  15.720  73.159  1.00  0.00    -0.504 C  
HETATM   37  C   UNL     1     -13.241  16.347  74.482  1.00  0.00     0.794 C  
ENDBRANCH  33  36
ENDBRANCH  29  33
ENDBRANCH  10  27
ENDBRANCH   9  10
ENDBRANCH   3   4
BRANCH   3  38
HETATM   38  C   UNL     1      -9.645  11.797  62.600  1.00  0.00     0.326 C  
HETATM   39  C   UNL     1      -8.810  10.560  62.911  1.00  0.00    -0.240 C  
ENDBRANCH   3  38
ENDBRANCH   2   3
TORSDOF 9
ENDMDL
MODEL       54
REMARK 921   NORMALIZED FREE ENERGY PREDICTED BY IDOCK:    1.37 KCAL/MOL
REMARK 922        TOTAL FREE ENERGY PREDICTED BY IDOCK:   -0.21 KCAL/MOL
REMARK 923 INTER-LIGAND FREE ENERGY PREDICTED BY IDOCK:    0.38 KCAL/MOL
REMARK 924 INTRA-LIGAND FREE ENERGY PREDICTED BY IDOCK:   -0.59 KCAL/MOL
REMARK 927      BINDING AFFINITY PREDICTED BY RF-SCORE:    0.00 PKD
ROOT
HETATM    1  C   UNL     1     -10.932   1.650  65.810  1.00  0.00     4.324 C  
HETATM    2  C   UNL     1     -10.043   1.482  64.579  1.00  0.00     0.238 C  
ENDROOT
BRANCH   2   3
HETATM    3  N   UNL     1      -9.528   2.751  64.032  1.00  0.00    -0.123 NA 
BRANCH   3   4
HETATM    4  C   UNL     1      -9.206   3.782  64.926  1.00  0.00    -0.148 A  
HETATM    5  C   UNL     1      -9.318   5.138  64.587  1.00  0.00     0.168 A  
HETATM    6  C   UNL     1      -8.796   3.513  66.242  1.00  0.00    -0.131 A  
HETATM    7  C   UNL     1      -9.120   6.167  65.531  1.00  0.00     0.055 A  
HETATM    8  C   UNL     1      -8.596   4.537  67.195  1.00  0.00    -0.104 A  
HETATM    9  C   UNL     1      -8.791   5.879  66.864  1.00  0.00    -0.115 A  
BRANCH   9  10
HETATM   10  C   UNL     1      -8.683   6.988  67.881  1.00  0.00    -0.125 C  
BRANCH  10  11
HETATM   11  C   UNL     1      -8.338   6.654  69.328  1.00  0.00    -0.124 A  
HETATM   12  H   UNL     1      -4.523   6.392  70.370  1.00  0.00     0.000 HD 
HETATM   13  C   UNL     1      -9.223   6.426  70.407  1.00  0.00    -0.155 A  
HETATM   14  O   UNL     1      -5.138   6.242  71.078  1.00  0.00    -0.016 OA 
HETATM   15  C   UNL     1      -8.750   6.086  71.695  1.00  0.00    -0.135 A  
HETATM   16  S   UNL     1     -10.994   6.548  70.363  1.00  0.00    -0.326 S  
HETATM   17  C   UNL     1      -6.962   6.515  69.624  1.00  0.00    -0.067 A  
HETATM   18  O   UNL     1     -11.428   6.923  69.037  1.00  0.00    -0.063 OA 
HETATM   19  O   UNL     1     -11.495   5.358  71.004  1.00  0.00     0.158 OA 
HETATM   20  O   UNL     1      -6.840   4.206  73.809  1.00  0.00    -0.054 OA 
HETATM   21  C   UNL     1      -7.391   6.041  71.960  1.00  0.00    -0.094 A  
HETATM   22  O   UNL     1     -11.275   7.794  71.368  1.00  0.00    -0.241 OA 
HETATM   23  O   UNL     1      -5.525   6.266  73.735  1.00  0.00    -0.040 OA 
HETATM   24  O   UNL     1      -7.945   6.327  74.485  1.00  0.00    -0.107 OA 
HETATM   25  S   UNL     1      -6.891   5.802  73.638  1.00  0.00    -0.081 S  
HETATM   26  C   UNL     1      -6.494   6.260  70.926  1.00  0.00    -0.048 A  
ENDBRANCH  10  11
BRANCH  10  27
HETATM   27  C   UNL     1      -9.081   8.257  67.540  1.00  0.00    -0.148 A  
HETATM   28  C   UNL     1      -8.303   9.415  67.975  1.00  0.00    -0.119 A  
HETATM   29  C   UNL     1     -10.020  10.998  67.132  1.00  0.00    -0.187 A  
HETATM   30  C   UNL     1     -10.702   9.819  66.493  1.00  0.00    -0.059 A  
HETATM   31  C   UNL     1     -10.260   8.561  66.704  1.00  0.00    -0.345 A  
HETATM   32  C   UNL     1      -8.694  10.675  67.754  1.00  0.00    -0.129 A  
BRANCH  29  33
HETATM   33  N   UNL     1     -10.527  12.203  67.201  1.00  0.00    -0.217 NA 
BRANCH  33  34
HETATM   34  C   UNL     1     -11.933  12.516  67.672  1.00  0.00    -0.221 C  
HETATM   35  C   UNL     1     -12.006  12.739  69.169  1.00  0.00    -0.296 C  
ENDBRANCH  33  34
BRANCH  33  36
HETATM   36  C   UNL     1      -9.673  13.440  66.984  1.00  0.00    -0.239 C  
HETATM   37  C   UNL     1     -10.380  14.411  66.051  1.00  0.00    -0.319 C  
ENDBRANCH  33  36
ENDBRANCH  29  33
ENDBRANCH  10  27
ENDBRANCH   9  10
ENDBRANCH   3   4
BRANCH   3  38
HETATM   38  C   UNL     1      -9.832   3.097  62.631  1.00  0.00    -0.095 C  
HETATM   39  C   UNL     1     -11.276   3.543  62.431  1.00  0.00     0.110 C  
ENDBRANCH   3  38
ENDBRANCH   2   3
TORSDOF 9
ENDMDL
MODEL       55
REMARK 921   NORMALIZED FREE ENERGY PREDICTED BY IDOCK:    1.89 KCAL/MOL
REMARK 922        TOTAL FREE ENERGY PREDICTED BY IDOCK:    0.58 KCAL/MOL
REMARK 923 INTER-LIGAND FREE ENERGY PREDICTED BY IDOCK:    0.03 KCAL/MOL
REMARK 924 INTRA-LIGAND FREE ENERGY PREDICTED BY IDOCK:    0.54 KCAL/MOL
REMARK 927      BINDING AFFINITY PREDICTED BY RF-SCORE:    0.00 PKD
ROOT
HETATM    1  C   UNL     1      -8.288   3.251  73.034  1.00  0.00    -0.081 C  
HETATM    2  C   UNL     1      -8.053   2.132  72.022  1.00  0.00    -0.053 C  
ENDROOT
BRANCH   2   3
HETATM    3  N   UNL     1      -8.513   2.448  70.658  1.00  0.00    -0.049 NA 
BRANCH   3   4
HETATM    4  C   UNL     1      -8.536   3.791  70.255  1.00  0.00    -0.061 A  
HETATM    5  C   UNL     1      -9.726   4.524  70.136  1.00  0.00    -0.287 A  
HETATM    6  C   UNL     1      -7.353   4.501  69.993  1.00  0.00    -0.053 A  
HETATM    7  C   UNL     1      -9.731   5.907  69.860  1.00  0.00    -0.208 A  
HETATM    8  C   UNL     1      -7.349   5.886  69.716  1.00  0.00    -0.075 A  
HETATM    9  C   UNL     1      -8.536   6.619  69.682  1.00  0.00    -0.133 A  
BRANCH   9  10
HETATM   10  C   UNL     1      -8.560   8.114  69.488  1.00  0.00    -0.134 C  
BRANCH  10  11
HETATM   11  C   UNL     1      -9.651   8.945  70.155  1.00  0.00    -0.199 A  
HETATM   12  H   UNL     1     -11.788  11.431  67.928  1.00  0.00     0.000 HD 
HETATM   13  C   UNL     1     -10.039   8.946  71.515  1.00  0.00    -0.324 A  
HETATM   14  O   UNL     1     -12.030  11.415  68.847  1.00  0.00    -0.347 OA 
HETATM   15  C   UNL     1     -11.053   9.807  71.995  1.00  0.00     0.668 A  
HETATM   16  S   UNL     1      -9.389   7.907  72.799  1.00  0.00    -0.265 S  
HETATM   17  C   UNL     1     -10.338   9.856  69.320  1.00  0.00    -0.235 A  
HETATM   18  O   UNL     1      -8.379   7.029  72.257  1.00  0.00    -0.110 OA 
HETATM   19  O   UNL     1      -9.104   8.776  73.913  1.00  0.00     0.256 OA 
HETATM   20  O   UNL     1     -12.490  12.885  72.329  1.00  0.00     0.179 OA 
HETATM   21  C   UNL     1     -11.756  10.626  71.127  1.00  0.00    -0.154 A  
HETATM   22  O   UNL     1     -10.686   7.013  73.203  1.00  0.00    -0.274 OA 
HETATM   23  O   UNL     1     -13.962  11.887  70.651  1.00  0.00     2.104 OA 
HETATM   24  O   UNL     1     -13.652  10.764  72.901  1.00  0.00     0.702 OA 
HETATM   25  S   UNL     1     -13.133  11.521  71.778  1.00  0.00    -0.274 S  
HETATM   26  C   UNL     1     -11.403  10.649  69.786  1.00  0.00    -0.301 A  
ENDBRANCH  10  11
BRANCH  10  27
HETATM   27  C   UNL     1      -7.720   8.689  68.565  1.00  0.00    -0.100 A  
HETATM   28  C   UNL     1      -6.521   9.399  69.001  1.00  0.00    -0.046 A  
HETATM   29  C   UNL     1      -6.052  10.205  66.701  1.00  0.00    -0.065 A  
HETATM   30  C   UNL     1      -7.151   9.295  66.226  1.00  0.00    -0.087 A  
HETATM   31  C   UNL     1      -7.918   8.613  67.103  1.00  0.00    -0.100 A  
HETATM   32  C   UNL     1      -5.720  10.058  68.156  1.00  0.00    -0.038 A  
BRANCH  29  33
HETATM   33  N   UNL     1      -5.446  11.093  65.954  1.00  0.00    -0.182 NA 
BRANCH  33  34
HETATM   34  C   UNL     1      -5.130  10.903  64.484  1.00  0.00    -0.041 C  
HETATM   35  C   UNL     1      -5.202   9.450  64.059  1.00  0.00    -0.060 C  
ENDBRANCH  33  34
BRANCH  33  36
HETATM   36  C   UNL     1      -5.161  12.498  66.456  1.00  0.00     0.952 C  
HETATM   37  C   UNL     1      -6.194  12.905  67.495  1.00  0.00    -0.154 C  
ENDBRANCH  33  36
ENDBRANCH  29  33
ENDBRANCH  10  27
ENDBRANCH   9  10
ENDBRANCH   3   4
BRANCH   3  38
HETATM   38  C   UNL     1      -9.383   1.484  69.959  1.00  0.00    -0.097 C  
HETATM   39  C   UNL     1      -9.353   1.648  68.444  1.00  0.00    -0.241 C  
ENDBRANCH   3  38
ENDBRANCH   2   3
TORSDOF 9
ENDMDL
MODEL       56
REMARK 921   NORMALIZED FREE ENERGY PREDICTED BY IDOCK:    2.10 KCAL/MOL
REMARK 922        TOTAL FREE ENERGY PREDICTED BY IDOCK:    0.89 KCAL/MOL
REMARK 923 INTER-LIGAND FREE ENERGY PREDICTED BY IDOCK:   -0.31 KCAL/MOL
REMARK 924 INTRA-LIGAND FREE ENERGY PREDICTED BY IDOCK:    1.20 KCAL/MOL
REMARK 927      BINDING AFFINITY PREDICTED BY RF-SCORE:    0.00 PKD
ROOT
HETATM    1  C   UNL     1     -10.982   1.662  65.818  1.00  0.00     4.324 C  
HETATM    2  C   UNL     1     -10.074   1.474  64.605  1.00  0.00     0.325 C  
ENDROOT
BRANCH   2   3
HETATM    3  N   UNL     1      -9.551   2.733  64.044  1.00  0.00    -0.133 NA 
BRANCH   3   4
HETATM    4  C   UNL     1      -9.311   3.804  64.917  1.00  0.00    -0.156 A  
HETATM    5  C   UNL     1      -9.357   5.142  64.501  1.00  0.00     0.211 A  
HETATM    6  C   UNL     1      -9.058   3.598  66.283  1.00  0.00    -0.157 A  
HETATM    7  C   UNL     1      -9.247   6.215  65.409  1.00  0.00     0.210 A  
HETATM    8  C   UNL     1      -8.947   4.666  67.201  1.00  0.00    -0.118 A  
HETATM    9  C   UNL     1      -9.077   5.992  66.783  1.00  0.00    -0.134 A  
BRANCH   9  10
HETATM   10  C   UNL     1      -9.063   7.150  67.750  1.00  0.00    -0.127 C  
BRANCH  10  11
HETATM   11  C   UNL     1      -8.943   6.882  69.246  1.00  0.00    -0.137 A  
HETATM   12  H   UNL     1     -11.293   4.148  70.891  1.00  0.00     0.000 HD 
HETATM   13  C   UNL     1      -8.064   7.488  70.174  1.00  0.00    -0.119 A  
HETATM   14  O   UNL     1     -10.693   4.569  71.495  1.00  0.00     0.033 OA 
HETATM   15  C   UNL     1      -8.097   7.160  71.549  1.00  0.00    -0.103 A  
HETATM   16  S   UNL     1      -6.802   8.682  69.808  1.00  0.00    -0.043 S  
HETATM   17  C   UNL     1      -9.849   5.939  69.784  1.00  0.00    -0.217 A  
HETATM   18  O   UNL     1      -6.789   8.965  68.392  1.00  0.00    -0.063 OA 
HETATM   19  O   UNL     1      -6.954   9.737  70.779  1.00  0.00    -0.226 OA 
HETATM   20  O   UNL     1      -9.743   6.702  74.504  1.00  0.00    -0.270 OA 
HETATM   21  C   UNL     1      -8.945   6.170  72.020  1.00  0.00    -0.139 A  
HETATM   22  O   UNL     1      -5.445   7.870  70.184  1.00  0.00    -0.023 OA 
HETATM   23  O   UNL     1      -9.382   4.379  73.831  1.00  0.00    -0.112 OA 
HETATM   24  O   UNL     1      -7.409   5.944  74.107  1.00  0.00    -0.088 OA 
HETATM   25  S   UNL     1      -8.781   5.688  73.712  1.00  0.00    -0.120 S  
HETATM   26  C   UNL     1      -9.820   5.554  71.137  1.00  0.00    -0.181 A  
ENDBRANCH  10  11
BRANCH  10  27
HETATM   27  C   UNL     1      -9.348   8.413  67.293  1.00  0.00    -0.181 A  
HETATM   28  C   UNL     1      -8.423   9.099  66.395  1.00  0.00    -0.129 A  
HETATM   29  C   UNL     1      -9.719  11.212  66.528  1.00  0.00    -0.198 A  
HETATM   30  C   UNL     1     -10.779  10.441  67.265  1.00  0.00    -0.331 A  
HETATM   31  C   UNL     1     -10.584   9.154  67.621  1.00  0.00    -0.307 A  
HETATM   32  C   UNL     1      -8.603  10.363  65.996  1.00  0.00    -0.158 A  
BRANCH  29  33
HETATM   33  N   UNL     1      -9.711  12.513  66.381  1.00  0.00    -0.246 NA 
BRANCH  33  34
HETATM   34  C   UNL     1     -10.177  13.237  65.134  1.00  0.00    -0.287 C  
HETATM   35  C   UNL     1     -10.699  14.628  65.432  1.00  0.00    -0.382 C  
ENDBRANCH  33  34
BRANCH  33  36
HETATM   36  C   UNL     1      -9.399  13.445  67.539  1.00  0.00    -0.218 C  
HETATM   37  C   UNL     1      -7.915  13.397  67.869  1.00  0.00    -0.155 C  
ENDBRANCH  33  36
ENDBRANCH  29  33
ENDBRANCH  10  27
ENDBRANCH   9  10
ENDBRANCH   3   4
BRANCH   3  38
HETATM   38  C   UNL     1      -9.766   3.019  62.614  1.00  0.00    -0.092 C  
HETATM   39  C   UNL     1     -10.964   3.929  62.366  1.00  0.00    -0.061 C  
ENDBRANCH   3  38
ENDBRANCH   2   3
TORSDOF 9
ENDMDL
MODEL       57
REMARK 921   NORMALIZED FREE ENERGY PREDICTED BY IDOCK:    2.35 KCAL/MOL
REMARK 922        TOTAL FREE ENERGY PREDICTED BY IDOCK:    1.27 KCAL/MOL
REMARK 923 INTER-LIGAND FREE ENERGY PREDICTED BY IDOCK:   -4.62 KCAL/MOL
REMARK 924 INTRA-LIGAND FREE ENERGY PREDICTED BY IDOCK:    5.89 KCAL/MOL
REMARK 927      BINDING AFFINITY PREDICTED BY RF-SCORE:    0.00 PKD
ROOT
HETATM    1  C   UNL     1      -5.600   6.875  63.710  1.00  0.00    -0.032 C  
HETATM    2  C   UNL     1      -6.022   8.243  63.180  1.00  0.00    -0.077 C  
ENDROOT
BRANCH   2   3
HETATM    3  N   UNL     1      -7.482   8.446  63.132  1.00  0.00    -0.105 NA 
BRANCH   3   4
HETATM    4  C   UNL     1      -8.084   9.204  64.147  1.00  0.00    -0.149 A  
HETATM    5  C   UNL     1      -8.399   8.669  65.404  1.00  0.00    -0.165 A  
HETATM    6  C   UNL     1      -8.363  10.570  63.977  1.00  0.00    -0.091 A  
HETATM    7  C   UNL     1      -8.881   9.469  66.461  1.00  0.00    -0.156 A  
HETATM    8  C   UNL     1      -8.845  11.379  65.030  1.00  0.00     0.149 A  
HETATM    9  C   UNL     1      -9.076  10.848  66.300  1.00  0.00    -0.192 A  
BRANCH   9  10
HETATM   10  C   UNL     1      -9.496  11.701  67.471  1.00  0.00    -0.173 C  
BRANCH  10  11
HETATM   11  C   UNL     1     -10.348  11.094  68.580  1.00  0.00    -0.219 A  
HETATM   12  H   UNL     1      -9.628   7.367  69.717  1.00  0.00     0.000 HD 
HETATM   13  C   UNL     1     -11.398  11.702  69.307  1.00  0.00    -0.290 A  
HETATM   14  O   UNL     1     -10.331   7.796  70.190  1.00  0.00    -0.209 OA 
HETATM   15  C   UNL     1     -12.127  10.993  70.289  1.00  0.00    -0.448 A  
HETATM   16  S   UNL     1     -11.951  13.383  69.157  1.00  0.00    -0.283 S  
HETATM   17  C   UNL     1     -10.083   9.743  68.900  1.00  0.00    -0.194 A  
HETATM   18  O   UNL     1     -11.161  14.073  68.163  1.00  0.00    -0.254 OA 
HETATM   19  O   UNL     1     -13.388  13.326  69.061  1.00  0.00     2.150 OA 
HETATM   20  O   UNL     1     -13.925   8.292  71.349  1.00  0.00    -0.339 OA 
HETATM   21  C   UNL     1     -11.780   9.695  70.627  1.00  0.00    -0.280 A  
HETATM   22  O   UNL     1     -11.587  13.993  70.619  1.00  0.00    -0.208 OA 
HETATM   23  O   UNL     1     -11.784   7.860  72.448  1.00  0.00    -0.333 OA 
HETATM   24  O   UNL     1     -13.025  10.025  72.887  1.00  0.00     0.308 OA 
HETATM   25  S   UNL     1     -12.614   8.954  71.998  1.00  0.00    -0.412 S  
HETATM   26  C   UNL     1     -10.754   9.068  69.936  1.00  0.00    -0.229 A  
ENDBRANCH  10  11
BRANCH  10  27
HETATM   27  C   UNL     1      -9.272  13.056  67.433  1.00  0.00    -0.208 A  
HETATM   28  C   UNL     1      -8.655  13.733  68.572  1.00  0.00    -0.122 A  
HETATM   29  C   UNL     1      -9.046  15.969  67.569  1.00  0.00    -0.199 A  
HETATM   30  C   UNL     1      -9.471  15.261  66.312  1.00  0.00    -0.341 A  
HETATM   31  C   UNL     1      -9.581  13.916  66.273  1.00  0.00    -0.274 A  
HETATM   32  C   UNL     1      -8.500  15.060  68.629  1.00  0.00    -0.168 A  
BRANCH  29  33
HETATM   33  N   UNL     1      -9.167  17.256  67.775  1.00  0.00    -0.236 NA 
BRANCH  33  34
HETATM   34  C   UNL     1      -8.964  17.931  69.117  1.00  0.00     0.118 C  
HETATM   35  C   UNL     1      -9.658  19.275  69.201  1.00  0.00    -0.355 C  
ENDBRANCH  33  34
BRANCH  33  36
HETATM   36  C   UNL     1      -9.347  18.235  66.628  1.00  0.00    -0.303 C  
HETATM   37  C   UNL     1      -8.116  19.117  66.490  1.00  0.00    -0.309 C  
ENDBRANCH  33  36
ENDBRANCH  29  33
ENDBRANCH  10  27
ENDBRANCH   9  10
ENDBRANCH   3   4
BRANCH   3  38
HETATM   38  C   UNL     1      -8.309   7.486  62.379  1.00  0.00    -0.040 C  
HETATM   39  C   UNL     1      -8.314   6.094  63.000  1.00  0.00     0.043 C  
ENDBRANCH   3  38
ENDBRANCH   2   3
TORSDOF 9
ENDMDL
MODEL       58
REMARK 921   NORMALIZED FREE ENERGY PREDICTED BY IDOCK:    2.41 KCAL/MOL
REMARK 922        TOTAL FREE ENERGY PREDICTED BY IDOCK:    1.37 KCAL/MOL
REMARK 923 INTER-LIGAND FREE ENERGY PREDICTED BY IDOCK:    1.97 KCAL/MOL
REMARK 924 INTRA-LIGAND FREE ENERGY PREDICTED BY IDOCK:   -0.60 KCAL/MOL
REMARK 927      BINDING AFFINITY PREDICTED BY RF-SCORE:    0.00 PKD
ROOT
HETATM    1  C   UNL     1      -7.738   2.681  70.321  1.00  0.00    -0.044 C  
HETATM    2  C   UNL     1      -7.773   1.775  69.093  1.00  0.00    -0.042 C  
ENDROOT
BRANCH   2   3
HETATM    3  N   UNL     1      -8.519   2.337  67.951  1.00  0.00    -0.070 NA 
BRANCH   3   4
HETATM    4  C   UNL     1      -8.622   3.731  67.843  1.00  0.00    -0.098 A  
HETATM    5  C   UNL     1      -9.800   4.428  68.152  1.00  0.00    -0.132 A  
HETATM    6  C   UNL     1      -7.527   4.523  67.462  1.00  0.00    -0.074 A  
HETATM    7  C   UNL     1      -9.856   5.836  68.169  1.00  0.00    -0.162 A  
HETATM    8  C   UNL     1      -7.574   5.935  67.477  1.00  0.00    -0.093 A  
HETATM    9  C   UNL     1      -8.729   6.614  67.867  1.00  0.00    -0.116 A  
BRANCH   9  10
HETATM   10  C   UNL     1      -8.783   8.117  67.988  1.00  0.00    -0.128 C  
BRANCH  10  11
HETATM   11  C   UNL     1      -9.679   8.757  69.043  1.00  0.00    -0.172 A  
HETATM   12  H   UNL     1     -13.071  10.453  67.892  1.00  0.00     0.000 HD 
HETATM   13  C   UNL     1      -9.472   8.824  70.440  1.00  0.00    -0.179 A  
HETATM   14  O   UNL     1     -12.909  10.487  68.828  1.00  0.00     0.510 OA 
HETATM   15  C   UNL     1     -10.382   9.491  71.293  1.00  0.00    -0.287 A  
HETATM   16  S   UNL     1      -8.126   8.101  71.344  1.00  0.00    -0.126 S  
HETATM   17  C   UNL     1     -10.845   9.398  68.564  1.00  0.00    -0.149 A  
HETATM   18  O   UNL     1      -7.240   7.410  70.436  1.00  0.00    -0.066 OA 
HETATM   19  O   UNL     1      -7.637   9.129  72.228  1.00  0.00    -0.312 OA 
HETATM   20  O   UNL     1     -12.269  12.197  72.169  1.00  0.00     0.672 OA 
HETATM   21  C   UNL     1     -11.554  10.034  70.791  1.00  0.00    -0.360 A  
HETATM   22  O   UNL     1      -8.887   6.995  72.262  1.00  0.00    -0.132 OA 
HETATM   23  O   UNL     1     -13.999  10.721  71.271  1.00  0.00     0.541 OA 
HETATM   24  O   UNL     1     -12.542   9.950  73.195  1.00  0.00     1.044 OA 
HETATM   25  S   UNL     1     -12.724  10.672  71.951  1.00  0.00    -0.193 S  
HETATM   26  C   UNL     1     -11.790   9.985  69.425  1.00  0.00     0.133 A  
ENDBRANCH  10  11
BRANCH  10  27
HETATM   27  C   UNL     1      -8.178   8.893  67.030  1.00  0.00    -0.106 A  
HETATM   28  C   UNL     1      -8.978   9.771  66.179  1.00  0.00    -0.181 A  
HETATM   29  C   UNL     1      -7.018  10.338  64.767  1.00  0.00    -0.093 A  
HETATM   30  C   UNL     1      -6.164   9.617  65.773  1.00  0.00    -0.066 A  
HETATM   31  C   UNL     1      -6.719   8.945  66.804  1.00  0.00    -0.072 A  
HETATM   32  C   UNL     1      -8.456  10.476  65.170  1.00  0.00    -0.170 A  
BRANCH  29  33
HETATM   33  N   UNL     1      -6.593  10.780  63.610  1.00  0.00     0.194 NA 
BRANCH  33  34
HETATM   34  C   UNL     1      -7.483  11.035  62.411  1.00  0.00     0.016 C  
HETATM   35  C   UNL     1      -8.664  10.088  62.354  1.00  0.00    -0.234 C  
ENDBRANCH  33  34
BRANCH  33  36
HETATM   36  C   UNL     1      -5.166  11.263  63.417  1.00  0.00     0.480 C  
HETATM   37  C   UNL     1      -5.129  12.412  62.421  1.00  0.00     1.812 C  
ENDBRANCH  33  36
ENDBRANCH  29  33
ENDBRANCH  10  27
ENDBRANCH   9  10
ENDBRANCH   3   4
BRANCH   3  38
HETATM   38  C   UNL     1      -9.525   1.497  67.276  1.00  0.00     0.077 C  
HETATM   39  C   UNL     1      -9.565   1.719  65.768  1.00  0.00     0.351 C  
ENDBRANCH   3  38
ENDBRANCH   2   3
TORSDOF 9
ENDMDL
MODEL       59
REMARK 921   NORMALIZED FREE ENERGY PREDICTED BY IDOCK:    4.70 KCAL/MOL
REMARK 922        TOTAL FREE ENERGY PREDICTED BY IDOCK:    4.87 KCAL/MOL
REMARK 923 INTER-LIGAND FREE ENERGY PREDICTED BY IDOCK:   -4.46 KCAL/MOL
REMARK 924 INTRA-LIGAND FREE ENERGY PREDICTED BY IDOCK:    9.32 KCAL/MOL
REMARK 927      BINDING AFFINITY PREDICTED BY RF-SCORE:    0.00 PKD
ROOT
HETATM    1  C   UNL     1      -7.701   4.915  72.934  1.00  0.00    -0.093 C  
HETATM    2  C   UNL     1      -8.035   6.007  73.947  1.00  0.00    -0.101 C  
ENDROOT
BRANCH   2   3
HETATM    3  N   UNL     1      -7.631   7.361  73.527  1.00  0.00    -0.093 NA 
BRANCH   3   4
HETATM    4  C   UNL     1      -7.996   7.800  72.246  1.00  0.00    -0.113 A  
HETATM    5  C   UNL     1      -7.975   9.153  71.877  1.00  0.00     0.336 A  
HETATM    6  C   UNL     1      -8.360   6.897  71.235  1.00  0.00    -0.119 A  
HETATM    7  C   UNL     1      -8.215   9.573  70.552  1.00  0.00    -0.203 A  
HETATM    8  C   UNL     1      -8.601   7.308  69.905  1.00  0.00    -0.141 A  
HETATM    9  C   UNL     1      -8.496   8.650  69.535  1.00  0.00    -0.129 A  
BRANCH   9  10
HETATM   10  C   UNL     1      -8.649   9.111  68.107  1.00  0.00    -0.129 C  
BRANCH  10  11
HETATM   11  C   UNL     1      -8.150   8.225  66.970  1.00  0.00    -0.104 A  
HETATM   12  H   UNL     1      -7.010   4.520  67.798  1.00  0.00     0.000 HD 
HETATM   13  C   UNL     1      -8.043   8.543  65.597  1.00  0.00    -0.119 A  
HETATM   14  O   UNL     1      -6.946   4.759  66.880  1.00  0.00    -0.058 OA 
HETATM   15  C   UNL     1      -7.521   7.621  64.660  1.00  0.00    -0.096 A  
HETATM   16  S   UNL     1      -8.542  10.062  64.824  1.00  0.00    -0.192 S  
HETATM   17  C   UNL     1      -7.702   6.935  67.338  1.00  0.00    -0.110 A  
HETATM   18  O   UNL     1      -9.092  10.960  65.813  1.00  0.00    -0.183 OA 
HETATM   19  O   UNL     1      -7.445  10.462  63.979  1.00  0.00    -0.108 OA 
HETATM   20  O   UNL     1      -5.136   5.423  63.596  1.00  0.00    -0.009 OA 
HETATM   21  C   UNL     1      -7.170   6.339  65.051  1.00  0.00    -0.070 A  
HETATM   22  O   UNL     1      -9.747   9.568  63.850  1.00  0.00     0.204 OA 
HETATM   23  O   UNL     1      -6.869   3.870  64.347  1.00  0.00    -0.043 OA 
HETATM   24  O   UNL     1      -7.393   5.597  62.568  1.00  0.00    -0.044 OA 
HETATM   25  S   UNL     1      -6.715   5.193  63.785  1.00  0.00    -0.046 S  
HETATM   26  C   UNL     1      -7.264   5.992  66.390  1.00  0.00    -0.076 A  
ENDBRANCH  10  11
BRANCH  10  27
HETATM   27  C   UNL     1      -9.059  10.396  67.852  1.00  0.00    -0.132 A  
HETATM   28  C   UNL     1      -8.165  11.521  68.118  1.00  0.00    -0.149 A  
HETATM   29  C   UNL     1      -9.955  13.173  67.641  1.00  0.00    -0.219 A  
HETATM   30  C   UNL     1     -10.797  12.026  67.156  1.00  0.00    -0.297 A  
HETATM   31  C   UNL     1     -10.371  10.750  67.274  1.00  0.00    -0.262 A  
HETATM   32  C   UNL     1      -8.543  12.797  67.980  1.00  0.00    -0.186 A  
BRANCH  29  33
HETATM   33  N   UNL     1     -10.389  14.397  67.809  1.00  0.00    -0.236 NA 
BRANCH  33  34
HETATM   34  C   UNL     1      -9.759  15.408  68.746  1.00  0.00    -0.210 C  
HETATM   35  C   UNL     1     -10.539  16.705  68.808  1.00  0.00    -0.340 C  
ENDBRANCH  33  34
BRANCH  33  36
HETATM   36  C   UNL     1     -11.476  14.986  66.927  1.00  0.00    -0.263 C  
HETATM   37  C   UNL     1     -10.873  15.540  65.646  1.00  0.00    -0.354 C  
ENDBRANCH  33  36
ENDBRANCH  29  33
ENDBRANCH  10  27
ENDBRANCH   9  10
ENDBRANCH   3   4
BRANCH   3  38
HETATM   38  C   UNL     1      -6.481   7.999  74.194  1.00  0.00    -0.113 C  
HETATM   39  C   UNL     1      -6.021   9.272  73.493  1.00  0.00     0.145 C  
ENDBRANCH   3  38
ENDBRANCH   2   3
TORSDOF 9
ENDMDL
MODEL       60
REMARK 921   NORMALIZED FREE ENERGY PREDICTED BY IDOCK:    4.92 KCAL/MOL
REMARK 922        TOTAL FREE ENERGY PREDICTED BY IDOCK:    5.20 KCAL/MOL
REMARK 923 INTER-LIGAND FREE ENERGY PREDICTED BY IDOCK:    5.26 KCAL/MOL
REMARK 924 INTRA-LIGAND FREE ENERGY PREDICTED BY IDOCK:   -0.06 KCAL/MOL
REMARK 927      BINDING AFFINITY PREDICTED BY RF-SCORE:    0.00 PKD
ROOT
HETATM    1  C   UNL     1      -9.276  19.808  70.995  1.00  0.00     2.222 C  
HETATM    2  C   UNL     1      -8.971  20.621  69.739  1.00  0.00     1.801 C  
ENDROOT
BRANCH   2   3
HETATM    3  N   UNL     1      -9.394  19.971  68.484  1.00  0.00    -0.187 NA 
BRANCH   3   4
HETATM    4  C   UNL     1      -9.168  18.595  68.336  1.00  0.00    -0.326 A  
HETATM    5  C   UNL     1     -10.032  17.626  68.866  1.00  0.00    -0.324 A  
HETATM    6  C   UNL     1      -8.078  18.103  67.599  1.00  0.00    -0.234 A  
HETATM    7  C   UNL     1      -9.871  16.250  68.600  1.00  0.00    -0.230 A  
HETATM    8  C   UNL     1      -7.909  16.727  67.327  1.00  0.00    -0.200 A  
HETATM    9  C   UNL     1      -8.825  15.782  67.793  1.00  0.00    -0.173 A  
BRANCH   9  10
HETATM   10  C   UNL     1      -8.729  14.319  67.439  1.00  0.00    -0.217 C  
BRANCH  10  11
HETATM   11  C   UNL     1      -9.776  13.694  66.523  1.00  0.00    -0.298 A  
HETATM   12  H   UNL     1      -8.713  12.632  62.856  1.00  0.00     0.000 HD 
HETATM   13  C   UNL     1     -11.131  13.413  66.810  1.00  0.00    -0.292 A  
HETATM   14  O   UNL     1      -9.620  12.454  63.072  1.00  0.00    -0.080 OA 
HETATM   15  C   UNL     1     -11.996  12.862  65.836  1.00  0.00    -0.504 A  
HETATM   16  S   UNL     1     -11.953  13.654  68.366  1.00  0.00    -0.297 S  
HETATM   17  C   UNL     1      -9.351  13.392  65.209  1.00  0.00     0.513 A  
HETATM   18  O   UNL     1     -11.025  14.192  69.333  1.00  0.00    -0.239 OA 
HETATM   19  O   UNL     1     -13.193  14.326  68.065  1.00  0.00     1.873 OA 
HETATM   20  O   UNL     1     -13.395  12.813  62.723  1.00  0.00     0.548 OA 
HETATM   21  C   UNL     1     -11.518  12.505  64.586  1.00  0.00    -0.327 A  
HETATM   22  O   UNL     1     -12.320  12.130  68.796  1.00  0.00    -0.143 OA 
HETATM   23  O   UNL     1     -11.794  10.977  62.520  1.00  0.00     1.161 OA 
HETATM   24  O   UNL     1     -13.567  10.924  64.330  1.00  0.00     2.661 OA 
HETATM   25  S   UNL     1     -12.617  11.645  63.503  1.00  0.00     0.047 S  
HETATM   26  C   UNL     1     -10.193  12.765  64.271  1.00  0.00    -0.327 A  
ENDBRANCH  10  11
BRANCH  10  27
HETATM   27  C   UNL     1      -7.819  13.525  68.093  1.00  0.00    -0.144 A  
HETATM   28  C   UNL     1      -8.155  12.144  68.431  1.00  0.00    -0.149 A  
HETATM   29  C   UNL     1      -6.073  11.867  69.754  1.00  0.00    -0.141 A  
HETATM   30  C   UNL     1      -5.631  13.201  69.220  1.00  0.00    -0.079 A  
HETATM   31  C   UNL     1      -6.456  13.957  68.465  1.00  0.00    -0.093 A  
HETATM   32  C   UNL     1      -7.347  11.356  69.149  1.00  0.00    -0.081 A  
BRANCH  29  33
HETATM   33  N   UNL     1      -5.454  11.199  70.695  1.00  0.00    -0.118 NA 
BRANCH  33  34
HETATM   34  C   UNL     1      -5.134  11.753  72.069  1.00  0.00     0.155 C  
HETATM   35  C   UNL     1      -5.628  13.174  72.251  1.00  0.00     0.385 C  
ENDBRANCH  33  34
BRANCH  33  36
HETATM   36  C   UNL     1      -5.155   9.717  70.557  1.00  0.00    -0.032 C  
HETATM   37  C   UNL     1      -5.592   8.972  71.809  1.00  0.00    -0.060 C  
ENDBRANCH  33  36
ENDBRANCH  29  33
ENDBRANCH  10  27
ENDBRANCH   9  10
ENDBRANCH   3   4
BRANCH   3  38
HETATM   38  C   UNL     1      -9.553  20.797  67.274  1.00  0.00    -0.354 C  
HETATM   39  C   UNL     1     -10.438  20.141  66.221  1.00  0.00    -0.454 C  
ENDBRANCH   3  38
ENDBRANCH   2   3
TORSDOF 9
ENDMDL
MODEL       61
REMARK 921   NORMALIZED FREE ENERGY PREDICTED BY IDOCK:    5.13 KCAL/MOL
REMARK 922        TOTAL FREE ENERGY PREDICTED BY IDOCK:    5.53 KCAL/MOL
REMARK 923 INTER-LIGAND FREE ENERGY PREDICTED BY IDOCK:    5.29 KCAL/MOL
REMARK 924 INTRA-LIGAND FREE ENERGY PREDICTED BY IDOCK:    0.23 KCAL/MOL
REMARK 927      BINDING AFFINITY PREDICTED BY RF-SCORE:    0.00 PKD
ROOT
HETATM    1  C   UNL     1      -9.034  10.287  62.501  1.00  0.00    -0.283 C  
HETATM    2  C   UNL     1     -10.555  10.149  62.493  1.00  0.00     1.931 C  
ENDROOT
BRANCH   2   3
HETATM    3  N   UNL     1     -11.269  11.337  62.995  1.00  0.00     0.146 NA 
BRANCH   3   4
HETATM    4  C   UNL     1     -10.838  11.916  64.198  1.00  0.00    -0.356 A  
HETATM    5  C   UNL     1     -11.304  11.491  65.450  1.00  0.00    -0.147 A  
HETATM    6  C   UNL     1      -9.870  12.933  64.219  1.00  0.00     0.010 A  
HETATM    7  C   UNL     1     -10.769  11.985  66.658  1.00  0.00    -0.280 A  
HETATM    8  C   UNL     1      -9.328  13.434  65.424  1.00  0.00     0.415 A  
HETATM    9  C   UNL     1      -9.743  12.941  66.662  1.00  0.00    -0.254 A  
BRANCH   9  10
HETATM   10  C   UNL     1      -9.116  13.383  67.961  1.00  0.00    -0.205 C  
BRANCH  10  11
HETATM   11  C   UNL     1      -9.120  14.860  68.337  1.00  0.00    -0.185 A  
HETATM   12  H   UNL     1     -12.191  16.302  70.385  1.00  0.00     0.000 HD 
HETATM   13  C   UNL     1      -8.133  15.835  68.059  1.00  0.00    -0.140 A  
HETATM   14  O   UNL     1     -11.515  16.939  70.185  1.00  0.00     0.230 OA 
HETATM   15  C   UNL     1      -8.297  17.186  68.443  1.00  0.00    -0.251 A  
HETATM   16  S   UNL     1      -6.576  15.560  67.252  1.00  0.00     0.058 S  
HETATM   17  C   UNL     1     -10.269  15.327  69.014  1.00  0.00    -0.239 A  
HETATM   18  O   UNL     1      -6.443  14.164  66.903  1.00  0.00     0.208 OA 
HETATM   19  O   UNL     1      -6.452  16.594  66.254  1.00  0.00    -0.176 OA 
HETATM   20  O   UNL     1     -10.090  20.087  68.585  1.00  0.00    -0.425 OA 
HETATM   21  C   UNL     1      -9.402  17.584  69.177  1.00  0.00     0.015 A  
HETATM   22  O   UNL     1      -5.514  15.899  68.434  1.00  0.00    -0.097 OA 
HETATM   23  O   UNL     1     -10.379  19.273  70.873  1.00  0.00     1.293 OA 
HETATM   24  O   UNL     1      -8.054  19.670  69.948  1.00  0.00     0.265 OA 
HETATM   25  S   UNL     1      -9.430  19.244  69.782  1.00  0.00     0.638 S  
HETATM   26  C   UNL     1     -10.389  16.654  69.469  1.00  0.00    -0.245 A  
ENDBRANCH  10  11
BRANCH  10  27
HETATM   27  C   UNL     1      -8.384  12.484  68.697  1.00  0.00     0.021 A  
HETATM   28  C   UNL     1      -6.929  12.603  68.771  1.00  0.00    -0.096 A  
HETATM   29  C   UNL     1      -6.723  10.441  69.974  1.00  0.00    -0.145 A  
HETATM   30  C   UNL     1      -8.223  10.435  70.090  1.00  0.00     0.332 A  
HETATM   31  C   UNL     1      -8.972  11.380  69.483  1.00  0.00     0.751 A  
HETATM   32  C   UNL     1      -6.159  11.704  69.393  1.00  0.00    -0.088 A  
BRANCH  29  33
HETATM   33  N   UNL     1      -5.948   9.437  70.296  1.00  0.00    -0.036 NA 
BRANCH  33  34
HETATM   34  C   UNL     1      -5.126   8.637  69.306  1.00  0.00    -0.035 C  
HETATM   35  C   UNL     1      -5.775   7.314  68.951  1.00  0.00    -0.019 C  
ENDBRANCH  33  34
BRANCH  33  36
HETATM   36  C   UNL     1      -5.652   9.092  71.746  1.00  0.00    -0.060 C  
HETATM   37  C   UNL     1      -6.939   8.749  72.479  1.00  0.00     0.052 C  
ENDBRANCH  33  36
ENDBRANCH  29  33
ENDBRANCH  10  27
ENDBRANCH   9  10
ENDBRANCH   3   4
BRANCH   3  38
HETATM   38  C   UNL     1     -12.654  11.576  62.550  1.00  0.00     1.743 C  
HETATM   39  C   UNL     1     -13.622  11.784  63.709  1.00  0.00     0.946 C  
ENDBRANCH   3  38
ENDBRANCH   2   3
TORSDOF 9
ENDMDL
MODEL       62
REMARK 921   NORMALIZED FREE ENERGY PREDICTED BY IDOCK:    5.15 KCAL/MOL
REMARK 922        TOTAL FREE ENERGY PREDICTED BY IDOCK:    5.55 KCAL/MOL
REMARK 923 INTER-LIGAND FREE ENERGY PREDICTED BY IDOCK:    0.81 KCAL/MOL
REMARK 924 INTRA-LIGAND FREE ENERGY PREDICTED BY IDOCK:    4.74 KCAL/MOL
REMARK 927      BINDING AFFINITY PREDICTED BY RF-SCORE:    0.00 PKD
ROOT
HETATM    1  C   UNL     1     -11.078   3.677  71.756  1.00  0.00     1.351 C  
HETATM    2  C   UNL     1      -9.620   3.498  72.173  1.00  0.00    -0.140 C  
ENDROOT
BRANCH   2   3
HETATM    3  N   UNL     1      -8.681   4.400  71.481  1.00  0.00    -0.115 NA 
BRANCH   3   4
HETATM    4  C   UNL     1      -9.192   5.558  70.876  1.00  0.00    -0.151 A  
HETATM    5  C   UNL     1      -9.594   6.681  71.613  1.00  0.00    -0.167 A  
HETATM    6  C   UNL     1      -9.284   5.678  69.480  1.00  0.00    -0.154 A  
HETATM    7  C   UNL     1      -9.980   7.887  70.992  1.00  0.00    -0.200 A  
HETATM    8  C   UNL     1      -9.669   6.883  68.849  1.00  0.00    -0.142 A  
HETATM    9  C   UNL     1      -9.988   8.018  69.596  1.00  0.00    -0.188 A  
BRANCH   9  10
HETATM   10  C   UNL     1     -10.307   9.346  68.955  1.00  0.00    -0.224 C  
BRANCH  10  11
HETATM   11  C   UNL     1     -10.930  10.457  69.792  1.00  0.00    -0.345 A  
HETATM   12  H   UNL     1      -9.984  14.219  68.980  1.00  0.00     0.000 HD 
HETATM   13  C   UNL     1     -11.852  10.336  70.858  1.00  0.00    -0.377 A  
HETATM   14  O   UNL     1     -10.601  14.112  69.694  1.00  0.00    -0.053 OA 
HETATM   15  C   UNL     1     -12.315  11.467  71.570  1.00  0.00    -0.184 A  
HETATM   16  S   UNL     1     -12.585   8.833  71.453  1.00  0.00    -0.265 S  
HETATM   17  C   UNL     1     -10.508  11.773  69.494  1.00  0.00     0.244 A  
HETATM   18  O   UNL     1     -12.104   7.711  70.680  1.00  0.00    -0.185 OA 
HETATM   19  O   UNL     1     -12.455   8.862  72.888  1.00  0.00    -0.233 OA 
HETATM   20  O   UNL     1     -11.800  14.364  73.300  1.00  0.00     0.137 OA 
HETATM   21  C   UNL     1     -11.938  12.745  71.191  1.00  0.00     0.468 A  
HETATM   22  O   UNL     1     -14.157   9.060  71.105  1.00  0.00    -0.236 OA 
HETATM   23  O   UNL     1     -12.546  15.257  71.149  1.00  0.00    -0.328 OA 
HETATM   24  O   UNL     1     -14.024  13.658  72.445  1.00  0.00    -0.587 OA 
HETATM   25  S   UNL     1     -12.716  14.105  72.006  1.00  0.00    -0.278 S  
HETATM   26  C   UNL     1     -11.036  12.901  70.148  1.00  0.00     0.657 A  
ENDBRANCH  10  11
BRANCH  10  27
HETATM   27  C   UNL     1     -10.212   9.477  67.592  1.00  0.00    -0.273 A  
HETATM   28  C   UNL     1      -8.903   9.536  66.946  1.00  0.00    -0.140 A  
HETATM   29  C   UNL     1      -9.913  10.070  64.743  1.00  0.00    -0.178 A  
HETATM   30  C   UNL     1     -11.255   9.789  65.361  1.00  0.00     2.573 A  
HETATM   31  C   UNL     1     -11.373   9.530  66.680  1.00  0.00     1.274 A  
HETATM   32  C   UNL     1      -8.749   9.758  65.636  1.00  0.00    -0.168 A  
BRANCH  29  33
HETATM   33  N   UNL     1      -9.735  10.585  63.552  1.00  0.00    -0.320 NA 
BRANCH  33  34
HETATM   34  C   UNL     1      -8.453  10.470  62.752  1.00  0.00    -0.197 C  
HETATM   35  C   UNL     1      -7.873   9.071  62.785  1.00  0.00    -0.129 C  
ENDBRANCH  33  34
BRANCH  33  36
HETATM   36  C   UNL     1     -10.882  11.200  62.769  1.00  0.00     0.583 C  
HETATM   37  C   UNL     1     -11.950  11.719  63.719  1.00  0.00    -0.468 C  
ENDBRANCH  33  36
ENDBRANCH  29  33
ENDBRANCH  10  27
ENDBRANCH   9  10
ENDBRANCH   3   4
BRANCH   3  38
HETATM   38  C   UNL     1      -7.395   3.860  71.005  1.00  0.00    -0.037 C  
HETATM   39  C   UNL     1      -6.272   4.021  72.023  1.00  0.00    -0.014 C  
ENDBRANCH   3  38
ENDBRANCH   2   3
TORSDOF 9
ENDMDL
MODEL       63
REMARK 921   NORMALIZED FREE ENERGY PREDICTED BY IDOCK:    5.99 KCAL/MOL
REMARK 922        TOTAL FREE ENERGY PREDICTED BY IDOCK:    6.83 KCAL/MOL
REMARK 923 INTER-LIGAND FREE ENERGY PREDICTED BY IDOCK:    6.28 KCAL/MOL
REMARK 924 INTRA-LIGAND FREE ENERGY PREDICTED BY IDOCK:    0.55 KCAL/MOL
REMARK 927      BINDING AFFINITY PREDICTED BY RF-SCORE:    0.00 PKD
ROOT
HETATM    1  C   UNL     1      -9.804   5.947  70.921  1.00  0.00    -0.224 C  
HETATM    2  C   UNL     1      -8.786   6.125  69.797  1.00  0.00    -0.135 C  
ENDROOT
BRANCH   2   3
HETATM    3  N   UNL     1      -7.922   7.310  69.950  1.00  0.00    -0.119 NA 
BRANCH   3   4
HETATM    4  C   UNL     1      -8.493   8.579  69.776  1.00  0.00    -0.129 A  
HETATM    5  C   UNL     1      -7.993   9.513  68.857  1.00  0.00    -0.091 A  
HETATM    6  C   UNL     1      -9.640   8.974  70.484  1.00  0.00    -0.264 A  
HETATM    7  C   UNL     1      -8.650  10.733  68.593  1.00  0.00    -0.151 A  
HETATM    8  C   UNL     1     -10.305  10.193  70.226  1.00  0.00    -0.234 A  
HETATM    9  C   UNL     1      -9.840  11.075  69.249  1.00  0.00    -0.060 A  
BRANCH   9  10
HETATM   10  C   UNL     1     -10.580  12.337  68.880  1.00  0.00    -0.170 C  
BRANCH  10  11
HETATM   11  C   UNL     1     -11.088  13.263  69.980  1.00  0.00     0.313 A  
HETATM   12  H   UNL     1     -13.921  11.954  72.422  1.00  0.00     0.000 HD 
HETATM   13  C   UNL     1     -10.665  14.579  70.278  1.00  0.00     0.216 A  
HETATM   14  O   UNL     1     -13.621  12.837  72.602  1.00  0.00    -0.462 OA 
HETATM   15  C   UNL     1     -11.262  15.333  71.314  1.00  0.00    -0.375 A  
HETATM   16  S   UNL     1      -9.358  15.475  69.476  1.00  0.00    -0.222 S  
HETATM   17  C   UNL     1     -12.140  12.761  70.780  1.00  0.00    -0.246 A  
HETATM   18  O   UNL     1      -8.762  14.657  68.446  1.00  0.00    -0.163 OA 
HETATM   19  O   UNL     1      -9.890  16.781  69.178  1.00  0.00    -0.263 OA 
HETATM   20  O   UNL     1     -13.981  16.613  72.934  1.00  0.00     0.518 OA 
HETATM   21  C   UNL     1     -12.234  14.773  72.127  1.00  0.00    -0.316 A  
HETATM   22  O   UNL     1      -8.280  15.654  70.679  1.00  0.00     1.270 OA 
HETATM   23  O   UNL     1     -13.388  14.781  74.440  1.00  0.00     1.073 OA 
HETATM   24  O   UNL     1     -11.694  16.589  73.908  1.00  0.00    -0.133 OA 
HETATM   25  S   UNL     1     -12.784  15.715  73.517  1.00  0.00    -0.621 S  
HETATM   26  C   UNL     1     -12.672  13.483  71.864  1.00  0.00    -0.200 A  
ENDBRANCH  10  11
BRANCH  10  27
HETATM   27  C   UNL     1     -10.955  12.542  67.575  1.00  0.00    -0.288 A  
HETATM   28  C   UNL     1     -11.647  11.491  66.833  1.00  0.00    -0.166 A  
HETATM   29  C   UNL     1     -11.507  12.773  64.711  1.00  0.00    -0.317 A  
HETATM   30  C   UNL     1     -11.002  13.935  65.521  1.00  0.00    -0.302 A  
HETATM   31  C   UNL     1     -10.742  13.805  66.839  1.00  0.00    -0.280 A  
HETATM   32  C   UNL     1     -11.950  11.599  65.535  1.00  0.00     0.320 A  
BRANCH  29  33
HETATM   33  N   UNL     1     -11.532  12.731  63.403  1.00  0.00    -0.470 NA 
BRANCH  33  34
HETATM   34  C   UNL     1     -10.346  13.044  62.514  1.00  0.00     4.848 C  
HETATM   35  C   UNL     1      -9.293  11.956  62.547  1.00  0.00     0.782 C  
ENDBRANCH  33  34
BRANCH  33  36
HETATM   36  C   UNL     1     -12.726  12.176  62.645  1.00  0.00     1.174 C  
HETATM   37  C   UNL     1     -13.417  11.099  63.466  1.00  0.00     2.235 C  
ENDBRANCH  33  36
ENDBRANCH  29  33
ENDBRANCH  10  27
ENDBRANCH   9  10
ENDBRANCH   3   4
BRANCH   3  38
HETATM   38  C   UNL     1      -6.467   7.157  69.772  1.00  0.00    -0.039 C  
HETATM   39  C   UNL     1      -6.061   5.734  69.408  1.00  0.00    -0.031 C  
ENDBRANCH   3  38
ENDBRANCH   2   3
TORSDOF 9
ENDMDL
MODEL       64
REMARK 921   NORMALIZED FREE ENERGY PREDICTED BY IDOCK:    6.36 KCAL/MOL
REMARK 922        TOTAL FREE ENERGY PREDICTED BY IDOCK:    7.40 KCAL/MOL
REMARK 923 INTER-LIGAND FREE ENERGY PREDICTED BY IDOCK:    5.86 KCAL/MOL
REMARK 924 INTRA-LIGAND FREE ENERGY PREDICTED BY IDOCK:    1.54 KCAL/MOL
REMARK 927      BINDING AFFINITY PREDICTED BY RF-SCORE:    0.00 PKD
ROOT
HETATM    1  C   UNL     1      -7.000   3.320  72.430  1.00  0.00    -0.031 C  
HETATM    2  C   UNL     1      -8.330   4.005  72.123  1.00  0.00    -0.100 C  
ENDROOT
BRANCH   2   3
HETATM    3  N   UNL     1      -8.513   4.353  70.701  1.00  0.00    -0.081 NA 
BRANCH   3   4
HETATM    4  C   UNL     1      -8.907   5.660  70.379  1.00  0.00    -0.136 A  
HETATM    5  C   UNL     1      -7.988   6.708  70.220  1.00  0.00    -0.115 A  
HETATM    6  C   UNL     1     -10.252   5.987  70.147  1.00  0.00    -0.267 A  
HETATM    7  C   UNL     1      -8.378   7.985  69.767  1.00  0.00    -0.122 A  
HETATM    8  C   UNL     1     -10.652   7.264  69.692  1.00  0.00    -0.246 A  
HETATM    9  C   UNL     1      -9.715   8.272  69.460  1.00  0.00    -0.174 A  
BRANCH   9  10
HETATM   10  C   UNL     1     -10.096   9.613  68.882  1.00  0.00    -0.198 C  
BRANCH  10  11
HETATM   11  C   UNL     1      -9.752   9.934  67.431  1.00  0.00    -0.199 A  
HETATM   12  H   UNL     1      -6.660   8.109  65.753  1.00  0.00     0.000 HD 
HETATM   13  C   UNL     1     -10.416  10.820  66.552  1.00  0.00    -0.240 A  
HETATM   14  O   UNL     1      -7.122   8.711  65.182  1.00  0.00    -0.083 OA 
HETATM   15  C   UNL     1      -9.953  11.043  65.235  1.00  0.00    -0.320 A  
HETATM   16  S   UNL     1     -11.891  11.744  66.900  1.00  0.00     0.190 S  
HETATM   17  C   UNL     1      -8.603   9.296  66.908  1.00  0.00    -0.132 A  
HETATM   18  O   UNL     1     -12.341  11.464  68.244  1.00  0.00    -0.506 OA 
HETATM   19  O   UNL     1     -11.632  13.094  66.466  1.00  0.00    -0.323 OA 
HETATM   20  O   UNL     1      -7.498  11.800  62.987  1.00  0.00     1.246 OA 
HETATM   21  C   UNL     1      -8.871  10.336  64.736  1.00  0.00    -0.196 A  
HETATM   22  O   UNL     1     -12.955  11.096  65.856  1.00  0.00     3.922 OA 
HETATM   23  O   UNL     1      -7.686   9.386  62.644  1.00  0.00    -0.113 OA 
HETATM   24  O   UNL     1      -9.711  10.877  62.335  1.00  0.00    -0.172 OA 
HETATM   25  S   UNL     1      -8.482  10.532  63.024  1.00  0.00    -0.168 S  
HETATM   26  C   UNL     1      -8.196   9.457  65.571  1.00  0.00    -0.126 A  
ENDBRANCH  10  11
BRANCH  10  27
HETATM   27  C   UNL     1     -10.572  10.596  69.714  1.00  0.00    -0.233 A  
HETATM   28  C   UNL     1     -11.709  10.332  70.593  1.00  0.00    -0.438 A  
HETATM   29  C   UNL     1     -11.846  12.713  71.280  1.00  0.00     1.012 A  
HETATM   30  C   UNL     1     -10.548  12.932  70.553  1.00  0.00     2.868 A  
HETATM   31  C   UNL     1      -9.982  11.946  69.826  1.00  0.00     1.326 A  
HETATM   32  C   UNL     1     -12.273  11.277  71.352  1.00  0.00    -0.185 A  
BRANCH  29  33
HETATM   33  N   UNL     1     -12.590  13.668  71.778  1.00  0.00    -0.251 NA 
BRANCH  33  34
HETATM   34  C   UNL     1     -13.755  14.313  71.055  1.00  0.00    -0.098 C  
HETATM   35  C   UNL     1     -13.394  14.751  69.650  1.00  0.00     1.164 C  
ENDBRANCH  33  34
BRANCH  33  36
HETATM   36  C   UNL     1     -12.467  14.100  73.229  1.00  0.00     0.150 C  
HETATM   37  C   UNL     1     -13.073  15.481  73.421  1.00  0.00    -0.651 C  
ENDBRANCH  33  36
ENDBRANCH  29  33
ENDBRANCH  10  27
ENDBRANCH   9  10
ENDBRANCH   3   4
BRANCH   3  38
HETATM   38  C   UNL     1      -8.780   3.274  69.734  1.00  0.00    -0.072 C  
HETATM   39  C   UNL     1      -7.580   2.359  69.519  1.00  0.00    -0.043 C  
ENDBRANCH   3  38
ENDBRANCH   2   3
TORSDOF 9
ENDMDL
MODEL       65
REMARK 921   NORMALIZED FREE ENERGY PREDICTED BY IDOCK:    7.62 KCAL/MOL
REMARK 922        TOTAL FREE ENERGY PREDICTED BY IDOCK:    9.32 KCAL/MOL
REMARK 923 INTER-LIGAND FREE ENERGY PREDICTED BY IDOCK:    7.09 KCAL/MOL
REMARK 924 INTRA-LIGAND FREE ENERGY PREDICTED BY IDOCK:    2.23 KCAL/MOL
REMARK 927      BINDING AFFINITY PREDICTED BY RF-SCORE:    0.00 PKD
ROOT
HETATM    1  C   UNL     1      -5.333   6.312  70.892  1.00  0.00    -0.018 C  
HETATM    2  C   UNL     1      -5.960   5.588  72.081  1.00  0.00    -0.030 C  
ENDROOT
BRANCH   2   3
HETATM    3  N   UNL     1      -7.330   6.031  72.401  1.00  0.00    -0.089 NA 
BRANCH   3   4
HETATM    4  C   UNL     1      -7.941   6.971  71.559  1.00  0.00    -0.103 A  
HETATM    5  C   UNL     1      -8.759   8.001  72.045  1.00  0.00    -0.197 A  
HETATM    6  C   UNL     1      -7.727   6.965  70.171  1.00  0.00    -0.101 A  
HETATM    7  C   UNL     1      -9.262   9.019  71.209  1.00  0.00    -0.314 A  
HETATM    8  C   UNL     1      -8.225   7.981  69.325  1.00  0.00    -0.127 A  
HETATM    9  C   UNL     1      -8.970   9.045  69.837  1.00  0.00    -0.170 A  
BRANCH   9  10
HETATM   10  C   UNL     1      -9.433  10.196  68.979  1.00  0.00    -0.195 C  
BRANCH  10  11
HETATM   11  C   UNL     1      -9.228  10.142  67.469  1.00  0.00    -0.150 A  
HETATM   12  H   UNL     1     -12.391  10.441  65.101  1.00  0.00     0.000 HD 
HETATM   13  C   UNL     1      -8.013  10.009  66.757  1.00  0.00    -0.114 A  
HETATM   14  O   UNL     1     -11.563  10.349  64.645  1.00  0.00     1.639 OA 
HETATM   15  C   UNL     1      -7.986   9.935  65.345  1.00  0.00    -0.134 A  
HETATM   16  S   UNL     1      -6.382   9.943  67.455  1.00  0.00    -0.064 S  
HETATM   17  C   UNL     1     -10.400  10.194  66.680  1.00  0.00    -0.274 A  
HETATM   18  O   UNL     1      -6.458  10.048  68.894  1.00  0.00    -0.048 OA 
HETATM   19  O   UNL     1      -5.718   8.831  66.821  1.00  0.00    -0.046 OA 
HETATM   20  O   UNL     1      -9.037   8.632  62.370  1.00  0.00    -0.024 OA 
HETATM   21  C   UNL     1      -9.151  10.071  64.607  1.00  0.00    -0.237 A  
HETATM   22  O   UNL     1      -5.708  11.304  66.874  1.00  0.00    -0.077 OA 
HETATM   23  O   UNL     1     -10.218  10.773  62.360  1.00  0.00     0.133 OA 
HETATM   24  O   UNL     1      -7.692  10.714  62.553  1.00  0.00    -0.157 OA 
HETATM   25  S   UNL     1      -9.001  10.165  62.849  1.00  0.00    -0.282 S  
HETATM   26  C   UNL     1     -10.360  10.206  65.273  1.00  0.00    -0.084 A  
ENDBRANCH  10  11
BRANCH  10  27
HETATM   27  C   UNL     1      -9.857  11.357  69.579  1.00  0.00     0.451 A  
HETATM   28  C   UNL     1     -10.678  11.306  70.786  1.00  0.00     1.870 A  
HETATM   29  C   UNL     1     -11.062  13.758  70.737  1.00  0.00     1.125 A  
HETATM   30  C   UNL     1     -10.041  13.832  69.635  1.00  0.00     0.699 A  
HETATM   31  C   UNL     1      -9.505  12.711  69.105  1.00  0.00     0.603 A  
HETATM   32  C   UNL     1     -11.198  12.398  71.356  1.00  0.00     3.642 A  
BRANCH  29  33
HETATM   33  N   UNL     1     -11.818  14.756  71.119  1.00  0.00    -0.328 NA 
BRANCH  33  34
HETATM   34  C   UNL     1     -13.057  15.223  70.383  1.00  0.00    -0.200 C  
HETATM   35  C   UNL     1     -12.993  14.933  68.897  1.00  0.00     1.149 C  
ENDBRANCH  33  34
BRANCH  33  36
HETATM   36  C   UNL     1     -11.623  15.434  72.464  1.00  0.00    -0.425 C  
HETATM   37  C   UNL     1     -12.015  14.492  73.592  1.00  0.00     0.003 C  
ENDBRANCH  33  36
ENDBRANCH  29  33
ENDBRANCH  10  27
ENDBRANCH   9  10
ENDBRANCH   3   4
BRANCH   3  38
HETATM   38  C   UNL     1      -7.814   5.900  73.787  1.00  0.00    -0.099 C  
HETATM   39  C   UNL     1      -9.327   5.732  73.873  1.00  0.00    -0.135 C  
ENDBRANCH   3  38
ENDBRANCH   2   3
TORSDOF 9
ENDMDL
MODEL       66
REMARK 921   NORMALIZED FREE ENERGY PREDICTED BY IDOCK:    9.30 KCAL/MOL
REMARK 922        TOTAL FREE ENERGY PREDICTED BY IDOCK:   11.88 KCAL/MOL
REMARK 923 INTER-LIGAND FREE ENERGY PREDICTED BY IDOCK:    3.35 KCAL/MOL
REMARK 924 INTRA-LIGAND FREE ENERGY PREDICTED BY IDOCK:    8.53 KCAL/MOL
REMARK 927      BINDING AFFINITY PREDICTED BY RF-SCORE:    0.00 PKD
ROOT
HETATM    1  C   UNL     1      -7.124  18.592  71.016  1.00  0.00     2.876 C  
HETATM    2  C   UNL     1      -6.416  19.106  69.765  1.00  0.00    -0.200 C  
ENDROOT
BRANCH   2   3
HETATM    3  N   UNL     1      -7.068  18.717  68.502  1.00  0.00    -0.264 NA 
BRANCH   3   4
HETATM    4  C   UNL     1      -7.495  17.389  68.352  1.00  0.00    -0.234 A  
HETATM    5  C   UNL     1      -8.463  16.808  69.183  1.00  0.00    -0.084 A  
HETATM    6  C   UNL     1      -7.007  16.572  67.319  1.00  0.00    -0.208 A  
HETATM    7  C   UNL     1      -8.982  15.519  68.945  1.00  0.00    -0.220 A  
HETATM    8  C   UNL     1      -7.522  15.280  67.071  1.00  0.00    -0.125 A  
HETATM    9  C   UNL     1      -8.544  14.748  67.859  1.00  0.00    -0.166 A  
BRANCH   9  10
HETATM   10  C   UNL     1      -9.183  13.414  67.562  1.00  0.00    -0.219 C  
BRANCH  10  11
HETATM   11  C   UNL     1     -10.144  12.797  68.572  1.00  0.00    -0.189 A  
HETATM   12  H   UNL     1     -12.728  15.153  70.436  1.00  0.00     0.000 HD 
HETATM   13  C   UNL     1     -10.262  11.438  68.949  1.00  0.00    -0.168 A  
HETATM   14  O   UNL     1     -12.788  14.235  70.673  1.00  0.00    -0.345 OA 
HETATM   15  C   UNL     1     -11.183  11.020  69.937  1.00  0.00    -0.327 A  
HETATM   16  S   UNL     1      -9.352  10.073  68.271  1.00  0.00    -0.134 S  
HETATM   17  C   UNL     1     -11.000  13.697  69.248  1.00  0.00    -0.189 A  
HETATM   18  O   UNL     1      -8.445  10.544  67.250  1.00  0.00    -0.122 OA 
HETATM   19  O   UNL     1      -8.876   9.308  69.398  1.00  0.00    -0.137 OA 
HETATM   20  O   UNL     1     -12.600  11.252  73.033  1.00  0.00     2.316 OA 
HETATM   21  C   UNL     1     -12.060  11.924  70.514  1.00  0.00    -0.331 A  
HETATM   22  O   UNL     1     -10.525   9.203  67.557  1.00  0.00    -0.245 OA 
HETATM   23  O   UNL     1     -14.345  12.286  71.667  1.00  0.00     1.275 OA 
HETATM   24  O   UNL     1     -13.580   9.921  71.177  1.00  0.00    -0.330 OA 
HETATM   25  S   UNL     1     -13.306  11.284  71.591  1.00  0.00    -0.062 S  
HETATM   26  C   UNL     1     -11.973  13.264  70.167  1.00  0.00    -0.318 A  
ENDBRANCH  10  11
BRANCH  10  27
HETATM   27  C   UNL     1      -8.751  12.683  66.483  1.00  0.00    -0.011 A  
HETATM   28  C   UNL     1      -9.331  12.906  65.161  1.00  0.00     0.470 A  
HETATM   29  C   UNL     1      -8.119  10.964  64.202  1.00  0.00     0.294 A  
HETATM   30  C   UNL     1      -7.360  10.878  65.497  1.00  0.00     0.106 A  
HETATM   31  C   UNL     1      -7.675  11.672  66.543  1.00  0.00    -0.003 A  
HETATM   32  C   UNL     1      -9.018  12.160  64.096  1.00  0.00     0.898 A  
BRANCH  29  33
HETATM   33  N   UNL     1      -8.064  10.071  63.246  1.00  0.00    -0.152 NA 
BRANCH  33  34
HETATM   34  C   UNL     1      -6.798   9.685  62.507  1.00  0.00    -0.101 C  
HETATM   35  C   UNL     1      -5.805   8.964  63.396  1.00  0.00    -0.077 C  
ENDBRANCH  33  34
BRANCH  33  36
HETATM   36  C   UNL     1      -9.253   9.189  62.907  1.00  0.00     0.349 C  
HETATM   37  C   UNL     1      -8.784   7.792  62.533  1.00  0.00     0.252 C  
ENDBRANCH  33  36
ENDBRANCH  29  33
ENDBRANCH  10  27
ENDBRANCH   9  10
ENDBRANCH   3   4
BRANCH   3  38
HETATM   38  C   UNL     1      -6.813  19.520  67.292  1.00  0.00    -0.201 C  
HETATM   39  C   UNL     1      -7.943  19.433  66.273  1.00  0.00    -0.330 C  
ENDBRANCH   3  38
ENDBRANCH   2   3
TORSDOF 9
ENDMDL
MODEL       67
REMARK 921   NORMALIZED FREE ENERGY PREDICTED BY IDOCK:    9.44 KCAL/MOL
REMARK 922        TOTAL FREE ENERGY PREDICTED BY IDOCK:   12.09 KCAL/MOL
REMARK 923 INTER-LIGAND FREE ENERGY PREDICTED BY IDOCK:   13.18 KCAL/MOL
REMARK 924 INTRA-LIGAND FREE ENERGY PREDICTED BY IDOCK:   -1.08 KCAL/MOL
REMARK 927      BINDING AFFINITY PREDICTED BY RF-SCORE:    0.00 PKD
ROOT
HETATM    1  C   UNL     1      -9.275  10.157  62.675  1.00  0.00    -0.321 C  
HETATM    2  C   UNL     1     -10.764   9.988  62.969  1.00  0.00     2.482 C  
ENDROOT
BRANCH   2   3
HETATM    3  N   UNL     1     -11.449  11.240  63.344  1.00  0.00    -0.063 NA 
BRANCH   3   4
HETATM    4  C   UNL     1     -10.808  12.109  64.238  1.00  0.00    -0.341 A  
HETATM    5  C   UNL     1     -11.131  12.163  65.602  1.00  0.00    -0.360 A  
HETATM    6  C   UNL     1      -9.761  12.949  63.826  1.00  0.00     0.743 A  
HETATM    7  C   UNL     1     -10.394  12.941  66.518  1.00  0.00    -0.272 A  
HETATM    8  C   UNL     1      -9.016  13.732  64.736  1.00  0.00     2.778 A  
HETATM    9  C   UNL     1      -9.299  13.712  66.103  1.00  0.00    -0.093 A  
BRANCH   9  10
HETATM   10  C   UNL     1      -8.463  14.457  67.113  1.00  0.00    -0.229 C  
BRANCH  10  11
HETATM   11  C   UNL     1      -8.134  15.928  66.883  1.00  0.00    -0.285 A  
HETATM   12  H   UNL     1      -4.563  16.886  65.455  1.00  0.00     0.000 HD 
HETATM   13  C   UNL     1      -8.963  17.053  67.102  1.00  0.00    -0.222 A  
HETATM   14  O   UNL     1      -5.138  17.626  65.611  1.00  0.00    -0.195 OA 
HETATM   15  C   UNL     1      -8.500  18.370  66.875  1.00  0.00    -0.272 A  
HETATM   16  S   UNL     1     -10.654  17.028  67.641  1.00  0.00    -0.303 S  
HETATM   17  C   UNL     1      -6.825  16.210  66.429  1.00  0.00     0.597 A  
HETATM   18  O   UNL     1     -11.089  15.665  67.833  1.00  0.00    -0.312 OA 
HETATM   19  O   UNL     1     -10.752  18.000  68.702  1.00  0.00    -0.190 OA 
HETATM   20  O   UNL     1      -6.219  20.878  67.272  1.00  0.00    -0.235 OA 
HETATM   21  C   UNL     1      -7.237  18.596  66.353  1.00  0.00    -0.241 A  
HETATM   22  O   UNL     1     -11.432  17.640  66.351  1.00  0.00     0.902 OA 
HETATM   23  O   UNL     1      -5.712  20.173  64.986  1.00  0.00    -0.169 OA 
HETATM   24  O   UNL     1      -8.048  20.946  65.591  1.00  0.00     0.552 OA 
HETATM   25  S   UNL     1      -6.816  20.256  65.917  1.00  0.00    -0.243 S  
HETATM   26  C   UNL     1      -6.398  17.515  66.124  1.00  0.00    -0.220 A  
ENDBRANCH  10  11
BRANCH  10  27
HETATM   27  C   UNL     1      -7.849  13.762  68.126  1.00  0.00    -0.149 A  
HETATM   28  C   UNL     1      -6.573  13.090  67.892  1.00  0.00    -0.131 A  
HETATM   29  C   UNL     1      -6.632  12.004  70.123  1.00  0.00     0.272 A  
HETATM   30  C   UNL     1      -7.821  12.868  70.442  1.00  0.00     3.828 A  
HETATM   31  C   UNL     1      -8.376  13.663  69.503  1.00  0.00     0.980 A  
HETATM   32  C   UNL     1      -5.978  12.322  68.811  1.00  0.00    -0.065 A  
BRANCH  29  33
HETATM   33  N   UNL     1      -6.201  11.023  70.875  1.00  0.00    -0.341 NA 
BRANCH  33  34
HETATM   34  C   UNL     1      -6.313   9.555  70.515  1.00  0.00    -0.080 C  
HETATM   35  C   UNL     1      -7.713   9.013  70.720  1.00  0.00    -0.144 C  
ENDBRANCH  33  34
BRANCH  33  36
HETATM   36  C   UNL     1      -5.368  11.278  72.119  1.00  0.00     0.452 C  
HETATM   37  C   UNL     1      -6.188  11.000  73.369  1.00  0.00     3.124 C  
ENDBRANCH  33  36
ENDBRANCH  29  33
ENDBRANCH  10  27
ENDBRANCH   9  10
ENDBRANCH   3   4
BRANCH   3  38
HETATM   38  C   UNL     1     -12.914  11.317  63.207  1.00  0.00     1.143 C  
HETATM   39  C   UNL     1     -13.515  12.516  63.933  1.00  0.00     0.800 C  
ENDBRANCH   3  38
ENDBRANCH   2   3
TORSDOF 9
ENDMDL
MODEL       68
REMARK 921   NORMALIZED FREE ENERGY PREDICTED BY IDOCK:    9.65 KCAL/MOL
REMARK 922        TOTAL FREE ENERGY PREDICTED BY IDOCK:   12.42 KCAL/MOL
REMARK 923 INTER-LIGAND FREE ENERGY PREDICTED BY IDOCK:   12.12 KCAL/MOL
REMARK 924 INTRA-LIGAND FREE ENERGY PREDICTED BY IDOCK:    0.29 KCAL/MOL
REMARK 927      BINDING AFFINITY PREDICTED BY RF-SCORE:    0.00 PKD
ROOT
HETATM    1  C   UNL     1      -7.677  13.957  73.647  1.00  0.00     7.377 C  
HETATM    2  C   UNL     1      -6.380  13.898  72.845  1.00  0.00     1.600 C  
ENDROOT
BRANCH   2   3
HETATM    3  N   UNL     1      -6.578  13.774  71.389  1.00  0.00     0.556 NA 
BRANCH   3   4
HETATM    4  C   UNL     1      -6.685  12.490  70.836  1.00  0.00     2.204 A  
HETATM    5  C   UNL     1      -6.943  12.272  69.475  1.00  0.00     0.140 A  
HETATM    6  C   UNL     1      -6.489  11.336  71.613  1.00  0.00     2.507 A  
HETATM    7  C   UNL     1      -6.917  10.983  68.903  1.00  0.00    -0.088 A  
HETATM    8  C   UNL     1      -6.461  10.041  71.048  1.00  0.00     0.064 A  
HETATM    9  C   UNL     1      -6.638   9.848  69.678  1.00  0.00    -0.056 A  
BRANCH   9  10
HETATM   10  C   UNL     1      -6.515   8.492  69.029  1.00  0.00    -0.048 C  
BRANCH  10  11
HETATM   11  C   UNL     1      -6.836   8.333  67.546  1.00  0.00    -0.070 A  
HETATM   12  H   UNL     1      -4.643  10.300  64.896  1.00  0.00     0.000 HD 
HETATM   13  C   UNL     1      -7.842   7.537  66.951  1.00  0.00    -0.111 A  
HETATM   14  O   UNL     1      -5.327   9.759  64.520  1.00  0.00    -0.058 OA 
HETATM   15  C   UNL     1      -8.044   7.522  65.552  1.00  0.00    -0.131 A  
HETATM   16  S   UNL     1      -8.959   6.443  67.793  1.00  0.00    -0.112 S  
HETATM   17  C   UNL     1      -6.058   9.106  66.655  1.00  0.00    -0.064 A  
HETATM   18  O   UNL     1      -8.697   6.472  69.213  1.00  0.00    -0.129 OA 
HETATM   19  O   UNL     1     -10.271   6.727  67.269  1.00  0.00    -0.166 OA 
HETATM   20  O   UNL     1      -8.517   9.084  62.553  1.00  0.00    -0.188 OA 
HETATM   21  C   UNL     1      -7.205   8.232  64.708  1.00  0.00    -0.082 A  
HETATM   22  O   UNL     1      -8.512   4.990  67.217  1.00  0.00    -0.107 OA 
HETATM   23  O   UNL     1      -6.171   8.426  62.347  1.00  0.00    -0.087 OA 
HETATM   24  O   UNL     1      -7.952   6.673  62.765  1.00  0.00    -0.104 OA 
HETATM   25  S   UNL     1      -7.406   8.001  62.968  1.00  0.00    -0.110 S  
HETATM   26  C   UNL     1      -6.207   9.022  65.258  1.00  0.00    -0.063 A  
ENDBRANCH  10  11
BRANCH  10  27
HETATM   27  C   UNL     1      -6.304   7.385  69.813  1.00  0.00    -0.031 A  
HETATM   28  C   UNL     1      -5.426   6.311  69.353  1.00  0.00    -0.013 A  
HETATM   29  C   UNL     1      -6.047   4.860  71.269  1.00  0.00    -0.018 A  
HETATM   30  C   UNL     1      -6.768   6.045  71.851  1.00  0.00    -0.064 A  
HETATM   31  C   UNL     1      -6.887   7.197  71.158  1.00  0.00    -0.060 A  
HETATM   32  C   UNL     1      -5.259   5.170  70.030  1.00  0.00    -0.004 A  
BRANCH  29  33
HETATM   33  N   UNL     1      -6.111   3.643  71.745  1.00  0.00    -0.013 NA 
BRANCH  33  34
HETATM   34  C   UNL     1      -6.614   2.444  70.966  1.00  0.00    -0.024 C  
HETATM   35  C   UNL     1      -8.048   2.613  70.505  1.00  0.00    -0.055 C  
ENDBRANCH  33  34
BRANCH  33  36
HETATM   36  C   UNL     1      -5.502   3.278  73.088  1.00  0.00     0.000 C  
HETATM   37  C   UNL     1      -6.556   3.354  74.182  1.00  0.00    -0.034 C  
ENDBRANCH  33  36
ENDBRANCH  29  33
ENDBRANCH  10  27
ENDBRANCH   9  10
ENDBRANCH   3   4
BRANCH   3  38
HETATM   38  C   UNL     1      -6.163  14.888  70.517  1.00  0.00    -0.088 C  
HETATM   39  C   UNL     1      -5.153  15.817  71.182  1.00  0.00    -0.146 C  
ENDBRANCH   3  38
ENDBRANCH   2   3
TORSDOF 9
ENDMDL
MODEL       69
REMARK 921   NORMALIZED FREE ENERGY PREDICTED BY IDOCK:   10.23 KCAL/MOL
REMARK 922        TOTAL FREE ENERGY PREDICTED BY IDOCK:   13.30 KCAL/MOL
REMARK 923 INTER-LIGAND FREE ENERGY PREDICTED BY IDOCK:    7.59 KCAL/MOL
REMARK 924 INTRA-LIGAND FREE ENERGY PREDICTED BY IDOCK:    5.71 KCAL/MOL
REMARK 927      BINDING AFFINITY PREDICTED BY RF-SCORE:    0.00 PKD
ROOT
HETATM    1  C   UNL     1      -9.357  16.555  65.281  1.00  0.00     0.900 C  
HETATM    2  C   UNL     1     -10.310  16.060  66.367  1.00  0.00    -0.305 C  
ENDROOT
BRANCH   2   3
HETATM    3  N   UNL     1     -11.207  14.974  65.931  1.00  0.00    -0.336 NA 
BRANCH   3   4
HETATM    4  C   UNL     1     -10.821  13.649  66.178  1.00  0.00    -0.279 A  
HETATM    5  C   UNL     1      -9.581  13.317  66.743  1.00  0.00    -0.258 A  
HETATM    6  C   UNL     1     -11.681  12.570  65.916  1.00  0.00    -0.480 A  
HETATM    7  C   UNL     1      -9.253  11.995  67.110  1.00  0.00    -0.190 A  
HETATM    8  C   UNL     1     -11.362  11.243  66.281  1.00  0.00    -0.057 A  
HETATM    9  C   UNL     1     -10.157  10.941  66.918  1.00  0.00    -0.253 A  
BRANCH   9  10
HETATM   10  C   UNL     1      -9.828   9.553  67.409  1.00  0.00    -0.218 C  
BRANCH  10  11
HETATM   11  C   UNL     1      -9.023   8.610  66.522  1.00  0.00    -0.187 A  
HETATM   12  H   UNL     1      -6.703   5.891  68.235  1.00  0.00     0.000 HD 
HETATM   13  C   UNL     1      -8.992   8.553  65.109  1.00  0.00    -0.006 A  
HETATM   14  O   UNL     1      -6.699   5.873  67.286  1.00  0.00    -0.057 OA 
HETATM   15  C   UNL     1      -8.159   7.640  64.422  1.00  0.00    -0.084 A  
HETATM   16  S   UNL     1      -9.960   9.536  63.992  1.00  0.00     1.660 S  
HETATM   17  C   UNL     1      -8.169   7.703  67.191  1.00  0.00    -0.118 A  
HETATM   18  O   UNL     1     -10.813  10.432  64.738  1.00  0.00     0.075 OA 
HETATM   19  O   UNL     1      -9.044  10.033  62.996  1.00  0.00    -0.241 OA 
HETATM   20  O   UNL     1      -5.135   6.173  63.827  1.00  0.00    -0.016 OA 
HETATM   21  C   UNL     1      -7.399   6.713  65.118  1.00  0.00    -0.081 A  
HETATM   22  O   UNL     1     -10.894   8.415  63.274  1.00  0.00     9.307 OA 
HETATM   23  O   UNL     1      -6.249   4.399  65.087  1.00  0.00    -0.032 OA 
HETATM   24  O   UNL     1      -7.283   5.283  62.949  1.00  0.00    -0.040 OA 
HETATM   25  S   UNL     1      -6.542   5.486  64.180  1.00  0.00    -0.042 S  
HETATM   26  C   UNL     1      -7.407   6.740  66.505  1.00  0.00    -0.074 A  
ENDBRANCH  10  11
BRANCH  10  27
HETATM   27  C   UNL     1     -10.414   9.087  68.560  1.00  0.00    -0.232 A  
HETATM   28  C   UNL     1     -10.821  10.019  69.609  1.00  0.00    -0.292 A  
HETATM   29  C   UNL     1     -11.376   8.166  71.165  1.00  0.00    -0.269 A  
HETATM   30  C   UNL     1     -11.171   7.222  70.012  1.00  0.00    -0.234 A  
HETATM   31  C   UNL     1     -10.715   7.665  68.822  1.00  0.00    -0.106 A  
HETATM   32  C   UNL     1     -11.308   9.616  70.788  1.00  0.00    -0.409 A  
BRANCH  29  33
HETATM   33  N   UNL     1     -11.555   7.796  72.408  1.00  0.00    -0.338 NA 
BRANCH  33  34
HETATM   34  C   UNL     1     -10.670   6.811  73.144  1.00  0.00    -0.296 C  
HETATM   35  C   UNL     1      -9.468   7.478  73.783  1.00  0.00    -0.330 C  
ENDBRANCH  33  34
BRANCH  33  36
HETATM   36  C   UNL     1     -12.581   8.472  73.301  1.00  0.00     1.286 C  
HETATM   37  C   UNL     1     -13.001   9.806  72.706  1.00  0.00     0.303 C  
ENDBRANCH  33  36
ENDBRANCH  29  33
ENDBRANCH  10  27
ENDBRANCH   9  10
ENDBRANCH   3   4
BRANCH   3  38
HETATM   38  C   UNL     1     -12.173  15.241  64.850  1.00  0.00     0.037 C  
HETATM   39  C   UNL     1     -12.082  14.232  63.711  1.00  0.00    -0.114 C  
ENDBRANCH   3  38
ENDBRANCH   2   3
TORSDOF 9
ENDMDL
MODEL       70
REMARK 921   NORMALIZED FREE ENERGY PREDICTED BY IDOCK:   11.99 KCAL/MOL
REMARK 922        TOTAL FREE ENERGY PREDICTED BY IDOCK:   15.99 KCAL/MOL
REMARK 923 INTER-LIGAND FREE ENERGY PREDICTED BY IDOCK:    8.25 KCAL/MOL
REMARK 924 INTRA-LIGAND FREE ENERGY PREDICTED BY IDOCK:    7.74 KCAL/MOL
REMARK 927      BINDING AFFINITY PREDICTED BY RF-SCORE:    0.00 PKD
ROOT
HETATM    1  C   UNL     1      -7.708   4.993  72.966  1.00  0.00    -0.097 C  
HETATM    2  C   UNL     1      -7.990   5.930  74.138  1.00  0.00    -0.104 C  
ENDROOT
BRANCH   2   3
HETATM    3  N   UNL     1      -7.620   7.336  73.887  1.00  0.00    -0.104 NA 
BRANCH   3   4
HETATM    4  C   UNL     1      -8.126   7.965  72.740  1.00  0.00    -0.136 A  
HETATM    5  C   UNL     1      -8.094   9.356  72.565  1.00  0.00     1.537 A  
HETATM    6  C   UNL     1      -8.653   7.227  71.668  1.00  0.00    -0.120 A  
HETATM    7  C   UNL     1      -8.482   9.970  71.356  1.00  0.00     2.162 A  
HETATM    8  C   UNL     1      -9.043   7.833  70.452  1.00  0.00    -0.155 A  
HETATM    9  C   UNL     1      -8.929   9.211  70.265  1.00  0.00    -0.245 A  
BRANCH   9  10
HETATM   10  C   UNL     1      -9.242   9.878  68.949  1.00  0.00    -0.160 C  
BRANCH  10  11
HETATM   11  C   UNL     1      -8.996   9.126  67.645  1.00  0.00    -0.130 A  
HETATM   12  H   UNL     1     -11.125  10.102  64.448  1.00  0.00     0.000 HD 
HETATM   13  C   UNL     1      -8.065   8.092  67.395  1.00  0.00    -0.122 A  
HETATM   14  O   UNL     1     -10.493   9.408  64.305  1.00  0.00     1.900 OA 
HETATM   15  C   UNL     1      -7.979   7.461  66.133  1.00  0.00    -0.112 A  
HETATM   16  S   UNL     1      -6.872   7.446  68.541  1.00  0.00    -0.075 S  
HETATM   17  C   UNL     1      -9.828   9.479  66.557  1.00  0.00    -0.305 A  
HETATM   18  O   UNL     1      -6.980   8.138  69.805  1.00  0.00    -0.050 OA 
HETATM   19  O   UNL     1      -6.978   6.010  68.464  1.00  0.00    -0.070 OA 
HETATM   20  O   UNL     1      -9.371   5.870  63.452  1.00  0.00     0.818 OA 
HETATM   21  C   UNL     1      -8.757   7.893  65.071  1.00  0.00     0.104 A  
HETATM   22  O   UNL     1      -5.466   7.866  67.842  1.00  0.00    -0.031 OA 
HETATM   23  O   UNL     1      -8.996   8.093  62.505  1.00  0.00     0.149 OA 
HETATM   24  O   UNL     1      -7.055   6.771  63.456  1.00  0.00    -0.052 OA 
HETATM   25  S   UNL     1      -8.445   7.182  63.484  1.00  0.00     0.487 S  
HETATM   26  C   UNL     1      -9.680   8.907  65.280  1.00  0.00     0.329 A  
ENDBRANCH  10  11
BRANCH  10  27
HETATM   27  C   UNL     1      -9.563  11.213  68.928  1.00  0.00    -0.154 A  
HETATM   28  C   UNL     1      -9.416  11.987  67.697  1.00  0.00    -0.185 A  
HETATM   29  C   UNL     1      -9.917  14.116  68.871  1.00  0.00    -0.127 A  
HETATM   30  C   UNL     1     -10.284  13.293  70.075  1.00  0.00     1.809 A  
HETATM   31  C   UNL     1     -10.101  11.955  70.086  1.00  0.00     2.278 A  
HETATM   32  C   UNL     1      -9.621  13.308  67.642  1.00  0.00    -0.213 A  
BRANCH  29  33
HETATM   33  N   UNL     1      -9.811  15.421  68.866  1.00  0.00    -0.205 NA 
BRANCH  33  34
HETATM   34  C   UNL     1      -8.921  16.204  67.921  1.00  0.00    -0.183 C  
HETATM   35  C   UNL     1      -9.100  17.702  68.064  1.00  0.00    -0.267 C  
ENDBRANCH  33  34
BRANCH  33  36
HETATM   36  C   UNL     1     -10.726  16.299  69.701  1.00  0.00    -0.338 C  
HETATM   37  C   UNL     1     -12.023  16.569  68.955  1.00  0.00     0.420 C  
ENDBRANCH  33  36
ENDBRANCH  29  33
ENDBRANCH  10  27
ENDBRANCH   9  10
ENDBRANCH   3   4
BRANCH   3  38
HETATM   38  C   UNL     1      -6.393   7.869  74.505  1.00  0.00    -0.099 C  
HETATM   39  C   UNL     1      -5.983   9.223  73.936  1.00  0.00     0.097 C  
ENDBRANCH   3  38
ENDBRANCH   2   3
TORSDOF 9
ENDMDL
MODEL       71
REMARK 921   NORMALIZED FREE ENERGY PREDICTED BY IDOCK:   15.48 KCAL/MOL
REMARK 922        TOTAL FREE ENERGY PREDICTED BY IDOCK:   21.32 KCAL/MOL
REMARK 923 INTER-LIGAND FREE ENERGY PREDICTED BY IDOCK:   21.81 KCAL/MOL
REMARK 924 INTRA-LIGAND FREE ENERGY PREDICTED BY IDOCK:   -0.49 KCAL/MOL
REMARK 927      BINDING AFFINITY PREDICTED BY RF-SCORE:    0.00 PKD
ROOT
HETATM    1  C   UNL     1     -11.118   1.673  66.007  1.00  0.00     5.637 C  
HETATM    2  C   UNL     1     -11.283   2.149  64.565  1.00  0.00     1.740 C  
ENDROOT
BRANCH   2   3
HETATM    3  N   UNL     1     -11.595   3.584  64.438  1.00  0.00     0.658 NA 
BRANCH   3   4
HETATM    4  C   UNL     1     -10.981   4.483  65.323  1.00  0.00     0.028 A  
HETATM    5  C   UNL     1     -11.331   5.839  65.386  1.00  0.00     2.432 A  
HETATM    6  C   UNL     1     -10.006   4.060  66.240  1.00  0.00    -0.125 A  
HETATM    7  C   UNL     1     -10.805   6.705  66.366  1.00  0.00     0.247 A  
HETATM    8  C   UNL     1      -9.474   4.921  67.227  1.00  0.00    -0.157 A  
HETATM    9  C   UNL     1      -9.894   6.248  67.329  1.00  0.00    -0.165 A  
BRANCH   9  10
HETATM   10  C   UNL     1      -9.421   7.165  68.429  1.00  0.00    -0.138 C  
BRANCH  10  11
HETATM   11  C   UNL     1      -8.740   6.576  69.661  1.00  0.00    -0.139 A  
HETATM   12  H   UNL     1     -10.990   5.004  72.519  1.00  0.00     0.000 HD 
HETATM   13  C   UNL     1      -7.356   6.494  69.937  1.00  0.00    -0.086 A  
HETATM   14  O   UNL     1     -10.056   4.962  72.683  1.00  0.00    -0.163 OA 
HETATM   15  C   UNL     1      -6.873   5.951  71.150  1.00  0.00    -0.066 A  
HETATM   16  S   UNL     1      -6.033   6.999  68.865  1.00  0.00    -0.023 S  
HETATM   17  C   UNL     1      -9.598   6.085  70.671  1.00  0.00    -0.201 A  
HETATM   18  O   UNL     1      -6.573   7.521  67.632  1.00  0.00    -0.057 OA 
HETATM   19  O   UNL     1      -5.134   7.780  69.678  1.00  0.00    -0.022 OA 
HETATM   20  O   UNL     1      -6.833   5.737  74.557  1.00  0.00    -0.079 OA 
HETATM   21  C   UNL     1      -7.746   5.406  72.078  1.00  0.00    -0.101 A  
HETATM   22  O   UNL     1      -5.295   5.586  68.547  1.00  0.00    -0.003 OA 
HETATM   23  O   UNL     1      -8.079   3.709  73.999  1.00  0.00    -0.077 OA 
HETATM   24  O   UNL     1      -5.749   4.067  73.069  1.00  0.00    -0.003 OA 
HETATM   25  S   UNL     1      -7.047   4.573  73.471  1.00  0.00    -0.069 S  
HETATM   26  C   UNL     1      -9.111   5.468  71.838  1.00  0.00    -0.138 A  
ENDBRANCH  10  11
BRANCH  10  27
HETATM   27  C   UNL     1      -9.777   8.491  68.403  1.00  0.00    -0.169 A  
HETATM   28  C   UNL     1      -9.133   9.408  67.465  1.00  0.00    -0.136 A  
HETATM   29  C   UNL     1     -10.241  11.378  68.492  1.00  0.00    -0.208 A  
HETATM   30  C   UNL     1     -11.065  10.413  69.300  1.00  0.00    -0.303 A  
HETATM   31  C   UNL     1     -10.827   9.085  69.255  1.00  0.00    -0.131 A  
HETATM   32  C   UNL     1      -9.370  10.724  67.460  1.00  0.00    -0.158 A  
BRANCH  29  33
HETATM   33  N   UNL     1     -10.223  12.674  68.672  1.00  0.00    -0.197 NA 
BRANCH  33  34
HETATM   34  C   UNL     1      -8.983  13.538  68.554  1.00  0.00    -0.086 C  
HETATM   35  C   UNL     1      -9.310  15.016  68.492  1.00  0.00    -0.196 C  
ENDBRANCH  33  34
BRANCH  33  36
HETATM   36  C   UNL     1     -11.503  13.475  68.840  1.00  0.00    -0.306 C  
HETATM   37  C   UNL     1     -12.232  13.044  70.103  1.00  0.00    -0.342 C  
ENDBRANCH  33  36
ENDBRANCH  29  33
ENDBRANCH  10  27
ENDBRANCH   9  10
ENDBRANCH   3   4
BRANCH   3  38
HETATM   38  C   UNL     1     -12.855   3.983  63.784  1.00  0.00     8.253 C  
HETATM   39  C   UNL     1     -12.940   3.525  62.333  1.00  0.00     6.851 C  
ENDBRANCH   3  38
ENDBRANCH   2   3
TORSDOF 9
ENDMDL
MODEL       72
REMARK 921   NORMALIZED FREE ENERGY PREDICTED BY IDOCK:   17.05 KCAL/MOL
REMARK 922        TOTAL FREE ENERGY PREDICTED BY IDOCK:   23.70 KCAL/MOL
REMARK 923 INTER-LIGAND FREE ENERGY PREDICTED BY IDOCK:   25.15 KCAL/MOL
REMARK 924 INTRA-LIGAND FREE ENERGY PREDICTED BY IDOCK:   -1.45 KCAL/MOL
REMARK 927      BINDING AFFINITY PREDICTED BY RF-SCORE:    0.00 PKD
ROOT
HETATM    1  C   UNL     1      -8.060  13.794  73.561  1.00  0.00     9.811 C  
HETATM    2  C   UNL     1      -6.914  13.748  72.553  1.00  0.00     4.341 C  
ENDROOT
BRANCH   2   3
HETATM    3  N   UNL     1      -7.348  13.571  71.155  1.00  0.00     2.741 NA 
BRANCH   3   4
HETATM    4  C   UNL     1      -7.474  12.267  70.656  1.00  0.00     3.993 A  
HETATM    5  C   UNL     1      -7.433  11.976  69.284  1.00  0.00     0.185 A  
HETATM    6  C   UNL     1      -7.599  11.160  71.511  1.00  0.00     6.225 A  
HETATM    7  C   UNL     1      -7.427  10.653  68.797  1.00  0.00    -0.104 A  
HETATM    8  C   UNL     1      -7.592   9.831  71.032  1.00  0.00     0.350 A  
HETATM    9  C   UNL     1      -7.469   9.556  69.669  1.00  0.00    -0.092 A  
BRANCH   9  10
HETATM   10  C   UNL     1      -7.359   8.150  69.133  1.00  0.00    -0.082 C  
BRANCH  10  11
HETATM   11  C   UNL     1      -7.477   7.902  67.633  1.00  0.00    -0.097 A  
HETATM   12  H   UNL     1      -4.377   6.366  65.702  1.00  0.00     0.000 HD 
HETATM   13  C   UNL     1      -8.590   8.140  66.794  1.00  0.00    -0.132 A  
HETATM   14  O   UNL     1      -5.137   6.535  65.158  1.00  0.00    -0.017 OA 
HETATM   15  C   UNL     1      -8.535   7.894  65.403  1.00  0.00    -0.134 A  
HETATM   16  S   UNL     1     -10.187   8.730  67.300  1.00  0.00    -0.284 S  
HETATM   17  C   UNL     1      -6.318   7.409  66.991  1.00  0.00    -0.052 A  
HETATM   18  O   UNL     1     -10.203   8.941  68.729  1.00  0.00    -0.196 OA 
HETATM   19  O   UNL     1     -10.533   9.788  66.384  1.00  0.00    -0.204 OA 
HETATM   20  O   UNL     1      -7.069   8.211  62.337  1.00  0.00    -0.089 OA 
HETATM   21  C   UNL     1      -7.406   7.333  64.827  1.00  0.00    -0.081 A  
HETATM   22  O   UNL     1     -11.143   7.460  66.956  1.00  0.00    -0.268 OA 
HETATM   23  O   UNL     1      -6.441   5.915  62.894  1.00  0.00    -0.027 OA 
HETATM   24  O   UNL     1      -8.884   6.584  62.823  1.00  0.00     0.313 OA 
HETATM   25  S   UNL     1      -7.495   6.877  63.123  1.00  0.00    -0.093 S  
HETATM   26  C   UNL     1      -6.296   7.085  65.622  1.00  0.00    -0.046 A  
ENDBRANCH  10  11
BRANCH  10  27
HETATM   27  C   UNL     1      -7.346   7.093  70.010  1.00  0.00    -0.080 A  
HETATM   28  C   UNL     1      -8.568   6.696  70.704  1.00  0.00    -0.142 A  
HETATM   29  C   UNL     1      -7.343   5.067  72.120  1.00  0.00    -0.090 A  
HETATM   30  C   UNL     1      -6.139   5.316  71.254  1.00  0.00    -0.029 A  
HETATM   31  C   UNL     1      -6.156   6.264  70.293  1.00  0.00    -0.030 A  
HETATM   32  C   UNL     1      -8.594   5.738  71.638  1.00  0.00    -0.132 A  
BRANCH  29  33
HETATM   33  N   UNL     1      -7.331   4.370  73.228  1.00  0.00    -0.075 NA 
BRANCH  33  34
HETATM   34  C   UNL     1      -6.555   4.752  74.472  1.00  0.00    -0.065 C  
HETATM   35  C   UNL     1      -5.184   4.110  74.521  1.00  0.00    -0.004 C  
ENDBRANCH  33  34
BRANCH  33  36
HETATM   36  C   UNL     1      -8.258   3.185  73.435  1.00  0.00    -0.074 C  
HETATM   37  C   UNL     1      -7.746   1.975  72.670  1.00  0.00    -0.051 C  
ENDBRANCH  33  36
ENDBRANCH  29  33
ENDBRANCH  10  27
ENDBRANCH   9  10
ENDBRANCH   3   4
BRANCH   3  38
HETATM   38  C   UNL     1      -7.151  14.679  70.203  1.00  0.00     0.094 C  
HETATM   39  C   UNL     1      -5.704  15.151  70.135  1.00  0.00    -0.134 C  
ENDBRANCH   3  38
ENDBRANCH   2   3
TORSDOF 9
ENDMDL
MODEL       73
REMARK 921   NORMALIZED FREE ENERGY PREDICTED BY IDOCK:   20.66 KCAL/MOL
REMARK 922        TOTAL FREE ENERGY PREDICTED BY IDOCK:   29.23 KCAL/MOL
REMARK 923 INTER-LIGAND FREE ENERGY PREDICTED BY IDOCK:   30.73 KCAL/MOL
REMARK 924 INTRA-LIGAND FREE ENERGY PREDICTED BY IDOCK:   -1.50 KCAL/MOL
REMARK 927      BINDING AFFINITY PREDICTED BY RF-SCORE:    0.00 PKD
ROOT
HETATM    1  C   UNL     1     -10.017   6.588  71.161  1.00  0.00    -0.202 C  
HETATM    2  C   UNL     1      -9.048   6.599  69.982  1.00  0.00    -0.151 C  
ENDROOT
BRANCH   2   3
HETATM    3  N   UNL     1      -8.053   7.686  70.031  1.00  0.00    -0.118 NA 
BRANCH   3   4
HETATM    4  C   UNL     1      -8.491   9.002  69.824  1.00  0.00    -0.132 A  
HETATM    5  C   UNL     1      -7.954   9.829  68.826  1.00  0.00    -0.087 A  
HETATM    6  C   UNL     1      -9.536   9.557  70.579  1.00  0.00    -0.312 A  
HETATM    7  C   UNL     1      -8.489  11.101  68.537  1.00  0.00    -0.156 A  
HETATM    8  C   UNL     1     -10.079  10.830  70.297  1.00  0.00     0.685 A  
HETATM    9  C   UNL     1      -9.588  11.607  69.247  1.00  0.00     0.377 A  
BRANCH   9  10
HETATM   10  C   UNL     1     -10.208  12.926  68.856  1.00  0.00    -0.007 C  
BRANCH  10  11
HETATM   11  C   UNL     1     -10.499  13.970  69.929  1.00  0.00     0.505 A  
HETATM   12  H   UNL     1     -13.940  13.785  71.887  1.00  0.00     0.000 HD 
HETATM   13  C   UNL     1      -9.675  15.036  70.356  1.00  0.00     0.601 A  
HETATM   14  O   UNL     1     -13.369  14.496  72.156  1.00  0.00    -0.326 OA 
HETATM   15  C   UNL     1     -10.103  15.953  71.344  1.00  0.00     1.957 A  
HETATM   16  S   UNL     1      -8.030  15.391  69.791  1.00  0.00     0.114 S  
HETATM   17  C   UNL     1     -11.767  13.887  70.549  1.00  0.00    -0.231 A  
HETATM   18  O   UNL     1      -7.628  14.415  68.805  1.00  0.00    -0.123 OA 
HETATM   19  O   UNL     1      -8.000  16.803  69.500  1.00  0.00     0.004 OA 
HETATM   20  O   UNL     1     -12.376  18.138  72.653  1.00  0.00     4.533 OA 
HETATM   21  C   UNL     1     -11.320  15.787  71.984  1.00  0.00    -0.247 A  
HETATM   22  O   UNL     1      -7.149  15.156  71.137  1.00  0.00     0.900 OA 
HETATM   23  O   UNL     1     -12.717  16.210  74.117  1.00  0.00    -0.647 OA 
HETATM   24  O   UNL     1     -10.424  17.270  73.924  1.00  0.00     4.528 OA 
HETATM   25  S   UNL     1     -11.687  16.860  73.339  1.00  0.00     0.586 S  
HETATM   26  C   UNL     1     -12.153  14.750  71.591  1.00  0.00    -0.350 A  
ENDBRANCH  10  11
BRANCH  10  27
HETATM   27  C   UNL     1     -10.677  13.098  67.577  1.00  0.00    -0.248 A  
HETATM   28  C   UNL     1     -10.048  14.069  66.685  1.00  0.00    -0.276 A  
HETATM   29  C   UNL     1     -11.803  13.756  64.958  1.00  0.00    -0.366 A  
HETATM   30  C   UNL     1     -12.315  12.604  65.778  1.00  0.00    -0.323 A  
HETATM   31  C   UNL     1     -11.791  12.324  66.990  1.00  0.00    -0.329 A  
HETATM   32  C   UNL     1     -10.521  14.347  65.465  1.00  0.00    -0.366 A  
BRANCH  29  33
HETATM   33  N   UNL     1     -12.414  14.257  63.915  1.00  0.00    -0.804 NA 
BRANCH  33  34
HETATM   34  C   UNL     1     -13.914  14.444  63.809  1.00  0.00     6.289 C  
HETATM   35  C   UNL     1     -14.382  15.742  64.434  1.00  0.00     5.439 C  
ENDBRANCH  33  34
BRANCH  33  36
HETATM   36  C   UNL     1     -11.645  14.879  62.762  1.00  0.00     4.259 C  
HETATM   37  C   UNL     1     -11.424  16.362  63.016  1.00  0.00     5.835 C  
ENDBRANCH  33  36
ENDBRANCH  29  33
ENDBRANCH  10  27
ENDBRANCH   9  10
ENDBRANCH   3   4
BRANCH   3  38
HETATM   38  C   UNL     1      -6.635   7.364  69.785  1.00  0.00    -0.039 C  
HETATM   39  C   UNL     1      -6.450   6.086  68.974  1.00  0.00    -0.043 C  
ENDBRANCH   3  38
ENDBRANCH   2   3
TORSDOF 9
ENDMDL
MODEL       74
REMARK 921   NORMALIZED FREE ENERGY PREDICTED BY IDOCK:   20.83 KCAL/MOL
REMARK 922        TOTAL FREE ENERGY PREDICTED BY IDOCK:   29.48 KCAL/MOL
REMARK 923 INTER-LIGAND FREE ENERGY PREDICTED BY IDOCK:   29.66 KCAL/MOL
REMARK 924 INTRA-LIGAND FREE ENERGY PREDICTED BY IDOCK:   -0.18 KCAL/MOL
REMARK 927      BINDING AFFINITY PREDICTED BY RF-SCORE:    0.00 PKD
ROOT
HETATM    1  C   UNL     1      -8.849  17.300  64.101  1.00  0.00    10.040 C  
HETATM    2  C   UNL     1      -7.358  16.970  64.120  1.00  0.00    10.454 C  
ENDROOT
BRANCH   2   3
HETATM    3  N   UNL     1      -6.784  16.857  65.473  1.00  0.00     0.821 NA 
BRANCH   3   4
HETATM    4  C   UNL     1      -7.294  15.875  66.335  1.00  0.00     0.467 A  
HETATM    5  C   UNL     1      -6.587  15.410  67.453  1.00  0.00    -0.150 A  
HETATM    6  C   UNL     1      -8.576  15.331  66.154  1.00  0.00     0.074 A  
HETATM    7  C   UNL     1      -7.158  14.522  68.387  1.00  0.00    -0.111 A  
HETATM    8  C   UNL     1      -9.157  14.441  67.085  1.00  0.00    -0.238 A  
HETATM    9  C   UNL     1      -8.471  14.052  68.236  1.00  0.00    -0.171 A  
BRANCH   9  10
HETATM   10  C   UNL     1      -9.098  13.183  69.298  1.00  0.00     0.891 C  
BRANCH  10  11
HETATM   11  C   UNL     1      -8.613  11.750  69.485  1.00  0.00     1.068 A  
HETATM   12  H   UNL     1      -5.520  11.076  71.870  1.00  0.00     0.000 HD 
HETATM   13  C   UNL     1      -9.139  10.568  68.914  1.00  0.00    -0.177 A  
HETATM   14  O   UNL     1      -5.891  10.297  71.473  1.00  0.00    -0.291 OA 
HETATM   15  C   UNL     1      -8.552   9.304  69.153  1.00  0.00    -0.134 A  
HETATM   16  S   UNL     1     -10.573  10.447  67.874  1.00  0.00    -0.252 S  
HETATM   17  C   UNL     1      -7.469  11.581  70.299  1.00  0.00     1.715 A  
HETATM   18  O   UNL     1     -11.152  11.756  67.680  1.00  0.00    -0.221 OA 
HETATM   19  O   UNL     1     -10.187   9.627  66.752  1.00  0.00    -0.227 OA 
HETATM   20  O   UNL     1      -5.872   7.194  69.266  1.00  0.00    -0.018 OA 
HETATM   21  C   UNL     1      -7.482   9.174  70.023  1.00  0.00    -0.077 A  
HETATM   22  O   UNL     1     -11.586   9.566  68.791  1.00  0.00     0.239 OA 
HETATM   23  O   UNL     1      -6.192   7.634  71.649  1.00  0.00    -0.036 OA 
HETATM   24  O   UNL     1      -8.079   6.655  70.272  1.00  0.00    -0.116 OA 
HETATM   25  S   UNL     1      -6.939   7.539  70.415  1.00  0.00    -0.052 S  
HETATM   26  C   UNL     1      -6.941  10.312  70.602  1.00  0.00     0.142 A  
ENDBRANCH  10  11
BRANCH  10  27
HETATM   27  C   UNL     1     -10.222  13.624  69.953  1.00  0.00     1.143 A  
HETATM   28  C   UNL     1     -10.112  14.239  71.274  1.00  0.00     3.483 A  
HETATM   29  C   UNL     1     -12.578  14.300  71.550  1.00  0.00    -0.354 A  
HETATM   30  C   UNL     1     -12.686  13.878  70.111  1.00  0.00    -0.182 A  
HETATM   31  C   UNL     1     -11.587  13.558  69.394  1.00  0.00    -0.369 A  
HETATM   32  C   UNL     1     -11.177  14.599  71.998  1.00  0.00     0.563 A  
BRANCH  29  33
HETATM   33  N   UNL     1     -13.585  14.368  72.384  1.00  0.00    -0.439 NA 
BRANCH  33  34
HETATM   34  C   UNL     1     -14.255  13.167  73.018  1.00  0.00     1.483 C  
HETATM   35  C   UNL     1     -13.650  11.856  72.559  1.00  0.00     0.341 C  
ENDBRANCH  33  34
BRANCH  33  36
HETATM   36  C   UNL     1     -14.066  15.695  72.946  1.00  0.00    -0.239 C  
HETATM   37  C   UNL     1     -13.466  15.933  74.322  1.00  0.00     1.046 C  
ENDBRANCH  33  36
ENDBRANCH  29  33
ENDBRANCH  10  27
ENDBRANCH   9  10
ENDBRANCH   3   4
BRANCH   3  38
HETATM   38  C   UNL     1      -6.102  18.027  66.056  1.00  0.00    -0.231 C  
HETATM   39  C   UNL     1      -7.072  19.055  66.626  1.00  0.00    -0.223 C  
ENDBRANCH   3  38
ENDBRANCH   2   3
TORSDOF 9
ENDMDL
MODEL       75
REMARK 921   NORMALIZED FREE ENERGY PREDICTED BY IDOCK:   21.42 KCAL/MOL
REMARK 922        TOTAL FREE ENERGY PREDICTED BY IDOCK:   30.39 KCAL/MOL
REMARK 923 INTER-LIGAND FREE ENERGY PREDICTED BY IDOCK:   29.05 KCAL/MOL
REMARK 924 INTRA-LIGAND FREE ENERGY PREDICTED BY IDOCK:    1.33 KCAL/MOL
REMARK 927      BINDING AFFINITY PREDICTED BY RF-SCORE:    0.00 PKD
ROOT
HETATM    1  C   UNL     1      -8.129   4.708  71.092  1.00  0.00    -0.088 C  
HETATM    2  C   UNL     1      -9.409   3.926  71.374  1.00  0.00    -0.139 C  
ENDROOT
BRANCH   2   3
HETATM    3  N   UNL     1     -10.647   4.674  71.087  1.00  0.00     0.012 NA 
BRANCH   3   4
HETATM    4  C   UNL     1     -10.547   5.893  70.399  1.00  0.00    -0.286 A  
HETATM    5  C   UNL     1     -11.648   6.736  70.193  1.00  0.00    -0.397 A  
HETATM    6  C   UNL     1      -9.316   6.365  69.916  1.00  0.00    -0.156 A  
HETATM    7  C   UNL     1     -11.515   8.018  69.619  1.00  0.00     0.321 A  
HETATM    8  C   UNL     1      -9.173   7.648  69.340  1.00  0.00    -0.149 A  
HETATM    9  C   UNL     1     -10.265   8.509  69.217  1.00  0.00    -0.211 A  
BRANCH   9  10
HETATM   10  C   UNL     1     -10.129   9.919  68.699  1.00  0.00    -0.191 C  
BRANCH  10  11
HETATM   11  C   UNL     1     -10.686  10.275  67.325  1.00  0.00    -0.323 A  
HETATM   12  H   UNL     1     -13.607  12.943  67.082  1.00  0.00     0.000 HD 
HETATM   13  C   UNL     1     -10.283   9.779  66.064  1.00  0.00    -0.193 A  
HETATM   14  O   UNL     1     -13.320  12.593  66.247  1.00  0.00     1.503 OA 
HETATM   15  C   UNL     1     -10.926  10.179  64.870  1.00  0.00     1.368 A  
HETATM   16  S   UNL     1      -8.950   8.648  65.751  1.00  0.00    -0.180 S  
HETATM   17  C   UNL     1     -11.766  11.187  67.309  1.00  0.00     0.049 A  
HETATM   18  O   UNL     1      -8.308   8.289  66.994  1.00  0.00    -0.119 OA 
HETATM   19  O   UNL     1      -9.478   7.640  64.865  1.00  0.00     0.989 OA 
HETATM   20  O   UNL     1     -13.715  10.693  62.970  1.00  0.00     3.351 OA 
HETATM   21  C   UNL     1     -11.927  11.137  64.892  1.00  0.00     1.022 A  
HETATM   22  O   UNL     1      -7.923   9.563  64.886  1.00  0.00    -0.111 OA 
HETATM   23  O   UNL     1     -13.172  12.994  63.595  1.00  0.00    -0.094 OA 
HETATM   24  O   UNL     1     -11.470  11.573  62.369  1.00  0.00     1.124 OA 
HETATM   25  S   UNL     1     -12.537  11.721  63.340  1.00  0.00    -0.069 S  
HETATM   26  C   UNL     1     -12.346  11.647  66.112  1.00  0.00     1.597 A  
ENDBRANCH  10  11
BRANCH  10  27
HETATM   27  C   UNL     1      -9.342  10.816  69.380  1.00  0.00    -0.021 A  
HETATM   28  C   UNL     1      -9.916  12.054  69.899  1.00  0.00     1.785 A  
HETATM   29  C   UNL     1      -7.685  12.918  70.560  1.00  0.00     4.079 A  
HETATM   30  C   UNL     1      -7.132  11.558  70.231  1.00  0.00     1.011 A  
HETATM   31  C   UNL     1      -7.910  10.605  69.676  1.00  0.00    -0.048 A  
HETATM   32  C   UNL     1      -9.180  13.005  70.485  1.00  0.00     6.243 A  
BRANCH  29  33
HETATM   33  N   UNL     1      -6.958  13.968  70.846  1.00  0.00     0.747 NA 
BRANCH  33  34
HETATM   34  C   UNL     1      -7.235  14.915  71.995  1.00  0.00     3.170 C  
HETATM   35  C   UNL     1      -5.968  15.374  72.688  1.00  0.00     1.272 C  
ENDBRANCH  33  34
BRANCH  33  36
HETATM   36  C   UNL     1      -5.635  14.237  70.148  1.00  0.00    -0.119 C  
HETATM   37  C   UNL     1      -5.876  14.668  68.710  1.00  0.00    -0.085 C  
ENDBRANCH  33  36
ENDBRANCH  29  33
ENDBRANCH  10  27
ENDBRANCH   9  10
ENDBRANCH   3   4
BRANCH   3  38
HETATM   38  C   UNL     1     -11.838   4.427  71.921  1.00  0.00     2.209 C  
HETATM   39  C   UNL     1     -12.058   5.508  72.973  1.00  0.00     0.182 C  
ENDBRANCH   3  38
ENDBRANCH   2   3
TORSDOF 9
ENDMDL
MODEL       76
REMARK 921   NORMALIZED FREE ENERGY PREDICTED BY IDOCK:   22.28 KCAL/MOL
REMARK 922        TOTAL FREE ENERGY PREDICTED BY IDOCK:   31.69 KCAL/MOL
REMARK 923 INTER-LIGAND FREE ENERGY PREDICTED BY IDOCK:   32.36 KCAL/MOL
REMARK 924 INTRA-LIGAND FREE ENERGY PREDICTED BY IDOCK:   -0.67 KCAL/MOL
REMARK 927      BINDING AFFINITY PREDICTED BY RF-SCORE:    0.00 PKD
ROOT
HETATM    1  C   UNL     1      -5.332   6.312  70.894  1.00  0.00    -0.018 C  
HETATM    2  C   UNL     1      -5.955   5.568  72.073  1.00  0.00    -0.030 C  
ENDROOT
BRANCH   2   3
HETATM    3  N   UNL     1      -7.324   6.004  72.404  1.00  0.00    -0.089 NA 
BRANCH   3   4
HETATM    4  C   UNL     1      -7.935   6.966  71.586  1.00  0.00    -0.101 A  
HETATM    5  C   UNL     1      -8.752   7.984  72.099  1.00  0.00    -0.212 A  
HETATM    6  C   UNL     1      -7.721   6.995  70.199  1.00  0.00    -0.100 A  
HETATM    7  C   UNL     1      -9.253   9.023  71.289  1.00  0.00    -0.314 A  
HETATM    8  C   UNL     1      -8.218   8.033  69.379  1.00  0.00    -0.122 A  
HETATM    9  C   UNL     1      -8.962   9.084  69.919  1.00  0.00    -0.170 A  
BRANCH   9  10
HETATM   10  C   UNL     1      -9.423  10.257  69.091  1.00  0.00    -0.225 C  
BRANCH  10  11
HETATM   11  C   UNL     1      -9.221  10.241  67.580  1.00  0.00    -0.153 A  
HETATM   12  H   UNL     1      -5.889  11.781  66.083  1.00  0.00     0.000 HD 
HETATM   13  C   UNL     1     -10.083   9.719  66.588  1.00  0.00    -0.237 A  
HETATM   14  O   UNL     1      -6.486  11.424  65.436  1.00  0.00     0.392 OA 
HETATM   15  C   UNL     1      -9.773   9.812  65.212  1.00  0.00    -0.371 A  
HETATM   16  S   UNL     1     -11.616   8.867  66.865  1.00  0.00     3.694 S  
HETATM   17  C   UNL     1      -8.041  10.858  67.103  1.00  0.00    -0.127 A  
HETATM   18  O   UNL     1     -11.877   8.773  68.283  1.00  0.00     1.570 OA 
HETATM   19  O   UNL     1     -12.574   9.463  65.967  1.00  0.00     9.277 OA 
HETATM   20  O   UNL     1      -8.834  11.572  62.442  1.00  0.00    -0.318 OA 
HETATM   21  C   UNL     1      -8.568  10.352  64.793  1.00  0.00    -0.182 A  
HETATM   22  O   UNL     1     -11.286   7.378  66.303  1.00  0.00     1.386 OA 
HETATM   23  O   UNL     1      -6.745  10.413  62.962  1.00  0.00    -0.138 OA 
HETATM   24  O   UNL     1      -8.863   9.089  62.539  1.00  0.00    -0.222 OA 
HETATM   25  S   UNL     1      -8.177  10.250  63.073  1.00  0.00    -0.167 S  
HETATM   26  C   UNL     1      -7.696  10.872  65.739  1.00  0.00    -0.036 A  
ENDBRANCH  10  11
BRANCH  10  27
HETATM   27  C   UNL     1      -9.844  11.403  69.720  1.00  0.00     0.904 A  
HETATM   28  C   UNL     1     -11.215  11.878  69.548  1.00  0.00    -0.237 A  
HETATM   29  C   UNL     1     -10.732  13.990  70.760  1.00  0.00     1.548 A  
HETATM   30  C   UNL     1      -9.397  13.401  71.124  1.00  0.00     9.358 A  
HETATM   31  C   UNL     1      -9.000  12.211  70.624  1.00  0.00     7.336 A  
HETATM   32  C   UNL     1     -11.651  13.035  70.057  1.00  0.00    -0.195 A  
BRANCH  29  33
HETATM   33  N   UNL     1     -11.082  15.232  70.977  1.00  0.00    -0.324 NA 
BRANCH  33  34
HETATM   34  C   UNL     1     -12.048  15.673  72.058  1.00  0.00    -0.443 C  
HETATM   35  C   UNL     1     -13.246  16.413  71.498  1.00  0.00     1.662 C  
ENDBRANCH  33  34
BRANCH  33  36
HETATM   36  C   UNL     1     -10.397  16.389  70.271  1.00  0.00     0.250 C  
HETATM   37  C   UNL     1     -10.347  16.136  68.772  1.00  0.00    -0.248 C  
ENDBRANCH  33  36
ENDBRANCH  29  33
ENDBRANCH  10  27
ENDBRANCH   9  10
ENDBRANCH   3   4
BRANCH   3  38
HETATM   38  C   UNL     1      -7.809   5.838  73.786  1.00  0.00    -0.104 C  
HETATM   39  C   UNL     1      -9.322   5.669  73.868  1.00  0.00    -0.134 C  
ENDBRANCH   3  38
ENDBRANCH   2   3
TORSDOF 9
ENDMDL
MODEL       77
REMARK 921   NORMALIZED FREE ENERGY PREDICTED BY IDOCK:   22.50 KCAL/MOL
REMARK 922        TOTAL FREE ENERGY PREDICTED BY IDOCK:   32.03 KCAL/MOL
REMARK 923 INTER-LIGAND FREE ENERGY PREDICTED BY IDOCK:   32.43 KCAL/MOL
REMARK 924 INTRA-LIGAND FREE ENERGY PREDICTED BY IDOCK:   -0.39 KCAL/MOL
REMARK 927      BINDING AFFINITY PREDICTED BY RF-SCORE:    0.00 PKD
ROOT
HETATM    1  C   UNL     1      -9.964  21.356  65.233  1.00  0.00     3.836 C  
HETATM    2  C   UNL     1     -11.256  20.723  64.720  1.00  0.00     1.903 C  
ENDROOT
BRANCH   2   3
HETATM    3  N   UNL     1     -11.842  19.726  65.635  1.00  0.00     1.558 NA 
BRANCH   3   4
HETATM    4  C   UNL     1     -11.148  18.526  65.847  1.00  0.00     0.465 A  
HETATM    5  C   UNL     1     -10.249  18.351  66.909  1.00  0.00    -0.403 A  
HETATM    6  C   UNL     1     -11.353  17.402  65.030  1.00  0.00     0.879 A  
HETATM    7  C   UNL     1      -9.657  17.104  67.195  1.00  0.00    -0.255 A  
HETATM    8  C   UNL     1     -10.765  16.148  65.309  1.00  0.00    -0.386 A  
HETATM    9  C   UNL     1      -9.937  15.970  66.418  1.00  0.00    -0.312 A  
BRANCH   9  10
HETATM   10  C   UNL     1      -9.373  14.624  66.800  1.00  0.00    -0.275 C  
BRANCH  10  11
HETATM   11  C   UNL     1      -8.608  14.471  68.110  1.00  0.00    -0.169 A  
HETATM   12  H   UNL     1      -5.097  16.268  68.493  1.00  0.00     0.000 HD 
HETATM   13  C   UNL     1      -8.995  13.758  69.269  1.00  0.00     0.613 A  
HETATM   14  O   UNL     1      -5.378  15.781  69.259  1.00  0.00    -0.104 OA 
HETATM   15  C   UNL     1      -8.154  13.675  70.403  1.00  0.00     3.112 A  
HETATM   16  S   UNL     1     -10.532  12.906  69.520  1.00  0.00     0.753 S  
HETATM   17  C   UNL     1      -7.336  15.085  68.164  1.00  0.00    -0.119 A  
HETATM   18  O   UNL     1     -11.366  13.041  68.349  1.00  0.00    -0.252 OA 
HETATM   19  O   UNL     1     -10.191  11.609  70.049  1.00  0.00     0.836 OA 
HETATM   20  O   UNL     1      -5.150  13.040  71.893  1.00  0.00    -0.225 OA 
HETATM   21  C   UNL     1      -6.951  14.360  70.443  1.00  0.00     0.278 A  
HETATM   22  O   UNL     1     -11.202  13.762  70.730  1.00  0.00     0.322 OA 
HETATM   23  O   UNL     1      -5.151  15.485  71.919  1.00  0.00    -0.157 OA 
HETATM   24  O   UNL     1      -7.026  14.200  73.038  1.00  0.00     1.635 OA 
HETATM   25  S   UNL     1      -6.059  14.361  71.969  1.00  0.00     0.636 S  
HETATM   26  C   UNL     1      -6.541  15.071  69.325  1.00  0.00    -0.131 A  
ENDBRANCH  10  11
BRANCH  10  27
HETATM   27  C   UNL     1      -9.386  13.602  65.883  1.00  0.00     0.046 A  
HETATM   28  C   UNL     1      -8.765  12.319  66.201  1.00  0.00     0.138 A  
HETATM   29  C   UNL     1      -9.091  11.486  63.885  1.00  0.00     0.163 A  
HETATM   30  C   UNL     1      -9.923  12.712  63.629  1.00  0.00     0.073 A  
HETATM   31  C   UNL     1     -10.037  13.683  64.560  1.00  0.00    -0.120 A  
HETATM   32  C   UNL     1      -8.664  11.322  65.314  1.00  0.00     0.047 A  
BRANCH  29  33
HETATM   33  N   UNL     1      -8.713  10.637  62.964  1.00  0.00    -0.195 NA 
BRANCH  33  34
HETATM   34  C   UNL     1      -7.289  10.491  62.465  1.00  0.00    -0.124 C  
HETATM   35  C   UNL     1      -6.347   9.989  63.541  1.00  0.00    -0.130 C  
ENDBRANCH  33  34
BRANCH  33  36
HETATM   36  C   UNL     1      -9.652   9.570  62.428  1.00  0.00     0.412 C  
HETATM   37  C   UNL     1      -8.999   8.200  62.516  1.00  0.00     0.486 C  
ENDBRANCH  33  36
ENDBRANCH  29  33
ENDBRANCH  10  27
ENDBRANCH   9  10
ENDBRANCH   3   4
BRANCH   3  38
HETATM   38  C   UNL     1     -13.294  19.759  65.887  1.00  0.00    11.810 C  
HETATM   39  C   UNL     1     -13.662  20.576  67.121  1.00  0.00     5.782 C  
ENDBRANCH   3  38
ENDBRANCH   2   3
TORSDOF 9
ENDMDL
MODEL       78
REMARK 921   NORMALIZED FREE ENERGY PREDICTED BY IDOCK:   22.73 KCAL/MOL
REMARK 922        TOTAL FREE ENERGY PREDICTED BY IDOCK:   32.38 KCAL/MOL
REMARK 923 INTER-LIGAND FREE ENERGY PREDICTED BY IDOCK:   32.01 KCAL/MOL
REMARK 924 INTRA-LIGAND FREE ENERGY PREDICTED BY IDOCK:    0.37 KCAL/MOL
REMARK 927      BINDING AFFINITY PREDICTED BY RF-SCORE:    0.00 PKD
ROOT
HETATM    1  C   UNL     1      -7.445  18.984  72.806  1.00  0.00     5.498 C  
HETATM    2  C   UNL     1      -8.251  20.173  72.288  1.00  0.00     2.589 C  
ENDROOT
BRANCH   2   3
HETATM    3  N   UNL     1      -9.120  19.857  71.140  1.00  0.00     1.957 NA 
BRANCH   3   4
HETATM    4  C   UNL     1      -8.925  18.640  70.470  1.00  0.00     3.278 A  
HETATM    5  C   UNL     1      -8.823  17.414  71.145  1.00  0.00     7.599 A  
HETATM    6  C   UNL     1      -8.869  18.572  69.069  1.00  0.00    -0.081 A  
HETATM    7  C   UNL     1      -8.761  16.183  70.460  1.00  0.00     2.348 A  
HETATM    8  C   UNL     1      -8.807  17.343  68.374  1.00  0.00    -0.271 A  
HETATM    9  C   UNL     1      -8.789  16.127  69.059  1.00  0.00    -0.251 A  
BRANCH   9  10
HETATM   10  C   UNL     1      -8.823  14.797  68.348  1.00  0.00    -0.181 C  
BRANCH  10  11
HETATM   11  C   UNL     1      -9.865  14.547  67.264  1.00  0.00    -0.236 A  
HETATM   12  H   UNL     1      -8.673  14.274  63.495  1.00  0.00     0.000 HD 
HETATM   13  C   UNL     1     -11.261  14.376  67.417  1.00  0.00    -0.325 A  
HETATM   14  O   UNL     1      -9.608  14.164  63.623  1.00  0.00     2.851 OA 
HETATM   15  C   UNL     1     -12.111  14.188  66.304  1.00  0.00    -0.463 A  
HETATM   16  S   UNL     1     -12.157  14.336  68.950  1.00  0.00    -0.222 S  
HETATM   17  C   UNL     1      -9.386  14.519  65.934  1.00  0.00    -0.130 A  
HETATM   18  O   UNL     1     -11.246  14.505  70.057  1.00  0.00    -0.247 OA 
HETATM   19  O   UNL     1     -13.291  15.209  68.775  1.00  0.00     1.813 OA 
HETATM   20  O   UNL     1     -13.286  15.065  63.221  1.00  0.00     0.843 OA 
HETATM   21  C   UNL     1     -11.589  14.086  65.024  1.00  0.00    -0.350 A  
HETATM   22  O   UNL     1     -12.721  12.811  68.975  1.00  0.00     0.503 OA 
HETATM   23  O   UNL     1     -11.888  13.146  62.635  1.00  0.00     0.338 OA 
HETATM   24  O   UNL     1     -13.778  12.881  64.302  1.00  0.00     0.645 OA 
HETATM   25  S   UNL     1     -12.699  13.655  63.718  1.00  0.00     0.423 S  
HETATM   26  C   UNL     1     -10.224  14.247  64.837  1.00  0.00    -0.329 A  
ENDBRANCH  10  11
BRANCH  10  27
HETATM   27  C   UNL     1      -8.046  13.764  68.812  1.00  0.00    -0.022 A  
HETATM   28  C   UNL     1      -6.600  13.776  68.601  1.00  0.00    -0.096 A  
HETATM   29  C   UNL     1      -6.361  11.468  69.483  1.00  0.00    -0.116 A  
HETATM   30  C   UNL     1      -7.803  11.547  69.902  1.00  0.00     1.178 A  
HETATM   31  C   UNL     1      -8.567  12.610  69.572  1.00  0.00     1.557 A  
HETATM   32  C   UNL     1      -5.808  12.755  68.946  1.00  0.00    -0.071 A  
BRANCH  29  33
HETATM   33  N   UNL     1      -5.631  10.382  69.524  1.00  0.00    -0.038 NA 
BRANCH  33  34
HETATM   34  C   UNL     1      -5.128   9.737  70.800  1.00  0.00    -0.041 C  
HETATM   35  C   UNL     1      -6.176   8.865  71.461  1.00  0.00    -0.069 C  
ENDBRANCH  33  34
BRANCH  33  36
HETATM   36  C   UNL     1      -5.370   9.548  68.282  1.00  0.00    -0.036 C  
HETATM   37  C   UNL     1      -6.684   9.096  67.665  1.00  0.00    -0.069 C  
ENDBRANCH  33  36
ENDBRANCH  29  33
ENDBRANCH  10  27
ENDBRANCH   9  10
ENDBRANCH   3   4
BRANCH   3  38
HETATM   38  C   UNL     1      -9.782  20.962  70.423  1.00  0.00     2.020 C  
HETATM   39  C   UNL     1     -10.379  20.529  69.088  1.00  0.00     0.217 C  
ENDBRANCH   3  38
ENDBRANCH   2   3
TORSDOF 9
ENDMDL
MODEL       79
REMARK 921   NORMALIZED FREE ENERGY PREDICTED BY IDOCK:   22.83 KCAL/MOL
REMARK 922        TOTAL FREE ENERGY PREDICTED BY IDOCK:   32.53 KCAL/MOL
REMARK 923 INTER-LIGAND FREE ENERGY PREDICTED BY IDOCK:   23.21 KCAL/MOL
REMARK 924 INTRA-LIGAND FREE ENERGY PREDICTED BY IDOCK:    9.32 KCAL/MOL
REMARK 927      BINDING AFFINITY PREDICTED BY RF-SCORE:    0.00 PKD
ROOT
HETATM    1  C   UNL     1      -7.713   4.995  72.978  1.00  0.00    -0.097 C  
HETATM    2  C   UNL     1      -7.946   5.916  74.172  1.00  0.00    -0.104 C  
ENDROOT
BRANCH   2   3
HETATM    3  N   UNL     1      -7.656   7.337  73.902  1.00  0.00    -0.104 NA 
BRANCH   3   4
HETATM    4  C   UNL     1      -8.332   7.967  72.847  1.00  0.00    -0.172 A  
HETATM    5  C   UNL     1      -8.345   9.360  72.684  1.00  0.00     1.844 A  
HETATM    6  C   UNL     1      -9.000   7.230  71.856  1.00  0.00    -0.138 A  
HETATM    7  C   UNL     1      -8.913   9.978  71.551  1.00  0.00     2.534 A  
HETATM    8  C   UNL     1      -9.571   7.840  70.717  1.00  0.00    -0.167 A  
HETATM    9  C   UNL     1      -9.503   9.221  70.528  1.00  0.00    -0.317 A  
BRANCH   9  10
HETATM   10  C   UNL     1     -10.015   9.894  69.279  1.00  0.00    -0.217 C  
BRANCH  10  11
HETATM   11  C   UNL     1      -9.978   9.146  67.950  1.00  0.00    -0.228 A  
HETATM   12  H   UNL     1     -10.924   5.298  67.900  1.00  0.00     0.000 HD 
HETATM   13  C   UNL     1      -9.653   9.653  66.671  1.00  0.00    -0.187 A  
HETATM   14  O   UNL     1     -10.701   5.661  67.051  1.00  0.00    -0.271 OA 
HETATM   15  C   UNL     1      -9.626   8.820  65.528  1.00  0.00    -0.007 A  
HETATM   16  S   UNL     1      -9.271  11.340  66.270  1.00  0.00    -0.204 S  
HETATM   17  C   UNL     1     -10.267   7.763  68.007  1.00  0.00    -0.249 A  
HETATM   18  O   UNL     1      -9.337  12.155  67.460  1.00  0.00    -0.173 OA 
HETATM   19  O   UNL     1      -8.081  11.300  65.457  1.00  0.00     0.054 OA 
HETATM   20  O   UNL     1      -8.640   6.005  63.868  1.00  0.00     0.060 OA 
HETATM   21  C   UNL     1      -9.996   7.488  65.615  1.00  0.00     1.171 A  
HETATM   22  O   UNL     1     -10.508  11.748  65.297  1.00  0.00    -0.254 OA 
HETATM   23  O   UNL     1     -10.957   5.425  64.389  1.00  0.00     1.905 OA 
HETATM   24  O   UNL     1     -10.438   7.515  63.053  1.00  0.00     7.772 OA 
HETATM   25  S   UNL     1     -10.123   6.572  64.109  1.00  0.00     5.406 S  
HETATM   26  C   UNL     1     -10.322   6.957  66.855  1.00  0.00    -0.262 A  
ENDBRANCH  10  11
BRANCH  10  27
HETATM   27  C   UNL     1     -10.327  11.231  69.311  1.00  0.00    -0.101 A  
HETATM   28  C   UNL     1      -9.317  12.233  68.980  1.00  0.00     0.375 A  
HETATM   29  C   UNL     1     -10.812  14.095  69.658  1.00  0.00    -0.019 A  
HETATM   30  C   UNL     1     -11.915  13.080  69.782  1.00  0.00    -0.377 A  
HETATM   31  C   UNL     1     -11.668  11.761  69.631  1.00  0.00    -0.413 A  
HETATM   32  C   UNL     1      -9.537  13.548  69.087  1.00  0.00     0.411 A  
BRANCH  29  33
HETATM   33  N   UNL     1     -10.901  15.342  70.045  1.00  0.00    -0.284 NA 
BRANCH  33  34
HETATM   34  C   UNL     1      -9.722  16.191  70.476  1.00  0.00     1.268 C  
HETATM   35  C   UNL     1     -10.113  17.630  70.746  1.00  0.00     2.688 C  
ENDBRANCH  33  34
BRANCH  33  36
HETATM   36  C   UNL     1     -12.196  16.126  69.919  1.00  0.00     0.151 C  
HETATM   37  C   UNL     1     -12.317  16.724  68.526  1.00  0.00     1.834 C  
ENDBRANCH  33  36
ENDBRANCH  29  33
ENDBRANCH  10  27
ENDBRANCH   9  10
ENDBRANCH   3   4
BRANCH   3  38
HETATM   38  C   UNL     1      -6.372   7.900  74.359  1.00  0.00    -0.100 C  
HETATM   39  C   UNL     1      -6.086   9.276  73.768  1.00  0.00     0.183 C  
ENDBRANCH   3  38
ENDBRANCH   2   3
TORSDOF 9
ENDMDL
MODEL       80
REMARK 921   NORMALIZED FREE ENERGY PREDICTED BY IDOCK:   23.93 KCAL/MOL
REMARK 922        TOTAL FREE ENERGY PREDICTED BY IDOCK:   34.21 KCAL/MOL
REMARK 923 INTER-LIGAND FREE ENERGY PREDICTED BY IDOCK:   34.79 KCAL/MOL
REMARK 924 INTRA-LIGAND FREE ENERGY PREDICTED BY IDOCK:   -0.57 KCAL/MOL
REMARK 927      BINDING AFFINITY PREDICTED BY RF-SCORE:    0.00 PKD
ROOT
HETATM    1  C   UNL     1      -9.910   6.609  71.617  1.00  0.00    -0.177 C  
HETATM    2  C   UNL     1      -8.954   6.510  70.432  1.00  0.00    -0.152 C  
ENDROOT
BRANCH   2   3
HETATM    3  N   UNL     1      -7.896   7.538  70.425  1.00  0.00    -0.095 NA 
BRANCH   3   4
HETATM    4  C   UNL     1      -8.253   8.861  70.128  1.00  0.00    -0.125 A  
HETATM    5  C   UNL     1      -9.588   9.280  70.031  1.00  0.00    -0.235 A  
HETATM    6  C   UNL     1      -7.285   9.864  69.959  1.00  0.00    -0.146 A  
HETATM    7  C   UNL     1      -9.940  10.635  69.865  1.00  0.00     0.120 A  
HETATM    8  C   UNL     1      -7.628  11.225  69.793  1.00  0.00     0.407 A  
HETATM    9  C   UNL     1      -8.962  11.636  69.781  1.00  0.00     1.679 A  
BRANCH   9  10
HETATM   10  C   UNL     1      -9.360  13.089  69.705  1.00  0.00     1.866 C  
BRANCH  10  11
HETATM   11  C   UNL     1      -8.766  13.978  68.617  1.00  0.00    -0.103 A  
HETATM   12  H   UNL     1      -5.289  15.756  69.291  1.00  0.00     0.000 HD 
HETATM   13  C   UNL     1      -9.295  14.263  67.337  1.00  0.00    -0.203 A  
HETATM   14  O   UNL     1      -5.665  15.933  68.437  1.00  0.00    -0.100 OA 
HETATM   15  C   UNL     1      -8.642  15.145  66.445  1.00  0.00    -0.139 A  
HETATM   16  S   UNL     1     -10.776  13.584  66.632  1.00  0.00    -0.284 S  
HETATM   17  C   UNL     1      -7.555  14.632  68.940  1.00  0.00    -0.139 A  
HETATM   18  O   UNL     1     -11.392  12.672  67.566  1.00  0.00    -0.271 OA 
HETATM   19  O   UNL     1     -11.508  14.700  66.084  1.00  0.00    -0.346 OA 
HETATM   20  O   UNL     1      -7.148  18.121  65.696  1.00  0.00    -0.488 OA 
HETATM   21  C   UNL     1      -7.415  15.700  66.770  1.00  0.00    -0.028 A  
HETATM   22  O   UNL     1     -10.195  12.725  65.380  1.00  0.00    -0.283 OA 
HETATM   23  O   UNL     1      -5.185  16.678  65.902  1.00  0.00     0.171 OA 
HETATM   24  O   UNL     1      -7.009  16.116  64.235  1.00  0.00     9.596 OA 
HETATM   25  S   UNL     1      -6.579  16.630  65.522  1.00  0.00     3.235 S  
HETATM   26  C   UNL     1      -6.866  15.440  68.017  1.00  0.00    -0.140 A  
ENDBRANCH  10  11
BRANCH  10  27
HETATM   27  C   UNL     1     -10.099  13.641  70.722  1.00  0.00     4.089 A  
HETATM   28  C   UNL     1     -11.462  14.105  70.476  1.00  0.00    -0.108 A  
HETATM   29  C   UNL     1     -11.625  15.109  72.740  1.00  0.00    -0.275 A  
HETATM   30  C   UNL     1     -10.318  14.438  73.063  1.00  0.00     5.161 A  
HETATM   31  C   UNL     1      -9.623  13.776  72.114  1.00  0.00    10.677 A  
HETATM   32  C   UNL     1     -12.192  14.735  71.403  1.00  0.00    -0.400 A  
BRANCH  29  33
HETATM   33  N   UNL     1     -12.224  15.981  73.511  1.00  0.00    -0.499 NA 
BRANCH  33  34
HETATM   34  C   UNL     1     -11.510  17.059  74.302  1.00  0.00     0.980 C  
HETATM   35  C   UNL     1     -11.242  18.301  73.477  1.00  0.00     1.840 C  
ENDBRANCH  33  34
BRANCH  33  36
HETATM   36  C   UNL     1     -13.737  16.113  73.541  1.00  0.00     0.091 C  
HETATM   37  C   UNL     1     -14.366  15.208  72.493  1.00  0.00    -0.308 C  
ENDBRANCH  33  36
ENDBRANCH  29  33
ENDBRANCH  10  27
ENDBRANCH   9  10
ENDBRANCH   3   4
BRANCH   3  38
HETATM   38  C   UNL     1      -6.498   7.118  70.220  1.00  0.00    -0.043 C  
HETATM   39  C   UNL     1      -6.380   5.782  69.495  1.00  0.00    -0.040 C  
ENDBRANCH   3  38
ENDBRANCH   2   3
TORSDOF 9
ENDMDL
MODEL       81
REMARK 921   NORMALIZED FREE ENERGY PREDICTED BY IDOCK:   24.85 KCAL/MOL
REMARK 922        TOTAL FREE ENERGY PREDICTED BY IDOCK:   35.61 KCAL/MOL
REMARK 923 INTER-LIGAND FREE ENERGY PREDICTED BY IDOCK:   34.56 KCAL/MOL
REMARK 924 INTRA-LIGAND FREE ENERGY PREDICTED BY IDOCK:    1.05 KCAL/MOL
REMARK 927      BINDING AFFINITY PREDICTED BY RF-SCORE:    0.00 PKD
ROOT
HETATM    1  C   UNL     1     -11.295   3.663  71.313  1.00  0.00     3.360 C  
HETATM    2  C   UNL     1      -9.887   3.094  71.468  1.00  0.00    -0.130 C  
ENDROOT
BRANCH   2   3
HETATM    3  N   UNL     1      -8.863   3.797  70.673  1.00  0.00    -0.074 NA 
BRANCH   3   4
HETATM    4  C   UNL     1      -9.179   5.056  70.141  1.00  0.00    -0.135 A  
HETATM    5  C   UNL     1      -9.881   6.028  70.867  1.00  0.00    -0.222 A  
HETATM    6  C   UNL     1      -8.763   5.437  68.855  1.00  0.00    -0.099 A  
HETATM    7  C   UNL     1     -10.079   7.335  70.377  1.00  0.00    -0.196 A  
HETATM    8  C   UNL     1      -8.955   6.744  68.355  1.00  0.00    -0.124 A  
HETATM    9  C   UNL     1      -9.584   7.725  69.124  1.00  0.00    -0.155 A  
BRANCH   9  10
HETATM   10  C   UNL     1      -9.718   9.154  68.661  1.00  0.00    -0.164 C  
BRANCH  10  11
HETATM   11  C   UNL     1     -10.403  10.177  69.560  1.00  0.00    -0.263 A  
HETATM   12  H   UNL     1     -14.332  10.624  69.294  1.00  0.00     0.000 HD 
HETATM   13  C   UNL     1      -9.815  11.021  70.530  1.00  0.00     2.281 A  
HETATM   14  O   UNL     1     -13.913  11.182  69.940  1.00  0.00     2.139 OA 
HETATM   15  C   UNL     1     -10.582  11.953  71.266  1.00  0.00     5.768 A  
HETATM   16  S   UNL     1      -8.105  11.047  71.008  1.00  0.00     5.563 S  
HETATM   17  C   UNL     1     -11.797  10.333  69.376  1.00  0.00    -0.109 A  
HETATM   18  O   UNL     1      -7.368  10.062  70.251  1.00  0.00    -0.154 OA 
HETATM   19  O   UNL     1      -7.710  12.434  71.012  1.00  0.00     4.858 OA 
HETATM   20  O   UNL     1     -12.847  14.498  71.478  1.00  0.00    -0.303 OA 
HETATM   21  C   UNL     1     -11.957  12.015  71.112  1.00  0.00     0.410 A  
HETATM   22  O   UNL     1      -8.175  10.559  72.557  1.00  0.00     6.273 OA 
HETATM   23  O   UNL     1     -14.229  12.611  72.191  1.00  0.00    -0.024 OA 
HETATM   24  O   UNL     1     -12.096  13.168  73.439  1.00  0.00     2.121 OA 
HETATM   25  S   UNL     1     -12.858  13.068  72.209  1.00  0.00     0.014 S  
HETATM   26  C   UNL     1     -12.569  11.201  70.170  1.00  0.00    -0.178 A  
ENDBRANCH  10  11
BRANCH  10  27
HETATM   27  C   UNL     1      -9.397   9.477  67.365  1.00  0.00    -0.153 A  
HETATM   28  C   UNL     1      -8.009   9.743  66.994  1.00  0.00    -0.105 A  
HETATM   29  C   UNL     1      -8.664  10.475  64.715  1.00  0.00    -0.185 A  
HETATM   30  C   UNL     1     -10.053   9.990  65.027  1.00  0.00    -0.228 A  
HETATM   31  C   UNL     1     -10.375   9.545  66.260  1.00  0.00    -0.226 A  
HETATM   32  C   UNL     1      -7.651  10.153  65.772  1.00  0.00    -0.134 A  
BRANCH  29  33
HETATM   33  N   UNL     1      -8.337  11.160  63.648  1.00  0.00     0.260 NA 
BRANCH  33  34
HETATM   34  C   UNL     1      -9.291  11.496  62.520  1.00  0.00     0.070 C  
HETATM   35  C   UNL     1     -10.672  11.867  63.020  1.00  0.00    -0.140 C  
ENDBRANCH  33  34
BRANCH  33  36
HETATM   36  C   UNL     1      -6.990  11.851  63.526  1.00  0.00     3.795 C  
HETATM   37  C   UNL     1      -5.999  11.253  64.512  1.00  0.00     1.217 C  
ENDBRANCH  33  36
ENDBRANCH  29  33
ENDBRANCH  10  27
ENDBRANCH   9  10
ENDBRANCH   3   4
BRANCH   3  38
HETATM   38  C   UNL     1      -7.789   3.009  70.040  1.00  0.00    -0.043 C  
HETATM   39  C   UNL     1      -6.548   2.890  70.917  1.00  0.00    -0.031 C  
ENDBRANCH   3  38
ENDBRANCH   2   3
TORSDOF 9
ENDMDL
MODEL       82
REMARK 921   NORMALIZED FREE ENERGY PREDICTED BY IDOCK:   24.88 KCAL/MOL
REMARK 922        TOTAL FREE ENERGY PREDICTED BY IDOCK:   35.66 KCAL/MOL
REMARK 923 INTER-LIGAND FREE ENERGY PREDICTED BY IDOCK:   22.98 KCAL/MOL
REMARK 924 INTRA-LIGAND FREE ENERGY PREDICTED BY IDOCK:   12.68 KCAL/MOL
REMARK 927      BINDING AFFINITY PREDICTED BY RF-SCORE:    0.00 PKD
ROOT
HETATM    1  C   UNL     1      -7.699   4.994  72.947  1.00  0.00    -0.097 C  
HETATM    2  C   UNL     1      -7.855   6.262  73.782  1.00  0.00    -0.092 C  
ENDROOT
BRANCH   2   3
HETATM    3  N   UNL     1      -7.323   7.477  73.137  1.00  0.00    -0.074 NA 
BRANCH   3   4
HETATM    4  C   UNL     1      -7.714   7.758  71.819  1.00  0.00    -0.089 A  
HETATM    5  C   UNL     1      -7.342   8.936  71.156  1.00  0.00    -0.119 A  
HETATM    6  C   UNL     1      -8.465   6.843  71.063  1.00  0.00    -0.131 A  
HETATM    7  C   UNL     1      -7.625   9.152  69.792  1.00  0.00    -0.079 A  
HETATM    8  C   UNL     1      -8.752   7.050  69.695  1.00  0.00    -0.141 A  
HETATM    9  C   UNL     1      -8.304   8.191  69.029  1.00  0.00    -0.128 A  
BRANCH   9  10
HETATM   10  C   UNL     1      -8.508   8.396  67.548  1.00  0.00    -0.129 C  
BRANCH  10  11
HETATM   11  C   UNL     1      -8.731   7.190  66.643  1.00  0.00    -0.131 A  
HETATM   12  H   UNL     1     -11.028   4.231  67.936  1.00  0.00     0.000 HD 
HETATM   13  C   UNL     1      -8.224   6.969  65.341  1.00  0.00    -0.133 A  
HETATM   14  O   UNL     1     -10.674   4.104  67.063  1.00  0.00     0.663 OA 
HETATM   15  C   UNL     1      -8.489   5.773  64.636  1.00  0.00    -0.061 A  
HETATM   16  S   UNL     1      -7.241   8.098  64.386  1.00  0.00    -0.089 S  
HETATM   17  C   UNL     1      -9.510   6.141  67.184  1.00  0.00    -0.128 A  
HETATM   18  O   UNL     1      -7.019   9.312  65.136  1.00  0.00    -0.082 OA 
HETATM   19  O   UNL     1      -6.137   7.329  63.866  1.00  0.00    -0.043 OA 
HETATM   20  O   UNL     1      -8.585   2.369  64.394  1.00  0.00    -0.086 OA 
HETATM   21  C   UNL     1      -9.325   4.806  65.171  1.00  0.00    -0.127 A  
HETATM   22  O   UNL     1      -8.226   8.435  63.138  1.00  0.00    -0.167 OA 
HETATM   23  O   UNL     1     -10.961   2.861  64.701  1.00  0.00     0.515 OA 
HETATM   24  O   UNL     1      -9.689   3.888  62.765  1.00  0.00    -0.127 OA 
HETATM   25  S   UNL     1      -9.758   3.437  64.141  1.00  0.00    -0.175 S  
HETATM   26  C   UNL     1      -9.841   4.991  66.445  1.00  0.00    -0.201 A  
ENDBRANCH  10  11
BRANCH  10  27
HETATM   27  C   UNL     1      -8.302   9.640  67.005  1.00  0.00    -0.117 A  
HETATM   28  C   UNL     1      -6.994  10.001  66.463  1.00  0.00    -0.095 A  
HETATM   29  C   UNL     1      -7.686  12.360  66.119  1.00  0.00     1.072 A  
HETATM   30  C   UNL     1      -9.087  11.933  66.465  1.00  0.00    -0.211 A  
HETATM   31  C   UNL     1      -9.348  10.677  66.883  1.00  0.00    -0.180 A  
HETATM   32  C   UNL     1      -6.710  11.227  66.009  1.00  0.00     0.132 A  
BRANCH  29  33
HETATM   33  N   UNL     1      -7.303  13.602  65.966  1.00  0.00     2.845 NA 
BRANCH  33  34
HETATM   34  C   UNL     1      -5.896  14.102  66.220  1.00  0.00     5.011 C  
HETATM   35  C   UNL     1      -5.715  15.553  65.822  1.00  0.00     6.123 C  
ENDBRANCH  33  34
BRANCH  33  36
HETATM   36  C   UNL     1      -8.208  14.643  65.330  1.00  0.00     4.896 C  
HETATM   37  C   UNL     1      -7.484  15.976  65.223  1.00  0.00     5.108 C  
ENDBRANCH  33  36
ENDBRANCH  29  33
ENDBRANCH  10  27
ENDBRANCH   9  10
ENDBRANCH   3   4
BRANCH   3  38
HETATM   38  C   UNL     1      -6.069   8.062  73.644  1.00  0.00    -0.080 C  
HETATM   39  C   UNL     1      -5.493   9.125  72.716  1.00  0.00    -0.073 C  
ENDBRANCH   3  38
ENDBRANCH   2   3
TORSDOF 9
ENDMDL
MODEL       83
REMARK 921   NORMALIZED FREE ENERGY PREDICTED BY IDOCK:   26.86 KCAL/MOL
REMARK 922        TOTAL FREE ENERGY PREDICTED BY IDOCK:   38.68 KCAL/MOL
REMARK 923 INTER-LIGAND FREE ENERGY PREDICTED BY IDOCK:   32.55 KCAL/MOL
REMARK 924 INTRA-LIGAND FREE ENERGY PREDICTED BY IDOCK:    6.12 KCAL/MOL
REMARK 927      BINDING AFFINITY PREDICTED BY RF-SCORE:    0.00 PKD
ROOT
HETATM    1  C   UNL     1      -8.974   9.266  62.458  1.00  0.00    -0.186 C  
HETATM    2  C   UNL     1     -10.432   8.858  62.657  1.00  0.00     5.652 C  
ENDROOT
BRANCH   2   3
HETATM    3  N   UNL     1     -11.331   9.980  62.984  1.00  0.00     3.908 NA 
BRANCH   3   4
HETATM    4  C   UNL     1     -10.911  10.915  63.941  1.00  0.00     0.018 A  
HETATM    5  C   UNL     1     -11.397  10.920  65.257  1.00  0.00     0.372 A  
HETATM    6  C   UNL     1      -9.933  11.879  63.649  1.00  0.00    -0.404 A  
HETATM    7  C   UNL     1     -10.874  11.775  66.248  1.00  0.00    -0.325 A  
HETATM    8  C   UNL     1      -9.402  12.740  64.635  1.00  0.00     0.638 A  
HETATM    9  C   UNL     1      -9.839  12.676  65.959  1.00  0.00    -0.260 A  
BRANCH   9  10
HETATM   10  C   UNL     1      -9.225  13.511  67.056  1.00  0.00    -0.248 C  
BRANCH  10  11
HETATM   11  C   UNL     1      -9.029  15.008  66.844  1.00  0.00    -0.276 A  
HETATM   12  H   UNL     1     -11.732  17.011  64.750  1.00  0.00     0.000 HD 
HETATM   13  C   UNL     1      -7.979  15.828  67.321  1.00  0.00    -0.186 A  
HETATM   14  O   UNL     1     -11.016  17.540  65.080  1.00  0.00    -0.754 OA 
HETATM   15  C   UNL     1      -7.913  17.205  67.007  1.00  0.00    -0.230 A  
HETATM   16  S   UNL     1      -6.639  15.322  68.369  1.00  0.00    -0.119 S  
HETATM   17  C   UNL     1      -9.994  15.655  66.039  1.00  0.00    -0.359 A  
HETATM   18  O   UNL     1      -6.763  13.918  68.684  1.00  0.00    -0.085 OA 
HETATM   19  O   UNL     1      -5.438  15.850  67.770  1.00  0.00    -0.127 OA 
HETATM   20  O   UNL     1      -7.966  19.802  64.793  1.00  0.00     0.485 OA 
HETATM   21  C   UNL     1      -8.925  17.815  66.283  1.00  0.00    -0.174 A  
HETATM   22  O   UNL     1      -6.921  16.179  69.721  1.00  0.00    -0.171 OA 
HETATM   23  O   UNL     1     -10.199  20.004  65.768  1.00  0.00    -0.468 OA 
HETATM   24  O   UNL     1      -8.148  20.099  67.254  1.00  0.00    -0.306 OA 
HETATM   25  S   UNL     1      -8.861  19.572  66.106  1.00  0.00    -0.228 S  
HETATM   26  C   UNL     1      -9.970  17.041  65.801  1.00  0.00    -0.153 A  
ENDBRANCH  10  11
BRANCH  10  27
HETATM   27  C   UNL     1      -8.676  12.889  68.151  1.00  0.00    -0.190 A  
HETATM   28  C   UNL     1      -7.320  12.349  68.089  1.00  0.00    -0.111 A  
HETATM   29  C   UNL     1      -7.549  11.280  70.318  1.00  0.00     1.590 A  
HETATM   30  C   UNL     1      -8.850  12.020  70.469  1.00  0.00     6.090 A  
HETATM   31  C   UNL     1      -9.359  12.748  69.453  1.00  0.00     1.199 A  
HETATM   32  C   UNL     1      -6.771  11.652  69.090  1.00  0.00    -0.109 A  
BRANCH  29  33
HETATM   33  N   UNL     1      -7.120  10.353  71.137  1.00  0.00     0.373 NA 
BRANCH  33  34
HETATM   34  C   UNL     1      -6.881   8.908  70.746  1.00  0.00    -0.067 C  
HETATM   35  C   UNL     1      -8.055   8.308  69.999  1.00  0.00    -0.116 C  
ENDBRANCH  33  34
BRANCH  33  36
HETATM   36  C   UNL     1      -6.638  10.687  72.538  1.00  0.00     3.321 C  
HETATM   37  C   UNL     1      -5.140  10.452  72.650  1.00  0.00     0.124 C  
ENDBRANCH  33  36
ENDBRANCH  29  33
ENDBRANCH  10  27
ENDBRANCH   9  10
ENDBRANCH   3   4
BRANCH   3  38
HETATM   38  C   UNL     1     -12.774   9.835  62.720  1.00  0.00    10.643 C  
HETATM   39  C   UNL     1     -13.614  10.898  63.420  1.00  0.00     3.790 C  
ENDBRANCH   3  38
ENDBRANCH   2   3
TORSDOF 9
ENDMDL
MODEL       84
REMARK 921   NORMALIZED FREE ENERGY PREDICTED BY IDOCK:   27.97 KCAL/MOL
REMARK 922        TOTAL FREE ENERGY PREDICTED BY IDOCK:   40.38 KCAL/MOL
REMARK 923 INTER-LIGAND FREE ENERGY PREDICTED BY IDOCK:   31.34 KCAL/MOL
REMARK 924 INTRA-LIGAND FREE ENERGY PREDICTED BY IDOCK:    9.04 KCAL/MOL
REMARK 927      BINDING AFFINITY PREDICTED BY RF-SCORE:    0.00 PKD
ROOT
HETATM    1  C   UNL     1      -8.429  13.999  73.461  1.00  0.00    10.235 C  
HETATM    2  C   UNL     1      -7.313  13.956  72.420  1.00  0.00     5.693 C  
ENDROOT
BRANCH   2   3
HETATM    3  N   UNL     1      -7.789  13.779  71.035  1.00  0.00     3.521 NA 
BRANCH   3   4
HETATM    4  C   UNL     1      -7.932  12.475  70.540  1.00  0.00     5.069 A  
HETATM    5  C   UNL     1      -7.707  12.149  69.194  1.00  0.00     0.230 A  
HETATM    6  C   UNL     1      -8.264  11.400  71.380  1.00  0.00     8.992 A  
HETATM    7  C   UNL     1      -7.723  10.818  68.731  1.00  0.00    -0.121 A  
HETATM    8  C   UNL     1      -8.281  10.062  70.926  1.00  0.00     0.966 A  
HETATM    9  C   UNL     1      -7.974   9.747  69.601  1.00  0.00    -0.152 A  
BRANCH   9  10
HETATM   10  C   UNL     1      -7.887   8.325  69.107  1.00  0.00    -0.106 C  
BRANCH  10  11
HETATM   11  C   UNL     1      -7.648   8.054  67.626  1.00  0.00    -0.102 A  
HETATM   12  H   UNL     1      -6.652  11.079  65.268  1.00  0.00     0.000 HD 
HETATM   13  C   UNL     1      -7.721   6.819  66.941  1.00  0.00    -0.103 A  
HETATM   14  O   UNL     1      -6.709  10.238  64.830  1.00  0.00    -0.127 OA 
HETATM   15  C   UNL     1      -7.508   6.731  65.546  1.00  0.00    -0.083 A  
HETATM   16  S   UNL     1      -8.042   5.229  67.663  1.00  0.00    -0.099 S  
HETATM   17  C   UNL     1      -7.355   9.182  66.826  1.00  0.00    -0.086 A  
HETATM   18  O   UNL     1      -8.225   5.364  69.089  1.00  0.00    -0.092 OA 
HETATM   19  O   UNL     1      -9.047   4.607  66.836  1.00  0.00    -0.114 OA 
HETATM   20  O   UNL     1      -8.103   7.723  62.334  1.00  0.00    -0.154 OA 
HETATM   21  C   UNL     1      -7.143   7.849  64.814  1.00  0.00    -0.071 A  
HETATM   22  O   UNL     1      -6.643   4.444  67.396  1.00  0.00    -0.044 OA 
HETATM   23  O   UNL     1      -5.926   8.765  62.726  1.00  0.00    -0.086 OA 
HETATM   24  O   UNL     1      -6.202   6.260  62.984  1.00  0.00    -0.025 OA 
HETATM   25  S   UNL     1      -6.706   7.613  63.118  1.00  0.00    -0.067 S  
HETATM   26  C   UNL     1      -7.061   9.077  65.454  1.00  0.00    -0.081 A  
ENDBRANCH  10  11
BRANCH  10  27
HETATM   27  C   UNL     1      -8.212   7.294  69.955  1.00  0.00    -0.132 A  
HETATM   28  C   UNL     1      -9.513   6.638  69.852  1.00  0.00    -0.159 A  
HETATM   29  C   UNL     1      -9.109   5.315  71.913  1.00  0.00    -0.138 A  
HETATM   30  C   UNL     1      -7.694   5.824  71.887  1.00  0.00    -0.105 A  
HETATM   31  C   UNL     1      -7.303   6.747  70.983  1.00  0.00    -0.078 A  
HETATM   32  C   UNL     1      -9.920   5.696  70.711  1.00  0.00    -0.254 A  
BRANCH  29  33
HETATM   33  N   UNL     1      -9.637   4.635  72.900  1.00  0.00    -0.130 NA 
BRANCH  33  34
HETATM   34  C   UNL     1     -10.622   5.204  73.901  1.00  0.00    -0.293 C  
HETATM   35  C   UNL     1     -10.904   6.674  73.666  1.00  0.00    -0.165 C  
ENDBRANCH  33  34
BRANCH  33  36
HETATM   36  C   UNL     1      -9.447   3.133  73.026  1.00  0.00    -0.092 C  
HETATM   37  C   UNL     1      -8.932   2.556  71.717  1.00  0.00    -0.134 C  
ENDBRANCH  33  36
ENDBRANCH  29  33
ENDBRANCH  10  27
ENDBRANCH   9  10
ENDBRANCH   3   4
BRANCH   3  38
HETATM   38  C   UNL     1      -7.617  14.887  70.078  1.00  0.00     0.189 C  
HETATM   39  C   UNL     1      -8.319  14.634  68.748  1.00  0.00    -0.163 C  
ENDBRANCH   3  38
ENDBRANCH   2   3
TORSDOF 9
ENDMDL
MODEL       85
REMARK 921   NORMALIZED FREE ENERGY PREDICTED BY IDOCK:   28.57 KCAL/MOL
REMARK 922        TOTAL FREE ENERGY PREDICTED BY IDOCK:   41.28 KCAL/MOL
REMARK 923 INTER-LIGAND FREE ENERGY PREDICTED BY IDOCK:   42.18 KCAL/MOL
REMARK 924 INTRA-LIGAND FREE ENERGY PREDICTED BY IDOCK:   -0.89 KCAL/MOL
REMARK 927      BINDING AFFINITY PREDICTED BY RF-SCORE:    0.00 PKD
ROOT
HETATM    1  C   UNL     1     -12.389   8.374  66.476  1.00  0.00     9.831 C  
HETATM    2  C   UNL     1     -11.826   9.469  67.379  1.00  0.00     2.981 C  
ENDROOT
BRANCH   2   3
HETATM    3  N   UNL     1     -11.074  10.514  66.661  1.00  0.00    -0.063 NA 
BRANCH   3   4
HETATM    4  C   UNL     1     -11.011  11.797  67.224  1.00  0.00    -0.267 A  
HETATM    5  C   UNL     1     -10.231  12.090  68.352  1.00  0.00    -0.211 A  
HETATM    6  C   UNL     1     -11.693  12.885  66.655  1.00  0.00    -0.452 A  
HETATM    7  C   UNL     1     -10.067  13.406  68.831  1.00  0.00    -0.010 A  
HETATM    8  C   UNL     1     -11.536  14.207  67.128  1.00  0.00    -0.373 A  
HETATM    9  C   UNL     1     -10.690  14.492  68.201  1.00  0.00    -0.240 A  
BRANCH   9  10
HETATM   10  C   UNL     1     -10.423  15.902  68.668  1.00  0.00    -0.240 C  
BRANCH  10  11
HETATM   11  C   UNL     1      -9.546  16.822  67.826  1.00  0.00    -0.241 A  
HETATM   12  H   UNL     1     -11.290  19.442  65.418  1.00  0.00     0.000 HD 
HETATM   13  C   UNL     1      -8.134  16.889  67.787  1.00  0.00    -0.181 A  
HETATM   14  O   UNL     1     -10.340  19.467  65.408  1.00  0.00    -0.392 OA 
HETATM   15  C   UNL     1      -7.457  17.776  66.919  1.00  0.00    -0.230 A  
HETATM   16  S   UNL     1      -7.006  15.950  68.785  1.00  0.00    -0.141 S  
HETATM   17  C   UNL     1     -10.226  17.693  66.943  1.00  0.00    -0.334 A  
HETATM   18  O   UNL     1      -7.741  15.079  69.673  1.00  0.00    -0.196 OA 
HETATM   19  O   UNL     1      -6.010  15.428  67.883  1.00  0.00    -0.130 OA 
HETATM   20  O   UNL     1      -6.885  19.138  63.842  1.00  0.00     0.850 OA 
HETATM   21  C   UNL     1      -8.163  18.670  66.130  1.00  0.00    -0.163 A  
HETATM   22  O   UNL     1      -6.292  17.108  69.675  1.00  0.00    -0.241 OA 
HETATM   23  O   UNL     1      -8.155  20.942  64.897  1.00  0.00     0.868 OA 
HETATM   24  O   UNL     1      -6.006  20.112  65.953  1.00  0.00    -0.173 OA 
HETATM   25  S   UNL     1      -7.238  19.873  65.225  1.00  0.00     0.021 S  
HETATM   26  C   UNL     1      -9.550  18.633  66.144  1.00  0.00    -0.202 A  
ENDBRANCH  10  11
BRANCH  10  27
HETATM   27  C   UNL     1     -10.809  16.279  69.931  1.00  0.00    -0.352 A  
HETATM   28  C   UNL     1     -11.752  17.380  70.115  1.00  0.00     2.792 A  
HETATM   29  C   UNL     1     -11.441  17.353  72.577  1.00  0.00     1.462 A  
HETATM   30  C   UNL     1     -10.651  16.086  72.400  1.00  0.00     2.374 A  
HETATM   31  C   UNL     1     -10.359  15.613  71.170  1.00  0.00     0.691 A  
HETATM   32  C   UNL     1     -12.090  17.852  71.320  1.00  0.00     7.070 A  
BRANCH  29  33
HETATM   33  N   UNL     1     -11.541  18.017  73.701  1.00  0.00     0.846 NA 
BRANCH  33  34
HETATM   34  C   UNL     1     -12.791  18.070  74.557  1.00  0.00     3.312 C  
HETATM   35  C   UNL     1     -14.018  17.572  73.822  1.00  0.00     4.216 C  
ENDBRANCH  33  34
BRANCH  33  36
HETATM   36  C   UNL     1     -10.332  18.661  74.357  1.00  0.00     4.212 C  
HETATM   37  C   UNL     1      -9.992  19.972  73.665  1.00  0.00     5.082 C  
ENDBRANCH  33  36
ENDBRANCH  29  33
ENDBRANCH  10  27
ENDBRANCH   9  10
ENDBRANCH   3   4
BRANCH   3  38
HETATM   38  C   UNL     1     -10.858  10.365  65.210  1.00  0.00     0.334 C  
HETATM   39  C   UNL     1      -9.734   9.390  64.876  1.00  0.00     0.068 C  
ENDBRANCH   3  38
ENDBRANCH   2   3
TORSDOF 9
ENDMDL
MODEL       86
REMARK 921   NORMALIZED FREE ENERGY PREDICTED BY IDOCK:   31.00 KCAL/MOL
REMARK 922        TOTAL FREE ENERGY PREDICTED BY IDOCK:   45.00 KCAL/MOL
REMARK 923 INTER-LIGAND FREE ENERGY PREDICTED BY IDOCK:   37.79 KCAL/MOL
REMARK 924 INTRA-LIGAND FREE ENERGY PREDICTED BY IDOCK:    7.22 KCAL/MOL
REMARK 927      BINDING AFFINITY PREDICTED BY RF-SCORE:    0.00 PKD
ROOT
HETATM    1  C   UNL     1     -12.490  14.137  63.646  1.00  0.00     0.124 C  
HETATM    2  C   UNL     1     -12.266  12.806  62.932  1.00  0.00     0.303 C  
ENDROOT
BRANCH   2   3
HETATM    3  N   UNL     1     -11.279  11.930  63.590  1.00  0.00    -0.420 NA 
BRANCH   3   4
HETATM    4  C   UNL     1     -11.302  11.830  64.989  1.00  0.00    -0.225 A  
HETATM    5  C   UNL     1     -10.226  12.232  65.793  1.00  0.00    -0.281 A  
HETATM    6  C   UNL     1     -12.435  11.362  65.674  1.00  0.00     2.332 A  
HETATM    7  C   UNL     1     -10.307  12.253  67.200  1.00  0.00    -0.234 A  
HETATM    8  C   UNL     1     -12.525  11.380  67.084  1.00  0.00     2.260 A  
HETATM    9  C   UNL     1     -11.476  11.860  67.868  1.00  0.00    -0.385 A  
BRANCH   9  10
HETATM   10  C   UNL     1     -11.577  11.985  69.368  1.00  0.00    -0.393 C  
BRANCH  10  11
HETATM   11  C   UNL     1     -11.512  10.733  70.236  1.00  0.00    -0.406 A  
HETATM   12  H   UNL     1     -13.800  10.526  73.464  1.00  0.00     0.000 HD 
HETATM   13  C   UNL     1     -10.726   9.574  70.038  1.00  0.00    -0.243 A  
HETATM   14  O   UNL     1     -13.262   9.758  73.311  1.00  0.00     0.696 OA 
HETATM   15  C   UNL     1     -10.745   8.500  70.958  1.00  0.00    -0.278 A  
HETATM   16  S   UNL     1      -9.652   9.248  68.663  1.00  0.00    -0.149 S  
HETATM   17  C   UNL     1     -12.306  10.744  71.405  1.00  0.00    -0.433 A  
HETATM   18  O   UNL     1      -9.685  10.358  67.739  1.00  0.00    -0.157 OA 
HETATM   19  O   UNL     1      -8.409   8.782  69.225  1.00  0.00    -0.116 OA 
HETATM   20  O   UNL     1     -10.532   7.229  74.119  1.00  0.00    -0.255 OA 
HETATM   21  C   UNL     1     -11.600   8.517  72.048  1.00  0.00    -0.362 A  
HETATM   22  O   UNL     1     -10.374   7.972  67.961  1.00  0.00    -0.202 OA 
HETATM   23  O   UNL     1     -12.949   7.130  73.762  1.00  0.00     3.465 OA 
HETATM   24  O   UNL     1     -11.378   5.929  72.177  1.00  0.00    -0.280 OA 
HETATM   25  S   UNL     1     -11.703   7.054  73.033  1.00  0.00     0.363 S  
HETATM   26  C   UNL     1     -12.387   9.638  72.272  1.00  0.00    -0.087 A  
ENDBRANCH  10  11
BRANCH  10  27
HETATM   27  C   UNL     1     -11.916  13.194  69.923  1.00  0.00    -0.387 A  
HETATM   28  C   UNL     1     -12.045  14.382  69.082  1.00  0.00    -0.316 A  
HETATM   29  C   UNL     1     -12.323  15.861  71.057  1.00  0.00    -0.356 A  
HETATM   30  C   UNL     1     -12.414  14.616  71.896  1.00  0.00    -0.412 A  
HETATM   31  C   UNL     1     -12.211  13.396  71.357  1.00  0.00    -0.071 A  
HETATM   32  C   UNL     1     -12.279  15.601  69.580  1.00  0.00    -0.231 A  
BRANCH  29  33
HETATM   33  N   UNL     1     -12.242  17.077  71.534  1.00  0.00     1.578 NA 
BRANCH  33  34
HETATM   34  C   UNL     1     -13.003  17.574  72.746  1.00  0.00     5.029 C  
HETATM   35  C   UNL     1     -13.073  19.086  72.807  1.00  0.00    18.246 C  
ENDBRANCH  33  34
BRANCH  33  36
HETATM   36  C   UNL     1     -11.216  18.070  71.016  1.00  0.00     3.218 C  
HETATM   37  C   UNL     1     -11.406  19.422  71.687  1.00  0.00     7.016 C  
ENDBRANCH  33  36
ENDBRANCH  29  33
ENDBRANCH  10  27
ENDBRANCH   9  10
ENDBRANCH   3   4
BRANCH   3  38
HETATM   38  C   UNL     1     -10.031  11.603  62.877  1.00  0.00    -0.153 C  
HETATM   39  C   UNL     1      -8.929  11.108  63.807  1.00  0.00    -0.010 C  
ENDBRANCH   3  38
ENDBRANCH   2   3
TORSDOF 9
ENDMDL
MODEL       87
REMARK 921   NORMALIZED FREE ENERGY PREDICTED BY IDOCK:   36.56 KCAL/MOL
REMARK 922        TOTAL FREE ENERGY PREDICTED BY IDOCK:   53.49 KCAL/MOL
REMARK 923 INTER-LIGAND FREE ENERGY PREDICTED BY IDOCK:   53.82 KCAL/MOL
REMARK 924 INTRA-LIGAND FREE ENERGY PREDICTED BY IDOCK:   -0.33 KCAL/MOL
REMARK 927      BINDING AFFINITY PREDICTED BY RF-SCORE:    0.00 PKD
ROOT
HETATM    1  C   UNL     1     -13.554   5.910  71.074  1.00  0.00     3.082 C  
HETATM    2  C   UNL     1     -14.014   7.364  71.143  1.00  0.00    -0.138 C  
ENDROOT
BRANCH   2   3
HETATM    3  N   UNL     1     -13.188   8.215  72.020  1.00  0.00    -0.308 NA 
BRANCH   3   4
HETATM    4  C   UNL     1     -12.429   9.239  71.436  1.00  0.00    -0.341 A  
HETATM    5  C   UNL     1     -11.180   9.008  70.842  1.00  0.00    -0.348 A  
HETATM    6  C   UNL     1     -12.903  10.559  71.367  1.00  0.00    -0.551 A  
HETATM    7  C   UNL     1     -10.484  10.014  70.141  1.00  0.00    -0.338 A  
HETATM    8  C   UNL     1     -12.213  11.574  70.666  1.00  0.00    -0.473 A  
HETATM    9  C   UNL     1     -11.011  11.307  70.010  1.00  0.00    -0.000 A  
BRANCH   9  10
HETATM   10  C   UNL     1     -10.300  12.340  69.171  1.00  0.00     0.110 C  
BRANCH  10  11
HETATM   11  C   UNL     1     -10.318  12.220  67.651  1.00  0.00    -0.214 A  
HETATM   12  H   UNL     1      -8.695   9.020  65.969  1.00  0.00     0.000 HD 
HETATM   13  C   UNL     1     -10.867  13.122  66.711  1.00  0.00    -0.276 A  
HETATM   14  O   UNL     1      -9.070   9.641  65.357  1.00  0.00    -0.183 OA 
HETATM   15  C   UNL     1     -10.772  12.890  65.319  1.00  0.00    -0.318 A  
HETATM   16  S   UNL     1     -11.759  14.613  67.074  1.00  0.00    -0.321 S  
HETATM   17  C   UNL     1      -9.671  11.086  67.109  1.00  0.00    -0.198 A  
HETATM   18  O   UNL     1     -11.853  14.793  68.504  1.00  0.00    -0.329 OA 
HETATM   19  O   UNL     1     -11.194  15.635  66.229  1.00  0.00    -0.197 OA 
HETATM   20  O   UNL     1      -9.000  12.154  62.496  1.00  0.00     0.339 OA 
HETATM   21  C   UNL     1     -10.201  11.725  64.833  1.00  0.00    -0.273 A  
HETATM   22  O   UNL     1     -13.241  14.274  66.499  1.00  0.00     0.467 OA 
HETATM   23  O   UNL     1     -10.099  10.008  62.904  1.00  0.00     0.253 OA 
HETATM   24  O   UNL     1     -11.482  12.109  62.603  1.00  0.00     0.412 OA 
HETATM   25  S   UNL     1     -10.301  11.427  63.094  1.00  0.00    -0.239 S  
HETATM   26  C   UNL     1      -9.653  10.818  65.728  1.00  0.00    -0.208 A  
ENDBRANCH  10  11
BRANCH  10  27
HETATM   27  C   UNL     1      -9.488  13.264  69.783  1.00  0.00     2.025 A  
HETATM   28  C   UNL     1      -9.804  13.749  71.124  1.00  0.00     5.915 A  
HETATM   29  C   UNL     1      -8.000  15.453  71.029  1.00  0.00     2.716 A  
HETATM   30  C   UNL     1      -7.541  14.803  69.753  1.00  0.00     0.025 A  
HETATM   31  C   UNL     1      -8.248  13.803  69.187  1.00  0.00     0.330 A  
HETATM   32  C   UNL     1      -9.104  14.716  71.729  1.00  0.00     5.353 A  
BRANCH  29  33
HETATM   33  N   UNL     1      -7.536  16.583  71.499  1.00  0.00     5.862 NA 
BRANCH  33  34
HETATM   34  C   UNL     1      -7.911  17.170  72.844  1.00  0.00    16.875 C  
HETATM   35  C   UNL     1      -6.899  16.842  73.923  1.00  0.00     9.278 C  
ENDBRANCH  33  34
BRANCH  33  36
HETATM   36  C   UNL     1      -6.414  17.335  70.804  1.00  0.00     1.587 C  
HETATM   37  C   UNL     1      -5.476  16.359  70.110  1.00  0.00    -0.188 C  
ENDBRANCH  33  36
ENDBRANCH  29  33
ENDBRANCH  10  27
ENDBRANCH   9  10
ENDBRANCH   3   4
BRANCH   3  38
HETATM   38  C   UNL     1     -12.780   7.693  73.337  1.00  0.00     2.298 C  
HETATM   39  C   UNL     1     -11.402   8.184  73.768  1.00  0.00     2.335 C  
ENDBRANCH   3  38
ENDBRANCH   2   3
TORSDOF 9
ENDMDL
MODEL       88
REMARK 921   NORMALIZED FREE ENERGY PREDICTED BY IDOCK:   40.15 KCAL/MOL
REMARK 922        TOTAL FREE ENERGY PREDICTED BY IDOCK:   58.97 KCAL/MOL
REMARK 923 INTER-LIGAND FREE ENERGY PREDICTED BY IDOCK:   48.19 KCAL/MOL
REMARK 924 INTRA-LIGAND FREE ENERGY PREDICTED BY IDOCK:   10.78 KCAL/MOL
REMARK 927      BINDING AFFINITY PREDICTED BY RF-SCORE:    0.00 PKD
ROOT
HETATM    1  C   UNL     1      -7.240  18.649  72.993  1.00  0.00     6.607 C  
HETATM    2  C   UNL     1      -7.991  19.887  72.508  1.00  0.00     3.119 C  
ENDROOT
BRANCH   2   3
HETATM    3  N   UNL     1      -8.823  19.657  71.313  1.00  0.00     2.670 NA 
BRANCH   3   4
HETATM    4  C   UNL     1      -8.696  18.434  70.637  1.00  0.00     4.400 A  
HETATM    5  C   UNL     1      -8.820  17.197  71.284  1.00  0.00     8.013 A  
HETATM    6  C   UNL     1      -8.484  18.379  69.250  1.00  0.00     0.220 A  
HETATM    7  C   UNL     1      -8.824  15.977  70.577  1.00  0.00     2.049 A  
HETATM    8  C   UNL     1      -8.487  17.162  68.533  1.00  0.00    -0.262 A  
HETATM    9  C   UNL     1      -8.694  15.944  69.181  1.00  0.00    -0.256 A  
BRANCH   9  10
HETATM   10  C   UNL     1      -8.802  14.637  68.435  1.00  0.00    -0.181 C  
BRANCH  10  11
HETATM   11  C   UNL     1      -9.647  14.559  67.168  1.00  0.00    -0.233 A  
HETATM   12  H   UNL     1     -11.957  17.637  66.222  1.00  0.00     0.000 HD 
HETATM   13  C   UNL     1      -9.720  13.503  66.230  1.00  0.00    -0.277 A  
HETATM   14  O   UNL     1     -11.990  16.914  65.607  1.00  0.00     1.662 OA 
HETATM   15  C   UNL     1     -10.587  13.561  65.115  1.00  0.00    -0.364 A  
HETATM   16  S   UNL     1      -8.770  12.004  66.253  1.00  0.00     0.055 S  
HETATM   17  C   UNL     1     -10.495  15.663  66.917  1.00  0.00    -0.307 A  
HETATM   18  O   UNL     1      -7.882  12.002  67.393  1.00  0.00    -0.144 OA 
HETATM   19  O   UNL     1      -9.708  10.930  66.035  1.00  0.00    -0.206 OA 
HETATM   20  O   UNL     1     -13.650  14.069  63.696  1.00  0.00     1.870 OA 
HETATM   21  C   UNL     1     -11.340  14.696  64.862  1.00  0.00    -0.403 A  
HETATM   22  O   UNL     1      -7.875  12.146  64.904  1.00  0.00     2.250 OA 
HETATM   23  O   UNL     1     -12.527  16.154  63.088  1.00  0.00     1.138 OA 
HETATM   24  O   UNL     1     -11.543  13.927  62.386  1.00  0.00     2.038 OA 
HETATM   25  S   UNL     1     -12.244  14.760  63.345  1.00  0.00     1.404 S  
HETATM   26  C   UNL     1     -11.292  15.752  65.761  1.00  0.00     0.090 A  
ENDBRANCH  10  11
BRANCH  10  27
HETATM   27  C   UNL     1      -8.298  13.492  69.002  1.00  0.00     0.310 A  
HETATM   28  C   UNL     1      -7.130  12.835  68.422  1.00  0.00    -0.102 A  
HETATM   29  C   UNL     1      -7.354  10.891  69.950  1.00  0.00     0.088 A  
HETATM   30  C   UNL     1      -8.410  11.670  70.684  1.00  0.00     5.374 A  
HETATM   31  C   UNL     1      -8.841  12.864  70.224  1.00  0.00     4.862 A  
HETATM   32  C   UNL     1      -6.655  11.669  68.874  1.00  0.00    -0.079 A  
BRANCH  29  33
HETATM   33  N   UNL     1      -7.071   9.631  70.168  1.00  0.00    -0.099 NA 
BRANCH  33  34
HETATM   34  C   UNL     1      -8.093   8.513  70.174  1.00  0.00    -0.111 C  
HETATM   35  C   UNL     1      -8.125   7.764  71.490  1.00  0.00    -0.107 C  
ENDBRANCH  33  34
BRANCH  33  36
HETATM   36  C   UNL     1      -5.637   9.140  70.257  1.00  0.00    -0.031 C  
HETATM   37  C   UNL     1      -5.269   8.358  69.005  1.00  0.00    -0.031 C  
ENDBRANCH  33  36
ENDBRANCH  29  33
ENDBRANCH  10  27
ENDBRANCH   9  10
ENDBRANCH   3   4
BRANCH   3  38
HETATM   38  C   UNL     1      -9.352  20.821  70.580  1.00  0.00     2.182 C  
HETATM   39  C   UNL     1      -9.223  20.677  69.068  1.00  0.00     0.985 C  
ENDBRANCH   3  38
ENDBRANCH   2   3
TORSDOF 9
ENDMDL
MODEL       89
REMARK 921   NORMALIZED FREE ENERGY PREDICTED BY IDOCK:   45.81 KCAL/MOL
REMARK 922        TOTAL FREE ENERGY PREDICTED BY IDOCK:   67.60 KCAL/MOL
REMARK 923 INTER-LIGAND FREE ENERGY PREDICTED BY IDOCK:   57.19 KCAL/MOL
REMARK 924 INTRA-LIGAND FREE ENERGY PREDICTED BY IDOCK:   10.41 KCAL/MOL
REMARK 927      BINDING AFFINITY PREDICTED BY RF-SCORE:    0.00 PKD
ROOT
HETATM    1  C   UNL     1      -7.120  18.598  71.034  1.00  0.00     2.876 C  
HETATM    2  C   UNL     1      -6.413  19.051  69.759  1.00  0.00    -0.172 C  
ENDROOT
BRANCH   2   3
HETATM    3  N   UNL     1      -7.065  18.599  68.516  1.00  0.00    -0.268 NA 
BRANCH   3   4
HETATM    4  C   UNL     1      -7.534  17.279  68.451  1.00  0.00    -0.234 A  
HETATM    5  C   UNL     1      -7.222  16.417  67.390  1.00  0.00    -0.191 A  
HETATM    6  C   UNL     1      -8.312  16.723  69.480  1.00  0.00     0.403 A  
HETATM    7  C   UNL     1      -7.586  15.055  67.397  1.00  0.00    -0.233 A  
HETATM    8  C   UNL     1      -8.682  15.359  69.496  1.00  0.00    -0.210 A  
HETATM    9  C   UNL     1      -8.292  14.495  68.471  1.00  0.00    -0.160 A  
BRANCH   9  10
HETATM   10  C   UNL     1      -8.584  13.016  68.505  1.00  0.00    -0.049 C  
BRANCH  10  11
HETATM   11  C   UNL     1      -8.316  12.165  67.269  1.00  0.00    -0.179 A  
HETATM   12  H   UNL     1      -5.871  13.565  64.482  1.00  0.00     0.000 HD 
HETATM   13  C   UNL     1      -8.826  10.881  66.964  1.00  0.00    -0.140 A  
HETATM   14  O   UNL     1      -6.228  12.704  64.298  1.00  0.00     7.539 OA 
HETATM   15  C   UNL     1      -8.513  10.229  65.749  1.00  0.00    -0.161 A  
HETATM   16  S   UNL     1      -9.869   9.887  68.001  1.00  0.00    -0.151 S  
HETATM   17  C   UNL     1      -7.483  12.744  66.284  1.00  0.00     1.535 A  
HETATM   18  O   UNL     1     -10.139  10.582  69.238  1.00  0.00    -0.213 OA 
HETATM   19  O   UNL     1     -10.941   9.417  67.159  1.00  0.00    -0.154 OA 
HETATM   20  O   UNL     1      -8.263  10.145  62.346  1.00  0.00    -0.131 OA 
HETATM   21  C   UNL     1      -7.628  10.798  64.848  1.00  0.00     0.200 A  
HETATM   22  O   UNL     1      -8.914   8.612  68.324  1.00  0.00    -0.141 OA 
HETATM   23  O   UNL     1      -5.909  10.398  62.959  1.00  0.00    -0.130 OA 
HETATM   24  O   UNL     1      -7.247   8.433  63.835  1.00  0.00    -0.088 OA 
HETATM   25  S   UNL     1      -7.143   9.828  63.453  1.00  0.00    -0.120 S  
HETATM   26  C   UNL     1      -7.107  12.055  65.116  1.00  0.00     3.343 A  
ENDBRANCH  10  11
BRANCH  10  27
HETATM   27  C   UNL     1      -9.263  12.486  69.575  1.00  0.00     1.574 A  
HETATM   28  C   UNL     1      -8.548  12.125  70.797  1.00  0.00     8.035 A  
HETATM   29  C   UNL     1     -10.569  11.067  71.775  1.00  0.00     5.633 A  
HETATM   30  C   UNL     1     -11.348  11.635  70.620  1.00  0.00     0.618 A  
HETATM   31  C   UNL     1     -10.725  12.276  69.608  1.00  0.00     0.350 A  
HETATM   32  C   UNL     1      -9.140  11.520  71.832  1.00  0.00    15.180 A  
BRANCH  29  33
HETATM   33  N   UNL     1     -11.046  10.216  72.647  1.00  0.00     3.461 NA 
BRANCH  33  34
HETATM   34  C   UNL     1     -12.232  10.489  73.551  1.00  0.00     8.831 C  
HETATM   35  C   UNL     1     -13.556  10.199  72.874  1.00  0.00     0.938 C  
ENDBRANCH  33  34
BRANCH  33  36
HETATM   36  C   UNL     1     -10.560   8.778  72.708  1.00  0.00     0.377 C  
HETATM   37  C   UNL     1     -11.717   7.844  73.025  1.00  0.00    -0.075 C  
ENDBRANCH  33  36
ENDBRANCH  29  33
ENDBRANCH  10  27
ENDBRANCH   9  10
ENDBRANCH   3   4
BRANCH   3  38
HETATM   38  C   UNL     1      -6.769  19.308  67.258  1.00  0.00    -0.193 C  
HETATM   39  C   UNL     1      -7.888  19.185  66.231  1.00  0.00    -0.307 C  
ENDBRANCH   3  38
ENDBRANCH   2   3
TORSDOF 9
ENDMDL
MODEL       90
REMARK 921   NORMALIZED FREE ENERGY PREDICTED BY IDOCK:   52.51 KCAL/MOL
REMARK 922        TOTAL FREE ENERGY PREDICTED BY IDOCK:   77.83 KCAL/MOL
REMARK 923 INTER-LIGAND FREE ENERGY PREDICTED BY IDOCK:   75.08 KCAL/MOL
REMARK 924 INTRA-LIGAND FREE ENERGY PREDICTED BY IDOCK:    2.75 KCAL/MOL
REMARK 927      BINDING AFFINITY PREDICTED BY RF-SCORE:    0.00 PKD
ROOT
HETATM    1  C   UNL     1      -5.157  20.690  69.473  1.00  0.00    -0.329 C  
HETATM    2  C   UNL     1      -6.535  20.064  69.272  1.00  0.00    -0.324 C  
ENDROOT
BRANCH   2   3
HETATM    3  N   UNL     1      -6.747  19.494  67.928  1.00  0.00    -0.232 NA 
BRANCH   3   4
HETATM    4  C   UNL     1      -7.081  18.136  67.823  1.00  0.00    -0.212 A  
HETATM    5  C   UNL     1      -6.114  17.126  67.726  1.00  0.00    -0.147 A  
HETATM    6  C   UNL     1      -8.416  17.702  67.860  1.00  0.00    -0.233 A  
HETATM    7  C   UNL     1      -6.453  15.757  67.756  1.00  0.00    -0.176 A  
HETATM    8  C   UNL     1      -8.765  16.333  67.890  1.00  0.00    -0.175 A  
HETATM    9  C   UNL     1      -7.786  15.339  67.876  1.00  0.00    -0.147 A  
BRANCH   9  10
HETATM   10  C   UNL     1      -8.118  13.874  68.007  1.00  0.00    -0.154 C  
BRANCH  10  11
HETATM   11  C   UNL     1      -8.057  12.973  66.777  1.00  0.00     0.172 A  
HETATM   12  H   UNL     1      -6.735   9.261  67.194  1.00  0.00     0.000 HD 
HETATM   13  C   UNL     1      -8.434  13.281  65.450  1.00  0.00     2.578 A  
HETATM   14  O   UNL     1      -6.994   9.492  66.309  1.00  0.00    -0.088 OA 
HETATM   15  C   UNL     1      -8.282  12.346  64.400  1.00  0.00     3.410 A  
HETATM   16  S   UNL     1      -9.157  14.801  64.883  1.00  0.00     3.054 S  
HETATM   17  C   UNL     1      -7.521  11.681  66.979  1.00  0.00    -0.150 A  
HETATM   18  O   UNL     1      -9.317  15.712  65.992  1.00  0.00    -0.318 OA 
HETATM   19  O   UNL     1      -8.421  15.181  63.704  1.00  0.00    11.308 OA 
HETATM   20  O   UNL     1      -6.442  10.110  62.593  1.00  0.00    -0.117 OA 
HETATM   21  C   UNL     1      -7.828  11.062  64.656  1.00  0.00     0.490 A  
HETATM   22  O   UNL     1     -10.631  14.316  64.398  1.00  0.00    -0.311 OA 
HETATM   23  O   UNL     1      -7.817   8.585  63.919  1.00  0.00    -0.134 OA 
HETATM   24  O   UNL     1      -8.913  10.306  62.417  1.00  0.00    -0.208 OA 
HETATM   25  S   UNL     1      -7.856   9.902  63.324  1.00  0.00    -0.152 S  
HETATM   26  C   UNL     1      -7.451  10.725  65.948  1.00  0.00    -0.099 A  
ENDBRANCH  10  11
BRANCH  10  27
HETATM   27  C   UNL     1      -8.654  13.405  69.181  1.00  0.00     0.563 A  
HETATM   28  C   UNL     1      -9.538  12.242  69.175  1.00  0.00     0.483 A  
HETATM   29  C   UNL     1     -10.086  12.534  71.579  1.00  0.00    11.208 A  
HETATM   30  C   UNL     1      -9.011  13.585  71.631  1.00  0.00    12.240 A  
HETATM   31  C   UNL     1      -8.370  13.982  70.511  1.00  0.00     3.031 A  
HETATM   32  C   UNL     1     -10.163  11.800  70.272  1.00  0.00     2.314 A  
BRANCH  29  33
HETATM   33  N   UNL     1     -10.929  12.283  72.548  1.00  0.00     9.157 NA 
BRANCH  33  34
HETATM   34  C   UNL     1     -10.831  12.869  73.942  1.00  0.00    14.089 C  
HETATM   35  C   UNL     1     -11.762  14.048  74.142  1.00  0.00     2.660 C  
ENDBRANCH  33  34
BRANCH  33  36
HETATM   36  C   UNL     1     -12.214  11.509  72.308  1.00  0.00     1.807 C  
HETATM   37  C   UNL     1     -11.926  10.017  72.247  1.00  0.00     0.632 C  
ENDBRANCH  33  36
ENDBRANCH  29  33
ENDBRANCH  10  27
ENDBRANCH   9  10
ENDBRANCH   3   4
BRANCH   3  38
HETATM   38  C   UNL     1      -6.135  20.165  66.767  1.00  0.00    -0.175 C  
HETATM   39  C   UNL     1      -6.008  19.251  65.553  1.00  0.00    -0.232 C  
ENDBRANCH   3  38
ENDBRANCH   2   3
TORSDOF 9
ENDMDL
MODEL       91
REMARK 921   NORMALIZED FREE ENERGY PREDICTED BY IDOCK:   58.89 KCAL/MOL
REMARK 922        TOTAL FREE ENERGY PREDICTED BY IDOCK:   87.56 KCAL/MOL
REMARK 923 INTER-LIGAND FREE ENERGY PREDICTED BY IDOCK:   81.44 KCAL/MOL
REMARK 924 INTRA-LIGAND FREE ENERGY PREDICTED BY IDOCK:    6.12 KCAL/MOL
REMARK 927      BINDING AFFINITY PREDICTED BY RF-SCORE:    0.00 PKD
ROOT
HETATM    1  C   UNL     1     -10.508   4.804  72.187  1.00  0.00    -0.243 C  
HETATM    2  C   UNL     1      -9.538   4.604  71.024  1.00  0.00    -0.176 C  
ENDROOT
BRANCH   2   3
HETATM    3  N   UNL     1      -8.438   5.585  70.983  1.00  0.00    -0.123 NA 
BRANCH   3   4
HETATM    4  C   UNL     1      -8.730   6.899  70.588  1.00  0.00    -0.149 A  
HETATM    5  C   UNL     1     -10.042   7.374  70.455  1.00  0.00    -0.193 A  
HETATM    6  C   UNL     1      -7.713   7.838  70.348  1.00  0.00    -0.088 A  
HETATM    7  C   UNL     1     -10.327   8.728  70.187  1.00  0.00    -0.225 A  
HETATM    8  C   UNL     1      -7.989   9.198  70.080  1.00  0.00    -0.124 A  
HETATM    9  C   UNL     1      -9.301   9.671  70.032  1.00  0.00    -0.276 A  
BRANCH   9  10
HETATM   10  C   UNL     1      -9.627  11.132  69.847  1.00  0.00     1.004 C  
BRANCH  10  11
HETATM   11  C   UNL     1      -9.018  11.900  68.679  1.00  0.00    -0.044 A  
HETATM   12  H   UNL     1      -8.393  15.794  69.070  1.00  0.00     0.000 HD 
HETATM   13  C   UNL     1      -8.610  11.397  67.421  1.00  0.00    -0.142 A  
HETATM   14  O   UNL     1      -8.128  15.433  68.232  1.00  0.00    -0.132 OA 
HETATM   15  C   UNL     1      -8.092  12.246  66.416  1.00  0.00     0.275 A  
HETATM   16  S   UNL     1      -8.639   9.699  66.904  1.00  0.00    -0.128 S  
HETATM   17  C   UNL     1      -8.875  13.295  68.857  1.00  0.00     0.281 A  
HETATM   18  O   UNL     1      -9.149   8.869  67.970  1.00  0.00    -0.139 OA 
HETATM   19  O   UNL     1      -9.242   9.688  65.595  1.00  0.00    -0.181 OA 
HETATM   20  O   UNL     1      -8.238  15.031  64.447  1.00  0.00     7.045 OA 
HETATM   21  C   UNL     1      -7.894  13.595  66.663  1.00  0.00     0.765 A  
HETATM   22  O   UNL     1      -7.058   9.375  66.710  1.00  0.00    -0.081 OA 
HETATM   23  O   UNL     1      -6.554  15.726  66.077  1.00  0.00     1.437 OA 
HETATM   24  O   UNL     1      -6.197  13.635  64.692  1.00  0.00    14.096 OA 
HETATM   25  S   UNL     1      -7.061  14.541  65.424  1.00  0.00    11.196 S  
HETATM   26  C   UNL     1      -8.280  14.122  67.886  1.00  0.00    -0.155 A  
ENDBRANCH  10  11
BRANCH  10  27
HETATM   27  C   UNL     1     -10.312  11.801  70.832  1.00  0.00     4.674 A  
HETATM   28  C   UNL     1     -11.616  12.396  70.550  1.00  0.00     0.239 A  
HETATM   29  C   UNL     1     -11.690  13.506  72.769  1.00  0.00     2.802 A  
HETATM   30  C   UNL     1     -10.464  12.716  73.135  1.00  0.00    17.319 A  
HETATM   31  C   UNL     1      -9.835  11.945  72.223  1.00  0.00    17.642 A  
HETATM   32  C   UNL     1     -12.283  13.138  71.441  1.00  0.00     0.036 A  
BRANCH  29  33
HETATM   33  N   UNL     1     -12.200  14.469  73.495  1.00  0.00    -0.201 NA 
BRANCH  33  34
HETATM   34  C   UNL     1     -11.413  15.650  74.026  1.00  0.00     0.814 C  
HETATM   35  C   UNL     1     -12.272  16.885  74.206  1.00  0.00    -0.181 C  
ENDBRANCH  33  34
BRANCH  33  36
HETATM   36  C   UNL     1     -13.696  14.588  73.725  1.00  0.00     2.474 C  
HETATM   37  C   UNL     1     -14.066  16.026  74.056  1.00  0.00     2.416 C  
ENDBRANCH  33  36
ENDBRANCH  29  33
ENDBRANCH  10  27
ENDBRANCH   9  10
ENDBRANCH   3   4
BRANCH   3  38
HETATM   38  C   UNL     1      -7.053   5.096  70.851  1.00  0.00    -0.059 C  
HETATM   39  C   UNL     1      -6.979   3.610  70.521  1.00  0.00    -0.034 C  
ENDBRANCH   3  38
ENDBRANCH   2   3
TORSDOF 9
ENDMDL
MODEL       92
REMARK 921   NORMALIZED FREE ENERGY PREDICTED BY IDOCK:   68.33 KCAL/MOL
REMARK 922        TOTAL FREE ENERGY PREDICTED BY IDOCK:  101.97 KCAL/MOL
REMARK 923 INTER-LIGAND FREE ENERGY PREDICTED BY IDOCK:   97.73 KCAL/MOL
REMARK 924 INTRA-LIGAND FREE ENERGY PREDICTED BY IDOCK:    4.24 KCAL/MOL
REMARK 927      BINDING AFFINITY PREDICTED BY RF-SCORE:    0.00 PKD
ROOT
HETATM    1  C   UNL     1     -10.085  21.375  65.252  1.00  0.00     3.897 C  
HETATM    2  C   UNL     1     -11.408  20.865  64.687  1.00  0.00     2.450 C  
ENDROOT
BRANCH   2   3
HETATM    3  N   UNL     1     -12.113  19.917  65.570  1.00  0.00     2.604 NA 
BRANCH   3   4
HETATM    4  C   UNL     1     -11.460  18.730  65.933  1.00  0.00     1.605 A  
HETATM    5  C   UNL     1     -10.641  18.636  67.067  1.00  0.00    -0.448 A  
HETATM    6  C   UNL     1     -11.630  17.543  65.202  1.00  0.00     1.805 A  
HETATM    7  C   UNL     1     -10.095  17.409  67.500  1.00  0.00    -0.322 A  
HETATM    8  C   UNL     1     -11.088  16.310  65.628  1.00  0.00     0.012 A  
HETATM    9  C   UNL     1     -10.343  16.217  66.804  1.00  0.00    -0.291 A  
BRANCH   9  10
HETATM   10  C   UNL     1      -9.834  14.901  67.338  1.00  0.00    -0.221 C  
BRANCH  10  11
HETATM   11  C   UNL     1      -9.768  14.673  68.845  1.00  0.00    -0.196 A  
HETATM   12  H   UNL     1      -9.220  17.794  71.225  1.00  0.00     0.000 HD 
HETATM   13  C   UNL     1      -9.894  13.454  69.550  1.00  0.00     0.992 A  
HETATM   14  O   UNL     1      -9.306  16.962  71.677  1.00  0.00     6.576 OA 
HETATM   15  C   UNL     1      -9.772  13.396  70.958  1.00  0.00     7.405 A  
HETATM   16  S   UNL     1     -10.242  11.860  68.849  1.00  0.00     0.001 S  
HETATM   17  C   UNL     1      -9.511  15.816  69.637  1.00  0.00    -0.204 A  
HETATM   18  O   UNL     1     -10.385  11.974  67.416  1.00  0.00    -0.204 OA 
HETATM   19  O   UNL     1      -9.292  10.948  69.435  1.00  0.00    -0.079 OA 
HETATM   20  O   UNL     1      -8.139  14.081  73.876  1.00  0.00     5.350 OA 
HETATM   21  C   UNL     1      -9.601  14.552  71.701  1.00  0.00     4.739 A  
HETATM   22  O   UNL     1     -11.698  11.518  69.486  1.00  0.00    -0.287 OA 
HETATM   23  O   UNL     1      -9.942  15.731  73.977  1.00  0.00     7.633 OA 
HETATM   24  O   UNL     1     -10.484  13.264  73.780  1.00  0.00     8.836 OA 
HETATM   25  S   UNL     1      -9.655  14.410  73.462  1.00  0.00    10.285 S  
HETATM   26  C   UNL     1      -9.475  15.767  71.042  1.00  0.00     2.402 A  
ENDBRANCH  10  11
BRANCH  10  27
HETATM   27  C   UNL     1      -9.259  14.000  66.477  1.00  0.00    -0.240 A  
HETATM   28  C   UNL     1      -8.259  13.051  66.961  1.00  0.00    -0.071 A  
HETATM   29  C   UNL     1      -7.759  12.265  64.661  1.00  0.00     4.256 A  
HETATM   30  C   UNL     1      -8.938  13.075  64.196  1.00  0.00     2.744 A  
HETATM   31  C   UNL     1      -9.610  13.879  65.047  1.00  0.00     0.317 A  
HETATM   32  C   UNL     1      -7.598  12.217  66.151  1.00  0.00     0.812 A  
BRANCH  29  33
HETATM   33  N   UNL     1      -6.900  11.677  63.867  1.00  0.00     2.342 NA 
BRANCH  33  34
HETATM   34  C   UNL     1      -7.206  11.239  62.449  1.00  0.00     0.261 C  
HETATM   35  C   UNL     1      -7.751   9.826  62.382  1.00  0.00    -0.128 C  
ENDBRANCH  33  34
BRANCH  33  36
HETATM   36  C   UNL     1      -5.434  11.541  64.238  1.00  0.00     1.842 C  
HETATM   37  C   UNL     1      -5.297  11.024  65.662  1.00  0.00    -0.100 C  
ENDBRANCH  33  36
ENDBRANCH  29  33
ENDBRANCH  10  27
ENDBRANCH   9  10
ENDBRANCH   3   4
BRANCH   3  38
HETATM   38  C   UNL     1     -13.585  19.963  65.632  1.00  0.00    14.360 C  
HETATM   39  C   UNL     1     -14.116  20.041  67.059  1.00  0.00     6.989 C  
ENDBRANCH   3  38
ENDBRANCH   2   3
TORSDOF 9
ENDMDL
MODEL       93
REMARK 921   NORMALIZED FREE ENERGY PREDICTED BY IDOCK:   77.30 KCAL/MOL
REMARK 922        TOTAL FREE ENERGY PREDICTED BY IDOCK:  115.65 KCAL/MOL
REMARK 923 INTER-LIGAND FREE ENERGY PREDICTED BY IDOCK:  114.97 KCAL/MOL
REMARK 924 INTRA-LIGAND FREE ENERGY PREDICTED BY IDOCK:    0.68 KCAL/MOL
REMARK 927      BINDING AFFINITY PREDICTED BY RF-SCORE:    0.00 PKD
ROOT
HETATM    1  C   UNL     1     -10.007  16.784  62.955  1.00  0.00    14.892 C  
HETATM    2  C   UNL     1      -8.593  16.319  62.614  1.00  0.00    26.753 C  
ENDROOT
BRANCH   2   3
HETATM    3  N   UNL     1      -7.691  16.231  63.777  1.00  0.00    14.335 NA 
BRANCH   3   4
HETATM    4  C   UNL     1      -8.045  15.378  64.833  1.00  0.00     7.146 A  
HETATM    5  C   UNL     1      -7.130  14.973  65.815  1.00  0.00     5.868 A  
HETATM    6  C   UNL     1      -9.360  14.916  64.996  1.00  0.00     0.995 A  
HETATM    7  C   UNL     1      -7.523  14.226  66.945  1.00  0.00     0.515 A  
HETATM    8  C   UNL     1      -9.764  14.167  66.124  1.00  0.00    -0.310 A  
HETATM    9  C   UNL     1      -8.858  13.842  67.135  1.00  0.00    -0.240 A  
BRANCH   9  10
HETATM   10  C   UNL     1      -9.275  13.130  68.398  1.00  0.00    -0.141 C  
BRANCH  10  11
HETATM   11  C   UNL     1      -8.984  11.642  68.556  1.00  0.00    -0.138 A  
HETATM   12  H   UNL     1      -9.319   9.283  65.389  1.00  0.00     0.000 HD 
HETATM   13  C   UNL     1      -8.580  10.950  69.721  1.00  0.00     0.586 A  
HETATM   14  O   UNL     1      -9.050   8.841  66.185  1.00  0.00    -0.174 OA 
HETATM   15  C   UNL     1      -8.384   9.549  69.722  1.00  0.00    -0.170 A  
HETATM   16  S   UNL     1      -8.231  11.668  71.307  1.00  0.00    10.453 S  
HETATM   17  C   UNL     1      -9.179  10.843  67.405  1.00  0.00    -0.155 A  
HETATM   18  O   UNL     1      -8.419  13.099  71.251  1.00  0.00     8.484 OA 
HETATM   19  O   UNL     1      -8.928  10.860  72.277  1.00  0.00     9.290 OA 
HETATM   20  O   UNL     1      -9.398   6.359  69.053  1.00  0.00    -0.129 OA 
HETATM   21  C   UNL     1      -8.507   8.818  68.552  1.00  0.00    -0.130 A  
HETATM   22  O   UNL     1      -6.643  11.363  71.477  1.00  0.00     1.345 OA 
HETATM   23  O   UNL     1      -7.800   6.708  67.235  1.00  0.00    -0.109 OA 
HETATM   24  O   UNL     1      -7.059   6.955  69.646  1.00  0.00    -0.064 OA 
HETATM   25  S   UNL     1      -8.053   7.111  68.601  1.00  0.00    -0.125 S  
HETATM   26  C   UNL     1      -8.900   9.464  67.389  1.00  0.00    -0.128 A  
ENDBRANCH  10  11
BRANCH  10  27
HETATM   27  C   UNL     1     -10.077  13.778  69.305  1.00  0.00     0.229 A  
HETATM   28  C   UNL     1      -9.562  14.916  70.063  1.00  0.00     0.315 A  
HETATM   29  C   UNL     1     -11.603  15.014  71.473  1.00  0.00    -0.353 A  
HETATM   30  C   UNL     1     -12.214  13.998  70.549  1.00  0.00    -0.435 A  
HETATM   31  C   UNL     1     -11.489  13.430  69.561  1.00  0.00    -0.308 A  
HETATM   32  C   UNL     1     -10.265  15.524  71.025  1.00  0.00     0.690 A  
BRANCH  29  33
HETATM   33  N   UNL     1     -12.137  15.412  72.601  1.00  0.00    -0.395 NA 
BRANCH  33  34
HETATM   34  C   UNL     1     -11.554  15.130  73.971  1.00  0.00     0.359 C  
HETATM   35  C   UNL     1     -11.611  13.660  74.334  1.00  0.00     5.924 C  
ENDBRANCH  33  34
BRANCH  33  36
HETATM   36  C   UNL     1     -13.316  16.368  72.631  1.00  0.00     0.415 C  
HETATM   37  C   UNL     1     -14.409  15.828  73.540  1.00  0.00     1.881 C  
ENDBRANCH  33  36
ENDBRANCH  29  33
ENDBRANCH  10  27
ENDBRANCH   9  10
ENDBRANCH   3   4
BRANCH   3  38
HETATM   38  C   UNL     1      -6.767  17.348  64.047  1.00  0.00     7.564 C  
HETATM   39  C   UNL     1      -7.161  18.159  65.277  1.00  0.00     0.438 C  
ENDBRANCH   3  38
ENDBRANCH   2   3
TORSDOF 9
ENDMDL
MODEL       94
REMARK 921   NORMALIZED FREE ENERGY PREDICTED BY IDOCK:   85.46 KCAL/MOL
REMARK 922        TOTAL FREE ENERGY PREDICTED BY IDOCK:  128.12 KCAL/MOL
REMARK 923 INTER-LIGAND FREE ENERGY PREDICTED BY IDOCK:  116.08 KCAL/MOL
REMARK 924 INTRA-LIGAND FREE ENERGY PREDICTED BY IDOCK:   12.04 KCAL/MOL
REMARK 927      BINDING AFFINITY PREDICTED BY RF-SCORE:    0.00 PKD
ROOT
HETATM    1  C   UNL     1      -8.136   3.489  70.322  1.00  0.00    -0.056 C  
HETATM    2  C   UNL     1      -8.524   2.439  69.284  1.00  0.00    -0.059 C  
ENDROOT
BRANCH   2   3
HETATM    3  N   UNL     1      -9.705   2.797  68.478  1.00  0.00    -0.001 NA 
BRANCH   3   4
HETATM    4  C   UNL     1     -10.057   4.150  68.374  1.00  0.00     0.229 A  
HETATM    5  C   UNL     1     -10.938   4.772  69.271  1.00  0.00     1.511 A  
HETATM    6  C   UNL     1      -9.505   4.981  67.386  1.00  0.00    -0.151 A  
HETATM    7  C   UNL     1     -11.184   6.160  69.241  1.00  0.00    -0.438 A  
HETATM    8  C   UNL     1      -9.745   6.373  67.348  1.00  0.00    -0.141 A  
HETATM    9  C   UNL     1     -10.559   6.990  68.298  1.00  0.00    -0.238 A  
BRANCH   9  10
HETATM   10  C   UNL     1     -10.758   8.485  68.347  1.00  0.00    -0.084 C  
BRANCH  10  11
HETATM   11  C   UNL     1     -10.530   9.234  69.655  1.00  0.00    -0.234 A  
HETATM   12  H   UNL     1      -9.535   7.171  72.889  1.00  0.00     0.000 HD 
HETATM   13  C   UNL     1     -10.612  10.626  69.890  1.00  0.00    -0.151 A  
HETATM   14  O   UNL     1      -9.598   8.109  73.022  1.00  0.00    -0.272 OA 
HETATM   15  C   UNL     1     -10.409  11.174  71.178  1.00  0.00     3.966 A  
HETATM   16  S   UNL     1     -10.936  11.884  68.679  1.00  0.00    -0.243 S  
HETATM   17  C   UNL     1     -10.236   8.437  70.786  1.00  0.00    -0.227 A  
HETATM   18  O   UNL     1     -11.109  11.280  67.378  1.00  0.00    -0.262 OA 
HETATM   19  O   UNL     1     -11.949  12.738  69.247  1.00  0.00    -0.289 OA 
HETATM   20  O   UNL     1     -11.021  11.302  74.534  1.00  0.00    18.674 OA 
HETATM   21  C   UNL     1     -10.044  10.364  72.241  1.00  0.00     6.522 A  
HETATM   22  O   UNL     1      -9.543  12.721  68.677  1.00  0.00    -0.148 OA 
HETATM   23  O   UNL     1      -8.836  10.203  74.521  1.00  0.00     5.964 OA 
HETATM   24  O   UNL     1      -9.122  12.478  73.444  1.00  0.00    18.951 OA 
HETATM   25  S   UNL     1      -9.619  11.154  73.764  1.00  0.00    22.489 S  
HETATM   26  C   UNL     1      -9.952   8.994  72.046  1.00  0.00    -0.154 A  
ENDBRANCH  10  11
BRANCH  10  27
HETATM   27  C   UNL     1     -11.322   9.126  67.272  1.00  0.00     0.992 A  
HETATM   28  C   UNL     1     -11.088   8.637  65.915  1.00  0.00     3.136 A  
HETATM   29  C   UNL     1     -12.220  10.605  64.913  1.00  0.00     3.843 A  
HETATM   30  C   UNL     1     -12.650  10.986  66.303  1.00  0.00     4.601 A  
HETATM   31  C   UNL     1     -12.215  10.298  67.380  1.00  0.00     3.363 A  
HETATM   32  C   UNL     1     -11.533   9.275  64.827  1.00  0.00     8.131 A  
BRANCH  29  33
HETATM   33  N   UNL     1     -12.372  11.360  63.854  1.00  0.00     0.117 NA 
BRANCH  33  34
HETATM   34  C   UNL     1     -13.695  11.943  63.400  1.00  0.00     1.639 C  
HETATM   35  C   UNL     1     -13.520  13.076  62.410  1.00  0.00     4.282 C  
ENDBRANCH  33  34
BRANCH  33  36
HETATM   36  C   UNL     1     -11.181  11.881  63.068  1.00  0.00     0.026 C  
HETATM   37  C   UNL     1     -10.279  10.730  62.652  1.00  0.00     0.187 C  
ENDBRANCH  33  36
ENDBRANCH  29  33
ENDBRANCH  10  27
ENDBRANCH   9  10
ENDBRANCH   3   4
BRANCH   3  38
HETATM   38  C   UNL     1     -10.740   1.774  68.240  1.00  0.00     3.801 C  
HETATM   39  C   UNL     1     -11.160   1.685  66.777  1.00  0.00     6.801 C  
ENDBRANCH   3  38
ENDBRANCH   2   3
TORSDOF 9
ENDMDL
